MODEL 1
REMARK VINA RESULT:     -13.6      0.000      0.000
REMARK SMILES CC1=C([C@H](NC(=O)[C@@H]2[C@H](C)c3cc(F)ccc3N2C)C(=O)OCCOC(=O)c2ccc(-c3c4nc(c(-c5c(F)cc(S(=O)(=O)[O-])cc5F)c5ccc([nH]5)c(-c5c(F)cc(S(=O)(=O)[O-])cc5F)c5nc(c(-c6c(F)cc(S(=O)(=O)[O-])cc6F)c6ccc3[nH]6)C=C5)C=C4)cc2)[C@@H](C)N=N1
REMARK SMILES IDX 24 1 23 2 22 3 20 4 21 5 4 6 3 7 1 8 2 9 97 10 94 11 96 12
REMARK SMILES IDX 95 13 5 14 6 15 7 17 8 18 9 19 18 20 11 21 10 22 17 23 19 24
REMARK SMILES IDX 12 25 16 26 13 27 15 28 14 29 25 30 26 31 27 32 28 33 29 34
REMARK SMILES IDX 93 35 30 36 92 37 31 38 32 39 33 40 86 41 34 42 91 43 85 44
REMARK SMILES IDX 87 45 35 46 90 47 84 48 83 49 36 51 70 52 49 53 69 54 50 55
REMARK SMILES IDX 53 56 68 57 88 58 51 59 52 60 67 62 89 63 54 64 37 65 38 66
REMARK SMILES IDX 47 67 39 68 40 69 46 70 48 71 41 72 42 73 43 74 44 75 45 76
REMARK SMILES IDX 71 77 72 78 81 79 73 80 74 81 80 82 82 83 75 84 76 85 77 86
REMARK SMILES IDX 78 87 79 88 55 89 56 90 65 91 57 92 58 93 64 94 66 95 59 96
REMARK SMILES IDX 60 97 61 98 62 99 63 100
REMARK H PARENT 5 16 87 50 53 61
REMARK Flexibility Score: inf
ROOT
ATOM      1  C   UNL A   1      38.898  21.394  25.557  1.00  0.00     0.275 C 
ENDROOT
BRANCH   1   2
ATOM      2  C   UNL A   1      37.462  21.959  25.553  1.00  0.00     0.274 C 
BRANCH   2   3
ATOM      3  O   UNL A   1      36.659  21.433  24.461  1.00  0.00    -0.460 OA
BRANCH   3   4
ATOM      4  C   UNL A   1      36.029  22.365  23.718  1.00  0.00     0.333 C 
ATOM      5  O   UNL A   1      36.633  22.931  22.817  1.00  0.00    -0.249 OA
BRANCH   4   6
ATOM      6  C   UNL A   1      34.492  22.644  24.063  1.00  0.00     0.223 C 
BRANCH   6   7
ATOM      7  C   UNL A   1      33.770  21.350  24.409  1.00  0.00     0.012 C 
ATOM      8  C   UNL A   1      32.004  20.796  22.620  1.00  0.00     0.069 C 
ATOM      9  C   UNL A   1      32.812  20.590  23.850  1.00  0.00     0.064 C 
ATOM     10  N   UNL A   1      32.438  19.530  24.645  1.00  0.00    -0.160 NA
ATOM     11  C   UNL A   1      33.793  20.846  25.809  1.00  0.00     0.156 C 
ATOM     12  N   UNL A   1      33.021  19.593  25.756  1.00  0.00    -0.181 NA
ATOM     13  C   UNL A   1      32.989  21.864  26.564  1.00  0.00     0.040 C 
ENDBRANCH   6   7
BRANCH   6  14
ATOM     14  N   UNL A   1      33.596  23.373  23.172  1.00  0.00    -0.337 N 
ATOM     15  C   UNL A   1      32.732  24.388  23.504  1.00  0.00     0.244 C 
ATOM     16  H   UNL A   1      33.611  23.106  22.224  1.00  0.00     0.164 HD
ATOM     17  O   UNL A   1      31.640  24.401  22.936  1.00  0.00    -0.273 OA
BRANCH  15  18
ATOM     18  C   UNL A   1      33.258  25.526  24.389  1.00  0.00     0.178 C 
ATOM     19  C   UNL A   1      32.614  25.755  25.789  1.00  0.00     0.050 C 
ATOM     20  N   UNL A   1      33.142  26.810  23.650  1.00  0.00    -0.362 N 
ATOM     21  C   UNL A   1      32.353  27.237  25.770  1.00  0.00    -0.016 A 
ATOM     22  C   UNL A   1      31.445  24.877  26.188  1.00  0.00     0.015 C 
ATOM     23  C   UNL A   1      32.710  27.775  24.530  1.00  0.00     0.041 A 
ATOM     24  C   UNL A   1      33.662  27.079  22.331  1.00  0.00     0.144 C 
ATOM     25  C   UNL A   1      31.935  28.046  26.814  1.00  0.00     0.045 A 
ATOM     26  C   UNL A   1      32.632  29.140  24.308  1.00  0.00     0.029 A 
ATOM     27  C   UNL A   1      31.870  29.415  26.586  1.00  0.00     0.123 A 
ATOM     28  C   UNL A   1      32.211  29.968  25.349  1.00  0.00     0.041 A 
ATOM     29  F   UNL A   1      31.490  30.230  27.579  1.00  0.00    -0.207 F 
ENDBRANCH  15  18
ENDBRANCH   6  14
ENDBRANCH   4   6
ENDBRANCH   3   4
ENDBRANCH   2   3
ENDBRANCH   1   2
BRANCH   1  30
ATOM     30  O   UNL A   1      39.577  21.746  26.779  1.00  0.00    -0.458 OA
BRANCH  30  31
ATOM     31  C   UNL A   1      40.666  22.546  26.709  1.00  0.00     0.338 C 
ATOM     32  O   UNL A   1      41.576  22.477  25.895  1.00  0.00    -0.246 OA
BRANCH  31  33
ATOM     33  C   UNL A   1      40.405  23.740  27.539  1.00  0.00     0.060 A 
ATOM     34  C   UNL A   1      39.236  24.492  27.372  1.00  0.00     0.016 A 
ATOM     35  C   UNL A   1      41.481  24.253  28.268  1.00  0.00     0.016 A 
ATOM     36  C   UNL A   1      39.224  25.834  27.747  1.00  0.00     0.010 A 
ATOM     37  C   UNL A   1      41.456  25.591  28.644  1.00  0.00     0.010 A 
ATOM     38  C   UNL A   1      40.373  26.420  28.289  1.00  0.00    -0.014 A 
BRANCH  38  39
ATOM     39  C   UNL A   1      40.334  27.786  28.838  1.00  0.00     0.031 A 
ATOM     40  C   UNL A   1      41.418  28.540  28.195  1.00  0.00     0.074 A 
ATOM     41  C   UNL A   1      39.596  28.408  29.790  1.00  0.00     0.049 A 
ATOM     42  N   UNL A   1      42.607  28.556  28.697  1.00  0.00    -0.248 NA
ATOM     43  C   UNL A   1      41.334  28.998  26.808  1.00  0.00     0.031 C 
ATOM     44  C   UNL A   1      38.590  27.913  30.718  1.00  0.00     0.029 A 
ATOM     45  N   UNL A   1      39.573  29.751  30.082  1.00  0.00    -0.354 N 
ATOM     46  C   UNL A   1      43.359  29.290  27.812  1.00  0.00     0.074 A 
ATOM     47  C   UNL A   1      42.623  29.265  26.576  1.00  0.00     0.031 C 
ATOM     48  C   UNL A   1      37.816  28.912  31.192  1.00  0.00     0.029 A 
ATOM     49  C   UNL A   1      38.471  30.159  30.840  1.00  0.00     0.049 A 
ATOM     50  H   UNL A   1      40.273  30.374  29.783  1.00  0.00     0.167 HD
ATOM     51  C   UNL A   1      44.318  30.116  28.306  1.00  0.00     0.037 A 
ATOM     52  C   UNL A   1      38.283  31.267  31.602  1.00  0.00     0.037 A 
ATOM     53  C   UNL A   1      44.648  29.756  29.678  1.00  0.00     0.049 A 
ATOM     54  C   UNL A   1      39.633  31.717  32.013  1.00  0.00     0.074 A 
ATOM     55  C   UNL A   1      45.078  28.595  30.298  1.00  0.00     0.029 A 
ATOM     56  N   UNL A   1      44.133  30.540  30.688  1.00  0.00    -0.354 N 
ATOM     57  N   UNL A   1      40.371  31.056  32.866  1.00  0.00    -0.248 NA
ATOM     58  C   UNL A   1      40.357  32.584  31.099  1.00  0.00     0.031 C 
ATOM     59  C   UNL A   1      44.400  28.555  31.554  1.00  0.00     0.029 A 
ATOM     60  C   UNL A   1      43.651  29.725  31.684  1.00  0.00     0.049 A 
ATOM     61  H   UNL A   1      44.115  31.525  30.696  1.00  0.00     0.167 HD
ATOM     62  C   UNL A   1      41.642  31.064  32.308  1.00  0.00     0.074 A 
ATOM     63  C   UNL A   1      41.587  32.089  31.265  1.00  0.00     0.031 C 
ATOM     64  C   UNL A   1      42.543  30.067  32.560  1.00  0.00     0.037 A 
BRANCH  51  65
ATOM     65  C   UNL A   1      44.595  31.479  27.718  1.00  0.00     0.058 A 
ATOM     66  C   UNL A   1      45.732  31.636  26.904  1.00  0.00     0.135 A 
ATOM     67  C   UNL A   1      43.968  32.683  28.120  1.00  0.00     0.135 A 
ATOM     68  F   UNL A   1      46.400  30.566  26.446  1.00  0.00    -0.206 F 
ATOM     69  C   UNL A   1      46.268  32.887  26.608  1.00  0.00     0.059 A 
ATOM     70  C   UNL A   1      44.456  33.937  27.797  1.00  0.00     0.059 A 
ATOM     71  F   UNL A   1      42.902  32.731  28.922  1.00  0.00    -0.206 F 
ATOM     72  C   UNL A   1      45.631  34.031  27.079  1.00  0.00     0.060 A 
BRANCH  72  73
ATOM     73  S   UNL A   1      46.375  35.641  26.806  1.00  0.00     0.124 S 
ATOM     74  O   UNL A   1      45.193  36.473  26.615  1.00  0.00    -0.237 OA
ATOM     75  O   UNL A   1      47.111  35.841  28.049  1.00  0.00    -0.237 OA
ATOM     76  O   UNL A   1      47.200  35.433  25.619  1.00  0.00    -0.744 OA
ENDBRANCH  72  73
ENDBRANCH  51  65
BRANCH  52  77
ATOM     77  C   UNL A   1      37.047  32.094  31.623  1.00  0.00     0.058 A 
ATOM     78  C   UNL A   1      36.363  32.365  32.821  1.00  0.00     0.135 A 
ATOM     79  C   UNL A   1      36.608  32.805  30.487  1.00  0.00     0.135 A 
ATOM     80  F   UNL A   1      36.700  31.720  33.949  1.00  0.00    -0.206 F 
ATOM     81  C   UNL A   1      35.358  33.337  32.907  1.00  0.00     0.059 A 
ATOM     82  C   UNL A   1      35.607  33.779  30.546  1.00  0.00     0.059 A 
ATOM     83  F   UNL A   1      37.191  32.624  29.292  1.00  0.00    -0.206 F 
ATOM     84  C   UNL A   1      35.009  34.062  31.768  1.00  0.00     0.060 A 
BRANCH  84  85
ATOM     85  S   UNL A   1      33.855  35.451  31.918  1.00  0.00     0.124 S 
ATOM     86  O   UNL A   1      34.592  36.369  32.780  1.00  0.00    -0.237 OA
ATOM     87  O   UNL A   1      33.698  35.869  30.530  1.00  0.00    -0.237 OA
ATOM     88  O   UNL A   1      32.670  34.846  32.521  1.00  0.00    -0.744 OA
ENDBRANCH  84  85
ENDBRANCH  52  77
BRANCH  64  89
ATOM     89  C   UNL A   1      42.281  29.125  33.717  1.00  0.00     0.058 A 
ATOM     90  C   UNL A   1      41.510  27.952  33.640  1.00  0.00     0.135 A 
ATOM     91  C   UNL A   1      42.986  29.332  34.911  1.00  0.00     0.135 A 
ATOM     92  F   UNL A   1      40.869  27.629  32.513  1.00  0.00    -0.206 F 
ATOM     93  C   UNL A   1      41.432  27.037  34.694  1.00  0.00     0.059 A 
ATOM     94  C   UNL A   1      42.944  28.423  35.970  1.00  0.00     0.059 A 
ATOM     95  F   UNL A   1      43.780  30.406  35.042  1.00  0.00    -0.206 F 
ATOM     96  C   UNL A   1      42.162  27.277  35.855  1.00  0.00     0.060 A 
BRANCH  96  97
ATOM     97  S   UNL A   1      42.137  26.047  37.179  1.00  0.00     0.124 S 
ATOM     98  O   UNL A   1      43.090  26.600  38.134  1.00  0.00    -0.237 OA
ATOM     99  O   UNL A   1      40.739  26.062  37.599  1.00  0.00    -0.237 OA
ATOM    100  O   UNL A   1      42.564  24.819  36.513  1.00  0.00    -0.744 OA
ENDBRANCH  96  97
ENDBRANCH  64  89
ENDBRANCH  38  39
ENDBRANCH  31  33
ENDBRANCH  30  31
ENDBRANCH   1  30
TORSDOF 17
ENDMDL
MODEL 2
REMARK VINA RESULT:     -13.4      3.117      9.738
REMARK SMILES CC1=C([C@H](NC(=O)[C@@H]2[C@H](C)c3cc(F)ccc3N2C)C(=O)OCCOC(=O)c2ccc(-c3c4nc(c(-c5c(F)cc(S(=O)(=O)[O-])cc5F)c5ccc([nH]5)c(-c5c(F)cc(S(=O)(=O)[O-])cc5F)c5nc(c(-c6c(F)cc(S(=O)(=O)[O-])cc6F)c6ccc3[nH]6)C=C5)C=C4)cc2)[C@@H](C)N=N1
REMARK SMILES IDX 24 1 23 2 22 3 20 4 21 5 4 6 3 7 1 8 2 9 97 10 94 11 96 12
REMARK SMILES IDX 95 13 5 14 6 15 7 17 8 18 9 19 18 20 11 21 10 22 17 23 19 24
REMARK SMILES IDX 12 25 16 26 13 27 15 28 14 29 25 30 26 31 27 32 28 33 29 34
REMARK SMILES IDX 93 35 30 36 92 37 31 38 32 39 33 40 86 41 34 42 91 43 85 44
REMARK SMILES IDX 87 45 35 46 90 47 84 48 83 49 36 51 70 52 49 53 69 54 50 55
REMARK SMILES IDX 53 56 68 57 88 58 51 59 52 60 67 62 89 63 54 64 37 65 38 66
REMARK SMILES IDX 47 67 39 68 40 69 46 70 48 71 41 72 42 73 43 74 44 75 45 76
REMARK SMILES IDX 71 77 72 78 81 79 73 80 74 81 80 82 82 83 75 84 76 85 77 86
REMARK SMILES IDX 78 87 79 88 55 89 56 90 65 91 57 92 58 93 64 94 66 95 59 96
REMARK SMILES IDX 60 97 61 98 62 99 63 100
REMARK H PARENT 5 16 87 50 53 61
REMARK Flexibility Score: inf
ROOT
ATOM      1  C   UNL A   1      32.796  31.577  27.263  1.00  0.00     0.275 C 
ENDROOT
BRANCH   1   2
ATOM      2  C   UNL A   1      31.979  30.535  26.471  1.00  0.00     0.274 C 
BRANCH   2   3
ATOM      3  O   UNL A   1      32.564  29.205  26.531  1.00  0.00    -0.460 OA
BRANCH   3   4
ATOM      4  C   UNL A   1      31.673  28.195  26.598  1.00  0.00     0.333 C 
ATOM      5  O   UNL A   1      30.991  28.053  27.604  1.00  0.00    -0.249 OA
BRANCH   4   6
ATOM      6  C   UNL A   1      31.555  27.252  25.310  1.00  0.00     0.223 C 
BRANCH   6   7
ATOM      7  C   UNL A   1      30.807  27.958  24.188  1.00  0.00     0.012 C 
ATOM      8  C   UNL A   1      28.599  26.740  23.670  1.00  0.00     0.069 C 
ATOM      9  C   UNL A   1      29.638  27.795  23.544  1.00  0.00     0.064 C 
ATOM     10  N   UNL A   1      29.471  28.683  22.505  1.00  0.00    -0.160 NA
ATOM     11  C   UNL A   1      31.543  28.871  23.273  1.00  0.00     0.156 C 
ATOM     12  N   UNL A   1      30.511  29.370  22.349  1.00  0.00    -0.181 NA
ATOM     13  C   UNL A   1      32.454  27.952  22.513  1.00  0.00     0.040 C 
ENDBRANCH   6   7
BRANCH   6  14
ATOM     14  N   UNL A   1      31.011  25.899  25.361  1.00  0.00    -0.337 N 
ATOM     15  C   UNL A   1      31.604  24.743  24.917  1.00  0.00     0.244 C 
ATOM     16  H   UNL A   1      30.114  25.805  25.760  1.00  0.00     0.164 HD
ATOM     17  O   UNL A   1      30.873  23.912  24.377  1.00  0.00    -0.273 OA
BRANCH  15  18
ATOM     18  C   UNL A   1      33.067  24.486  25.299  1.00  0.00     0.178 C 
ATOM     19  C   UNL A   1      34.147  24.450  24.177  1.00  0.00     0.050 C 
ATOM     20  N   UNL A   1      33.160  23.193  26.025  1.00  0.00    -0.362 N 
ATOM     21  C   UNL A   1      34.887  23.180  24.502  1.00  0.00    -0.016 A 
ATOM     22  C   UNL A   1      33.689  24.605  22.741  1.00  0.00     0.015 C 
ATOM     23  C   UNL A   1      34.286  22.535  25.588  1.00  0.00     0.041 A 
ATOM     24  C   UNL A   1      32.389  22.815  27.185  1.00  0.00     0.144 C 
ATOM     25  C   UNL A   1      36.060  22.705  23.940  1.00  0.00     0.045 A 
ATOM     26  C   UNL A   1      34.845  21.383  26.118  1.00  0.00     0.029 A 
ATOM     27  C   UNL A   1      36.620  21.555  24.485  1.00  0.00     0.123 A 
ATOM     28  C   UNL A   1      36.026  20.892  25.562  1.00  0.00     0.041 A 
ATOM     29  F   UNL A   1      37.765  21.078  23.979  1.00  0.00    -0.207 F 
ENDBRANCH  15  18
ENDBRANCH   6  14
ENDBRANCH   4   6
ENDBRANCH   3   4
ENDBRANCH   2   3
ENDBRANCH   1   2
BRANCH   1  30
ATOM     30  O   UNL A   1      34.195  31.229  27.264  1.00  0.00    -0.458 OA
BRANCH  30  31
ATOM     31  C   UNL A   1      35.071  32.064  27.870  1.00  0.00     0.338 C 
ATOM     32  O   UNL A   1      34.878  33.233  28.178  1.00  0.00    -0.246 OA
BRANCH  31  33
ATOM     33  C   UNL A   1      36.163  31.244  28.432  1.00  0.00     0.060 A 
ATOM     34  C   UNL A   1      37.297  31.842  28.994  1.00  0.00     0.016 A 
ATOM     35  C   UNL A   1      36.161  29.883  28.116  1.00  0.00     0.016 A 
ATOM     36  C   UNL A   1      38.496  31.133  29.040  1.00  0.00     0.010 A 
ATOM     37  C   UNL A   1      37.361  29.183  28.172  1.00  0.00     0.010 A 
ATOM     38  C   UNL A   1      38.559  29.832  28.530  1.00  0.00    -0.014 A 
BRANCH  38  39
ATOM     39  C   UNL A   1      39.767  29.010  28.712  1.00  0.00     0.031 A 
ATOM     40  C   UNL A   1      39.951  28.827  30.158  1.00  0.00     0.074 A 
ATOM     41  C   UNL A   1      40.701  28.491  27.875  1.00  0.00     0.049 A 
ATOM     42  N   UNL A   1      40.630  29.675  30.855  1.00  0.00    -0.248 NA
ATOM     43  C   UNL A   1      39.109  27.925  30.943  1.00  0.00     0.031 C 
ATOM     44  C   UNL A   1      40.908  28.634  26.442  1.00  0.00     0.029 A 
ATOM     45  N   UNL A   1      41.698  27.600  28.189  1.00  0.00    -0.354 N 
ATOM     46  C   UNL A   1      40.535  29.230  32.151  1.00  0.00     0.074 A 
ATOM     47  C   UNL A   1      39.381  28.370  32.174  1.00  0.00     0.031 C 
ATOM     48  C   UNL A   1      41.675  27.639  25.950  1.00  0.00     0.029 A 
ATOM     49  C   UNL A   1      42.271  26.961  27.086  1.00  0.00     0.049 A 
ATOM     50  H   UNL A   1      41.986  27.426  29.115  1.00  0.00     0.167 HD
ATOM     51  C   UNL A   1      41.621  29.349  32.959  1.00  0.00     0.037 A 
ATOM     52  C   UNL A   1      43.463  26.325  26.953  1.00  0.00     0.037 A 
ATOM     53  C   UNL A   1      42.565  30.313  32.409  1.00  0.00     0.049 A 
ATOM     54  C   UNL A   1      44.358  26.910  27.977  1.00  0.00     0.074 A 
ATOM     55  C   UNL A   1      42.480  31.642  32.029  1.00  0.00     0.029 A 
ATOM     56  N   UNL A   1      43.688  29.823  31.779  1.00  0.00    -0.354 N 
ATOM     57  N   UNL A   1      44.816  28.132  27.903  1.00  0.00    -0.248 NA
ATOM     58  C   UNL A   1      44.311  26.340  29.314  1.00  0.00     0.031 C 
ATOM     59  C   UNL A   1      43.283  31.757  30.854  1.00  0.00     0.029 A 
ATOM     60  C   UNL A   1      43.886  30.523  30.613  1.00  0.00     0.049 A 
ATOM     61  H   UNL A   1      44.258  29.092  32.111  1.00  0.00     0.167 HD
ATOM     62  C   UNL A   1      44.680  28.636  29.189  1.00  0.00     0.074 A 
ATOM     63  C   UNL A   1      44.441  27.461  30.028  1.00  0.00     0.031 C 
ATOM     64  C   UNL A   1      44.511  29.972  29.422  1.00  0.00     0.037 A 
BRANCH  51  65
ATOM     65  C   UNL A   1      42.010  28.284  33.955  1.00  0.00     0.058 A 
ATOM     66  C   UNL A   1      41.834  28.554  35.325  1.00  0.00     0.135 A 
ATOM     67  C   UNL A   1      42.786  27.136  33.659  1.00  0.00     0.135 A 
ATOM     68  F   UNL A   1      41.103  29.605  35.727  1.00  0.00    -0.206 F 
ATOM     69  C   UNL A   1      42.470  27.811  36.317  1.00  0.00     0.059 A 
ATOM     70  C   UNL A   1      43.386  26.356  34.632  1.00  0.00     0.059 A 
ATOM     71  F   UNL A   1      43.089  26.746  32.419  1.00  0.00    -0.206 F 
ATOM     72  C   UNL A   1      43.262  26.726  35.955  1.00  0.00     0.060 A 
BRANCH  72  73
ATOM     73  S   UNL A   1      44.180  25.834  37.214  1.00  0.00     0.124 S 
ATOM     74  O   UNL A   1      43.416  26.162  38.411  1.00  0.00    -0.237 OA
ATOM     75  O   UNL A   1      44.075  24.460  36.736  1.00  0.00    -0.237 OA
ATOM     76  O   UNL A   1      45.515  26.421  37.135  1.00  0.00    -0.744 OA
ENDBRANCH  72  73
ENDBRANCH  51  65
BRANCH  52  77
ATOM     77  C   UNL A   1      43.670  25.025  26.258  1.00  0.00     0.058 A 
ATOM     78  C   UNL A   1      44.703  24.847  25.322  1.00  0.00     0.135 A 
ATOM     79  C   UNL A   1      42.973  23.859  26.638  1.00  0.00     0.135 A 
ATOM     80  F   UNL A   1      45.407  25.904  24.887  1.00  0.00    -0.206 F 
ATOM     81  C   UNL A   1      45.077  23.583  24.850  1.00  0.00     0.059 A 
ATOM     82  C   UNL A   1      43.326  22.587  26.181  1.00  0.00     0.059 A 
ATOM     83  F   UNL A   1      41.968  23.914  27.526  1.00  0.00    -0.206 F 
ATOM     84  C   UNL A   1      44.401  22.453  25.310  1.00  0.00     0.060 A 
BRANCH  84  85
ATOM     85  S   UNL A   1      45.008  20.808  24.857  1.00  0.00     0.124 S 
ATOM     86  O   UNL A   1      44.211  19.940  25.717  1.00  0.00    -0.237 OA
ATOM     87  O   UNL A   1      44.699  20.750  23.433  1.00  0.00    -0.237 OA
ATOM     88  O   UNL A   1      46.432  20.869  25.180  1.00  0.00    -0.744 OA
ENDBRANCH  84  85
ENDBRANCH  52  77
BRANCH  64  89
ATOM     89  C   UNL A   1      44.813  30.950  28.304  1.00  0.00     0.058 A 
ATOM     90  C   UNL A   1      43.922  31.291  27.273  1.00  0.00     0.135 A 
ATOM     91  C   UNL A   1      45.994  31.701  28.384  1.00  0.00     0.135 A 
ATOM     92  F   UNL A   1      42.736  30.686  27.167  1.00  0.00    -0.206 F 
ATOM     93  C   UNL A   1      44.191  32.316  26.360  1.00  0.00     0.059 A 
ATOM     94  C   UNL A   1      46.276  32.745  27.501  1.00  0.00     0.059 A 
ATOM     95  F   UNL A   1      46.873  31.465  29.371  1.00  0.00    -0.206 F 
ATOM     96  C   UNL A   1      45.370  33.045  26.488  1.00  0.00     0.060 A 
BRANCH  96  97
ATOM     97  S   UNL A   1      45.672  34.431  25.367  1.00  0.00     0.124 S 
ATOM     98  O   UNL A   1      45.123  35.557  26.114  1.00  0.00    -0.237 OA
ATOM     99  O   UNL A   1      47.125  34.413  25.226  1.00  0.00    -0.237 OA
ATOM    100  O   UNL A   1      44.934  34.063  24.161  1.00  0.00    -0.744 OA
ENDBRANCH  96  97
ENDBRANCH  64  89
ENDBRANCH  38  39
ENDBRANCH  31  33
ENDBRANCH  30  31
ENDBRANCH   1  30
TORSDOF 17
ENDMDL
MODEL 3
REMARK VINA RESULT:     -12.5      1.629      2.367
REMARK SMILES CC1=C([C@H](NC(=O)[C@@H]2[C@H](C)c3cc(F)ccc3N2C)C(=O)OCCOC(=O)c2ccc(-c3c4nc(c(-c5c(F)cc(S(=O)(=O)[O-])cc5F)c5ccc([nH]5)c(-c5c(F)cc(S(=O)(=O)[O-])cc5F)c5nc(c(-c6c(F)cc(S(=O)(=O)[O-])cc6F)c6ccc3[nH]6)C=C5)C=C4)cc2)[C@@H](C)N=N1
REMARK SMILES IDX 24 1 23 2 22 3 20 4 21 5 4 6 3 7 1 8 2 9 97 10 94 11 96 12
REMARK SMILES IDX 95 13 5 14 6 15 7 17 8 18 9 19 18 20 11 21 10 22 17 23 19 24
REMARK SMILES IDX 12 25 16 26 13 27 15 28 14 29 25 30 26 31 27 32 28 33 29 34
REMARK SMILES IDX 93 35 30 36 92 37 31 38 32 39 33 40 86 41 34 42 91 43 85 44
REMARK SMILES IDX 87 45 35 46 90 47 84 48 83 49 36 51 70 52 49 53 69 54 50 55
REMARK SMILES IDX 53 56 68 57 88 58 51 59 52 60 67 62 89 63 54 64 37 65 38 66
REMARK SMILES IDX 47 67 39 68 40 69 46 70 48 71 41 72 42 73 43 74 44 75 45 76
REMARK SMILES IDX 71 77 72 78 81 79 73 80 74 81 80 82 82 83 75 84 76 85 77 86
REMARK SMILES IDX 78 87 79 88 55 89 56 90 65 91 57 92 58 93 64 94 66 95 59 96
REMARK SMILES IDX 60 97 61 98 62 99 63 100
REMARK H PARENT 5 16 87 50 53 61
REMARK Flexibility Score: inf
ROOT
ATOM      1  C   UNL A   1      38.001  22.012  25.675  1.00  0.00     0.275 C 
ENDROOT
BRANCH   1   2
ATOM      2  C   UNL A   1      37.232  23.054  26.513  1.00  0.00     0.274 C 
BRANCH   2   3
ATOM      3  O   UNL A   1      36.240  23.776  25.733  1.00  0.00    -0.460 OA
BRANCH   3   4
ATOM      4  C   UNL A   1      34.964  23.597  26.132  1.00  0.00     0.333 C 
ATOM      5  O   UNL A   1      34.733  23.182  27.260  1.00  0.00    -0.249 OA
BRANCH   4   6
ATOM      6  C   UNL A   1      33.820  23.978  25.080  1.00  0.00     0.223 C 
BRANCH   6   7
ATOM      7  C   UNL A   1      32.914  22.785  24.807  1.00  0.00     0.012 C 
ATOM      8  C   UNL A   1      31.136  22.562  26.655  1.00  0.00     0.069 C 
ATOM      9  C   UNL A   1      31.841  22.224  25.392  1.00  0.00     0.064 C 
ATOM     10  N   UNL A   1      31.442  21.061  24.773  1.00  0.00    -0.160 NA
ATOM     11  C   UNL A   1      33.375  21.705  23.894  1.00  0.00     0.156 C 
ATOM     12  N   UNL A   1      32.252  20.752  23.863  1.00  0.00    -0.181 NA
ATOM     13  C   UNL A   1      34.511  21.070  24.643  1.00  0.00     0.040 C 
ENDBRANCH   6   7
BRANCH   6  14
ATOM     14  N   UNL A   1      34.103  24.568  23.776  1.00  0.00    -0.337 N 
ATOM     15  C   UNL A   1      33.234  25.256  22.964  1.00  0.00     0.244 C 
ATOM     16  H   UNL A   1      35.023  24.460  23.438  1.00  0.00     0.164 HD
ATOM     17  O   UNL A   1      33.331  25.064  21.752  1.00  0.00    -0.273 OA
BRANCH  15  18
ATOM     18  C   UNL A   1      32.361  26.346  23.598  1.00  0.00     0.178 C 
ATOM     19  C   UNL A   1      30.852  26.054  23.853  1.00  0.00     0.050 C 
ATOM     20  N   UNL A   1      32.423  27.569  22.756  1.00  0.00    -0.362 N 
ATOM     21  C   UNL A   1      30.197  27.276  23.267  1.00  0.00    -0.016 A 
ATOM     22  C   UNL A   1      30.298  24.718  23.400  1.00  0.00     0.015 C 
ATOM     23  C   UNL A   1      31.160  28.110  22.688  1.00  0.00     0.041 A 
ATOM     24  C   UNL A   1      33.625  28.242  22.327  1.00  0.00     0.144 C 
ATOM     25  C   UNL A   1      28.867  27.654  23.344  1.00  0.00     0.045 A 
ATOM     26  C   UNL A   1      30.797  29.335  22.155  1.00  0.00     0.029 A 
ATOM     27  C   UNL A   1      28.514  28.891  22.817  1.00  0.00     0.123 A 
ATOM     28  C   UNL A   1      29.461  29.731  22.225  1.00  0.00     0.041 A 
ATOM     29  F   UNL A   1      27.241  29.299  22.892  1.00  0.00    -0.207 F 
ENDBRANCH  15  18
ENDBRANCH   6  14
ENDBRANCH   4   6
ENDBRANCH   3   4
ENDBRANCH   2   3
ENDBRANCH   1   2
BRANCH   1  30
ATOM     30  O   UNL A   1      39.418  22.271  25.719  1.00  0.00    -0.458 OA
BRANCH  30  31
ATOM     31  C   UNL A   1      40.043  22.254  26.919  1.00  0.00     0.338 C 
ATOM     32  O   UNL A   1      40.416  21.267  27.539  1.00  0.00    -0.246 OA
BRANCH  31  33
ATOM     33  C   UNL A   1      40.533  23.620  27.194  1.00  0.00     0.060 A 
ATOM     34  C   UNL A   1      41.503  23.853  28.176  1.00  0.00     0.016 A 
ATOM     35  C   UNL A   1      39.792  24.678  26.662  1.00  0.00     0.016 A 
ATOM     36  C   UNL A   1      41.581  25.107  28.780  1.00  0.00     0.010 A 
ATOM     37  C   UNL A   1      39.883  25.927  27.266  1.00  0.00     0.010 A 
ATOM     38  C   UNL A   1      40.697  26.123  28.400  1.00  0.00    -0.014 A 
BRANCH  38  39
ATOM     39  C   UNL A   1      40.865  27.495  28.906  1.00  0.00     0.031 A 
ATOM     40  C   UNL A   1      41.969  28.101  28.152  1.00  0.00     0.074 A 
ATOM     41  C   UNL A   1      40.289  28.221  29.897  1.00  0.00     0.049 A 
ATOM     42  N   UNL A   1      43.192  27.986  28.552  1.00  0.00    -0.248 NA
ATOM     43  C   UNL A   1      41.820  28.536  26.763  1.00  0.00     0.031 C 
ATOM     44  C   UNL A   1      39.317  27.869  30.921  1.00  0.00     0.029 A 
ATOM     45  N   UNL A   1      40.448  29.562  30.148  1.00  0.00    -0.354 N 
ATOM     46  C   UNL A   1      43.944  28.606  27.586  1.00  0.00     0.074 A 
ATOM     47  C   UNL A   1      43.106  28.643  26.416  1.00  0.00     0.031 C 
ATOM     48  C   UNL A   1      38.709  28.962  31.426  1.00  0.00     0.029 A 
ATOM     49  C   UNL A   1      39.472  30.114  30.982  1.00  0.00     0.049 A 
ATOM     50  H   UNL A   1      41.189  30.091  29.772  1.00  0.00     0.167 HD
ATOM     51  C   UNL A   1      45.032  29.323  27.971  1.00  0.00     0.037 A 
ATOM     52  C   UNL A   1      39.481  31.253  31.722  1.00  0.00     0.037 A 
ATOM     53  C   UNL A   1      45.435  28.956  29.322  1.00  0.00     0.049 A 
ATOM     54  C   UNL A   1      40.904  31.548  32.004  1.00  0.00     0.074 A 
ATOM     55  C   UNL A   1      45.779  27.765  29.939  1.00  0.00     0.029 A 
ATOM     56  N   UNL A   1      45.105  29.817  30.346  1.00  0.00    -0.354 N 
ATOM     57  N   UNL A   1      41.632  30.822  32.813  1.00  0.00    -0.248 NA
ATOM     58  C   UNL A   1      41.644  32.303  31.006  1.00  0.00     0.031 C 
ATOM     59  C   UNL A   1      45.212  27.833  31.248  1.00  0.00     0.029 A 
ATOM     60  C   UNL A   1      44.619  29.086  31.404  1.00  0.00     0.049 A 
ATOM     61  H   UNL A   1      45.203  30.797  30.325  1.00  0.00     0.167 HD
ATOM     62  C   UNL A   1      42.842  30.667  32.151  1.00  0.00     0.074 A 
ATOM     63  C   UNL A   1      42.817  31.669  31.085  1.00  0.00     0.031 C 
ATOM     64  C   UNL A   1      43.638  29.576  32.358  1.00  0.00     0.037 A 
BRANCH  51  65
ATOM     65  C   UNL A   1      45.415  30.630  27.319  1.00  0.00     0.058 A 
ATOM     66  C   UNL A   1      46.740  30.793  26.876  1.00  0.00     0.135 A 
ATOM     67  C   UNL A   1      44.637  31.813  27.348  1.00  0.00     0.135 A 
ATOM     68  F   UNL A   1      47.568  29.740  26.790  1.00  0.00    -0.206 F 
ATOM     69  C   UNL A   1      47.281  32.045  26.594  1.00  0.00     0.059 A 
ATOM     70  C   UNL A   1      45.141  33.060  27.025  1.00  0.00     0.059 A 
ATOM     71  F   UNL A   1      43.372  31.858  27.775  1.00  0.00    -0.206 F 
ATOM     72  C   UNL A   1      46.476  33.175  26.693  1.00  0.00     0.060 A 
BRANCH  72  73
ATOM     73  S   UNL A   1      47.191  34.803  26.447  1.00  0.00     0.124 S 
ATOM     74  O   UNL A   1      47.530  34.755  25.030  1.00  0.00    -0.237 OA
ATOM     75  O   UNL A   1      46.078  35.671  26.816  1.00  0.00    -0.237 OA
ATOM     76  O   UNL A   1      48.323  34.816  27.369  1.00  0.00    -0.744 OA
ENDBRANCH  72  73
ENDBRANCH  51  65
BRANCH  52  77
ATOM     77  C   UNL A   1      38.356  32.222  31.820  1.00  0.00     0.058 A 
ATOM     78  C   UNL A   1      37.730  32.740  30.674  1.00  0.00     0.135 A 
ATOM     79  C   UNL A   1      37.736  32.519  33.051  1.00  0.00     0.135 A 
ATOM     80  F   UNL A   1      38.261  32.524  29.460  1.00  0.00    -0.206 F 
ATOM     81  C   UNL A   1      36.520  33.444  30.735  1.00  0.00     0.059 A 
ATOM     82  C   UNL A   1      36.530  33.220  33.139  1.00  0.00     0.059 A 
ATOM     83  F   UNL A   1      38.250  32.074  34.208  1.00  0.00    -0.206 F 
ATOM     84  C   UNL A   1      35.911  33.652  31.972  1.00  0.00     0.060 A 
BRANCH  84  85
ATOM     85  S   UNL A   1      34.256  34.385  32.035  1.00  0.00     0.124 S 
ATOM     86  O   UNL A   1      33.825  34.290  30.645  1.00  0.00    -0.237 OA
ATOM     87  O   UNL A   1      33.569  33.506  32.976  1.00  0.00    -0.237 OA
ATOM     88  O   UNL A   1      34.501  35.741  32.521  1.00  0.00    -0.744 OA
ENDBRANCH  84  85
ENDBRANCH  52  77
BRANCH  64  89
ATOM     89  C   UNL A   1      43.369  28.696  33.562  1.00  0.00     0.058 A 
ATOM     90  C   UNL A   1      43.694  29.028  34.888  1.00  0.00     0.135 A 
ATOM     91  C   UNL A   1      42.592  27.543  33.378  1.00  0.00     0.135 A 
ATOM     92  F   UNL A   1      44.361  30.151  35.167  1.00  0.00    -0.206 F 
ATOM     93  C   UNL A   1      43.280  28.253  35.976  1.00  0.00     0.059 A 
ATOM     94  C   UNL A   1      42.146  26.765  34.448  1.00  0.00     0.059 A 
ATOM     95  F   UNL A   1      42.203  27.187  32.143  1.00  0.00    -0.206 F 
ATOM     96  C   UNL A   1      42.498  27.125  35.746  1.00  0.00     0.060 A 
BRANCH  96  97
ATOM     97  S   UNL A   1      41.883  26.178  37.159  1.00  0.00     0.124 S 
ATOM     98  O   UNL A   1      40.613  26.836  37.443  1.00  0.00    -0.237 OA
ATOM     99  O   UNL A   1      41.788  24.826  36.616  1.00  0.00    -0.237 OA
ATOM    100  O   UNL A   1      42.921  26.362  38.170  1.00  0.00    -0.744 OA
ENDBRANCH  96  97
ENDBRANCH  64  89
ENDBRANCH  38  39
ENDBRANCH  31  33
ENDBRANCH  30  31
ENDBRANCH   1  30
TORSDOF 17
ENDMDL
