MODEL 1
REMARK VINA RESULT:     -11.6      0.000      0.000
REMARK SMILES CCc1cc(OCC(=O)OCCOC(=O)c2ccc(-c3c4nc(c(-c5c(F)cc(S(=O)(=O)[O-])cc5F)c5ccc([nH]5)c(-c5c(F)cc(S(=O)(=O)[O-])cc5F)c5nc(c(-c6c(F)cc(S(=O)(=O)[O-])cc6F)c6ccc3[nH]6)C=C5)C=C4)cc2)nc(Nc2ccc(C)c(F)c2)n1
REMARK SMILES IDX 11 1 10 2 8 3 9 4 7 5 6 6 5 7 3 8 4 9 93 10 83 11 82 12 2 13
REMARK SMILES IDX 1 14 84 15 85 17 86 18 92 19 87 20 90 21 88 22 91 23 89 24
REMARK SMILES IDX 12 25 13 26 14 27 15 28 16 29 17 30 81 31 18 32 80 33 19 34
REMARK SMILES IDX 20 35 21 36 74 37 22 38 79 39 73 40 75 41 23 42 78 43 72 44
REMARK SMILES IDX 71 45 24 47 58 48 37 49 57 50 38 51 41 52 56 53 76 54 39 55
REMARK SMILES IDX 40 56 55 58 77 59 42 60 25 61 26 62 35 63 27 64 28 65 34 66
REMARK SMILES IDX 36 67 29 68 30 69 31 70 32 71 33 72 59 73 60 74 69 75 61 76
REMARK SMILES IDX 62 77 68 78 70 79 63 80 64 81 65 82 66 83 67 84 43 85 44 86
REMARK SMILES IDX 53 87 45 88 46 89 52 90 54 91 47 92 48 93 49 94 50 95 51 96
REMARK H PARENT 84 16 75 46 41 57
REMARK Flexibility Score: inf
ROOT
ATOM      1  C   UNL A   1      38.925  21.991  26.017  1.00  0.00     0.274 C 
ENDROOT
BRANCH   1   2
ATOM      2  O   UNL A   1      38.272  23.276  26.009  1.00  0.00    -0.460 OA
BRANCH   2   3
ATOM      3  C   UNL A   1      36.966  23.270  25.628  1.00  0.00     0.344 C 
ATOM      4  O   UNL A   1      36.187  24.205  25.781  1.00  0.00    -0.248 OA
BRANCH   3   5
ATOM      5  C   UNL A   1      36.536  21.954  24.984  1.00  0.00     0.353 C 
BRANCH   5   6
ATOM      6  O   UNL A   1      35.827  21.019  25.775  1.00  0.00    -0.466 OA
BRANCH   6   7
ATOM      7  C   UNL A   1      34.602  20.591  25.348  1.00  0.00     0.218 A 
ATOM      8  C   UNL A   1      33.052  19.110  24.401  1.00  0.00     0.050 A 
ATOM      9  C   UNL A   1      34.364  19.406  24.687  1.00  0.00     0.092 A 
ATOM     10  N   UNL A   1      32.063  19.920  24.792  1.00  0.00    -0.218 NA
ATOM     11  C   UNL A   1      32.370  21.070  25.405  1.00  0.00     0.230 A 
ATOM     12  N   UNL A   1      33.621  21.447  25.681  1.00  0.00    -0.177 NA
BRANCH   8  13
ATOM     13  C   UNL A   1      32.663  17.827  23.714  1.00  0.00     0.053 C 
ATOM     14  C   UNL A   1      32.350  17.976  22.229  1.00  0.00     0.011 C 
ENDBRANCH   8  13
BRANCH  11  15
ATOM     15  N   UNL A   1      31.331  21.937  25.733  1.00  0.00    -0.324 N 
ATOM     16  H   UNL A   1      30.640  21.592  26.343  1.00  0.00     0.170 HD
BRANCH  15  17
ATOM     17  C   UNL A   1      31.175  23.252  25.281  1.00  0.00     0.044 A 
ATOM     18  C   UNL A   1      30.817  23.508  23.955  1.00  0.00     0.026 A 
ATOM     19  C   UNL A   1      31.230  24.328  26.176  1.00  0.00     0.065 A 
ATOM     20  C   UNL A   1      30.502  24.809  23.539  1.00  0.00     0.008 A 
ATOM     21  C   UNL A   1      30.939  25.620  25.756  1.00  0.00     0.128 A 
ATOM     22  C   UNL A   1      30.562  25.879  24.440  1.00  0.00    -0.015 A 
ATOM     23  F   UNL A   1      31.014  26.619  26.648  1.00  0.00    -0.207 F 
ATOM     24  C   UNL A   1      30.166  27.259  24.014  1.00  0.00     0.047 C 
ENDBRANCH  15  17
ENDBRANCH  11  15
ENDBRANCH   6   7
ENDBRANCH   5   6
ENDBRANCH   3   5
ENDBRANCH   2   3
ENDBRANCH   1   2
BRANCH   1  25
ATOM     25  C   UNL A   1      40.376  22.113  26.472  1.00  0.00     0.275 C 
BRANCH  25  26
ATOM     26  O   UNL A   1      40.524  23.258  27.331  1.00  0.00    -0.458 OA
BRANCH  26  27
ATOM     27  C   UNL A   1      41.255  24.269  26.817  1.00  0.00     0.338 C 
ATOM     28  O   UNL A   1      41.873  24.257  25.760  1.00  0.00    -0.246 OA
BRANCH  27  29
ATOM     29  C   UNL A   1      41.206  25.464  27.683  1.00  0.00     0.060 A 
ATOM     30  C   UNL A   1      42.283  26.353  27.779  1.00  0.00     0.016 A 
ATOM     31  C   UNL A   1      40.103  25.612  28.529  1.00  0.00     0.016 A 
ATOM     32  C   UNL A   1      42.286  27.336  28.772  1.00  0.00     0.010 A 
ATOM     33  C   UNL A   1      40.076  26.640  29.471  1.00  0.00     0.010 A 
ATOM     34  C   UNL A   1      41.177  27.495  29.620  1.00  0.00    -0.014 A 
BRANCH  34  35
ATOM     35  C   UNL A   1      41.126  28.586  30.626  1.00  0.00     0.031 A 
ATOM     36  C   UNL A   1      42.017  28.571  31.839  1.00  0.00     0.074 A 
ATOM     37  C   UNL A   1      40.210  29.561  30.480  1.00  0.00     0.049 A 
ATOM     38  N   UNL A   1      41.994  29.346  32.892  1.00  0.00    -0.248 NA
ATOM     39  C   UNL A   1      43.068  27.545  31.873  1.00  0.00     0.031 C 
ATOM     40  C   UNL A   1      39.281  29.683  29.356  1.00  0.00     0.029 A 
ATOM     41  N   UNL A   1      39.888  30.615  31.297  1.00  0.00    -0.354 N 
ATOM     42  C   UNL A   1      43.011  28.892  33.725  1.00  0.00     0.074 A 
ATOM     43  C   UNL A   1      43.626  27.764  33.057  1.00  0.00     0.031 C 
ATOM     44  C   UNL A   1      38.483  30.740  29.560  1.00  0.00     0.029 A 
ATOM     45  C   UNL A   1      38.807  31.334  30.852  1.00  0.00     0.049 A 
ATOM     46  H   UNL A   1      40.383  30.833  32.120  1.00  0.00     0.167 HD
ATOM     47  C   UNL A   1      43.396  29.370  34.932  1.00  0.00     0.037 A 
ATOM     48  C   UNL A   1      38.116  32.331  31.437  1.00  0.00     0.037 A 
ATOM     49  C   UNL A   1      42.785  30.497  35.591  1.00  0.00     0.049 A 
ATOM     50  C   UNL A   1      38.534  32.827  32.786  1.00  0.00     0.074 A 
ATOM     51  C   UNL A   1      43.128  31.082  36.798  1.00  0.00     0.029 A 
ATOM     52  N   UNL A   1      41.697  31.205  35.101  1.00  0.00    -0.354 N 
ATOM     53  N   UNL A   1      39.504  32.394  33.554  1.00  0.00    -0.248 NA
ATOM     54  C   UNL A   1      37.766  33.944  33.348  1.00  0.00     0.031 C 
ATOM     55  C   UNL A   1      42.227  32.124  37.052  1.00  0.00     0.029 A 
ATOM     56  C   UNL A   1      41.343  32.208  35.989  1.00  0.00     0.049 A 
ATOM     57  H   UNL A   1      41.243  31.021  34.247  1.00  0.00     0.167 HD
ATOM     58  C   UNL A   1      39.465  33.186  34.694  1.00  0.00     0.074 A 
ATOM     59  C   UNL A   1      38.384  34.135  34.506  1.00  0.00     0.031 C 
ATOM     60  C   UNL A   1      40.252  33.130  35.796  1.00  0.00     0.037 A 
BRANCH  47  61
ATOM     61  C   UNL A   1      44.521  28.661  35.634  1.00  0.00     0.058 A 
ATOM     62  C   UNL A   1      45.861  29.030  35.437  1.00  0.00     0.135 A 
ATOM     63  C   UNL A   1      44.254  27.617  36.534  1.00  0.00     0.135 A 
ATOM     64  F   UNL A   1      46.172  30.013  34.577  1.00  0.00    -0.206 F 
ATOM     65  C   UNL A   1      46.900  28.373  36.091  1.00  0.00     0.059 A 
ATOM     66  C   UNL A   1      45.277  26.957  37.212  1.00  0.00     0.059 A 
ATOM     67  F   UNL A   1      42.991  27.224  36.758  1.00  0.00    -0.206 F 
ATOM     68  C   UNL A   1      46.598  27.333  36.971  1.00  0.00     0.060 A 
BRANCH  68  69
ATOM     69  S   UNL A   1      47.951  26.483  37.813  1.00  0.00     0.124 S 
ATOM     70  O   UNL A   1      47.747  25.106  37.375  1.00  0.00    -0.237 OA
ATOM     71  O   UNL A   1      49.132  27.149  37.271  1.00  0.00    -0.237 OA
ATOM     72  O   UNL A   1      47.685  26.741  39.225  1.00  0.00    -0.744 OA
ENDBRANCH  68  69
ENDBRANCH  47  61
BRANCH  48  73
ATOM     73  C   UNL A   1      36.933  32.881  30.732  1.00  0.00     0.058 A 
ATOM     74  C   UNL A   1      35.635  32.509  31.103  1.00  0.00     0.135 A 
ATOM     75  C   UNL A   1      37.082  33.877  29.754  1.00  0.00     0.135 A 
ATOM     76  F   UNL A   1      35.450  31.559  32.034  1.00  0.00    -0.206 F 
ATOM     77  C   UNL A   1      34.520  33.122  30.545  1.00  0.00     0.059 A 
ATOM     78  C   UNL A   1      35.983  34.517  29.195  1.00  0.00     0.059 A 
ATOM     79  F   UNL A   1      38.309  34.277  29.384  1.00  0.00    -0.206 F 
ATOM     80  C   UNL A   1      34.704  34.135  29.601  1.00  0.00     0.060 A 
BRANCH  80  81
ATOM     81  S   UNL A   1      33.260  35.023  28.978  1.00  0.00     0.124 S 
ATOM     82  O   UNL A   1      32.764  34.099  27.965  1.00  0.00    -0.237 OA
ATOM     83  O   UNL A   1      32.437  35.157  30.177  1.00  0.00    -0.237 OA
ATOM     84  O   UNL A   1      33.828  36.270  28.478  1.00  0.00    -0.744 OA
ENDBRANCH  80  81
ENDBRANCH  48  73
BRANCH  60  85
ATOM     85  C   UNL A   1      39.968  34.127  36.882  1.00  0.00     0.058 A 
ATOM     86  C   UNL A   1      39.197  33.785  38.003  1.00  0.00     0.135 A 
ATOM     87  C   UNL A   1      40.481  35.431  36.805  1.00  0.00     0.135 A 
ATOM     88  F   UNL A   1      38.679  32.552  38.114  1.00  0.00    -0.206 F 
ATOM     89  C   UNL A   1      38.921  34.711  39.002  1.00  0.00     0.059 A 
ATOM     90  C   UNL A   1      40.232  36.370  37.801  1.00  0.00     0.059 A 
ATOM     91  F   UNL A   1      41.228  35.804  35.755  1.00  0.00    -0.206 F 
ATOM     92  C   UNL A   1      39.438  36.004  38.889  1.00  0.00     0.060 A 
BRANCH  92  93
ATOM     93  S   UNL A   1      39.082  37.202  40.192  1.00  0.00     0.124 S 
ATOM     94  O   UNL A   1      40.427  37.569  40.626  1.00  0.00    -0.237 OA
ATOM     95  O   UNL A   1      38.342  38.239  39.478  1.00  0.00    -0.237 OA
ATOM     96  O   UNL A   1      38.299  36.432  41.153  1.00  0.00    -0.744 OA
ENDBRANCH  92  93
ENDBRANCH  60  85
ENDBRANCH  34  35
ENDBRANCH  27  29
ENDBRANCH  26  27
ENDBRANCH  25  26
ENDBRANCH   1  25
TORSDOF 19
ENDMDL
MODEL 2
REMARK VINA RESULT:     -11.4      6.528     11.907
REMARK SMILES CCc1cc(OCC(=O)OCCOC(=O)c2ccc(-c3c4nc(c(-c5c(F)cc(S(=O)(=O)[O-])cc5F)c5ccc([nH]5)c(-c5c(F)cc(S(=O)(=O)[O-])cc5F)c5nc(c(-c6c(F)cc(S(=O)(=O)[O-])cc6F)c6ccc3[nH]6)C=C5)C=C4)cc2)nc(Nc2ccc(C)c(F)c2)n1
REMARK SMILES IDX 11 1 10 2 8 3 9 4 7 5 6 6 5 7 3 8 4 9 93 10 83 11 82 12 2 13
REMARK SMILES IDX 1 14 84 15 85 17 86 18 92 19 87 20 90 21 88 22 91 23 89 24
REMARK SMILES IDX 12 25 13 26 14 27 15 28 16 29 17 30 81 31 18 32 80 33 19 34
REMARK SMILES IDX 20 35 21 36 74 37 22 38 79 39 73 40 75 41 23 42 78 43 72 44
REMARK SMILES IDX 71 45 24 47 58 48 37 49 57 50 38 51 41 52 56 53 76 54 39 55
REMARK SMILES IDX 40 56 55 58 77 59 42 60 25 61 26 62 35 63 27 64 28 65 34 66
REMARK SMILES IDX 36 67 29 68 30 69 31 70 32 71 33 72 59 73 60 74 69 75 61 76
REMARK SMILES IDX 62 77 68 78 70 79 63 80 64 81 65 82 66 83 67 84 43 85 44 86
REMARK SMILES IDX 53 87 45 88 46 89 52 90 54 91 47 92 48 93 49 94 50 95 51 96
REMARK H PARENT 84 16 75 46 41 57
REMARK Flexibility Score: inf
ROOT
ATOM      1  C   UNL A   1      33.707  30.540  26.891  1.00  0.00     0.274 C 
ENDROOT
BRANCH   1   2
ATOM      2  O   UNL A   1      34.386  29.357  26.421  1.00  0.00    -0.460 OA
BRANCH   2   3
ATOM      3  C   UNL A   1      33.656  28.210  26.452  1.00  0.00     0.344 C 
ATOM      4  O   UNL A   1      34.113  27.084  26.278  1.00  0.00    -0.248 OA
BRANCH   3   5
ATOM      5  C   UNL A   1      32.172  28.450  26.718  1.00  0.00     0.353 C 
BRANCH   5   6
ATOM      6  O   UNL A   1      31.235  27.548  26.161  1.00  0.00    -0.466 OA
BRANCH   6   7
ATOM      7  C   UNL A   1      30.995  27.595  24.818  1.00  0.00     0.218 A 
ATOM      8  C   UNL A   1      30.426  28.581  22.769  1.00  0.00     0.050 A 
ATOM      9  C   UNL A   1      30.538  28.701  24.134  1.00  0.00     0.092 A 
ATOM     10  N   UNL A   1      30.789  27.457  22.144  1.00  0.00    -0.218 NA
ATOM     11  C   UNL A   1      31.197  26.412  22.875  1.00  0.00     0.230 A 
ATOM     12  N   UNL A   1      31.293  26.436  24.207  1.00  0.00    -0.177 NA
BRANCH   8  13
ATOM     13  C   UNL A   1      29.972  29.733  21.909  1.00  0.00     0.053 C 
ATOM     14  C   UNL A   1      28.482  30.043  22.005  1.00  0.00     0.011 C 
ENDBRANCH   8  13
BRANCH  11  15
ATOM     15  N   UNL A   1      31.494  25.224  22.213  1.00  0.00    -0.324 N 
ATOM     16  H   UNL A   1      31.185  25.143  21.282  1.00  0.00     0.170 HD
BRANCH  15  17
ATOM     17  C   UNL A   1      32.192  24.133  22.742  1.00  0.00     0.044 A 
ATOM     18  C   UNL A   1      33.582  24.053  22.623  1.00  0.00     0.026 A 
ATOM     19  C   UNL A   1      31.535  23.175  23.526  1.00  0.00     0.065 A 
ATOM     20  C   UNL A   1      34.300  23.051  23.289  1.00  0.00     0.008 A 
ATOM     21  C   UNL A   1      32.247  22.168  24.166  1.00  0.00     0.128 A 
ATOM     22  C   UNL A   1      33.635  22.096  24.068  1.00  0.00    -0.015 A 
ATOM     23  F   UNL A   1      31.573  21.269  24.898  1.00  0.00    -0.207 F 
ATOM     24  C   UNL A   1      34.405  21.062  24.829  1.00  0.00     0.047 C 
ENDBRANCH  15  17
ENDBRANCH  11  15
ENDBRANCH   6   7
ENDBRANCH   5   6
ENDBRANCH   3   5
ENDBRANCH   2   3
ENDBRANCH   1   2
BRANCH   1  25
ATOM     25  C   UNL A   1      34.440  31.159  28.078  1.00  0.00     0.275 C 
BRANCH  25  26
ATOM     26  O   UNL A   1      35.378  30.214  28.621  1.00  0.00    -0.458 OA
BRANCH  26  27
ATOM     27  C   UNL A   1      36.181  30.697  29.592  1.00  0.00     0.338 C 
ATOM     28  O   UNL A   1      35.826  31.291  30.602  1.00  0.00    -0.246 OA
BRANCH  27  29
ATOM     29  C   UNL A   1      37.601  30.391  29.320  1.00  0.00     0.060 A 
ATOM     30  C   UNL A   1      38.058  30.085  28.033  1.00  0.00     0.016 A 
ATOM     31  C   UNL A   1      38.463  30.269  30.414  1.00  0.00     0.016 A 
ATOM     32  C   UNL A   1      39.350  29.584  27.857  1.00  0.00     0.010 A 
ATOM     33  C   UNL A   1      39.775  29.839  30.225  1.00  0.00     0.010 A 
ATOM     34  C   UNL A   1      40.225  29.467  28.950  1.00  0.00    -0.014 A 
BRANCH  34  35
ATOM     35  C   UNL A   1      41.628  29.015  28.771  1.00  0.00     0.031 A 
ATOM     36  C   UNL A   1      42.771  29.994  28.793  1.00  0.00     0.074 A 
ATOM     37  C   UNL A   1      41.864  27.716  28.509  1.00  0.00     0.049 A 
ATOM     38  N   UNL A   1      44.030  29.803  28.495  1.00  0.00    -0.248 NA
ATOM     39  C   UNL A   1      42.454  31.370  29.198  1.00  0.00     0.031 C 
ATOM     40  C   UNL A   1      40.842  26.670  28.450  1.00  0.00     0.029 A 
ATOM     41  N   UNL A   1      43.031  27.062  28.213  1.00  0.00    -0.354 N 
ATOM     42  C   UNL A   1      44.653  31.036  28.655  1.00  0.00     0.074 A 
ATOM     43  C   UNL A   1      43.629  31.972  29.068  1.00  0.00     0.031 C 
ATOM     44  C   UNL A   1      41.423  25.508  28.121  1.00  0.00     0.029 A 
ATOM     45  C   UNL A   1      42.845  25.740  27.892  1.00  0.00     0.049 A 
ATOM     46  H   UNL A   1      43.915  27.497  28.227  1.00  0.00     0.167 HD
ATOM     47  C   UNL A   1      45.957  31.356  28.475  1.00  0.00     0.037 A 
ATOM     48  C   UNL A   1      43.709  24.823  27.418  1.00  0.00     0.037 A 
ATOM     49  C   UNL A   1      46.975  30.420  28.070  1.00  0.00     0.049 A 
ATOM     50  C   UNL A   1      45.140  25.201  27.194  1.00  0.00     0.074 A 
ATOM     51  C   UNL A   1      48.330  30.639  27.897  1.00  0.00     0.029 A 
ATOM     52  N   UNL A   1      46.745  29.086  27.764  1.00  0.00    -0.354 N 
ATOM     53  N   UNL A   1      45.715  26.367  27.362  1.00  0.00    -0.248 NA
ATOM     54  C   UNL A   1      46.038  24.143  26.718  1.00  0.00     0.031 C 
ATOM     55  C   UNL A   1      48.916  29.445  27.457  1.00  0.00     0.029 A 
ATOM     56  C   UNL A   1      47.930  28.474  27.386  1.00  0.00     0.049 A 
ATOM     57  H   UNL A   1      45.869  28.640  27.810  1.00  0.00     0.167 HD
ATOM     58  C   UNL A   1      47.046  26.185  27.010  1.00  0.00     0.074 A 
ATOM     59  C   UNL A   1      47.192  24.791  26.636  1.00  0.00     0.031 C 
ATOM     60  C   UNL A   1      48.054  27.092  26.997  1.00  0.00     0.037 A 
BRANCH  47  61
ATOM     61  C   UNL A   1      46.357  32.789  28.695  1.00  0.00     0.058 A 
ATOM     62  C   UNL A   1      46.333  33.729  27.654  1.00  0.00     0.135 A 
ATOM     63  C   UNL A   1      46.743  33.233  29.971  1.00  0.00     0.135 A 
ATOM     64  F   UNL A   1      45.984  33.355  26.413  1.00  0.00    -0.206 F 
ATOM     65  C   UNL A   1      46.701  35.057  27.863  1.00  0.00     0.059 A 
ATOM     66  C   UNL A   1      47.099  34.558  30.207  1.00  0.00     0.059 A 
ATOM     67  F   UNL A   1      46.784  32.374  31.001  1.00  0.00    -0.206 F 
ATOM     68  C   UNL A   1      47.090  35.459  29.142  1.00  0.00     0.060 A 
BRANCH  68  69
ATOM     69  S   UNL A   1      47.569  37.180  29.405  1.00  0.00     0.124 S 
ATOM     70  O   UNL A   1      48.040  37.144  30.785  1.00  0.00    -0.237 OA
ATOM     71  O   UNL A   1      48.601  37.382  28.391  1.00  0.00    -0.237 OA
ATOM     72  O   UNL A   1      46.327  37.915  29.182  1.00  0.00    -0.744 OA
ENDBRANCH  68  69
ENDBRANCH  47  61
BRANCH  48  73
ATOM     73  C   UNL A   1      43.198  23.468  27.098  1.00  0.00     0.058 A 
ATOM     74  C   UNL A   1      42.999  23.068  25.771  1.00  0.00     0.135 A 
ATOM     75  C   UNL A   1      43.012  22.515  28.112  1.00  0.00     0.135 A 
ATOM     76  F   UNL A   1      43.165  23.949  24.772  1.00  0.00    -0.206 F 
ATOM     77  C   UNL A   1      42.656  21.759  25.455  1.00  0.00     0.059 A 
ATOM     78  C   UNL A   1      42.686  21.197  27.819  1.00  0.00     0.059 A 
ATOM     79  F   UNL A   1      43.211  22.853  29.396  1.00  0.00    -0.206 F 
ATOM     80  C   UNL A   1      42.514  20.827  26.485  1.00  0.00     0.060 A 
BRANCH  80  81
ATOM     81  S   UNL A   1      42.201  19.098  26.064  1.00  0.00     0.124 S 
ATOM     82  O   UNL A   1      40.780  19.129  25.739  1.00  0.00    -0.237 OA
ATOM     83  O   UNL A   1      43.108  18.882  24.941  1.00  0.00    -0.237 OA
ATOM     84  O   UNL A   1      42.558  18.389  27.289  1.00  0.00    -0.744 OA
ENDBRANCH  80  81
ENDBRANCH  48  73
BRANCH  60  85
ATOM     85  C   UNL A   1      49.403  26.597  26.564  1.00  0.00     0.058 A 
ATOM     86  C   UNL A   1      50.283  25.989  27.472  1.00  0.00     0.135 A 
ATOM     87  C   UNL A   1      49.815  26.722  25.229  1.00  0.00     0.135 A 
ATOM     88  F   UNL A   1      49.936  25.856  28.762  1.00  0.00    -0.206 F 
ATOM     89  C   UNL A   1      51.539  25.543  27.076  1.00  0.00     0.059 A 
ATOM     90  C   UNL A   1      51.060  26.268  24.806  1.00  0.00     0.059 A 
ATOM     91  F   UNL A   1      49.006  27.292  24.322  1.00  0.00    -0.206 F 
ATOM     92  C   UNL A   1      51.921  25.693  25.741  1.00  0.00     0.060 A 
BRANCH  92  93
ATOM     93  S   UNL A   1      53.550  25.107  25.230  1.00  0.00     0.124 S 
ATOM     94  O   UNL A   1      53.367  23.660  25.274  1.00  0.00    -0.237 OA
ATOM     95  O   UNL A   1      53.694  25.687  23.897  1.00  0.00    -0.237 OA
ATOM     96  O   UNL A   1      54.441  25.660  26.246  1.00  0.00    -0.744 OA
ENDBRANCH  92  93
ENDBRANCH  60  85
ENDBRANCH  34  35
ENDBRANCH  27  29
ENDBRANCH  26  27
ENDBRANCH  25  26
ENDBRANCH   1  25
TORSDOF 19
ENDMDL
MODEL 3
REMARK VINA RESULT:     -11.3      6.715     12.011
REMARK SMILES CCc1cc(OCC(=O)OCCOC(=O)c2ccc(-c3c4nc(c(-c5c(F)cc(S(=O)(=O)[O-])cc5F)c5ccc([nH]5)c(-c5c(F)cc(S(=O)(=O)[O-])cc5F)c5nc(c(-c6c(F)cc(S(=O)(=O)[O-])cc6F)c6ccc3[nH]6)C=C5)C=C4)cc2)nc(Nc2ccc(C)c(F)c2)n1
REMARK SMILES IDX 11 1 10 2 8 3 9 4 7 5 6 6 5 7 3 8 4 9 93 10 83 11 82 12 2 13
REMARK SMILES IDX 1 14 84 15 85 17 86 18 92 19 87 20 90 21 88 22 91 23 89 24
REMARK SMILES IDX 12 25 13 26 14 27 15 28 16 29 17 30 81 31 18 32 80 33 19 34
REMARK SMILES IDX 20 35 21 36 74 37 22 38 79 39 73 40 75 41 23 42 78 43 72 44
REMARK SMILES IDX 71 45 24 47 58 48 37 49 57 50 38 51 41 52 56 53 76 54 39 55
REMARK SMILES IDX 40 56 55 58 77 59 42 60 25 61 26 62 35 63 27 64 28 65 34 66
REMARK SMILES IDX 36 67 29 68 30 69 31 70 32 71 33 72 59 73 60 74 69 75 61 76
REMARK SMILES IDX 62 77 68 78 70 79 63 80 64 81 65 82 66 83 67 84 43 85 44 86
REMARK SMILES IDX 53 87 45 88 46 89 52 90 54 91 47 92 48 93 49 94 50 95 51 96
REMARK H PARENT 84 16 75 46 41 57
REMARK Flexibility Score: inf
ROOT
ATOM      1  C   UNL A   1      33.217  31.009  27.592  1.00  0.00     0.274 C 
ENDROOT
BRANCH   1   2
ATOM      2  O   UNL A   1      32.412  29.927  27.082  1.00  0.00    -0.460 OA
BRANCH   2   3
ATOM      3  C   UNL A   1      31.805  30.160  25.887  1.00  0.00     0.344 C 
ATOM      4  O   UNL A   1      31.179  31.177  25.605  1.00  0.00    -0.248 OA
BRANCH   3   5
ATOM      5  C   UNL A   1      31.964  29.006  24.900  1.00  0.00     0.353 C 
BRANCH   5   6
ATOM      6  O   UNL A   1      33.187  28.296  24.887  1.00  0.00    -0.466 OA
BRANCH   6   7
ATOM      7  C   UNL A   1      33.199  27.016  24.410  1.00  0.00     0.218 A 
ATOM      8  C   UNL A   1      33.031  25.319  22.802  1.00  0.00     0.050 A 
ATOM      9  C   UNL A   1      32.890  26.650  23.118  1.00  0.00     0.092 A 
ATOM     10  N   UNL A   1      33.488  24.442  23.702  1.00  0.00    -0.218 NA
ATOM     11  C   UNL A   1      33.740  24.863  24.948  1.00  0.00     0.230 A 
ATOM     12  N   UNL A   1      33.590  26.130  25.343  1.00  0.00    -0.177 NA
BRANCH   8  13
ATOM     13  C   UNL A   1      32.758  24.803  21.413  1.00  0.00     0.053 C 
ATOM     14  C   UNL A   1      32.418  25.885  20.393  1.00  0.00     0.011 C 
ENDBRANCH   8  13
BRANCH  11  15
ATOM     15  N   UNL A   1      34.140  23.921  25.891  1.00  0.00    -0.324 N 
ATOM     16  H   UNL A   1      33.470  23.650  26.560  1.00  0.00     0.170 HD
BRANCH  15  17
ATOM     17  C   UNL A   1      35.400  23.320  25.981  1.00  0.00     0.044 A 
ATOM     18  C   UNL A   1      35.539  21.937  25.840  1.00  0.00     0.026 A 
ATOM     19  C   UNL A   1      36.561  24.100  26.066  1.00  0.00     0.065 A 
ATOM     20  C   UNL A   1      36.809  21.350  25.766  1.00  0.00     0.008 A 
ATOM     21  C   UNL A   1      37.819  23.514  26.016  1.00  0.00     0.128 A 
ATOM     22  C   UNL A   1      37.964  22.137  25.855  1.00  0.00    -0.015 A 
ATOM     23  F   UNL A   1      38.900  24.301  26.111  1.00  0.00    -0.207 F 
ATOM     24  C   UNL A   1      39.321  21.520  25.715  1.00  0.00     0.047 C 
ENDBRANCH  15  17
ENDBRANCH  11  15
ENDBRANCH   6   7
ENDBRANCH   5   6
ENDBRANCH   3   5
ENDBRANCH   2   3
ENDBRANCH   1   2
BRANCH   1  25
ATOM     25  C   UNL A   1      34.695  30.789  27.283  1.00  0.00     0.275 C 
BRANCH  25  26
ATOM     26  O   UNL A   1      35.246  29.822  28.194  1.00  0.00    -0.458 OA
BRANCH  26  27
ATOM     27  C   UNL A   1      36.052  30.329  29.150  1.00  0.00     0.338 C 
ATOM     28  O   UNL A   1      35.735  31.129  30.022  1.00  0.00    -0.246 OA
BRANCH  27  29
ATOM     29  C   UNL A   1      37.416  29.771  29.058  1.00  0.00     0.060 A 
ATOM     30  C   UNL A   1      38.172  29.474  30.198  1.00  0.00     0.016 A 
ATOM     31  C   UNL A   1      38.000  29.681  27.790  1.00  0.00     0.016 A 
ATOM     32  C   UNL A   1      39.529  29.165  30.070  1.00  0.00     0.010 A 
ATOM     33  C   UNL A   1      39.335  29.301  27.661  1.00  0.00     0.010 A 
ATOM     34  C   UNL A   1      40.120  29.065  28.799  1.00  0.00    -0.014 A 
BRANCH  34  35
ATOM     35  C   UNL A   1      41.539  28.657  28.638  1.00  0.00     0.031 A 
ATOM     36  C   UNL A   1      42.650  29.671  28.664  1.00  0.00     0.074 A 
ATOM     37  C   UNL A   1      41.819  27.364  28.388  1.00  0.00     0.049 A 
ATOM     38  N   UNL A   1      43.918  29.518  28.380  1.00  0.00    -0.248 NA
ATOM     39  C   UNL A   1      42.285  31.040  29.055  1.00  0.00     0.031 C 
ATOM     40  C   UNL A   1      40.831  26.286  28.326  1.00  0.00     0.029 A 
ATOM     41  N   UNL A   1      43.010  26.745  28.109  1.00  0.00    -0.354 N 
ATOM     42  C   UNL A   1      44.500  30.772  28.538  1.00  0.00     0.074 A 
ATOM     43  C   UNL A   1      43.442  31.678  28.933  1.00  0.00     0.031 C 
ATOM     44  C   UNL A   1      41.453  25.141  28.013  1.00  0.00     0.029 A 
ATOM     45  C   UNL A   1      42.869  25.416  27.796  1.00  0.00     0.049 A 
ATOM     46  H   UNL A   1      43.879  27.208  28.129  1.00  0.00     0.167 HD
ATOM     47  C   UNL A   1      45.794  31.132  28.369  1.00  0.00     0.037 A 
ATOM     48  C   UNL A   1      43.767  24.523  27.338  1.00  0.00     0.037 A 
ATOM     49  C   UNL A   1      46.846  30.226  27.981  1.00  0.00     0.049 A 
ATOM     50  C   UNL A   1      45.186  24.945  27.126  1.00  0.00     0.074 A 
ATOM     51  C   UNL A   1      48.196  30.486  27.821  1.00  0.00     0.029 A 
ATOM     52  N   UNL A   1      46.662  28.883  27.684  1.00  0.00    -0.354 N 
ATOM     53  N   UNL A   1      45.723  26.130  27.291  1.00  0.00    -0.248 NA
ATOM     54  C   UNL A   1      46.123  23.912  26.667  1.00  0.00     0.031 C 
ATOM     55  C   UNL A   1      48.823  29.308  27.397  1.00  0.00     0.029 A 
ATOM     56  C   UNL A   1      47.869  28.306  27.322  1.00  0.00     0.049 A 
ATOM     57  H   UNL A   1      45.800  28.410  27.723  1.00  0.00     0.167 HD
ATOM     58  C   UNL A   1      47.063  25.988  26.955  1.00  0.00     0.074 A 
ATOM     59  C   UNL A   1      47.257  24.597  26.593  1.00  0.00     0.031 C 
ATOM     60  C   UNL A   1      48.042  26.926  26.945  1.00  0.00     0.037 A 
BRANCH  47  61
ATOM     61  C   UNL A   1      46.146  32.579  28.582  1.00  0.00     0.058 A 
ATOM     62  C   UNL A   1      46.486  33.075  29.850  1.00  0.00     0.135 A 
ATOM     63  C   UNL A   1      46.170  33.473  27.500  1.00  0.00     0.135 A 
ATOM     64  F   UNL A   1      46.466  32.265  30.921  1.00  0.00    -0.206 F 
ATOM     65  C   UNL A   1      46.814  34.415  30.043  1.00  0.00     0.059 A 
ATOM     66  C   UNL A   1      46.511  34.813  27.667  1.00  0.00     0.059 A 
ATOM     67  F   UNL A   1      45.853  33.050  26.266  1.00  0.00    -0.206 F 
ATOM     68  C   UNL A   1      46.817  35.278  28.946  1.00  0.00     0.060 A 
BRANCH  68  69
ATOM     69  S   UNL A   1      47.240  37.014  29.204  1.00  0.00     0.124 S 
ATOM     70  O   UNL A   1      45.919  37.619  29.339  1.00  0.00    -0.237 OA
ATOM     71  O   UNL A   1      48.041  36.969  30.424  1.00  0.00    -0.237 OA
ATOM     72  O   UNL A   1      47.973  37.367  27.992  1.00  0.00    -0.744 OA
ENDBRANCH  68  69
ENDBRANCH  47  61
BRANCH  48  73
ATOM     73  C   UNL A   1      43.302  23.150  27.023  1.00  0.00     0.058 A 
ATOM     74  C   UNL A   1      43.246  22.694  25.700  1.00  0.00     0.135 A 
ATOM     75  C   UNL A   1      43.018  22.237  28.051  1.00  0.00     0.135 A 
ATOM     76  F   UNL A   1      43.508  23.537  24.689  1.00  0.00    -0.206 F 
ATOM     77  C   UNL A   1      42.947  21.370  25.405  1.00  0.00     0.059 A 
ATOM     78  C   UNL A   1      42.735  20.904  27.781  1.00  0.00     0.059 A 
ATOM     79  F   UNL A   1      43.080  22.629  29.333  1.00  0.00    -0.206 F 
ATOM     80  C   UNL A   1      42.706  20.478  26.453  1.00  0.00     0.060 A 
BRANCH  80  81
ATOM     81  S   UNL A   1      42.452  18.731  26.074  1.00  0.00     0.124 S 
ATOM     82  O   UNL A   1      41.039  18.712  25.714  1.00  0.00    -0.237 OA
ATOM     83  O   UNL A   1      43.393  18.510  24.979  1.00  0.00    -0.237 OA
ATOM     84  O   UNL A   1      42.797  18.066  27.326  1.00  0.00    -0.744 OA
ENDBRANCH  80  81
ENDBRANCH  48  73
BRANCH  60  85
ATOM     85  C   UNL A   1      49.410  26.471  26.530  1.00  0.00     0.058 A 
ATOM     86  C   UNL A   1      50.298  25.897  27.452  1.00  0.00     0.135 A 
ATOM     87  C   UNL A   1      49.832  26.600  25.198  1.00  0.00     0.135 A 
ATOM     88  F   UNL A   1      49.942  25.761  28.739  1.00  0.00    -0.206 F 
ATOM     89  C   UNL A   1      51.572  25.488  27.072  1.00  0.00     0.059 A 
ATOM     90  C   UNL A   1      51.095  26.183  24.792  1.00  0.00     0.059 A 
ATOM     91  F   UNL A   1      49.015  27.138  24.279  1.00  0.00    -0.206 F 
ATOM     92  C   UNL A   1      51.964  25.641  25.740  1.00  0.00     0.060 A 
BRANCH  92  93
ATOM     93  S   UNL A   1      53.616  25.104  25.250  1.00  0.00     0.124 S 
ATOM     94  O   UNL A   1      53.496  23.654  25.362  1.00  0.00    -0.237 OA
ATOM     95  O   UNL A   1      53.733  25.627  23.892  1.00  0.00    -0.237 OA
ATOM     96  O   UNL A   1      54.484  25.741  26.237  1.00  0.00    -0.744 OA
ENDBRANCH  92  93
ENDBRANCH  60  85
ENDBRANCH  34  35
ENDBRANCH  27  29
ENDBRANCH  26  27
ENDBRANCH  25  26
ENDBRANCH   1  25
TORSDOF 19
ENDMDL
