MODEL 1
REMARK VINA RESULT:     -10.8      0.000      0.000
REMARK SMILES COc1ccc(C(=O)OCCOC(=O)c2ccc(-c3c4nc(c(-c5c(F)cc(S(=O)(=O)[O-])cc5F)c5ccc([nH]5)c(-c5c(F)cc(S(=O)(=O)[O-])cc5F)c5nc(c(-c6c(F)cc(S(=O)(=O)[O-])cc6F)c6ccc3[nH]6)C=C5)C=C4)cc2)cc1C(F)(F)F
REMARK SMILES IDX 11 1 10 2 9 3 7 4 8 5 6 6 3 7 4 8 82 9 5 10 81 11 2 12 1 13
REMARK SMILES IDX 83 14 84 15 85 16 86 17 12 18 13 19 14 20 15 21 16 22 80 23
REMARK SMILES IDX 17 24 79 25 18 26 19 27 20 28 73 29 21 30 78 31 72 32 74 33
REMARK SMILES IDX 22 34 77 35 71 36 70 37 23 39 57 40 36 41 56 42 37 43 40 44
REMARK SMILES IDX 55 45 75 46 38 47 39 48 54 50 76 51 41 52 24 53 25 54 34 55
REMARK SMILES IDX 26 56 27 57 33 58 35 59 28 60 29 61 30 62 31 63 32 64 58 65
REMARK SMILES IDX 59 66 68 67 60 68 61 69 67 70 69 71 62 72 63 73 64 74 65 75
REMARK SMILES IDX 66 76 42 77 43 78 52 79 44 80 45 81 51 82 53 83 46 84 47 85
REMARK SMILES IDX 48 86 49 87 50 88
REMARK H PARENT 74 38 40 49
REMARK Flexibility Score: inf
ROOT
ATOM      1  C   UNL A   1      40.599  22.170  26.953  1.00  0.00     0.275 C 
ENDROOT
BRANCH   1   2
ATOM      2  C   UNL A   1      39.801  21.101  26.202  1.00  0.00     0.275 C 
BRANCH   2   3
ATOM      3  O   UNL A   1      38.541  21.610  25.716  1.00  0.00    -0.458 OA
BRANCH   3   4
ATOM      4  C   UNL A   1      37.726  20.705  25.118  1.00  0.00     0.338 C 
ATOM      5  O   UNL A   1      37.939  19.509  24.996  1.00  0.00    -0.246 OA
BRANCH   4   6
ATOM      6  C   UNL A   1      36.468  21.344  24.656  1.00  0.00     0.060 A 
ATOM      7  C   UNL A   1      34.134  22.674  23.882  1.00  0.00     0.131 A 
ATOM      8  C   UNL A   1      35.378  23.190  23.524  1.00  0.00     0.048 A 
ATOM      9  C   UNL A   1      34.031  21.472  24.590  1.00  0.00     0.098 A 
ATOM     10  C   UNL A   1      36.538  22.550  23.951  1.00  0.00     0.019 A 
ATOM     11  C   UNL A   1      35.217  20.806  24.969  1.00  0.00     0.032 A 
BRANCH   7  12
ATOM     12  O   UNL A   1      33.028  23.375  23.491  1.00  0.00    -0.496 OA
ATOM     13  C   UNL A   1      33.410  24.552  22.777  1.00  0.00     0.278 C 
ENDBRANCH   7  12
BRANCH   9  14
ATOM     14  C   UNL A   1      32.708  20.912  25.038  1.00  0.00     0.419 C 
ATOM     15  F   UNL A   1      32.842  19.730  25.707  1.00  0.00    -0.166 F 
ATOM     16  F   UNL A   1      32.085  21.753  25.915  1.00  0.00    -0.166 F 
ATOM     17  F   UNL A   1      31.801  20.672  24.054  1.00  0.00    -0.166 F 
ENDBRANCH   9  14
ENDBRANCH   4   6
ENDBRANCH   3   4
ENDBRANCH   2   3
ENDBRANCH   1   2
BRANCH   1  18
ATOM     18  O   UNL A   1      40.045  23.481  26.738  1.00  0.00    -0.458 OA
BRANCH  18  19
ATOM     19  C   UNL A   1      40.963  24.462  26.586  1.00  0.00     0.338 C 
ATOM     20  O   UNL A   1      41.885  24.496  25.789  1.00  0.00    -0.246 OA
BRANCH  19  21
ATOM     21  C   UNL A   1      40.642  25.599  27.458  1.00  0.00     0.060 A 
ATOM     22  C   UNL A   1      41.514  26.680  27.436  1.00  0.00     0.016 A 
ATOM     23  C   UNL A   1      39.643  25.529  28.422  1.00  0.00     0.016 A 
ATOM     24  C   UNL A   1      41.488  27.629  28.449  1.00  0.00     0.010 A 
ATOM     25  C   UNL A   1      39.535  26.557  29.370  1.00  0.00     0.010 A 
ATOM     26  C   UNL A   1      40.484  27.597  29.424  1.00  0.00    -0.014 A 
BRANCH  26  27
ATOM     27  C   UNL A   1      40.451  28.636  30.497  1.00  0.00     0.031 A 
ATOM     28  C   UNL A   1      41.402  28.554  31.666  1.00  0.00     0.074 A 
ATOM     29  C   UNL A   1      39.583  29.667  30.416  1.00  0.00     0.049 A 
ATOM     30  N   UNL A   1      41.412  29.250  32.775  1.00  0.00    -0.248 NA
ATOM     31  C   UNL A   1      42.475  27.548  31.586  1.00  0.00     0.031 C 
ATOM     32  C   UNL A   1      38.640  29.900  29.318  1.00  0.00     0.029 A 
ATOM     33  N   UNL A   1      39.352  30.719  31.269  1.00  0.00    -0.354 N 
ATOM     34  C   UNL A   1      42.452  28.734  33.542  1.00  0.00     0.074 A 
ATOM     35  C   UNL A   1      43.044  27.657  32.779  1.00  0.00     0.031 C 
ATOM     36  C   UNL A   1      37.963  31.034  29.544  1.00  0.00     0.029 A 
ATOM     37  C   UNL A   1      38.340  31.554  30.851  1.00  0.00     0.049 A 
ATOM     38  H   UNL A   1      39.859  30.862  32.100  1.00  0.00     0.167 HD
ATOM     39  C   UNL A   1      42.874  29.128  34.769  1.00  0.00     0.037 A 
ATOM     40  C   UNL A   1      37.737  32.589  31.469  1.00  0.00     0.037 A 
ATOM     41  C   UNL A   1      42.306  30.233  35.499  1.00  0.00     0.049 A 
ATOM     42  C   UNL A   1      38.185  32.969  32.852  1.00  0.00     0.074 A 
ATOM     43  C   UNL A   1      42.669  30.721  36.743  1.00  0.00     0.029 A 
ATOM     44  N   UNL A   1      41.265  31.033  35.048  1.00  0.00    -0.354 N 
ATOM     45  N   UNL A   1      39.139  32.442  33.582  1.00  0.00    -0.248 NA
ATOM     46  C   UNL A   1      37.466  34.072  33.503  1.00  0.00     0.031 C 
ATOM     47  C   UNL A   1      41.817  31.780  37.065  1.00  0.00     0.029 A 
ATOM     48  C   UNL A   1      40.962  31.996  35.996  1.00  0.00     0.049 A 
ATOM     49  H   UNL A   1      40.810  30.931  34.181  1.00  0.00     0.167 HD
ATOM     50  C   UNL A   1      39.152  33.168  34.768  1.00  0.00     0.074 A 
ATOM     51  C   UNL A   1      38.123  34.179  34.650  1.00  0.00     0.031 C 
ATOM     52  C   UNL A   1      39.943  33.007  35.858  1.00  0.00     0.037 A 
BRANCH  39  53
ATOM     53  C   UNL A   1      43.984  28.346  35.424  1.00  0.00     0.058 A 
ATOM     54  C   UNL A   1      45.337  28.670  35.238  1.00  0.00     0.135 A 
ATOM     55  C   UNL A   1      43.683  27.291  36.302  1.00  0.00     0.135 A 
ATOM     56  F   UNL A   1      45.686  29.657  34.398  1.00  0.00    -0.206 F 
ATOM     57  C   UNL A   1      46.351  27.967  35.884  1.00  0.00     0.059 A 
ATOM     58  C   UNL A   1      44.678  26.594  36.983  1.00  0.00     0.059 A 
ATOM     59  F   UNL A   1      42.406  26.935  36.518  1.00  0.00    -0.206 F 
ATOM     60  C   UNL A   1      46.011  26.933  36.758  1.00  0.00     0.060 A 
BRANCH  60  61
ATOM     61  S   UNL A   1      47.336  26.048  37.607  1.00  0.00     0.124 S 
ATOM     62  O   UNL A   1      48.521  26.715  37.075  1.00  0.00    -0.237 OA
ATOM     63  O   UNL A   1      47.037  26.312  39.011  1.00  0.00    -0.237 OA
ATOM     64  O   UNL A   1      47.153  24.665  37.179  1.00  0.00    -0.744 OA
ENDBRANCH  60  61
ENDBRANCH  39  53
BRANCH  40  65
ATOM     65  C   UNL A   1      36.607  33.301  30.807  1.00  0.00     0.058 A 
ATOM     66  C   UNL A   1      36.834  34.216  29.770  1.00  0.00     0.135 A 
ATOM     67  C   UNL A   1      35.277  33.081  31.202  1.00  0.00     0.135 A 
ATOM     68  F   UNL A   1      38.085  34.469  29.359  1.00  0.00    -0.206 F 
ATOM     69  C   UNL A   1      35.787  34.904  29.162  1.00  0.00     0.059 A 
ATOM     70  C   UNL A   1      34.211  33.728  30.587  1.00  0.00     0.059 A 
ATOM     71  F   UNL A   1      35.000  32.206  32.183  1.00  0.00    -0.206 F 
ATOM     72  C   UNL A   1      34.479  34.651  29.577  1.00  0.00     0.060 A 
BRANCH  72  73
ATOM     73  S   UNL A   1      33.125  35.527  28.764  1.00  0.00     0.124 S 
ATOM     74  O   UNL A   1      32.520  34.460  27.974  1.00  0.00    -0.237 OA
ATOM     75  O   UNL A   1      32.343  36.004  29.900  1.00  0.00    -0.237 OA
ATOM     76  O   UNL A   1      33.808  36.567  28.002  1.00  0.00    -0.744 OA
ENDBRANCH  72  73
ENDBRANCH  40  65
BRANCH  52  77
ATOM     77  C   UNL A   1      39.763  33.981  36.988  1.00  0.00     0.058 A 
ATOM     78  C   UNL A   1      40.426  35.218  37.014  1.00  0.00     0.135 A 
ATOM     79  C   UNL A   1      38.880  33.688  38.041  1.00  0.00     0.135 A 
ATOM     80  F   UNL A   1      41.288  35.544  36.037  1.00  0.00    -0.206 F 
ATOM     81  C   UNL A   1      40.240  36.119  38.057  1.00  0.00     0.059 A 
ATOM     82  C   UNL A   1      38.655  34.588  39.077  1.00  0.00     0.059 A 
ATOM     83  F   UNL A   1      38.215  32.522  38.061  1.00  0.00    -0.206 F 
ATOM     84  C   UNL A   1      39.349  35.796  39.082  1.00  0.00     0.060 A 
BRANCH  84  85
ATOM     85  S   UNL A   1      39.092  36.990  40.412  1.00  0.00     0.124 S 
ATOM     86  O   UNL A   1      38.531  36.145  41.461  1.00  0.00    -0.237 OA
ATOM     87  O   UNL A   1      40.445  37.484  40.652  1.00  0.00    -0.237 OA
ATOM     88  O   UNL A   1      38.172  37.959  39.825  1.00  0.00    -0.744 OA
ENDBRANCH  84  85
ENDBRANCH  52  77
ENDBRANCH  26  27
ENDBRANCH  19  21
ENDBRANCH  18  19
ENDBRANCH   1  18
TORSDOF 16
ENDMDL
MODEL 2
REMARK VINA RESULT:     -10.7      6.980     12.718
REMARK SMILES COc1ccc(C(=O)OCCOC(=O)c2ccc(-c3c4nc(c(-c5c(F)cc(S(=O)(=O)[O-])cc5F)c5ccc([nH]5)c(-c5c(F)cc(S(=O)(=O)[O-])cc5F)c5nc(c(-c6c(F)cc(S(=O)(=O)[O-])cc6F)c6ccc3[nH]6)C=C5)C=C4)cc2)cc1C(F)(F)F
REMARK SMILES IDX 11 1 10 2 9 3 7 4 8 5 6 6 3 7 4 8 82 9 5 10 81 11 2 12 1 13
REMARK SMILES IDX 83 14 84 15 85 16 86 17 12 18 13 19 14 20 15 21 16 22 80 23
REMARK SMILES IDX 17 24 79 25 18 26 19 27 20 28 73 29 21 30 78 31 72 32 74 33
REMARK SMILES IDX 22 34 77 35 71 36 70 37 23 39 57 40 36 41 56 42 37 43 40 44
REMARK SMILES IDX 55 45 75 46 38 47 39 48 54 50 76 51 41 52 24 53 25 54 34 55
REMARK SMILES IDX 26 56 27 57 33 58 35 59 28 60 29 61 30 62 31 63 32 64 58 65
REMARK SMILES IDX 59 66 68 67 60 68 61 69 67 70 69 71 62 72 63 73 64 74 65 75
REMARK SMILES IDX 66 76 42 77 43 78 52 79 44 80 45 81 51 82 53 83 46 84 47 85
REMARK SMILES IDX 48 86 49 87 50 88
REMARK H PARENT 74 38 40 49
REMARK Flexibility Score: inf
ROOT
ATOM      1  C   UNL A   1      34.847  32.347  29.059  1.00  0.00     0.275 C 
ENDROOT
BRANCH   1   2
ATOM      2  C   UNL A   1      33.757  32.495  27.995  1.00  0.00     0.275 C 
BRANCH   2   3
ATOM      3  O   UNL A   1      33.243  31.216  27.566  1.00  0.00    -0.458 OA
BRANCH   3   4
ATOM      4  C   UNL A   1      32.112  31.251  26.818  1.00  0.00     0.338 C 
ATOM      5  O   UNL A   1      31.462  32.246  26.534  1.00  0.00    -0.246 OA
BRANCH   4   6
ATOM      6  C   UNL A   1      31.764  29.899  26.314  1.00  0.00     0.060 A 
ATOM      7  C   UNL A   1      31.267  27.312  25.378  1.00  0.00     0.131 A 
ATOM      8  C   UNL A   1      31.692  27.505  26.691  1.00  0.00     0.048 A 
ATOM      9  C   UNL A   1      31.042  28.400  24.527  1.00  0.00     0.098 A 
ATOM     10  C   UNL A   1      31.983  28.790  27.138  1.00  0.00     0.019 A 
ATOM     11  C   UNL A   1      31.289  29.702  25.014  1.00  0.00     0.032 A 
BRANCH   7  12
ATOM     12  O   UNL A   1      31.055  26.025  24.969  1.00  0.00    -0.496 OA
ATOM     13  C   UNL A   1      29.961  25.448  25.685  1.00  0.00     0.278 C 
ENDBRANCH   7  12
BRANCH   9  14
ATOM     14  C   UNL A   1      30.632  28.228  23.090  1.00  0.00     0.419 C 
ATOM     15  F   UNL A   1      30.619  29.409  22.407  1.00  0.00    -0.166 F 
ATOM     16  F   UNL A   1      31.513  27.432  22.415  1.00  0.00    -0.166 F 
ATOM     17  F   UNL A   1      29.408  27.675  22.883  1.00  0.00    -0.166 F 
ENDBRANCH   9  14
ENDBRANCH   4   6
ENDBRANCH   3   4
ENDBRANCH   2   3
ENDBRANCH   1   2
BRANCH   1  18
ATOM     18  O   UNL A   1      35.499  31.067  28.963  1.00  0.00    -0.458 OA
BRANCH  18  19
ATOM     19  C   UNL A   1      36.270  30.746  30.026  1.00  0.00     0.338 C 
ATOM     20  O   UNL A   1      35.999  30.890  31.206  1.00  0.00    -0.246 OA
BRANCH  19  21
ATOM     21  C   UNL A   1      37.490  30.061  29.582  1.00  0.00     0.060 A 
ATOM     22  C   UNL A   1      38.341  29.579  30.569  1.00  0.00     0.016 A 
ATOM     23  C   UNL A   1      37.901  30.075  28.253  1.00  0.00     0.016 A 
ATOM     24  C   UNL A   1      39.650  29.233  30.265  1.00  0.00     0.010 A 
ATOM     25  C   UNL A   1      39.181  29.603  27.929  1.00  0.00     0.010 A 
ATOM     26  C   UNL A   1      40.089  29.218  28.935  1.00  0.00    -0.014 A 
BRANCH  26  27
ATOM     27  C   UNL A   1      41.494  28.822  28.617  1.00  0.00     0.031 A 
ATOM     28  C   UNL A   1      42.598  29.850  28.641  1.00  0.00     0.074 A 
ATOM     29  C   UNL A   1      41.786  27.537  28.326  1.00  0.00     0.049 A 
ATOM     30  N   UNL A   1      43.836  29.744  28.227  1.00  0.00    -0.248 NA
ATOM     31  C   UNL A   1      42.266  31.177  29.188  1.00  0.00     0.031 C 
ATOM     32  C   UNL A   1      40.827  26.428  28.314  1.00  0.00     0.029 A 
ATOM     33  N   UNL A   1      42.976  26.938  27.987  1.00  0.00    -0.354 N 
ATOM     34  C   UNL A   1      44.412  30.996  28.415  1.00  0.00     0.074 A 
ATOM     35  C   UNL A   1      43.385  31.853  28.967  1.00  0.00     0.031 C 
ATOM     36  C   UNL A   1      41.467  25.287  28.023  1.00  0.00     0.029 A 
ATOM     37  C   UNL A   1      42.858  25.593  27.719  1.00  0.00     0.049 A 
ATOM     38  H   UNL A   1      43.830  27.424  27.939  1.00  0.00     0.167 HD
ATOM     39  C   UNL A   1      45.682  31.392  28.152  1.00  0.00     0.037 A 
ATOM     40  C   UNL A   1      43.748  24.708  27.228  1.00  0.00     0.037 A 
ATOM     41  C   UNL A   1      46.709  30.516  27.645  1.00  0.00     0.049 A 
ATOM     42  C   UNL A   1      45.134  25.184  26.892  1.00  0.00     0.074 A 
ATOM     43  C   UNL A   1      48.030  30.814  27.357  1.00  0.00     0.029 A 
ATOM     44  N   UNL A   1      46.537  29.168  27.364  1.00  0.00    -0.354 N 
ATOM     45  N   UNL A   1      45.649  26.383  27.033  1.00  0.00    -0.248 NA
ATOM     46  C   UNL A   1      46.054  24.195  26.315  1.00  0.00     0.031 C 
ATOM     47  C   UNL A   1      48.641  29.662  26.855  1.00  0.00     0.029 A 
ATOM     48  C   UNL A   1      47.720  28.628  26.889  1.00  0.00     0.049 A 
ATOM     49  H   UNL A   1      45.697  28.669  27.485  1.00  0.00     0.167 HD
ATOM     50  C   UNL A   1      46.962  26.284  26.587  1.00  0.00     0.074 A 
ATOM     51  C   UNL A   1      47.165  24.907  26.188  1.00  0.00     0.031 C 
ATOM     52  C   UNL A   1      47.911  27.249  26.510  1.00  0.00     0.037 A 
BRANCH  39  53
ATOM     53  C   UNL A   1      46.037  32.840  28.375  1.00  0.00     0.058 A 
ATOM     54  C   UNL A   1      45.879  33.811  27.374  1.00  0.00     0.135 A 
ATOM     55  C   UNL A   1      46.487  33.271  29.634  1.00  0.00     0.135 A 
ATOM     56  F   UNL A   1      45.468  33.457  26.147  1.00  0.00    -0.206 F 
ATOM     57  C   UNL A   1      46.169  35.153  27.608  1.00  0.00     0.059 A 
ATOM     58  C   UNL A   1      46.755  34.611  29.901  1.00  0.00     0.059 A 
ATOM     59  F   UNL A   1      46.659  32.386  30.630  1.00  0.00    -0.206 F 
ATOM     60  C   UNL A   1      46.602  35.544  28.877  1.00  0.00     0.060 A 
BRANCH  60  61
ATOM     61  S   UNL A   1      46.950  37.291  29.171  1.00  0.00     0.124 S 
ATOM     62  O   UNL A   1      48.406  37.286  29.277  1.00  0.00    -0.237 OA
ATOM     63  O   UNL A   1      46.404  37.922  27.974  1.00  0.00    -0.237 OA
ATOM     64  O   UNL A   1      46.234  37.579  30.410  1.00  0.00    -0.744 OA
ENDBRANCH  60  61
ENDBRANCH  39  53
BRANCH  40  65
ATOM     65  C   UNL A   1      43.340  23.298  26.974  1.00  0.00     0.058 A 
ATOM     66  C   UNL A   1      43.208  22.379  28.024  1.00  0.00     0.135 A 
ATOM     67  C   UNL A   1      43.078  22.840  25.671  1.00  0.00     0.135 A 
ATOM     68  F   UNL A   1      43.455  22.761  29.286  1.00  0.00    -0.206 F 
ATOM     69  C   UNL A   1      42.851  21.053  27.793  1.00  0.00     0.059 A 
ATOM     70  C   UNL A   1      42.684  21.531  25.419  1.00  0.00     0.059 A 
ATOM     71  F   UNL A   1      43.177  23.680  24.629  1.00  0.00    -0.206 F 
ATOM     72  C   UNL A   1      42.590  20.640  26.486  1.00  0.00     0.060 A 
BRANCH  72  73
ATOM     73  S   UNL A   1      42.100  18.926  26.200  1.00  0.00     0.124 S 
ATOM     74  O   UNL A   1      42.307  18.338  27.518  1.00  0.00    -0.237 OA
ATOM     75  O   UNL A   1      40.711  19.071  25.775  1.00  0.00    -0.237 OA
ATOM     76  O   UNL A   1      43.022  18.482  25.159  1.00  0.00    -0.744 OA
ENDBRANCH  72  73
ENDBRANCH  40  65
BRANCH  52  77
ATOM     77  C   UNL A   1      49.274  26.837  26.026  1.00  0.00     0.058 A 
ATOM     78  C   UNL A   1      49.674  27.019  24.693  1.00  0.00     0.135 A 
ATOM     79  C   UNL A   1      50.207  26.291  26.922  1.00  0.00     0.135 A 
ATOM     80  F   UNL A   1      48.817  27.529  23.793  1.00  0.00    -0.206 F 
ATOM     81  C   UNL A   1      50.943  26.650  24.260  1.00  0.00     0.059 A 
ATOM     82  C   UNL A   1      51.491  25.944  26.518  1.00  0.00     0.059 A 
ATOM     83  F   UNL A   1      49.878  26.103  28.210  1.00  0.00    -0.206 F 
ATOM     84  C   UNL A   1      51.846  26.116  25.182  1.00  0.00     0.060 A 
BRANCH  84  85
ATOM     85  S   UNL A   1      53.500  25.672  24.612  1.00  0.00     0.124 S 
ATOM     86  O   UNL A   1      54.341  26.449  25.517  1.00  0.00    -0.237 OA
ATOM     87  O   UNL A   1      53.521  24.226  24.813  1.00  0.00    -0.237 OA
ATOM     88  O   UNL A   1      53.508  26.106  23.218  1.00  0.00    -0.744 OA
ENDBRANCH  84  85
ENDBRANCH  52  77
ENDBRANCH  26  27
ENDBRANCH  19  21
ENDBRANCH  18  19
ENDBRANCH   1  18
TORSDOF 16
ENDMDL
MODEL 3
REMARK VINA RESULT:     -10.7      6.857     13.686
REMARK SMILES COc1ccc(C(=O)OCCOC(=O)c2ccc(-c3c4nc(c(-c5c(F)cc(S(=O)(=O)[O-])cc5F)c5ccc([nH]5)c(-c5c(F)cc(S(=O)(=O)[O-])cc5F)c5nc(c(-c6c(F)cc(S(=O)(=O)[O-])cc6F)c6ccc3[nH]6)C=C5)C=C4)cc2)cc1C(F)(F)F
REMARK SMILES IDX 11 1 10 2 9 3 7 4 8 5 6 6 3 7 4 8 82 9 5 10 81 11 2 12 1 13
REMARK SMILES IDX 83 14 84 15 85 16 86 17 12 18 13 19 14 20 15 21 16 22 80 23
REMARK SMILES IDX 17 24 79 25 18 26 19 27 20 28 73 29 21 30 78 31 72 32 74 33
REMARK SMILES IDX 22 34 77 35 71 36 70 37 23 39 57 40 36 41 56 42 37 43 40 44
REMARK SMILES IDX 55 45 75 46 38 47 39 48 54 50 76 51 41 52 24 53 25 54 34 55
REMARK SMILES IDX 26 56 27 57 33 58 35 59 28 60 29 61 30 62 31 63 32 64 58 65
REMARK SMILES IDX 59 66 68 67 60 68 61 69 67 70 69 71 62 72 63 73 64 74 65 75
REMARK SMILES IDX 66 76 42 77 43 78 52 79 44 80 45 81 51 82 53 83 46 84 47 85
REMARK SMILES IDX 48 86 49 87 50 88
REMARK H PARENT 74 38 40 49
REMARK Flexibility Score: inf
ROOT
ATOM      1  C   UNL A   1      34.185  29.795  27.878  1.00  0.00     0.275 C 
ENDROOT
BRANCH   1   2
ATOM      2  C   UNL A   1      34.089  31.107  27.097  1.00  0.00     0.275 C 
BRANCH   2   3
ATOM      3  O   UNL A   1      33.640  32.199  27.928  1.00  0.00    -0.458 OA
BRANCH   3   4
ATOM      4  C   UNL A   1      34.561  33.156  28.200  1.00  0.00     0.338 C 
ATOM      5  O   UNL A   1      35.558  33.411  27.542  1.00  0.00    -0.246 OA
BRANCH   4   6
ATOM      6  C   UNL A   1      34.184  33.930  29.410  1.00  0.00     0.060 A 
ATOM      7  C   UNL A   1      33.551  35.519  31.621  1.00  0.00     0.131 A 
ATOM      8  C   UNL A   1      32.991  35.807  30.377  1.00  0.00     0.048 A 
ATOM      9  C   UNL A   1      34.396  34.418  31.793  1.00  0.00     0.098 A 
ATOM     10  C   UNL A   1      33.346  35.042  29.270  1.00  0.00     0.019 A 
ATOM     11  C   UNL A   1      34.702  33.618  30.670  1.00  0.00     0.032 A 
BRANCH   7  12
ATOM     12  O   UNL A   1      33.219  36.339  32.663  1.00  0.00    -0.496 OA
ATOM     13  C   UNL A   1      33.822  37.624  32.499  1.00  0.00     0.278 C 
ENDBRANCH   7  12
BRANCH   9  14
ATOM     14  C   UNL A   1      35.057  34.106  33.107  1.00  0.00     0.419 C 
ATOM     15  F   UNL A   1      34.183  33.599  34.024  1.00  0.00    -0.166 F 
ATOM     16  F   UNL A   1      36.022  33.150  32.963  1.00  0.00    -0.166 F 
ATOM     17  F   UNL A   1      35.668  35.150  33.727  1.00  0.00    -0.166 F 
ENDBRANCH   9  14
ENDBRANCH   4   6
ENDBRANCH   3   4
ENDBRANCH   2   3
ENDBRANCH   1   2
BRANCH   1  18
ATOM     18  O   UNL A   1      35.556  29.404  28.076  1.00  0.00    -0.458 OA
BRANCH  18  19
ATOM     19  C   UNL A   1      36.155  29.969  29.147  1.00  0.00     0.338 C 
ATOM     20  O   UNL A   1      35.616  30.400  30.153  1.00  0.00    -0.246 OA
BRANCH  19  21
ATOM     21  C   UNL A   1      37.614  29.900  29.012  1.00  0.00     0.060 A 
ATOM     22  C   UNL A   1      38.128  29.782  27.727  1.00  0.00     0.016 A 
ATOM     23  C   UNL A   1      38.450  29.741  30.113  1.00  0.00     0.016 A 
ATOM     24  C   UNL A   1      39.439  29.374  27.525  1.00  0.00     0.010 A 
ATOM     25  C   UNL A   1      39.807  29.455  29.906  1.00  0.00     0.010 A 
ATOM     26  C   UNL A   1      40.309  29.223  28.610  1.00  0.00    -0.014 A 
BRANCH  26  27
ATOM     27  C   UNL A   1      41.725  28.805  28.380  1.00  0.00     0.031 A 
ATOM     28  C   UNL A   1      42.840  29.819  28.452  1.00  0.00     0.074 A 
ATOM     29  C   UNL A   1      42.017  27.511  28.125  1.00  0.00     0.049 A 
ATOM     30  N   UNL A   1      44.098  29.691  28.113  1.00  0.00    -0.248 NA
ATOM     31  C   UNL A   1      42.495  31.158  28.960  1.00  0.00     0.031 C 
ATOM     32  C   UNL A   1      41.045  26.414  28.074  1.00  0.00     0.029 A 
ATOM     33  N   UNL A   1      43.216  26.892  27.864  1.00  0.00    -0.354 N 
ATOM     34  C   UNL A   1      44.679  30.939  28.315  1.00  0.00     0.074 A 
ATOM     35  C   UNL A   1      43.633  31.817  28.795  1.00  0.00     0.031 C 
ATOM     36  C   UNL A   1      41.685  25.261  27.837  1.00  0.00     0.029 A 
ATOM     37  C   UNL A   1      43.096  25.545  27.610  1.00  0.00     0.049 A 
ATOM     38  H   UNL A   1      44.078  27.367  27.858  1.00  0.00     0.167 HD
ATOM     39  C   UNL A   1      45.967  31.314  28.120  1.00  0.00     0.037 A 
ATOM     40  C   UNL A   1      44.001  24.642  27.184  1.00  0.00     0.037 A 
ATOM     41  C   UNL A   1      47.010  30.418  27.687  1.00  0.00     0.049 A 
ATOM     42  C   UNL A   1      45.409  25.095  26.922  1.00  0.00     0.074 A 
ATOM     43  C   UNL A   1      48.349  30.696  27.471  1.00  0.00     0.029 A 
ATOM     44  N   UNL A   1      46.836  29.068  27.416  1.00  0.00    -0.354 N 
ATOM     45  N   UNL A   1      45.931  26.289  27.074  1.00  0.00    -0.248 NA
ATOM     46  C   UNL A   1      46.348  24.086  26.414  1.00  0.00     0.031 C 
ATOM     47  C   UNL A   1      48.972  29.528  27.023  1.00  0.00     0.029 A 
ATOM     48  C   UNL A   1      48.037  28.506  27.018  1.00  0.00     0.049 A 
ATOM     49  H   UNL A   1      45.984  28.582  27.496  1.00  0.00     0.167 HD
ATOM     50  C   UNL A   1      47.267  26.168  26.707  1.00  0.00     0.074 A 
ATOM     51  C   UNL A   1      47.475  24.782  26.340  1.00  0.00     0.031 C 
ATOM     52  C   UNL A   1      48.232  27.119  26.670  1.00  0.00     0.037 A 
BRANCH  39  53
ATOM     53  C   UNL A   1      46.328  32.761  28.342  1.00  0.00     0.058 A 
ATOM     54  C   UNL A   1      46.743  33.245  29.592  1.00  0.00     0.135 A 
ATOM     55  C   UNL A   1      46.314  33.666  27.266  1.00  0.00     0.135 A 
ATOM     56  F   UNL A   1      46.760  32.432  30.660  1.00  0.00    -0.206 F 
ATOM     57  C   UNL A   1      47.116  34.574  29.772  1.00  0.00     0.059 A 
ATOM     58  C   UNL A   1      46.712  34.992  27.415  1.00  0.00     0.059 A 
ATOM     59  F   UNL A   1      45.925  33.260  26.047  1.00  0.00    -0.206 F 
ATOM     60  C   UNL A   1      47.101  35.440  28.676  1.00  0.00     0.060 A 
BRANCH  60  61
ATOM     61  S   UNL A   1      47.611  37.155  28.922  1.00  0.00     0.124 S 
ATOM     62  O   UNL A   1      46.361  37.772  29.356  1.00  0.00    -0.237 OA
ATOM     63  O   UNL A   1      48.643  37.028  29.945  1.00  0.00    -0.237 OA
ATOM     64  O   UNL A   1      48.085  37.562  27.603  1.00  0.00    -0.744 OA
ENDBRANCH  60  61
ENDBRANCH  39  53
BRANCH  40  65
ATOM     65  C   UNL A   1      43.590  23.233  26.928  1.00  0.00     0.058 A 
ATOM     66  C   UNL A   1      43.468  22.738  25.622  1.00  0.00     0.135 A 
ATOM     67  C   UNL A   1      43.305  22.353  27.986  1.00  0.00     0.135 A 
ATOM     68  F   UNL A   1      43.718  23.538  24.575  1.00  0.00    -0.206 F 
ATOM     69  C   UNL A   1      43.060  21.430  25.372  1.00  0.00     0.059 A 
ATOM     70  C   UNL A   1      42.932  21.033  27.764  1.00  0.00     0.059 A 
ATOM     71  F   UNL A   1      43.418  22.770  29.258  1.00  0.00    -0.206 F 
ATOM     72  C   UNL A   1      42.796  20.585  26.451  1.00  0.00     0.060 A 
BRANCH  72  73
ATOM     73  S   UNL A   1      42.296  18.883  26.118  1.00  0.00     0.124 S 
ATOM     74  O   UNL A   1      42.477  18.264  27.426  1.00  0.00    -0.237 OA
ATOM     75  O   UNL A   1      40.915  19.050  25.675  1.00  0.00    -0.237 OA
ATOM     76  O   UNL A   1      43.231  18.455  25.081  1.00  0.00    -0.744 OA
ENDBRANCH  72  73
ENDBRANCH  40  65
BRANCH  52  77
ATOM     77  C   UNL A   1      49.614  26.683  26.273  1.00  0.00     0.058 A 
ATOM     78  C   UNL A   1      50.483  26.057  27.180  1.00  0.00     0.135 A 
ATOM     79  C   UNL A   1      50.059  26.858  24.952  1.00  0.00     0.135 A 
ATOM     80  F   UNL A   1      50.112  25.875  28.457  1.00  0.00    -0.206 F 
ATOM     81  C   UNL A   1      51.755  25.643  26.797  1.00  0.00     0.059 A 
ATOM     82  C   UNL A   1      51.313  26.423  24.541  1.00  0.00     0.059 A 
ATOM     83  F   UNL A   1      49.264  27.444  24.043  1.00  0.00    -0.206 F 
ATOM     84  C   UNL A   1      52.159  25.827  25.473  1.00  0.00     0.060 A 
BRANCH  84  85
ATOM     85  S   UNL A   1      53.799  25.253  24.983  1.00  0.00     0.124 S 
ATOM     86  O   UNL A   1      54.617  25.708  26.103  1.00  0.00    -0.237 OA
ATOM     87  O   UNL A   1      53.607  23.809  24.885  1.00  0.00    -0.237 OA
ATOM     88  O   UNL A   1      54.034  25.937  23.715  1.00  0.00    -0.744 OA
ENDBRANCH  84  85
ENDBRANCH  52  77
ENDBRANCH  26  27
ENDBRANCH  19  21
ENDBRANCH  18  19
ENDBRANCH   1  18
TORSDOF 16
ENDMDL
