MODEL 1
REMARK VINA RESULT:     -13.7      0.000      0.000
REMARK SMILES O=C(OCCOC(=O)c1ccc(-n2cc(CSc3nc4ccccc4c(=O)n3-c3ccc(Cl)cc3)nn2)cc1)c1ccc(-c2c3nc(c(-c4c(F)cc(S(=O)(=O)[O-])cc4F)c4ccc([nH]4)c(-c4c(F)cc(S(=O)(=O)[O-])cc4F)c4nc(c(-c5c(F)cc(S(=O)(=O)[O-])cc5F)c5ccc2[nH]5)C=C4)C=C3)cc1
REMARK SMILES IDX 5 1 4 2 3 3 2 4 1 5 40 6 41 7 105 8 42 9 104 10 43 11 44 12
REMARK SMILES IDX 45 13 98 14 46 15 103 16 97 17 99 18 47 19 102 20 96 21
REMARK SMILES IDX 95 22 48 24 82 25 61 26 81 27 62 28 65 29 80 30 100 31 63 32
REMARK SMILES IDX 64 33 79 35 101 36 66 37 49 38 50 39 59 40 51 41 52 42 58 43
REMARK SMILES IDX 60 44 53 45 54 46 55 47 56 48 57 49 83 50 84 51 93 52 85 53
REMARK SMILES IDX 86 54 92 55 94 56 87 57 88 58 89 59 90 60 91 61 67 62 68 63
REMARK SMILES IDX 77 64 69 65 70 66 76 67 78 68 71 69 72 70 73 71 74 72 75 73
REMARK SMILES IDX 6 74 7 75 8 76 9 77 10 78 39 79 11 80 38 81 12 82 13 83
REMARK SMILES IDX 14 84 37 85 15 86 36 87 16 88 17 89 18 90 19 91 28 92 20 93
REMARK SMILES IDX 26 94 21 95 25 96 27 97 22 98 24 99 23 100 29 101 30 102
REMARK SMILES IDX 35 103 31 104 34 105 32 106 33 107
REMARK H PARENT 99 23 65 34
REMARK Flexibility Score: inf
ROOT
ATOM      1  C   UNL A   1      41.236  19.913  26.841  1.00  0.00     0.275 C 
ENDROOT
BRANCH   1   2
ATOM      2  C   UNL A   1      42.285  19.251  25.937  1.00  0.00     0.275 C 
BRANCH   2   3
ATOM      3  O   UNL A   1      42.859  20.165  25.017  1.00  0.00    -0.458 OA
BRANCH   3   4
ATOM      4  C   UNL A   1      44.131  20.651  25.052  1.00  0.00     0.338 C 
ATOM      5  O   UNL A   1      45.012  19.963  24.680  1.00  0.00    -0.246 OA
BRANCH   4   6
ATOM      6  C   UNL A   1      44.412  22.106  25.334  1.00  0.00     0.060 A 
ATOM      7  C   UNL A   1      45.551  22.917  25.322  1.00  0.00     0.016 A 
ATOM      8  C   UNL A   1      43.210  22.740  25.636  1.00  0.00     0.016 A 
ATOM      9  C   UNL A   1      45.473  24.146  26.045  1.00  0.00     0.010 A 
ATOM     10  C   UNL A   1      43.200  24.074  25.876  1.00  0.00     0.010 A 
ATOM     11  C   UNL A   1      44.233  24.515  26.647  1.00  0.00    -0.014 A 
BRANCH  11  12
ATOM     12  C   UNL A   1      43.778  25.788  27.335  1.00  0.00     0.031 A 
ATOM     13  C   UNL A   1      44.888  26.808  26.742  1.00  0.00     0.074 A 
ATOM     14  C   UNL A   1      42.578  25.956  28.127  1.00  0.00     0.049 A 
ATOM     15  N   UNL A   1      46.060  27.003  27.287  1.00  0.00    -0.248 NA
ATOM     16  C   UNL A   1      45.059  27.203  25.279  1.00  0.00     0.031 C 
ATOM     17  C   UNL A   1      41.408  25.062  28.594  1.00  0.00     0.029 A 
ATOM     18  N   UNL A   1      42.095  27.089  28.830  1.00  0.00    -0.354 N 
ATOM     19  C   UNL A   1      46.650  28.051  26.564  1.00  0.00     0.074 A 
ATOM     20  C   UNL A   1      46.216  27.882  25.233  1.00  0.00     0.031 C 
ATOM     21  C   UNL A   1      40.323  25.779  29.075  1.00  0.00     0.029 A 
ATOM     22  C   UNL A   1      40.672  27.182  29.174  1.00  0.00     0.049 A 
ATOM     23  H   UNL A   1      42.713  27.812  29.086  1.00  0.00     0.167 HD
ATOM     24  C   UNL A   1      46.961  29.191  27.241  1.00  0.00     0.037 A 
ATOM     25  C   UNL A   1      39.965  28.264  29.742  1.00  0.00     0.037 A 
ATOM     26  C   UNL A   1      46.930  28.857  28.649  1.00  0.00     0.049 A 
ATOM     27  C   UNL A   1      41.044  29.208  30.167  1.00  0.00     0.074 A 
ATOM     28  C   UNL A   1      47.596  27.951  29.448  1.00  0.00     0.029 A 
ATOM     29  N   UNL A   1      45.679  29.021  29.179  1.00  0.00    -0.354 N 
ATOM     30  N   UNL A   1      41.877  28.885  31.128  1.00  0.00    -0.248 NA
ATOM     31  C   UNL A   1      41.570  30.001  29.054  1.00  0.00     0.031 C 
ATOM     32  C   UNL A   1      46.605  27.399  30.318  1.00  0.00     0.029 A 
ATOM     33  C   UNL A   1      45.429  28.130  30.177  1.00  0.00     0.049 A 
ATOM     34  H   UNL A   1      45.037  29.701  28.874  1.00  0.00     0.167 HD
ATOM     35  C   UNL A   1      43.119  28.960  30.515  1.00  0.00     0.074 A 
ATOM     36  C   UNL A   1      42.855  29.649  29.217  1.00  0.00     0.031 C 
ATOM     37  C   UNL A   1      44.156  28.118  30.858  1.00  0.00     0.037 A 
BRANCH  24  38
ATOM     38  C   UNL A   1      46.668  30.616  26.782  1.00  0.00     0.058 A 
ATOM     39  C   UNL A   1      47.739  31.526  26.882  1.00  0.00     0.135 A 
ATOM     40  C   UNL A   1      45.399  31.202  26.547  1.00  0.00     0.135 A 
ATOM     41  F   UNL A   1      48.992  31.083  27.073  1.00  0.00    -0.206 F 
ATOM     42  C   UNL A   1      47.565  32.905  26.838  1.00  0.00     0.059 A 
ATOM     43  C   UNL A   1      45.210  32.585  26.440  1.00  0.00     0.059 A 
ATOM     44  F   UNL A   1      44.279  30.475  26.459  1.00  0.00    -0.206 F 
ATOM     45  C   UNL A   1      46.299  33.427  26.605  1.00  0.00     0.060 A 
BRANCH  45  46
ATOM     46  S   UNL A   1      46.147  35.215  26.449  1.00  0.00     0.124 S 
ATOM     47  O   UNL A   1      46.927  35.482  25.247  1.00  0.00    -0.237 OA
ATOM     48  O   UNL A   1      44.700  35.369  26.316  1.00  0.00    -0.237 OA
ATOM     49  O   UNL A   1      46.709  35.717  27.699  1.00  0.00    -0.744 OA
ENDBRANCH  45  46
ENDBRANCH  24  38
BRANCH  25  50
ATOM     50  C   UNL A   1      38.543  28.833  29.437  1.00  0.00     0.058 A 
ATOM     51  C   UNL A   1      37.446  29.155  30.316  1.00  0.00     0.135 A 
ATOM     52  C   UNL A   1      38.397  29.389  28.162  1.00  0.00     0.135 A 
ATOM     53  F   UNL A   1      37.419  28.711  31.586  1.00  0.00    -0.206 F 
ATOM     54  C   UNL A   1      36.334  29.985  29.928  1.00  0.00     0.059 A 
ATOM     55  C   UNL A   1      37.339  30.219  27.771  1.00  0.00     0.059 A 
ATOM     56  F   UNL A   1      39.364  29.216  27.254  1.00  0.00    -0.206 F 
ATOM     57  C   UNL A   1      36.316  30.542  28.649  1.00  0.00     0.060 A 
BRANCH  57  58
ATOM     58  S   UNL A   1      35.074  31.776  28.122  1.00  0.00     0.124 S 
ATOM     59  O   UNL A   1      34.254  31.026  27.176  1.00  0.00    -0.237 OA
ATOM     60  O   UNL A   1      34.425  32.137  29.377  1.00  0.00    -0.237 OA
ATOM     61  O   UNL A   1      35.885  32.834  27.523  1.00  0.00    -0.744 OA
ENDBRANCH  57  58
ENDBRANCH  25  50
BRANCH  37  62
ATOM     62  C   UNL A   1      44.053  27.180  32.052  1.00  0.00     0.058 A 
ATOM     63  C   UNL A   1      44.039  25.764  32.065  1.00  0.00     0.135 A 
ATOM     64  C   UNL A   1      44.186  27.795  33.300  1.00  0.00     0.135 A 
ATOM     65  F   UNL A   1      44.123  25.060  30.928  1.00  0.00    -0.206 F 
ATOM     66  C   UNL A   1      44.035  25.019  33.260  1.00  0.00     0.059 A 
ATOM     67  C   UNL A   1      44.232  27.082  34.491  1.00  0.00     0.059 A 
ATOM     68  F   UNL A   1      44.363  29.123  33.366  1.00  0.00    -0.206 F 
ATOM     69  C   UNL A   1      44.116  25.697  34.475  1.00  0.00     0.060 A 
BRANCH  69  70
ATOM     70  S   UNL A   1      44.123  24.782  36.035  1.00  0.00     0.124 S 
ATOM     71  O   UNL A   1      42.914  23.971  35.925  1.00  0.00    -0.237 OA
ATOM     72  O   UNL A   1      45.384  24.049  35.967  1.00  0.00    -0.237 OA
ATOM     73  O   UNL A   1      44.076  25.834  37.047  1.00  0.00    -0.744 OA
ENDBRANCH  69  70
ENDBRANCH  37  62
ENDBRANCH  11  12
ENDBRANCH   4   6
ENDBRANCH   3   4
ENDBRANCH   2   3
ENDBRANCH   1   2
BRANCH   1  74
ATOM     74  O   UNL A   1      40.231  20.635  26.081  1.00  0.00    -0.458 OA
BRANCH  74  75
ATOM     75  C   UNL A   1      39.732  21.789  26.626  1.00  0.00     0.338 C 
ATOM     76  O   UNL A   1      40.298  22.505  27.427  1.00  0.00    -0.246 OA
BRANCH  75  77
ATOM     77  C   UNL A   1      38.424  22.122  25.969  1.00  0.00     0.060 A 
ATOM     78  C   UNL A   1      37.721  21.146  25.246  1.00  0.00     0.018 A 
ATOM     79  C   UNL A   1      37.880  23.405  26.041  1.00  0.00     0.018 A 
ATOM     80  C   UNL A   1      36.422  21.389  24.747  1.00  0.00     0.029 A 
ATOM     81  C   UNL A   1      36.620  23.681  25.457  1.00  0.00     0.029 A 
ATOM     82  C   UNL A   1      35.844  22.652  24.881  1.00  0.00     0.066 A 
BRANCH  82  83
ATOM     83  N   UNL A   1      34.658  22.944  24.143  1.00  0.00    -0.220 N 
ATOM     84  C   UNL A   1      34.616  23.881  23.145  1.00  0.00     0.141 A 
ATOM     85  N   UNL A   1      33.536  22.208  24.054  1.00  0.00    -0.062 NA
ATOM     86  C   UNL A   1      33.372  23.831  22.545  1.00  0.00     0.093 A 
ATOM     87  N   UNL A   1      32.710  22.798  23.172  1.00  0.00    -0.134 NA
BRANCH  86  88
ATOM     88  C   UNL A   1      32.677  24.741  21.531  1.00  0.00     0.138 C 
BRANCH  88  89
ATOM     89  S   UNL A   1      32.679  26.593  21.710  1.00  0.00    -0.081 SA
BRANCH  89  90
ATOM     90  C   UNL A   1      31.419  27.390  22.705  1.00  0.00     0.176 A 
ATOM     91  N   UNL A   1      30.472  27.927  21.970  1.00  0.00    -0.223 NA
ATOM     92  N   UNL A   1      31.400  27.613  24.088  1.00  0.00    -0.255 N 
ATOM     93  C   UNL A   1      29.672  28.923  22.580  1.00  0.00     0.079 A 
ATOM     94  C   UNL A   1      31.357  28.976  24.310  1.00  0.00     0.266 A 
ATOM     95  C   UNL A   1      28.414  29.305  22.108  1.00  0.00     0.029 A 
ATOM     96  C   UNL A   1      30.223  29.645  23.640  1.00  0.00     0.066 A 
ATOM     97  O   UNL A   1      32.223  29.625  24.886  1.00  0.00    -0.268 OA
ATOM     98  C   UNL A   1      27.749  30.402  22.688  1.00  0.00     0.002 A 
ATOM     99  C   UNL A   1      29.645  30.815  24.131  1.00  0.00     0.016 A 
ATOM    100  C   UNL A   1      28.383  31.179  23.665  1.00  0.00     0.001 A 
BRANCH  92 101
ATOM    101  C   UNL A   1      31.698  26.676  25.166  1.00  0.00     0.051 A 
ATOM    102  C   UNL A   1      32.910  26.265  25.717  1.00  0.00     0.028 A 
ATOM    103  C   UNL A   1      30.639  25.952  25.639  1.00  0.00     0.028 A 
ATOM    104  C   UNL A   1      32.976  25.049  26.487  1.00  0.00     0.022 A 
ATOM    105  C   UNL A   1      30.648  24.711  26.264  1.00  0.00     0.022 A 
ATOM    106  C   UNL A   1      31.856  24.231  26.663  1.00  0.00     0.041 A 
ATOM    107  Cl  UNL A   1      31.945  22.609  27.214  1.00  0.00    -0.084 Cl
ENDBRANCH  92 101
ENDBRANCH  89  90
ENDBRANCH  88  89
ENDBRANCH  86  88
ENDBRANCH  82  83
ENDBRANCH  75  77
ENDBRANCH  74  75
ENDBRANCH   1  74
TORSDOF 19
ENDMDL
MODEL 2
REMARK VINA RESULT:     -13.1      2.426      3.267
REMARK SMILES O=C(OCCOC(=O)c1ccc(-n2cc(CSc3nc4ccccc4c(=O)n3-c3ccc(Cl)cc3)nn2)cc1)c1ccc(-c2c3nc(c(-c4c(F)cc(S(=O)(=O)[O-])cc4F)c4ccc([nH]4)c(-c4c(F)cc(S(=O)(=O)[O-])cc4F)c4nc(c(-c5c(F)cc(S(=O)(=O)[O-])cc5F)c5ccc2[nH]5)C=C4)C=C3)cc1
REMARK SMILES IDX 5 1 4 2 3 3 2 4 1 5 40 6 41 7 105 8 42 9 104 10 43 11 44 12
REMARK SMILES IDX 45 13 98 14 46 15 103 16 97 17 99 18 47 19 102 20 96 21
REMARK SMILES IDX 95 22 48 24 82 25 61 26 81 27 62 28 65 29 80 30 100 31 63 32
REMARK SMILES IDX 64 33 79 35 101 36 66 37 49 38 50 39 59 40 51 41 52 42 58 43
REMARK SMILES IDX 60 44 53 45 54 46 55 47 56 48 57 49 83 50 84 51 93 52 85 53
REMARK SMILES IDX 86 54 92 55 94 56 87 57 88 58 89 59 90 60 91 61 67 62 68 63
REMARK SMILES IDX 77 64 69 65 70 66 76 67 78 68 71 69 72 70 73 71 74 72 75 73
REMARK SMILES IDX 6 74 7 75 8 76 9 77 10 78 39 79 11 80 38 81 12 82 13 83
REMARK SMILES IDX 14 84 37 85 15 86 36 87 16 88 17 89 18 90 19 91 28 92 20 93
REMARK SMILES IDX 26 94 21 95 25 96 27 97 22 98 24 99 23 100 29 101 30 102
REMARK SMILES IDX 35 103 31 104 34 105 32 106 33 107
REMARK H PARENT 99 23 65 34
REMARK Flexibility Score: inf
ROOT
ATOM      1  C   UNL A   1      41.571  20.858  26.540  1.00  0.00     0.275 C 
ENDROOT
BRANCH   1   2
ATOM      2  C   UNL A   1      42.889  21.505  26.097  1.00  0.00     0.275 C 
BRANCH   2   3
ATOM      3  O   UNL A   1      43.064  22.804  26.639  1.00  0.00    -0.458 OA
BRANCH   3   4
ATOM      4  C   UNL A   1      42.958  23.981  25.961  1.00  0.00     0.338 C 
ATOM      5  O   UNL A   1      43.348  24.033  24.851  1.00  0.00    -0.246 OA
BRANCH   4   6
ATOM      6  C   UNL A   1      42.159  25.137  26.509  1.00  0.00     0.060 A 
ATOM      7  C   UNL A   1      41.017  25.834  26.104  1.00  0.00     0.016 A 
ATOM      8  C   UNL A   1      42.722  25.532  27.721  1.00  0.00     0.016 A 
ATOM      9  C   UNL A   1      40.814  27.124  26.679  1.00  0.00     0.010 A 
ATOM     10  C   UNL A   1      42.140  26.527  28.434  1.00  0.00     0.010 A 
ATOM     11  C   UNL A   1      41.716  27.583  27.685  1.00  0.00    -0.014 A 
BRANCH  11  12
ATOM     12  C   UNL A   1      41.699  28.803  28.586  1.00  0.00     0.031 A 
ATOM     13  C   UNL A   1      43.062  29.514  28.076  1.00  0.00     0.074 A 
ATOM     14  C   UNL A   1      40.628  29.200  29.476  1.00  0.00     0.049 A 
ATOM     15  N   UNL A   1      44.246  29.247  28.561  1.00  0.00    -0.248 NA
ATOM     16  C   UNL A   1      43.320  30.072  26.680  1.00  0.00     0.031 C 
ATOM     17  C   UNL A   1      39.246  28.645  29.885  1.00  0.00     0.029 A 
ATOM     18  N   UNL A   1      40.542  30.295  30.373  1.00  0.00    -0.354 N 
ATOM     19  C   UNL A   1      45.122  30.166  27.964  1.00  0.00     0.074 A 
ATOM     20  C   UNL A   1      44.632  30.360  26.655  1.00  0.00     0.031 C 
ATOM     21  C   UNL A   1      38.451  29.573  30.542  1.00  0.00     0.029 A 
ATOM     22  C   UNL A   1      39.228  30.764  30.826  1.00  0.00     0.049 A 
ATOM     23  H   UNL A   1      41.361  30.740  30.690  1.00  0.00     0.167 HD
ATOM     24  C   UNL A   1      45.790  31.027  28.780  1.00  0.00     0.037 A 
ATOM     25  C   UNL A   1      38.908  31.903  31.597  1.00  0.00     0.037 A 
ATOM     26  C   UNL A   1      45.682  30.493  30.121  1.00  0.00     0.049 A 
ATOM     27  C   UNL A   1      40.238  32.385  32.083  1.00  0.00     0.074 A 
ATOM     28  C   UNL A   1      46.044  29.307  30.727  1.00  0.00     0.029 A 
ATOM     29  N   UNL A   1      44.558  30.944  30.755  1.00  0.00    -0.354 N 
ATOM     30  N   UNL A   1      40.945  31.669  32.923  1.00  0.00    -0.248 NA
ATOM     31  C   UNL A   1      40.965  33.149  31.067  1.00  0.00     0.031 C 
ATOM     32  C   UNL A   1      44.947  28.952  31.571  1.00  0.00     0.029 A 
ATOM     33  C   UNL A   1      44.059  30.022  31.624  1.00  0.00     0.049 A 
ATOM     34  H   UNL A   1      44.157  31.830  30.602  1.00  0.00     0.167 HD
ATOM     35  C   UNL A   1      42.136  31.456  32.243  1.00  0.00     0.074 A 
ATOM     36  C   UNL A   1      42.077  32.397  31.085  1.00  0.00     0.031 C 
ATOM     37  C   UNL A   1      42.861  30.291  32.383  1.00  0.00     0.037 A 
BRANCH  24  38
ATOM     38  C   UNL A   1      45.952  32.528  28.561  1.00  0.00     0.058 A 
ATOM     39  C   UNL A   1      47.242  33.047  28.792  1.00  0.00     0.135 A 
ATOM     40  C   UNL A   1      44.925  33.498  28.441  1.00  0.00     0.135 A 
ATOM     41  F   UNL A   1      48.297  32.224  28.892  1.00  0.00    -0.206 F 
ATOM     42  C   UNL A   1      47.488  34.403  28.974  1.00  0.00     0.059 A 
ATOM     43  C   UNL A   1      45.161  34.873  28.561  1.00  0.00     0.059 A 
ATOM     44  F   UNL A   1      43.643  33.164  28.252  1.00  0.00    -0.206 F 
ATOM     45  C   UNL A   1      46.445  35.311  28.846  1.00  0.00     0.060 A 
BRANCH  45  46
ATOM     46  S   UNL A   1      46.839  37.064  28.982  1.00  0.00     0.124 S 
ATOM     47  O   UNL A   1      45.535  37.646  29.271  1.00  0.00    -0.237 OA
ATOM     48  O   UNL A   1      47.793  37.058  30.089  1.00  0.00    -0.237 OA
ATOM     49  O   UNL A   1      47.409  37.389  27.679  1.00  0.00    -0.744 OA
ENDBRANCH  45  46
ENDBRANCH  24  38
BRANCH  25  50
ATOM     50  C   UNL A   1      37.733  32.924  31.481  1.00  0.00     0.058 A 
ATOM     51  C   UNL A   1      36.536  32.899  30.676  1.00  0.00     0.135 A 
ATOM     52  C   UNL A   1      37.672  33.864  32.514  1.00  0.00     0.135 A 
ATOM     53  F   UNL A   1      36.413  32.050  29.639  1.00  0.00    -0.206 F 
ATOM     54  C   UNL A   1      35.391  33.735  30.929  1.00  0.00     0.059 A 
ATOM     55  C   UNL A   1      36.560  34.669  32.794  1.00  0.00     0.059 A 
ATOM     56  F   UNL A   1      38.691  33.964  33.374  1.00  0.00    -0.206 F 
ATOM     57  C   UNL A   1      35.409  34.598  32.025  1.00  0.00     0.060 A 
BRANCH  57  58
ATOM     58  S   UNL A   1      33.941  35.544  32.567  1.00  0.00     0.124 S 
ATOM     59  O   UNL A   1      34.425  36.244  33.752  1.00  0.00    -0.237 OA
ATOM     60  O   UNL A   1      33.651  36.381  31.409  1.00  0.00    -0.237 OA
ATOM     61  O   UNL A   1      32.950  34.502  32.835  1.00  0.00    -0.744 OA
ENDBRANCH  57  58
ENDBRANCH  25  50
BRANCH  37  62
ATOM     62  C   UNL A   1      42.491  29.248  33.428  1.00  0.00     0.058 A 
ATOM     63  C   UNL A   1      41.695  28.087  33.273  1.00  0.00     0.135 A 
ATOM     64  C   UNL A   1      43.184  29.350  34.636  1.00  0.00     0.135 A 
ATOM     65  F   UNL A   1      41.150  27.773  32.090  1.00  0.00    -0.206 F 
ATOM     66  C   UNL A   1      41.512  27.153  34.310  1.00  0.00     0.059 A 
ATOM     67  C   UNL A   1      43.058  28.418  35.659  1.00  0.00     0.059 A 
ATOM     68  F   UNL A   1      44.078  30.337  34.804  1.00  0.00    -0.206 F 
ATOM     69  C   UNL A   1      42.193  27.342  35.512  1.00  0.00     0.060 A 
BRANCH  69  70
ATOM     70  S   UNL A   1      41.995  26.163  36.870  1.00  0.00     0.124 S 
ATOM     71  O   UNL A   1      42.922  26.683  37.870  1.00  0.00    -0.237 OA
ATOM     72  O   UNL A   1      40.577  26.289  37.196  1.00  0.00    -0.237 OA
ATOM     73  O   UNL A   1      42.378  24.887  36.271  1.00  0.00    -0.744 OA
ENDBRANCH  69  70
ENDBRANCH  37  62
ENDBRANCH  11  12
ENDBRANCH   4   6
ENDBRANCH   3   4
ENDBRANCH   2   3
ENDBRANCH   1   2
BRANCH   1  74
ATOM     74  O   UNL A   1      40.415  21.480  25.916  1.00  0.00    -0.458 OA
BRANCH  74  75
ATOM     75  C   UNL A   1      39.644  22.306  26.690  1.00  0.00     0.338 C 
ATOM     76  O   UNL A   1      39.996  22.867  27.708  1.00  0.00    -0.246 OA
BRANCH  75  77
ATOM     77  C   UNL A   1      38.327  22.537  26.008  1.00  0.00     0.060 A 
ATOM     78  C   UNL A   1      37.722  21.516  25.261  1.00  0.00     0.018 A 
ATOM     79  C   UNL A   1      37.678  23.771  26.080  1.00  0.00     0.018 A 
ATOM     80  C   UNL A   1      36.419  21.657  24.735  1.00  0.00     0.029 A 
ATOM     81  C   UNL A   1      36.411  23.948  25.472  1.00  0.00     0.029 A 
ATOM     82  C   UNL A   1      35.736  22.866  24.869  1.00  0.00     0.066 A 
BRANCH  82  83
ATOM     83  N   UNL A   1      34.546  23.067  24.108  1.00  0.00    -0.220 N 
ATOM     84  C   UNL A   1      34.418  24.065  23.179  1.00  0.00     0.141 A 
ATOM     85  N   UNL A   1      33.526  22.210  23.924  1.00  0.00    -0.062 NA
ATOM     86  C   UNL A   1      33.208  23.911  22.528  1.00  0.00     0.093 A 
ATOM     87  N   UNL A   1      32.660  22.761  23.055  1.00  0.00    -0.134 NA
BRANCH  86  88
ATOM     88  C   UNL A   1      32.437  24.804  21.555  1.00  0.00     0.138 C 
BRANCH  88  89
ATOM     89  S   UNL A   1      32.470  26.659  21.689  1.00  0.00    -0.081 SA
BRANCH  89  90
ATOM     90  C   UNL A   1      31.256  27.498  22.707  1.00  0.00     0.176 A 
ATOM     91  N   UNL A   1      30.311  28.061  21.990  1.00  0.00    -0.223 NA
ATOM     92  N   UNL A   1      31.273  27.726  24.088  1.00  0.00    -0.255 N 
ATOM     93  C   UNL A   1      29.554  29.083  22.611  1.00  0.00     0.079 A 
ATOM     94  C   UNL A   1      31.276  29.091  24.306  1.00  0.00     0.266 A 
ATOM     95  C   UNL A   1      28.299  29.502  22.164  1.00  0.00     0.029 A 
ATOM     96  C   UNL A   1      30.149  29.792  23.657  1.00  0.00     0.066 A 
ATOM     97  O   UNL A   1      32.173  29.715  24.861  1.00  0.00    -0.268 OA
ATOM     98  C   UNL A   1      27.680  30.620  22.753  1.00  0.00     0.002 A 
ATOM     99  C   UNL A   1      29.617  30.980  24.154  1.00  0.00     0.016 A 
ATOM    100  C   UNL A   1      28.357  31.381  23.714  1.00  0.00     0.001 A 
BRANCH  92 101
ATOM    101  C   UNL A   1      31.565  26.785  25.164  1.00  0.00     0.051 A 
ATOM    102  C   UNL A   1      32.768  26.423  25.767  1.00  0.00     0.028 A 
ATOM    103  C   UNL A   1      30.521  26.002  25.573  1.00  0.00     0.028 A 
ATOM    104  C   UNL A   1      32.856  25.197  26.519  1.00  0.00     0.022 A 
ATOM    105  C   UNL A   1      30.562  24.752  26.178  1.00  0.00     0.022 A 
ATOM    106  C   UNL A   1      31.771  24.322  26.627  1.00  0.00     0.041 A 
ATOM    107  Cl  UNL A   1      31.913  22.696  27.154  1.00  0.00    -0.084 Cl
ENDBRANCH  92 101
ENDBRANCH  89  90
ENDBRANCH  88  89
ENDBRANCH  86  88
ENDBRANCH  82  83
ENDBRANCH  75  77
ENDBRANCH  74  75
ENDBRANCH   1  74
TORSDOF 19
ENDMDL
MODEL 3
REMARK VINA RESULT:     -13.0      3.190      5.247
REMARK SMILES O=C(OCCOC(=O)c1ccc(-n2cc(CSc3nc4ccccc4c(=O)n3-c3ccc(Cl)cc3)nn2)cc1)c1ccc(-c2c3nc(c(-c4c(F)cc(S(=O)(=O)[O-])cc4F)c4ccc([nH]4)c(-c4c(F)cc(S(=O)(=O)[O-])cc4F)c4nc(c(-c5c(F)cc(S(=O)(=O)[O-])cc5F)c5ccc2[nH]5)C=C4)C=C3)cc1
REMARK SMILES IDX 5 1 4 2 3 3 2 4 1 5 40 6 41 7 105 8 42 9 104 10 43 11 44 12
REMARK SMILES IDX 45 13 98 14 46 15 103 16 97 17 99 18 47 19 102 20 96 21
REMARK SMILES IDX 95 22 48 24 82 25 61 26 81 27 62 28 65 29 80 30 100 31 63 32
REMARK SMILES IDX 64 33 79 35 101 36 66 37 49 38 50 39 59 40 51 41 52 42 58 43
REMARK SMILES IDX 60 44 53 45 54 46 55 47 56 48 57 49 83 50 84 51 93 52 85 53
REMARK SMILES IDX 86 54 92 55 94 56 87 57 88 58 89 59 90 60 91 61 67 62 68 63
REMARK SMILES IDX 77 64 69 65 70 66 76 67 78 68 71 69 72 70 73 71 74 72 75 73
REMARK SMILES IDX 6 74 7 75 8 76 9 77 10 78 39 79 11 80 38 81 12 82 13 83
REMARK SMILES IDX 14 84 37 85 15 86 36 87 16 88 17 89 18 90 19 91 28 92 20 93
REMARK SMILES IDX 26 94 21 95 25 96 27 97 22 98 24 99 23 100 29 101 30 102
REMARK SMILES IDX 35 103 31 104 34 105 32 106 33 107
REMARK H PARENT 99 23 65 34
REMARK Flexibility Score: inf
ROOT
ATOM      1  C   UNL A   1      43.439  21.371  26.105  1.00  0.00     0.275 C 
ENDROOT
BRANCH   1   2
ATOM      2  C   UNL A   1      44.672  22.205  25.733  1.00  0.00     0.275 C 
BRANCH   2   3
ATOM      3  O   UNL A   1      44.826  23.344  26.565  1.00  0.00    -0.458 OA
BRANCH   3   4
ATOM      4  C   UNL A   1      44.799  24.644  26.163  1.00  0.00     0.338 C 
ATOM      5  O   UNL A   1      45.589  25.010  25.370  1.00  0.00    -0.246 OA
BRANCH   4   6
ATOM      6  C   UNL A   1      43.656  25.559  26.529  1.00  0.00     0.060 A 
ATOM      7  C   UNL A   1      42.469  25.961  25.909  1.00  0.00     0.016 A 
ATOM      8  C   UNL A   1      43.879  26.058  27.810  1.00  0.00     0.016 A 
ATOM      9  C   UNL A   1      41.857  27.152  26.404  1.00  0.00     0.010 A 
ATOM     10  C   UNL A   1      42.954  26.867  28.382  1.00  0.00     0.010 A 
ATOM     11  C   UNL A   1      42.425  27.800  27.541  1.00  0.00    -0.014 A 
BRANCH  11  12
ATOM     12  C   UNL A   1      41.949  28.962  28.391  1.00  0.00     0.031 A 
ATOM     13  C   UNL A   1      43.117  30.029  28.039  1.00  0.00     0.074 A 
ATOM     14  C   UNL A   1      40.701  29.040  29.121  1.00  0.00     0.049 A 
ATOM     15  N   UNL A   1      44.252  30.101  28.682  1.00  0.00    -0.248 NA
ATOM     16  C   UNL A   1      43.394  30.643  26.671  1.00  0.00     0.031 C 
ATOM     17  C   UNL A   1      39.485  28.118  29.365  1.00  0.00     0.029 A 
ATOM     18  N   UNL A   1      40.194  30.062  29.963  1.00  0.00    -0.354 N 
ATOM     19  C   UNL A   1      44.910  31.232  28.175  1.00  0.00     0.074 A 
ATOM     20  C   UNL A   1      44.565  31.286  26.808  1.00  0.00     0.031 C 
ATOM     21  C   UNL A   1      38.384  28.783  29.883  1.00  0.00     0.029 A 
ATOM     22  C   UNL A   1      38.753  30.143  30.225  1.00  0.00     0.049 A 
ATOM     23  H   UNL A   1      40.807  30.717  30.369  1.00  0.00     0.167 HD
ATOM     24  C   UNL A   1      45.197  32.241  29.042  1.00  0.00     0.037 A 
ATOM     25  C   UNL A   1      38.030  31.143  30.911  1.00  0.00     0.037 A 
ATOM     26  C   UNL A   1      45.063  31.691  30.374  1.00  0.00     0.049 A 
ATOM     27  C   UNL A   1      39.096  31.975  31.549  1.00  0.00     0.074 A 
ATOM     28  C   UNL A   1      45.656  30.651  31.061  1.00  0.00     0.029 A 
ATOM     29  N   UNL A   1      43.783  31.807  30.842  1.00  0.00    -0.354 N 
ATOM     30  N   UNL A   1      39.855  31.482  32.497  1.00  0.00    -0.248 NA
ATOM     31  C   UNL A   1      39.712  32.917  30.611  1.00  0.00     0.031 C 
ATOM     32  C   UNL A   1      44.598  30.000  31.767  1.00  0.00     0.029 A 
ATOM     33  C   UNL A   1      43.448  30.779  31.668  1.00  0.00     0.049 A 
ATOM     34  H   UNL A   1      43.176  32.546  30.609  1.00  0.00     0.167 HD
ATOM     35  C   UNL A   1      41.138  31.614  31.985  1.00  0.00     0.074 A 
ATOM     36  C   UNL A   1      40.975  32.507  30.798  1.00  0.00     0.031 C 
ATOM     37  C   UNL A   1      42.132  30.698  32.256  1.00  0.00     0.037 A 
BRANCH  24  38
ATOM     38  C   UNL A   1      44.963  33.728  28.796  1.00  0.00     0.058 A 
ATOM     39  C   UNL A   1      46.054  34.576  29.076  1.00  0.00     0.135 A 
ATOM     40  C   UNL A   1      43.722  34.387  28.606  1.00  0.00     0.135 A 
ATOM     41  F   UNL A   1      47.284  34.066  29.244  1.00  0.00    -0.206 F 
ATOM     42  C   UNL A   1      45.920  35.950  29.238  1.00  0.00     0.059 A 
ATOM     43  C   UNL A   1      43.576  35.775  28.706  1.00  0.00     0.059 A 
ATOM     44  F   UNL A   1      42.587  33.720  28.365  1.00  0.00    -0.206 F 
ATOM     45  C   UNL A   1      44.680  36.545  29.040  1.00  0.00     0.060 A 
BRANCH  45  46
ATOM     46  S   UNL A   1      44.584  38.340  29.155  1.00  0.00     0.124 S 
ATOM     47  O   UNL A   1      43.280  38.535  29.775  1.00  0.00    -0.237 OA
ATOM     48  O   UNL A   1      45.740  38.635  29.999  1.00  0.00    -0.237 OA
ATOM     49  O   UNL A   1      44.704  38.779  27.768  1.00  0.00    -0.744 OA
ENDBRANCH  45  46
ENDBRANCH  24  38
BRANCH  25  50
ATOM     50  C   UNL A   1      36.643  31.795  30.610  1.00  0.00     0.058 A 
ATOM     51  C   UNL A   1      35.661  32.376  31.492  1.00  0.00     0.135 A 
ATOM     52  C   UNL A   1      36.437  32.134  29.269  1.00  0.00     0.135 A 
ATOM     53  F   UNL A   1      35.707  32.163  32.820  1.00  0.00    -0.206 F 
ATOM     54  C   UNL A   1      34.599  33.237  31.040  1.00  0.00     0.059 A 
ATOM     55  C   UNL A   1      35.426  32.989  28.811  1.00  0.00     0.059 A 
ATOM     56  F   UNL A   1      37.300  31.708  28.342  1.00  0.00    -0.206 F 
ATOM     57  C   UNL A   1      34.518  33.563  29.686  1.00  0.00     0.060 A 
BRANCH  57  58
ATOM     58  S   UNL A   1      33.349  34.810  29.034  1.00  0.00     0.124 S 
ATOM     59  O   UNL A   1      32.607  34.061  28.025  1.00  0.00    -0.237 OA
ATOM     60  O   UNL A   1      32.594  35.196  30.220  1.00  0.00    -0.237 OA
ATOM     61  O   UNL A   1      34.230  35.848  28.501  1.00  0.00    -0.744 OA
ENDBRANCH  57  58
ENDBRANCH  25  50
BRANCH  37  62
ATOM     62  C   UNL A   1      41.930  29.588  33.277  1.00  0.00     0.058 A 
ATOM     63  C   UNL A   1      41.707  28.209  33.050  1.00  0.00     0.135 A 
ATOM     64  C   UNL A   1      42.193  29.948  34.602  1.00  0.00     0.135 A 
ATOM     65  F   UNL A   1      41.649  27.712  31.807  1.00  0.00    -0.206 F 
ATOM     66  C   UNL A   1      41.631  27.273  34.099  1.00  0.00     0.059 A 
ATOM     67  C   UNL A   1      42.171  29.037  35.650  1.00  0.00     0.059 A 
ATOM     68  F   UNL A   1      42.567  31.206  34.882  1.00  0.00    -0.206 F 
ATOM     69  C   UNL A   1      41.851  27.707  35.405  1.00  0.00     0.060 A 
BRANCH  69  70
ATOM     70  S   UNL A   1      41.773  26.539  36.784  1.00  0.00     0.124 S 
ATOM     71  O   UNL A   1      42.971  26.877  37.546  1.00  0.00    -0.237 OA
ATOM     72  O   UNL A   1      40.503  26.881  37.418  1.00  0.00    -0.237 OA
ATOM     73  O   UNL A   1      41.801  25.234  36.127  1.00  0.00    -0.744 OA
ENDBRANCH  69  70
ENDBRANCH  37  62
ENDBRANCH  11  12
ENDBRANCH   4   6
ENDBRANCH   3   4
ENDBRANCH   2   3
ENDBRANCH   1   2
BRANCH   1  74
ATOM     74  O   UNL A   1      42.205  22.128  25.981  1.00  0.00    -0.458 OA
BRANCH  74  75
ATOM     75  C   UNL A   1      41.572  22.504  27.136  1.00  0.00     0.338 C 
ATOM     76  O   UNL A   1      42.096  22.657  28.221  1.00  0.00    -0.246 OA
BRANCH  75  77
ATOM     77  C   UNL A   1      40.143  22.844  26.830  1.00  0.00     0.060 A 
ATOM     78  C   UNL A   1      39.602  24.075  27.229  1.00  0.00     0.018 A 
ATOM     79  C   UNL A   1      39.310  21.947  26.160  1.00  0.00     0.018 A 
ATOM     80  C   UNL A   1      38.311  24.481  26.826  1.00  0.00     0.029 A 
ATOM     81  C   UNL A   1      37.980  22.312  25.836  1.00  0.00     0.029 A 
ATOM     82  C   UNL A   1      37.501  23.614  26.092  1.00  0.00     0.066 A 
BRANCH  82  83
ATOM     83  N   UNL A   1      36.121  23.941  25.929  1.00  0.00    -0.220 N 
ATOM     84  C   UNL A   1      35.134  23.413  26.719  1.00  0.00     0.141 A 
ATOM     85  N   UNL A   1      35.589  24.976  25.255  1.00  0.00    -0.062 NA
ATOM     86  C   UNL A   1      33.936  24.024  26.396  1.00  0.00     0.093 A 
ATOM     87  N   UNL A   1      34.258  24.967  25.444  1.00  0.00    -0.134 NA
BRANCH  86  88
ATOM     88  C   UNL A   1      32.488  23.726  26.786  1.00  0.00     0.138 C 
BRANCH  88  89
ATOM     89  S   UNL A   1      31.787  22.004  26.719  1.00  0.00    -0.081 SA
BRANCH  89  90
ATOM     90  C   UNL A   1      32.364  20.859  25.466  1.00  0.00     0.176 A 
ATOM     91  N   UNL A   1      32.051  19.615  25.749  1.00  0.00    -0.223 NA
ATOM     92  N   UNL A   1      33.182  21.106  24.357  1.00  0.00    -0.255 N 
ATOM     93  C   UNL A   1      32.789  18.601  25.093  1.00  0.00     0.079 A 
ATOM     94  C   UNL A   1      34.335  20.356  24.487  1.00  0.00     0.266 A 
ATOM     95  C   UNL A   1      32.351  17.281  24.965  1.00  0.00     0.029 A 
ATOM     96  C   UNL A   1      34.079  18.910  24.656  1.00  0.00     0.066 A 
ATOM     97  O   UNL A   1      35.467  20.813  24.591  1.00  0.00    -0.268 OA
ATOM     98  C   UNL A   1      33.210  16.305  24.426  1.00  0.00     0.002 A 
ATOM     99  C   UNL A   1      34.987  17.934  24.252  1.00  0.00     0.016 A 
ATOM    100  C   UNL A   1      34.537  16.623  24.112  1.00  0.00     0.001 A 
BRANCH  92 101
ATOM    101  C   UNL A   1      33.080  22.177  23.371  1.00  0.00     0.051 A 
ATOM    102  C   UNL A   1      34.059  22.864  22.656  1.00  0.00     0.028 A 
ATOM    103  C   UNL A   1      31.837  22.721  23.205  1.00  0.00     0.028 A 
ATOM    104  C   UNL A   1      33.751  24.134  22.050  1.00  0.00     0.022 A 
ATOM    105  C   UNL A   1      31.501  23.991  22.754  1.00  0.00     0.022 A 
ATOM    106  C   UNL A   1      32.496  24.732  22.197  1.00  0.00     0.041 A 
ATOM    107  Cl  UNL A   1      32.186  26.383  21.852  1.00  0.00    -0.084 Cl
ENDBRANCH  92 101
ENDBRANCH  89  90
ENDBRANCH  88  89
ENDBRANCH  86  88
ENDBRANCH  82  83
ENDBRANCH  75  77
ENDBRANCH  74  75
ENDBRANCH   1  74
TORSDOF 19
ENDMDL
