MODEL 1
REMARK VINA RESULT:     -11.6      0.000      0.000
REMARK SMILES CCN(C)C(=O)Cn1ccc2c(C(=O)OCCOC(=O)c3ccc(-c4c5nc(c(-c6c(F)cc(S(=O)(=O)[O-])cc6F)c6ccc([nH]6)c(-c6c(F)cc(S(=O)(=O)[O-])cc6F)c6nc(c(-c7c(F)cc(S(=O)(=O)[O-])cc7F)c7ccc4[nH]7)C=C6)C=C5)cc3)cccc21
REMARK SMILES IDX 16 1 15 2 13 3 14 4 12 5 8 6 9 7 90 8 10 9 11 10 89 11 88 12
REMARK SMILES IDX 87 13 7 14 5 15 6 16 3 17 4 18 2 19 1 20 17 21 18 22 19 23
REMARK SMILES IDX 20 24 21 25 22 26 86 27 23 28 85 29 24 30 25 31 26 32 79 33
REMARK SMILES IDX 27 34 84 35 78 36 80 37 28 38 83 39 77 40 76 41 29 43 63 44
REMARK SMILES IDX 42 45 62 46 43 47 46 48 61 49 81 50 44 51 45 52 60 54 82 55
REMARK SMILES IDX 47 56 30 57 31 58 40 59 32 60 33 61 39 62 41 63 34 64 35 65
REMARK SMILES IDX 36 66 37 67 38 68 64 69 65 70 74 71 66 72 67 73 73 74 75 75
REMARK SMILES IDX 68 76 69 77 70 78 71 79 72 80 48 81 49 82 58 83 50 84 51 85
REMARK SMILES IDX 57 86 59 87 52 88 53 89 54 90 55 91 56 92
REMARK H PARENT 80 42 46 53
REMARK Flexibility Score: inf
ROOT
ATOM      1  C   UNL A   1      37.433  22.598  25.439  1.00  0.00     0.275 C 
ENDROOT
BRANCH   1   2
ATOM      2  O   UNL A   1      36.528  21.861  24.573  1.00  0.00    -0.458 OA
BRANCH   2   3
ATOM      3  C   UNL A   1      35.797  22.601  23.697  1.00  0.00     0.338 C 
ATOM      4  O   UNL A   1      36.246  23.118  22.680  1.00  0.00    -0.246 OA
BRANCH   3   5
ATOM      5  C   UNL A   1      34.357  22.668  24.096  1.00  0.00     0.069 A 
ATOM      6  N   UNL A   1      32.370  25.295  25.537  1.00  0.00    -0.338 N 
ATOM      7  C   UNL A   1      33.609  25.833  25.735  1.00  0.00     0.087 A 
ATOM      8  C   UNL A   1      32.518  23.996  25.074  1.00  0.00     0.049 A 
ATOM      9  C   UNL A   1      34.504  25.003  25.129  1.00  0.00     0.029 A 
ATOM     10  C   UNL A   1      33.861  23.844  24.701  1.00  0.00     0.014 A 
ATOM     11  C   UNL A   1      31.642  22.912  24.968  1.00  0.00     0.027 A 
ATOM     12  C   UNL A   1      32.169  21.700  24.478  1.00  0.00     0.003 A 
ATOM     13  C   UNL A   1      33.490  21.580  24.020  1.00  0.00     0.016 A 
BRANCH   6  14
ATOM     14  C   UNL A   1      31.194  26.071  25.905  1.00  0.00     0.222 C 
BRANCH  14  15
ATOM     15  C   UNL A   1      30.374  26.615  24.765  1.00  0.00     0.242 C 
ATOM     16  O   UNL A   1      29.198  26.251  24.646  1.00  0.00    -0.273 OA
BRANCH  15  17
ATOM     17  N   UNL A   1      30.930  27.557  23.898  1.00  0.00    -0.344 N 
ATOM     18  C   UNL A   1      31.573  28.798  24.316  1.00  0.00     0.146 C 
BRANCH  17  19
ATOM     19  C   UNL A   1      30.903  27.247  22.470  1.00  0.00     0.115 C 
ATOM     20  C   UNL A   1      31.959  26.219  22.087  1.00  0.00     0.027 C 
ENDBRANCH  17  19
ENDBRANCH  15  17
ENDBRANCH  14  15
ENDBRANCH   6  14
ENDBRANCH   3   5
ENDBRANCH   2   3
ENDBRANCH   1   2
BRANCH   1  21
ATOM     21  C   UNL A   1      38.660  21.762  25.822  1.00  0.00     0.275 C 
BRANCH  21  22
ATOM     22  O   UNL A   1      39.391  22.461  26.839  1.00  0.00    -0.458 OA
BRANCH  22  23
ATOM     23  C   UNL A   1      40.726  22.508  26.696  1.00  0.00     0.338 C 
ATOM     24  O   UNL A   1      41.437  21.656  26.154  1.00  0.00    -0.246 OA
BRANCH  23  25
ATOM     25  C   UNL A   1      41.161  23.882  27.015  1.00  0.00     0.060 A 
ATOM     26  C   UNL A   1      42.123  24.169  27.999  1.00  0.00     0.016 A 
ATOM     27  C   UNL A   1      40.403  24.905  26.468  1.00  0.00     0.016 A 
ATOM     28  C   UNL A   1      42.196  25.447  28.570  1.00  0.00     0.010 A 
ATOM     29  C   UNL A   1      40.509  26.172  27.018  1.00  0.00     0.010 A 
ATOM     30  C   UNL A   1      41.321  26.441  28.143  1.00  0.00    -0.014 A 
BRANCH  30  31
ATOM     31  C   UNL A   1      41.224  27.768  28.807  1.00  0.00     0.031 A 
ATOM     32  C   UNL A   1      42.311  28.691  28.399  1.00  0.00     0.074 A 
ATOM     33  C   UNL A   1      40.208  28.291  29.553  1.00  0.00     0.049 A 
ATOM     34  N   UNL A   1      43.415  28.883  29.044  1.00  0.00    -0.248 NA
ATOM     35  C   UNL A   1      42.280  29.344  27.078  1.00  0.00     0.031 C 
ATOM     36  C   UNL A   1      38.894  27.710  29.874  1.00  0.00     0.029 A 
ATOM     37  N   UNL A   1      40.082  29.563  30.075  1.00  0.00    -0.354 N 
ATOM     38  C   UNL A   1      44.073  29.871  28.333  1.00  0.00     0.074 A 
ATOM     39  C   UNL A   1      43.501  29.876  27.016  1.00  0.00     0.031 C 
ATOM     40  C   UNL A   1      38.038  28.684  30.276  1.00  0.00     0.029 A 
ATOM     41  C   UNL A   1      38.790  29.906  30.494  1.00  0.00     0.049 A 
ATOM     42  H   UNL A   1      40.844  30.183  30.146  1.00  0.00     0.167 HD
ATOM     43  C   UNL A   1      44.770  30.850  28.966  1.00  0.00     0.037 A 
ATOM     44  C   UNL A   1      38.374  31.071  31.065  1.00  0.00     0.037 A 
ATOM     45  C   UNL A   1      44.905  30.571  30.373  1.00  0.00     0.049 A 
ATOM     46  C   UNL A   1      39.560  31.630  31.751  1.00  0.00     0.074 A 
ATOM     47  C   UNL A   1      45.486  29.570  31.122  1.00  0.00     0.029 A 
ATOM     48  N   UNL A   1      44.006  31.215  31.187  1.00  0.00    -0.354 N 
ATOM     49  N   UNL A   1      40.132  31.065  32.779  1.00  0.00    -0.248 NA
ATOM     50  C   UNL A   1      40.303  32.729  31.149  1.00  0.00     0.031 C 
ATOM     51  C   UNL A   1      44.706  29.465  32.310  1.00  0.00     0.029 A 
ATOM     52  C   UNL A   1      43.699  30.427  32.269  1.00  0.00     0.049 A 
ATOM     53  H   UNL A   1      43.635  32.112  31.020  1.00  0.00     0.167 HD
ATOM     54  C   UNL A   1      41.458  31.412  32.656  1.00  0.00     0.074 A 
ATOM     55  C   UNL A   1      41.466  32.580  31.787  1.00  0.00     0.031 C 
ATOM     56  C   UNL A   1      42.436  30.523  32.980  1.00  0.00     0.037 A 
BRANCH  43  57
ATOM     57  C   UNL A   1      44.961  32.237  28.413  1.00  0.00     0.058 A 
ATOM     58  C   UNL A   1      46.258  32.664  28.078  1.00  0.00     0.135 A 
ATOM     59  C   UNL A   1      43.965  33.240  28.415  1.00  0.00     0.135 A 
ATOM     60  F   UNL A   1      47.283  31.798  28.091  1.00  0.00    -0.206 F 
ATOM     61  C   UNL A   1      46.547  33.995  27.781  1.00  0.00     0.059 A 
ATOM     62  C   UNL A   1      44.217  34.557  28.056  1.00  0.00     0.059 A 
ATOM     63  F   UNL A   1      42.721  33.013  28.859  1.00  0.00    -0.206 F 
ATOM     64  C   UNL A   1      45.518  34.933  27.772  1.00  0.00     0.060 A 
BRANCH  64  65
ATOM     65  S   UNL A   1      45.897  36.662  27.445  1.00  0.00     0.124 S 
ATOM     66  O   UNL A   1      46.235  37.139  28.781  1.00  0.00    -0.237 OA
ATOM     67  O   UNL A   1      47.004  36.556  26.502  1.00  0.00    -0.237 OA
ATOM     68  O   UNL A   1      44.651  37.174  26.884  1.00  0.00    -0.744 OA
ENDBRANCH  64  65
ENDBRANCH  43  57
BRANCH  44  69
ATOM     69  C   UNL A   1      37.068  31.791  31.133  1.00  0.00     0.058 A 
ATOM     70  C   UNL A   1      36.335  31.855  32.340  1.00  0.00     0.135 A 
ATOM     71  C   UNL A   1      36.675  32.698  30.132  1.00  0.00     0.135 A 
ATOM     72  F   UNL A   1      36.629  31.034  33.359  1.00  0.00    -0.206 F 
ATOM     73  C   UNL A   1      35.341  32.812  32.574  1.00  0.00     0.059 A 
ATOM     74  C   UNL A   1      35.674  33.661  30.340  1.00  0.00     0.059 A 
ATOM     75  F   UNL A   1      37.325  32.739  28.960  1.00  0.00    -0.206 F 
ATOM     76  C   UNL A   1      35.040  33.736  31.578  1.00  0.00     0.060 A 
BRANCH  76  77
ATOM     77  S   UNL A   1      33.916  35.102  31.972  1.00  0.00     0.124 S 
ATOM     78  O   UNL A   1      34.777  35.999  32.734  1.00  0.00    -0.237 OA
ATOM     79  O   UNL A   1      33.528  35.572  30.645  1.00  0.00    -0.237 OA
ATOM     80  O   UNL A   1      32.852  34.458  32.735  1.00  0.00    -0.744 OA
ENDBRANCH  76  77
ENDBRANCH  44  69
BRANCH  56  81
ATOM     81  C   UNL A   1      42.114  29.437  33.976  1.00  0.00     0.058 A 
ATOM     82  C   UNL A   1      41.619  28.161  33.656  1.00  0.00     0.135 A 
ATOM     83  C   UNL A   1      42.467  29.663  35.317  1.00  0.00     0.135 A 
ATOM     84  F   UNL A   1      41.313  27.832  32.397  1.00  0.00    -0.206 F 
ATOM     85  C   UNL A   1      41.487  27.159  34.620  1.00  0.00     0.059 A 
ATOM     86  C   UNL A   1      42.378  28.669  36.286  1.00  0.00     0.059 A 
ATOM     87  F   UNL A   1      42.972  30.853  35.685  1.00  0.00    -0.206 F 
ATOM     88  C   UNL A   1      41.888  27.415  35.929  1.00  0.00     0.060 A 
BRANCH  88  89
ATOM     89  S   UNL A   1      41.870  26.070  37.133  1.00  0.00     0.124 S 
ATOM     90  O   UNL A   1      42.267  24.924  36.323  1.00  0.00    -0.237 OA
ATOM     91  O   UNL A   1      42.847  26.516  38.123  1.00  0.00    -0.237 OA
ATOM     92  O   UNL A   1      40.487  26.052  37.604  1.00  0.00    -0.744 OA
ENDBRANCH  88  89
ENDBRANCH  56  81
ENDBRANCH  30  31
ENDBRANCH  23  25
ENDBRANCH  22  23
ENDBRANCH  21  22
ENDBRANCH   1  21
TORSDOF 18
ENDMDL
MODEL 2
REMARK VINA RESULT:     -11.2      3.009      9.644
REMARK SMILES CCN(C)C(=O)Cn1ccc2c(C(=O)OCCOC(=O)c3ccc(-c4c5nc(c(-c6c(F)cc(S(=O)(=O)[O-])cc6F)c6ccc([nH]6)c(-c6c(F)cc(S(=O)(=O)[O-])cc6F)c6nc(c(-c7c(F)cc(S(=O)(=O)[O-])cc7F)c7ccc4[nH]7)C=C6)C=C5)cc3)cccc21
REMARK SMILES IDX 16 1 15 2 13 3 14 4 12 5 8 6 9 7 90 8 10 9 11 10 89 11 88 12
REMARK SMILES IDX 87 13 7 14 5 15 6 16 3 17 4 18 2 19 1 20 17 21 18 22 19 23
REMARK SMILES IDX 20 24 21 25 22 26 86 27 23 28 85 29 24 30 25 31 26 32 79 33
REMARK SMILES IDX 27 34 84 35 78 36 80 37 28 38 83 39 77 40 76 41 29 43 63 44
REMARK SMILES IDX 42 45 62 46 43 47 46 48 61 49 81 50 44 51 45 52 60 54 82 55
REMARK SMILES IDX 47 56 30 57 31 58 40 59 32 60 33 61 39 62 41 63 34 64 35 65
REMARK SMILES IDX 36 66 37 67 38 68 64 69 65 70 74 71 66 72 67 73 73 74 75 75
REMARK SMILES IDX 68 76 69 77 70 78 71 79 72 80 48 81 49 82 58 83 50 84 51 85
REMARK SMILES IDX 57 86 59 87 52 88 53 89 54 90 55 91 56 92
REMARK H PARENT 80 42 46 53
REMARK Flexibility Score: inf
ROOT
ATOM      1  C   UNL A   1      33.405  29.972  26.427  1.00  0.00     0.275 C 
ENDROOT
BRANCH   1   2
ATOM      2  O   UNL A   1      32.217  29.424  25.795  1.00  0.00    -0.458 OA
BRANCH   2   3
ATOM      3  C   UNL A   1      31.820  28.196  26.221  1.00  0.00     0.338 C 
ATOM      4  O   UNL A   1      31.664  27.884  27.397  1.00  0.00    -0.246 OA
BRANCH   3   5
ATOM      5  C   UNL A   1      31.543  27.275  25.075  1.00  0.00     0.069 A 
ATOM      6  N   UNL A   1      33.434  24.578  23.633  1.00  0.00    -0.338 N 
ATOM      7  C   UNL A   1      34.411  25.132  24.410  1.00  0.00     0.087 A 
ATOM      8  C   UNL A   1      32.324  25.409  23.657  1.00  0.00     0.049 A 
ATOM      9  C   UNL A   1      33.826  26.124  25.137  1.00  0.00     0.029 A 
ATOM     10  C   UNL A   1      32.520  26.328  24.698  1.00  0.00     0.014 A 
ATOM     11  C   UNL A   1      31.177  25.496  22.864  1.00  0.00     0.027 A 
ATOM     12  C   UNL A   1      30.258  26.522  23.165  1.00  0.00     0.003 A 
ATOM     13  C   UNL A   1      30.415  27.379  24.264  1.00  0.00     0.016 A 
BRANCH   6  14
ATOM     14  C   UNL A   1      33.725  23.359  22.892  1.00  0.00     0.222 C 
BRANCH  14  15
ATOM     15  C   UNL A   1      32.883  22.158  23.234  1.00  0.00     0.242 C 
ATOM     16  O   UNL A   1      32.238  21.603  22.337  1.00  0.00    -0.273 OA
BRANCH  15  17
ATOM     17  N   UNL A   1      32.888  21.656  24.537  1.00  0.00    -0.344 N 
ATOM     18  C   UNL A   1      31.865  21.930  25.540  1.00  0.00     0.146 C 
BRANCH  17  19
ATOM     19  C   UNL A   1      33.977  20.751  24.898  1.00  0.00     0.115 C 
ATOM     20  C   UNL A   1      33.578  19.288  24.755  1.00  0.00     0.027 C 
ENDBRANCH  17  19
ENDBRANCH  15  17
ENDBRANCH  14  15
ENDBRANCH   6  14
ENDBRANCH   3   5
ENDBRANCH   2   3
ENDBRANCH   1   2
BRANCH   1  21
ATOM     21  C   UNL A   1      33.084  31.224  27.253  1.00  0.00     0.275 C 
BRANCH  21  22
ATOM     22  O   UNL A   1      34.047  31.333  28.312  1.00  0.00    -0.458 OA
BRANCH  22  23
ATOM     23  C   UNL A   1      35.140  32.070  28.056  1.00  0.00     0.338 C 
ATOM     24  O   UNL A   1      35.164  33.206  27.571  1.00  0.00    -0.246 OA
BRANCH  23  25
ATOM     25  C   UNL A   1      36.281  31.426  28.735  1.00  0.00     0.060 A 
ATOM     26  C   UNL A   1      37.417  32.136  29.160  1.00  0.00     0.016 A 
ATOM     27  C   UNL A   1      36.296  30.040  28.723  1.00  0.00     0.016 A 
ATOM     28  C   UNL A   1      38.627  31.469  29.393  1.00  0.00     0.010 A 
ATOM     29  C   UNL A   1      37.489  29.390  28.989  1.00  0.00     0.010 A 
ATOM     30  C   UNL A   1      38.695  30.089  29.221  1.00  0.00    -0.014 A 
BRANCH  30  31
ATOM     31  C   UNL A   1      39.972  29.331  29.289  1.00  0.00     0.031 A 
ATOM     32  C   UNL A   1      40.407  29.068  30.683  1.00  0.00     0.074 A 
ATOM     33  C   UNL A   1      40.662  28.704  28.292  1.00  0.00     0.049 A 
ATOM     34  N   UNL A   1      41.247  29.785  31.355  1.00  0.00    -0.248 NA
ATOM     35  C   UNL A   1      39.741  28.030  31.489  1.00  0.00     0.031 C 
ATOM     36  C   UNL A   1      40.314  28.556  26.869  1.00  0.00     0.029 A 
ATOM     37  N   UNL A   1      41.789  27.913  28.383  1.00  0.00    -0.354 N 
ATOM     38  C   UNL A   1      41.395  29.120  32.559  1.00  0.00     0.074 A 
ATOM     39  C   UNL A   1      40.246  28.270  32.700  1.00  0.00     0.031 C 
ATOM     40  C   UNL A   1      41.027  27.543  26.315  1.00  0.00     0.029 A 
ATOM     41  C   UNL A   1      42.061  27.136  27.249  1.00  0.00     0.049 A 
ATOM     42  H   UNL A   1      42.359  27.895  29.186  1.00  0.00     0.167 HD
ATOM     43  C   UNL A   1      42.603  29.033  33.172  1.00  0.00     0.037 A 
ATOM     44  C   UNL A   1      43.108  26.287  27.043  1.00  0.00     0.037 A 
ATOM     45  C   UNL A   1      43.575  29.887  32.539  1.00  0.00     0.049 A 
ATOM     46  C   UNL A   1      44.210  26.795  27.889  1.00  0.00     0.074 A 
ATOM     47  C   UNL A   1      43.698  31.244  32.327  1.00  0.00     0.029 A 
ATOM     48  N   UNL A   1      44.412  29.261  31.648  1.00  0.00    -0.354 N 
ATOM     49  N   UNL A   1      44.804  27.939  27.690  1.00  0.00    -0.248 NA
ATOM     50  C   UNL A   1      44.526  26.138  29.151  1.00  0.00     0.031 C 
ATOM     51  C   UNL A   1      44.415  31.388  31.105  1.00  0.00     0.029 A 
ATOM     52  C   UNL A   1      44.744  30.119  30.628  1.00  0.00     0.049 A 
ATOM     53  H   UNL A   1      44.730  28.332  31.728  1.00  0.00     0.167 HD
ATOM     54  C   UNL A   1      45.175  28.347  28.952  1.00  0.00     0.074 A 
ATOM     55  C   UNL A   1      45.173  27.135  29.758  1.00  0.00     0.031 C 
ATOM     56  C   UNL A   1      45.107  29.661  29.299  1.00  0.00     0.037 A 
BRANCH  43  57
ATOM     57  C   UNL A   1      43.015  27.887  34.059  1.00  0.00     0.058 A 
ATOM     58  C   UNL A   1      43.225  28.126  35.428  1.00  0.00     0.135 A 
ATOM     59  C   UNL A   1      43.434  26.623  33.583  1.00  0.00     0.135 A 
ATOM     60  F   UNL A   1      42.903  29.312  35.968  1.00  0.00    -0.206 F 
ATOM     61  C   UNL A   1      43.823  27.183  36.262  1.00  0.00     0.059 A 
ATOM     62  C   UNL A   1      43.968  25.644  34.410  1.00  0.00     0.059 A 
ATOM     63  F   UNL A   1      43.437  26.313  32.280  1.00  0.00    -0.206 F 
ATOM     64  C   UNL A   1      44.190  25.944  35.742  1.00  0.00     0.060 A 
BRANCH  64  65
ATOM     65  S   UNL A   1      45.014  24.746  36.803  1.00  0.00     0.124 S 
ATOM     66  O   UNL A   1      46.410  25.135  36.644  1.00  0.00    -0.237 OA
ATOM     67  O   UNL A   1      44.412  25.027  38.101  1.00  0.00    -0.237 OA
ATOM     68  O   UNL A   1      44.639  23.466  36.210  1.00  0.00    -0.744 OA
ENDBRANCH  64  65
ENDBRANCH  43  57
BRANCH  44  69
ATOM     69  C   UNL A   1      43.320  25.082  26.188  1.00  0.00     0.058 A 
ATOM     70  C   UNL A   1      44.408  25.011  25.288  1.00  0.00     0.135 A 
ATOM     71  C   UNL A   1      42.677  23.862  26.465  1.00  0.00     0.135 A 
ATOM     72  F   UNL A   1      45.089  26.118  24.958  1.00  0.00    -0.206 F 
ATOM     73  C   UNL A   1      44.884  23.803  24.767  1.00  0.00     0.059 A 
ATOM     74  C   UNL A   1      43.131  22.638  25.947  1.00  0.00     0.059 A 
ATOM     75  F   UNL A   1      41.653  23.815  27.329  1.00  0.00    -0.206 F 
ATOM     76  C   UNL A   1      44.259  22.614  25.130  1.00  0.00     0.060 A 
BRANCH  76  77
ATOM     77  S   UNL A   1      45.019  21.046  24.631  1.00  0.00     0.124 S 
ATOM     78  O   UNL A   1      46.425  21.271  24.947  1.00  0.00    -0.237 OA
ATOM     79  O   UNL A   1      44.324  20.084  25.482  1.00  0.00    -0.237 OA
ATOM     80  O   UNL A   1      44.705  20.953  23.208  1.00  0.00    -0.744 OA
ENDBRANCH  76  77
ENDBRANCH  44  69
BRANCH  56  81
ATOM     81  C   UNL A   1      45.194  30.695  28.205  1.00  0.00     0.058 A 
ATOM     82  C   UNL A   1      44.103  31.200  27.475  1.00  0.00     0.135 A 
ATOM     83  C   UNL A   1      46.439  31.309  27.992  1.00  0.00     0.135 A 
ATOM     84  F   UNL A   1      42.868  30.721  27.654  1.00  0.00    -0.206 F 
ATOM     85  C   UNL A   1      44.244  32.264  26.582  1.00  0.00     0.059 A 
ATOM     86  C   UNL A   1      46.596  32.393  27.134  1.00  0.00     0.059 A 
ATOM     87  F   UNL A   1      47.518  30.893  28.678  1.00  0.00    -0.206 F 
ATOM     88  C   UNL A   1      45.491  32.868  26.433  1.00  0.00     0.060 A 
BRANCH  88  89
ATOM     89  S   UNL A   1      45.634  34.345  25.404  1.00  0.00     0.124 S 
ATOM     90  O   UNL A   1      44.894  33.961  24.207  1.00  0.00    -0.237 OA
ATOM     91  O   UNL A   1      45.009  35.372  26.233  1.00  0.00    -0.237 OA
ATOM     92  O   UNL A   1      47.076  34.498  25.224  1.00  0.00    -0.744 OA
ENDBRANCH  88  89
ENDBRANCH  56  81
ENDBRANCH  30  31
ENDBRANCH  23  25
ENDBRANCH  22  23
ENDBRANCH  21  22
ENDBRANCH   1  21
TORSDOF 18
ENDMDL
MODEL 3
REMARK VINA RESULT:     -11.1      3.071     10.062
REMARK SMILES CCN(C)C(=O)Cn1ccc2c(C(=O)OCCOC(=O)c3ccc(-c4c5nc(c(-c6c(F)cc(S(=O)(=O)[O-])cc6F)c6ccc([nH]6)c(-c6c(F)cc(S(=O)(=O)[O-])cc6F)c6nc(c(-c7c(F)cc(S(=O)(=O)[O-])cc7F)c7ccc4[nH]7)C=C6)C=C5)cc3)cccc21
REMARK SMILES IDX 16 1 15 2 13 3 14 4 12 5 8 6 9 7 90 8 10 9 11 10 89 11 88 12
REMARK SMILES IDX 87 13 7 14 5 15 6 16 3 17 4 18 2 19 1 20 17 21 18 22 19 23
REMARK SMILES IDX 20 24 21 25 22 26 86 27 23 28 85 29 24 30 25 31 26 32 79 33
REMARK SMILES IDX 27 34 84 35 78 36 80 37 28 38 83 39 77 40 76 41 29 43 63 44
REMARK SMILES IDX 42 45 62 46 43 47 46 48 61 49 81 50 44 51 45 52 60 54 82 55
REMARK SMILES IDX 47 56 30 57 31 58 40 59 32 60 33 61 39 62 41 63 34 64 35 65
REMARK SMILES IDX 36 66 37 67 38 68 64 69 65 70 74 71 66 72 67 73 73 74 75 75
REMARK SMILES IDX 68 76 69 77 70 78 71 79 72 80 48 81 49 82 58 83 50 84 51 85
REMARK SMILES IDX 57 86 59 87 52 88 53 89 54 90 55 91 56 92
REMARK H PARENT 80 42 46 53
REMARK Flexibility Score: inf
ROOT
ATOM      1  C   UNL A   1      34.026  34.452  30.202  1.00  0.00     0.275 C 
ENDROOT
BRANCH   1   2
ATOM      2  O   UNL A   1      33.564  33.483  29.223  1.00  0.00    -0.458 OA
BRANCH   2   3
ATOM      3  C   UNL A   1      34.342  33.324  28.120  1.00  0.00     0.338 C 
ATOM      4  O   UNL A   1      34.817  34.246  27.465  1.00  0.00    -0.246 OA
BRANCH   3   5
ATOM      5  C   UNL A   1      34.595  31.880  27.824  1.00  0.00     0.069 A 
ATOM      6  N   UNL A   1      32.611  29.365  26.190  1.00  0.00    -0.338 N 
ATOM      7  C   UNL A   1      31.648  30.316  26.363  1.00  0.00     0.087 A 
ATOM      8  C   UNL A   1      33.756  29.763  26.865  1.00  0.00     0.049 A 
ATOM      9  C   UNL A   1      32.264  31.417  26.878  1.00  0.00     0.029 A 
ATOM     10  C   UNL A   1      33.584  31.113  27.204  1.00  0.00     0.014 A 
ATOM     11  C   UNL A   1      34.917  29.093  27.258  1.00  0.00     0.027 A 
ATOM     12  C   UNL A   1      35.874  29.828  27.987  1.00  0.00     0.003 A 
ATOM     13  C   UNL A   1      35.738  31.201  28.242  1.00  0.00     0.016 A 
BRANCH   6  14
ATOM     14  C   UNL A   1      32.280  28.144  25.468  1.00  0.00     0.222 C 
BRANCH  14  15
ATOM     15  C   UNL A   1      32.016  26.925  26.312  1.00  0.00     0.242 C 
ATOM     16  O   UNL A   1      31.209  27.005  27.245  1.00  0.00    -0.273 OA
BRANCH  15  17
ATOM     17  N   UNL A   1      32.638  25.715  25.996  1.00  0.00    -0.344 N 
ATOM     18  C   UNL A   1      31.952  24.435  25.864  1.00  0.00     0.146 C 
BRANCH  17  19
ATOM     19  C   UNL A   1      34.074  25.754  25.732  1.00  0.00     0.115 C 
ATOM     20  C   UNL A   1      34.497  24.710  24.707  1.00  0.00     0.027 C 
ENDBRANCH  17  19
ENDBRANCH  15  17
ENDBRANCH  14  15
ENDBRANCH   6  14
ENDBRANCH   3   5
ENDBRANCH   2   3
ENDBRANCH   1   2
BRANCH   1  21
ATOM     21  C   UNL A   1      35.268  33.954  30.953  1.00  0.00     0.275 C 
BRANCH  21  22
ATOM     22  O   UNL A   1      34.984  32.656  31.496  1.00  0.00    -0.458 OA
BRANCH  22  23
ATOM     23  C   UNL A   1      35.880  32.160  32.365  1.00  0.00     0.338 C 
ATOM     24  O   UNL A   1      35.799  32.184  33.598  1.00  0.00    -0.246 OA
BRANCH  23  25
ATOM     25  C   UNL A   1      36.817  31.311  31.604  1.00  0.00     0.060 A 
ATOM     26  C   UNL A   1      36.725  29.908  31.576  1.00  0.00     0.016 A 
ATOM     27  C   UNL A   1      37.947  31.941  31.108  1.00  0.00     0.016 A 
ATOM     28  C   UNL A   1      37.837  29.130  31.225  1.00  0.00     0.010 A 
ATOM     29  C   UNL A   1      39.027  31.160  30.733  1.00  0.00     0.010 A 
ATOM     30  C   UNL A   1      39.033  29.756  30.885  1.00  0.00    -0.014 A 
BRANCH  30  31
ATOM     31  C   UNL A   1      40.298  29.006  30.660  1.00  0.00     0.031 A 
ATOM     32  C   UNL A   1      41.071  28.804  31.910  1.00  0.00     0.074 A 
ATOM     33  C   UNL A   1      40.725  28.341  29.547  1.00  0.00     0.049 A 
ATOM     34  N   UNL A   1      42.042  29.551  32.322  1.00  0.00    -0.248 NA
ATOM     35  C   UNL A   1      40.643  27.797  32.898  1.00  0.00     0.031 C 
ATOM     36  C   UNL A   1      40.034  28.133  28.264  1.00  0.00     0.029 A 
ATOM     37  N   UNL A   1      41.850  27.559  29.384  1.00  0.00    -0.354 N 
ATOM     38  C   UNL A   1      42.496  28.937  33.475  1.00  0.00     0.074 A 
ATOM     39  C   UNL A   1      41.431  28.089  33.933  1.00  0.00     0.031 C 
ATOM     40  C   UNL A   1      40.600  27.100  27.590  1.00  0.00     0.029 A 
ATOM     41  C   UNL A   1      41.841  26.736  28.250  1.00  0.00     0.049 A 
ATOM     42  H   UNL A   1      42.603  27.576  30.019  1.00  0.00     0.167 HD
ATOM     43  C   UNL A   1      43.821  28.880  33.769  1.00  0.00     0.037 A 
ATOM     44  C   UNL A   1      42.814  25.884  27.822  1.00  0.00     0.037 A 
ATOM     45  C   UNL A   1      44.591  29.711  32.879  1.00  0.00     0.049 A 
ATOM     46  C   UNL A   1      44.087  26.431  28.344  1.00  0.00     0.074 A 
ATOM     47  C   UNL A   1      44.637  31.059  32.590  1.00  0.00     0.029 A 
ATOM     48  N   UNL A   1      45.187  29.052  31.833  1.00  0.00    -0.354 N 
ATOM     49  N   UNL A   1      44.595  27.568  27.958  1.00  0.00    -0.248 NA
ATOM     50  C   UNL A   1      44.717  25.828  29.512  1.00  0.00     0.031 C 
ATOM     51  C   UNL A   1      45.024  31.154  31.223  1.00  0.00     0.029 A 
ATOM     52  C   UNL A   1      45.241  29.869  30.729  1.00  0.00     0.049 A 
ATOM     53  H   UNL A   1      45.528  28.129  31.867  1.00  0.00     0.167 HD
ATOM     54  C   UNL A   1      45.264  28.029  29.070  1.00  0.00     0.074 A 
ATOM     55  C   UNL A   1      45.482  26.852  29.898  1.00  0.00     0.031 C 
ATOM     56  C   UNL A   1      45.267  29.356  29.371  1.00  0.00     0.037 A 
BRANCH  43  57
ATOM     57  C   UNL A   1      44.458  27.774  34.568  1.00  0.00     0.058 A 
ATOM     58  C   UNL A   1      44.450  26.467  34.050  1.00  0.00     0.135 A 
ATOM     59  C   UNL A   1      44.866  27.899  35.916  1.00  0.00     0.135 A 
ATOM     60  F   UNL A   1      44.035  26.237  32.794  1.00  0.00    -0.206 F 
ATOM     61  C   UNL A   1      44.809  25.362  34.819  1.00  0.00     0.059 A 
ATOM     62  C   UNL A   1      45.293  26.821  36.679  1.00  0.00     0.059 A 
ATOM     63  F   UNL A   1      44.779  29.056  36.587  1.00  0.00    -0.206 F 
ATOM     64  C   UNL A   1      45.229  25.551  36.133  1.00  0.00     0.060 A 
BRANCH  64  65
ATOM     65  S   UNL A   1      45.638  24.122  37.147  1.00  0.00     0.124 S 
ATOM     66  O   UNL A   1      45.029  24.489  38.421  1.00  0.00    -0.237 OA
ATOM     67  O   UNL A   1      44.993  23.037  36.416  1.00  0.00    -0.237 OA
ATOM     68  O   UNL A   1      47.097  24.104  37.123  1.00  0.00    -0.744 OA
ENDBRANCH  64  65
ENDBRANCH  43  57
BRANCH  44  69
ATOM     69  C   UNL A   1      42.824  24.645  26.989  1.00  0.00     0.058 A 
ATOM     70  C   UNL A   1      43.298  24.667  25.658  1.00  0.00     0.135 A 
ATOM     71  C   UNL A   1      42.687  23.370  27.567  1.00  0.00     0.135 A 
ATOM     72  F   UNL A   1      43.466  25.832  25.015  1.00  0.00    -0.206 F 
ATOM     73  C   UNL A   1      43.696  23.512  24.976  1.00  0.00     0.059 A 
ATOM     74  C   UNL A   1      43.070  22.196  26.899  1.00  0.00     0.059 A 
ATOM     75  F   UNL A   1      42.271  23.241  28.836  1.00  0.00    -0.206 F 
ATOM     76  C   UNL A   1      43.611  22.280  25.618  1.00  0.00     0.060 A 
BRANCH  76  77
ATOM     77  S   UNL A   1      44.335  20.828  24.811  1.00  0.00     0.124 S 
ATOM     78  O   UNL A   1      45.551  20.618  25.589  1.00  0.00    -0.237 OA
ATOM     79  O   UNL A   1      43.288  19.826  24.987  1.00  0.00    -0.237 OA
ATOM     80  O   UNL A   1      44.542  21.271  23.435  1.00  0.00    -0.744 OA
ENDBRANCH  76  77
ENDBRANCH  44  69
BRANCH  56  81
ATOM     81  C   UNL A   1      45.062  30.345  28.250  1.00  0.00     0.058 A 
ATOM     82  C   UNL A   1      43.850  30.988  27.944  1.00  0.00     0.135 A 
ATOM     83  C   UNL A   1      46.201  30.766  27.543  1.00  0.00     0.135 A 
ATOM     84  F   UNL A   1      42.725  30.697  28.605  1.00  0.00    -0.206 F 
ATOM     85  C   UNL A   1      43.775  32.001  26.986  1.00  0.00     0.059 A 
ATOM     86  C   UNL A   1      46.156  31.799  26.611  1.00  0.00     0.059 A 
ATOM     87  F   UNL A   1      47.396  30.213  27.806  1.00  0.00    -0.206 F 
ATOM     88  C   UNL A   1      44.937  32.415  26.339  1.00  0.00     0.060 A 
BRANCH  88  89
ATOM     89  S   UNL A   1      44.865  33.834  25.225  1.00  0.00     0.124 S 
ATOM     90  O   UNL A   1      44.452  33.221  23.968  1.00  0.00    -0.237 OA
ATOM     91  O   UNL A   1      43.873  34.692  25.868  1.00  0.00    -0.237 OA
ATOM     92  O   UNL A   1      46.230  34.355  25.247  1.00  0.00    -0.744 OA
ENDBRANCH  88  89
ENDBRANCH  56  81
ENDBRANCH  30  31
ENDBRANCH  23  25
ENDBRANCH  22  23
ENDBRANCH  21  22
ENDBRANCH   1  21
TORSDOF 18
ENDMDL
