MODEL 1
REMARK VINA RESULT:      -9.6      0.000      0.000
REMARK SMILES CCN(CCOC)C(=O)c1cccn1CC(=O)OCCOC(=O)c1ccc(-c2c3nc(c(-c4c(F)cc(S(=O)(=O)[O-])cc4F)c4ccc([nH]4)c(-c4c(F)cc(S(=O)(=O)[O-])cc4F)c4nc(c(-c5c(F)cc(S(=O)(=O)[O-])cc5F)c5ccc2[nH]5)C=C4)C=C3)cc1
REMARK SMILES IDX 18 1 16 2 17 3 15 4 14 5 10 6 11 7 12 8 13 9 8 10 9 11 3 12
REMARK SMILES IDX 2 13 1 14 4 15 5 16 6 17 7 18 19 19 20 20 21 21 22 22 23 23
REMARK SMILES IDX 24 24 25 25 89 26 26 27 88 28 27 29 28 30 29 31 82 32 30 33
REMARK SMILES IDX 87 34 81 35 83 36 31 37 86 38 80 39 79 40 32 42 66 43 45 44
REMARK SMILES IDX 65 45 46 46 49 47 64 48 84 49 47 50 48 51 63 53 85 54 50 55
REMARK SMILES IDX 33 56 34 57 43 58 35 59 36 60 42 61 44 62 37 63 38 64 39 65
REMARK SMILES IDX 40 66 41 67 67 68 68 69 77 70 69 71 70 72 76 73 78 74 71 75
REMARK SMILES IDX 72 76 73 77 74 78 75 79 51 80 52 81 61 82 53 83 54 84 60 85
REMARK SMILES IDX 62 86 55 87 56 88 57 89 58 90 59 91
REMARK H PARENT 83 41 49 52
REMARK Flexibility Score: inf
ROOT
ATOM      1  O   UNL A   1      32.410  29.809  27.168  1.00  0.00    -0.461 OA
ENDROOT
BRANCH   1   2
ATOM      2  C   UNL A   1      31.916  28.547  27.050  1.00  0.00     0.326 C 
ATOM      3  O   UNL A   1      31.207  28.018  27.906  1.00  0.00    -0.250 OA
BRANCH   2   4
ATOM      4  C   UNL A   1      32.337  27.788  25.810  1.00  0.00     0.244 C 
BRANCH   4   5
ATOM      5  N   UNL A   1      32.015  26.366  25.767  1.00  0.00    -0.332 N 
ATOM      6  C   UNL A   1      30.890  25.743  25.225  1.00  0.00     0.107 A 
ATOM      7  C   UNL A   1      30.901  24.491  25.842  1.00  0.00     0.033 A 
ATOM      8  C   UNL A   1      32.191  24.253  26.370  1.00  0.00     0.020 A 
ATOM      9  C   UNL A   1      32.912  25.391  26.135  1.00  0.00     0.087 A 
BRANCH   6  10
ATOM     10  C   UNL A   1      30.057  26.366  24.198  1.00  0.00     0.270 C 
ATOM     11  O   UNL A   1      28.834  26.417  24.374  1.00  0.00    -0.267 OA
BRANCH  10  12
ATOM     12  N   UNL A   1      30.568  27.011  23.057  1.00  0.00    -0.335 N 
BRANCH  12  13
ATOM     13  C   UNL A   1      29.828  28.175  22.548  1.00  0.00     0.116 C 
ATOM     14  C   UNL A   1      30.485  29.524  22.813  1.00  0.00     0.027 C 
ENDBRANCH  12  13
BRANCH  12  15
ATOM     15  C   UNL A   1      31.874  26.772  22.440  1.00  0.00     0.148 C 
BRANCH  15  16
ATOM     16  C   UNL A   1      32.030  25.370  21.807  1.00  0.00     0.181 C 
BRANCH  16  17
ATOM     17  O   UNL A   1      33.360  24.863  21.849  1.00  0.00    -0.383 OA
ATOM     18  C   UNL A   1      33.508  23.658  22.587  1.00  0.00     0.194 C 
ENDBRANCH  16  17
ENDBRANCH  15  16
ENDBRANCH  12  15
ENDBRANCH  10  12
ENDBRANCH   6  10
ENDBRANCH   4   5
ENDBRANCH   2   4
ENDBRANCH   1   2
BRANCH   1  19
ATOM     19  C   UNL A   1      31.868  30.791  26.257  1.00  0.00     0.274 C 
BRANCH  19  20
ATOM     20  C   UNL A   1      31.497  32.132  26.910  1.00  0.00     0.275 C 
BRANCH  20  21
ATOM     21  O   UNL A   1      32.409  33.206  26.640  1.00  0.00    -0.458 OA
BRANCH  21  22
ATOM     22  C   UNL A   1      32.877  33.738  27.789  1.00  0.00     0.338 C 
ATOM     23  O   UNL A   1      32.396  34.678  28.399  1.00  0.00    -0.246 OA
BRANCH  22  24
ATOM     24  C   UNL A   1      34.151  33.180  28.223  1.00  0.00     0.060 A 
ATOM     25  C   UNL A   1      34.097  32.149  29.161  1.00  0.00     0.016 A 
ATOM     26  C   UNL A   1      35.297  33.956  28.049  1.00  0.00     0.016 A 
ATOM     27  C   UNL A   1      35.141  31.982  30.051  1.00  0.00     0.010 A 
ATOM     28  C   UNL A   1      36.365  33.767  28.915  1.00  0.00     0.010 A 
ATOM     29  C   UNL A   1      36.266  32.806  29.936  1.00  0.00    -0.014 A 
BRANCH  29  30
ATOM     30  C   UNL A   1      37.449  32.439  30.737  1.00  0.00     0.031 A 
ATOM     31  C   UNL A   1      38.195  31.258  30.063  1.00  0.00     0.074 A 
ATOM     32  C   UNL A   1      37.664  33.145  31.892  1.00  0.00     0.049 A 
ATOM     33  N   UNL A   1      39.061  30.417  30.542  1.00  0.00    -0.248 NA
ATOM     34  C   UNL A   1      37.872  30.919  28.640  1.00  0.00     0.031 C 
ATOM     35  C   UNL A   1      36.821  34.259  32.391  1.00  0.00     0.029 A 
ATOM     36  N   UNL A   1      38.627  33.084  32.880  1.00  0.00    -0.354 N 
ATOM     37  C   UNL A   1      39.547  29.649  29.456  1.00  0.00     0.074 A 
ATOM     38  C   UNL A   1      38.686  29.905  28.349  1.00  0.00     0.031 C 
ATOM     39  C   UNL A   1      37.263  34.711  33.590  1.00  0.00     0.029 A 
ATOM     40  C   UNL A   1      38.449  33.974  33.982  1.00  0.00     0.049 A 
ATOM     41  H   UNL A   1      39.389  32.464  32.829  1.00  0.00     0.167 HD
ATOM     42  C   UNL A   1      40.719  28.953  29.486  1.00  0.00     0.037 A 
ATOM     43  C   UNL A   1      39.200  34.081  35.128  1.00  0.00     0.037 A 
ATOM     44  C   UNL A   1      41.303  29.046  30.779  1.00  0.00     0.049 A 
ATOM     45  C   UNL A   1      40.359  33.217  34.874  1.00  0.00     0.074 A 
ATOM     46  C   UNL A   1      40.984  28.458  31.971  1.00  0.00     0.029 A 
ATOM     47  N   UNL A   1      42.149  30.104  31.002  1.00  0.00    -0.354 N 
ATOM     48  N   UNL A   1      41.342  33.516  34.081  1.00  0.00    -0.248 NA
ATOM     49  C   UNL A   1      40.399  31.895  35.509  1.00  0.00     0.031 C 
ATOM     50  C   UNL A   1      41.290  29.450  32.921  1.00  0.00     0.029 A 
ATOM     51  C   UNL A   1      41.944  30.518  32.294  1.00  0.00     0.049 A 
ATOM     52  H   UNL A   1      42.783  30.493  30.356  1.00  0.00     0.167 HD
ATOM     53  C   UNL A   1      41.933  32.297  33.878  1.00  0.00     0.074 A 
ATOM     54  C   UNL A   1      41.542  31.457  34.990  1.00  0.00     0.031 C 
ATOM     55  C   UNL A   1      42.230  31.898  32.618  1.00  0.00     0.037 A 
BRANCH  42  56
ATOM     56  C   UNL A   1      41.564  28.350  28.397  1.00  0.00     0.058 A 
ATOM     57  C   UNL A   1      41.555  26.940  28.262  1.00  0.00     0.135 A 
ATOM     58  C   UNL A   1      42.615  29.027  27.762  1.00  0.00     0.135 A 
ATOM     59  F   UNL A   1      40.550  26.206  28.769  1.00  0.00    -0.206 F 
ATOM     60  C   UNL A   1      42.607  26.238  27.685  1.00  0.00     0.059 A 
ATOM     61  C   UNL A   1      43.659  28.342  27.134  1.00  0.00     0.059 A 
ATOM     62  F   UNL A   1      42.705  30.364  27.806  1.00  0.00    -0.206 F 
ATOM     63  C   UNL A   1      43.678  26.949  27.160  1.00  0.00     0.060 A 
BRANCH  63  64
ATOM     64  S   UNL A   1      45.109  26.022  26.570  1.00  0.00     0.124 S 
ATOM     65  O   UNL A   1      44.582  25.401  25.361  1.00  0.00    -0.237 OA
ATOM     66  O   UNL A   1      46.097  27.079  26.359  1.00  0.00    -0.237 OA
ATOM     67  O   UNL A   1      45.401  25.117  27.677  1.00  0.00    -0.744 OA
ENDBRANCH  63  64
ENDBRANCH  42  56
BRANCH  43  68
ATOM     68  C   UNL A   1      39.185  34.729  36.508  1.00  0.00     0.058 A 
ATOM     69  C   UNL A   1      38.643  34.195  37.684  1.00  0.00     0.135 A 
ATOM     70  C   UNL A   1      39.899  35.953  36.715  1.00  0.00     0.135 A 
ATOM     71  F   UNL A   1      37.843  33.121  37.644  1.00  0.00    -0.206 F 
ATOM     72  C   UNL A   1      38.917  34.741  38.961  1.00  0.00     0.059 A 
ATOM     73  C   UNL A   1      40.230  36.476  37.961  1.00  0.00     0.059 A 
ATOM     74  F   UNL A   1      40.350  36.695  35.694  1.00  0.00    -0.206 F 
ATOM     75  C   UNL A   1      39.760  35.847  39.092  1.00  0.00     0.060 A 
BRANCH  75  76
ATOM     76  S   UNL A   1      40.366  36.401  40.703  1.00  0.00     0.124 S 
ATOM     77  O   UNL A   1      41.145  35.253  41.150  1.00  0.00    -0.237 OA
ATOM     78  O   UNL A   1      41.130  37.597  40.361  1.00  0.00    -0.237 OA
ATOM     79  O   UNL A   1      39.135  36.657  41.450  1.00  0.00    -0.744 OA
ENDBRANCH  75  76
ENDBRANCH  43  68
BRANCH  55  80
ATOM     80  C   UNL A   1      42.446  33.031  31.628  1.00  0.00     0.058 A 
ATOM     81  C   UNL A   1      43.575  33.857  31.744  1.00  0.00     0.135 A 
ATOM     82  C   UNL A   1      41.530  33.388  30.623  1.00  0.00     0.135 A 
ATOM     83  F   UNL A   1      44.499  33.594  32.682  1.00  0.00    -0.206 F 
ATOM     84  C   UNL A   1      43.787  34.957  30.907  1.00  0.00     0.059 A 
ATOM     85  C   UNL A   1      41.717  34.477  29.766  1.00  0.00     0.059 A 
ATOM     86  F   UNL A   1      40.414  32.683  30.445  1.00  0.00    -0.206 F 
ATOM     87  C   UNL A   1      42.854  35.259  29.915  1.00  0.00     0.060 A 
BRANCH  87  88
ATOM     88  S   UNL A   1      43.159  36.663  28.818  1.00  0.00     0.124 S 
ATOM     89  O   UNL A   1      43.682  37.671  29.735  1.00  0.00    -0.237 OA
ATOM     90  O   UNL A   1      44.125  36.108  27.875  1.00  0.00    -0.237 OA
ATOM     91  O   UNL A   1      41.843  36.960  28.257  1.00  0.00    -0.744 OA
ENDBRANCH  87  88
ENDBRANCH  55  80
ENDBRANCH  29  30
ENDBRANCH  22  24
ENDBRANCH  21  22
ENDBRANCH  20  21
ENDBRANCH  19  20
ENDBRANCH   1  19
TORSDOF 21
ENDMDL
MODEL 2
REMARK VINA RESULT:      -9.5      4.828      9.045
REMARK SMILES CCN(CCOC)C(=O)c1cccn1CC(=O)OCCOC(=O)c1ccc(-c2c3nc(c(-c4c(F)cc(S(=O)(=O)[O-])cc4F)c4ccc([nH]4)c(-c4c(F)cc(S(=O)(=O)[O-])cc4F)c4nc(c(-c5c(F)cc(S(=O)(=O)[O-])cc5F)c5ccc2[nH]5)C=C4)C=C3)cc1
REMARK SMILES IDX 18 1 16 2 17 3 15 4 14 5 10 6 11 7 12 8 13 9 8 10 9 11 3 12
REMARK SMILES IDX 2 13 1 14 4 15 5 16 6 17 7 18 19 19 20 20 21 21 22 22 23 23
REMARK SMILES IDX 24 24 25 25 89 26 26 27 88 28 27 29 28 30 29 31 82 32 30 33
REMARK SMILES IDX 87 34 81 35 83 36 31 37 86 38 80 39 79 40 32 42 66 43 45 44
REMARK SMILES IDX 65 45 46 46 49 47 64 48 84 49 47 50 48 51 63 53 85 54 50 55
REMARK SMILES IDX 33 56 34 57 43 58 35 59 36 60 42 61 44 62 37 63 38 64 39 65
REMARK SMILES IDX 40 66 41 67 67 68 68 69 77 70 69 71 70 72 76 73 78 74 71 75
REMARK SMILES IDX 72 76 73 77 74 78 75 79 51 80 52 81 61 82 53 83 54 84 60 85
REMARK SMILES IDX 62 86 55 87 56 88 57 89 58 90 59 91
REMARK H PARENT 83 41 49 52
REMARK Flexibility Score: inf
ROOT
ATOM      1  O   UNL A   1      35.686  32.908  31.309  1.00  0.00    -0.461 OA
ENDROOT
BRANCH   1   2
ATOM      2  C   UNL A   1      36.754  33.144  32.117  1.00  0.00     0.326 C 
ATOM      3  O   UNL A   1      37.758  33.752  31.747  1.00  0.00    -0.250 OA
BRANCH   2   4
ATOM      4  C   UNL A   1      36.668  32.559  33.510  1.00  0.00     0.244 C 
BRANCH   4   5
ATOM      5  N   UNL A   1      37.496  31.391  33.787  1.00  0.00    -0.332 N 
ATOM      6  C   UNL A   1      38.381  31.179  34.845  1.00  0.00     0.107 A 
ATOM      7  C   UNL A   1      39.186  30.141  34.374  1.00  0.00     0.033 A 
ATOM      8  C   UNL A   1      38.527  29.506  33.296  1.00  0.00     0.020 A 
ATOM      9  C   UNL A   1      37.378  30.216  33.083  1.00  0.00     0.087 A 
BRANCH   6  10
ATOM     10  C   UNL A   1      38.289  31.905  36.112  1.00  0.00     0.270 C 
ATOM     11  O   UNL A   1      37.519  31.484  36.984  1.00  0.00    -0.267 OA
BRANCH  10  12
ATOM     12  N   UNL A   1      39.103  33.001  36.449  1.00  0.00    -0.335 N 
BRANCH  12  13
ATOM     13  C   UNL A   1      40.124  32.794  37.485  1.00  0.00     0.116 C 
ATOM     14  C   UNL A   1      41.392  32.095  37.012  1.00  0.00     0.027 C 
ENDBRANCH  12  13
BRANCH  12  15
ATOM     15  C   UNL A   1      39.178  34.276  35.731  1.00  0.00     0.148 C 
BRANCH  15  16
ATOM     16  C   UNL A   1      39.513  35.490  36.627  1.00  0.00     0.181 C 
BRANCH  16  17
ATOM     17  O   UNL A   1      39.879  36.659  35.902  1.00  0.00    -0.383 OA
ATOM     18  C   UNL A   1      41.244  36.705  35.511  1.00  0.00     0.194 C 
ENDBRANCH  16  17
ENDBRANCH  15  16
ENDBRANCH  12  15
ENDBRANCH  10  12
ENDBRANCH   6  10
ENDBRANCH   4   5
ENDBRANCH   2   4
ENDBRANCH   1   2
BRANCH   1  19
ATOM     19  C   UNL A   1      35.818  33.346  29.938  1.00  0.00     0.274 C 
BRANCH  19  20
ATOM     20  C   UNL A   1      35.461  32.280  28.889  1.00  0.00     0.275 C 
BRANCH  20  21
ATOM     21  O   UNL A   1      36.586  31.687  28.226  1.00  0.00    -0.458 OA
BRANCH  21  22
ATOM     22  C   UNL A   1      36.279  30.455  27.770  1.00  0.00     0.338 C 
ATOM     23  O   UNL A   1      35.206  30.101  27.309  1.00  0.00    -0.246 OA
BRANCH  22  24
ATOM     24  C   UNL A   1      37.323  29.464  27.994  1.00  0.00     0.060 A 
ATOM     25  C   UNL A   1      37.293  28.788  29.215  1.00  0.00     0.016 A 
ATOM     26  C   UNL A   1      38.489  29.560  27.236  1.00  0.00     0.016 A 
ATOM     27  C   UNL A   1      38.473  28.331  29.769  1.00  0.00     0.010 A 
ATOM     28  C   UNL A   1      39.672  29.068  27.770  1.00  0.00     0.010 A 
ATOM     29  C   UNL A   1      39.665  28.490  29.051  1.00  0.00    -0.014 A 
BRANCH  29  30
ATOM     30  C   UNL A   1      40.852  27.778  29.559  1.00  0.00     0.031 A 
ATOM     31  C   UNL A   1      41.012  26.425  28.817  1.00  0.00     0.074 A 
ATOM     32  C   UNL A   1      41.561  28.385  30.564  1.00  0.00     0.049 A 
ATOM     33  N   UNL A   1      41.684  25.359  29.132  1.00  0.00    -0.248 NA
ATOM     34  C   UNL A   1      40.243  26.201  27.552  1.00  0.00     0.031 C 
ATOM     35  C   UNL A   1      41.245  29.704  31.166  1.00  0.00     0.029 A 
ATOM     36  N   UNL A   1      42.685  28.032  31.283  1.00  0.00    -0.354 N 
ATOM     37  C   UNL A   1      41.619  24.479  28.024  1.00  0.00     0.074 A 
ATOM     38  C   UNL A   1      40.615  24.987  27.150  1.00  0.00     0.031 C 
ATOM     39  C   UNL A   1      42.098  29.998  32.177  1.00  0.00     0.029 A 
ATOM     40  C   UNL A   1      43.073  28.933  32.319  1.00  0.00     0.049 A 
ATOM     41  H   UNL A   1      43.188  27.208  31.094  1.00  0.00     0.167 HD
ATOM     42  C   UNL A   1      42.499  23.458  27.818  1.00  0.00     0.037 A 
ATOM     43  C   UNL A   1      44.095  28.805  33.230  1.00  0.00     0.037 A 
ATOM     44  C   UNL A   1      43.400  23.367  28.913  1.00  0.00     0.049 A 
ATOM     45  C   UNL A   1      44.837  27.627  32.765  1.00  0.00     0.074 A 
ATOM     46  C   UNL A   1      43.245  22.905  30.190  1.00  0.00     0.029 A 
ATOM     47  N   UNL A   1      44.549  24.116  28.833  1.00  0.00    -0.354 N 
ATOM     48  N   UNL A   1      45.622  27.610  31.731  1.00  0.00    -0.248 NA
ATOM     49  C   UNL A   1      44.649  26.357  33.475  1.00  0.00     0.031 C 
ATOM     50  C   UNL A   1      44.068  23.756  30.951  1.00  0.00     0.029 A 
ATOM     51  C   UNL A   1      44.821  24.572  30.098  1.00  0.00     0.049 A 
ATOM     52  H   UNL A   1      45.078  24.291  28.020  1.00  0.00     0.167 HD
ATOM     53  C   UNL A   1      45.751  26.269  31.487  1.00  0.00     0.074 A 
ATOM     54  C   UNL A   1      45.434  25.590  32.724  1.00  0.00     0.031 C 
ATOM     55  C   UNL A   1      45.577  25.798  30.228  1.00  0.00     0.037 A 
BRANCH  42  56
ATOM     56  C   UNL A   1      42.811  22.625  26.605  1.00  0.00     0.058 A 
ATOM     57  C   UNL A   1      42.408  21.267  26.616  1.00  0.00     0.135 A 
ATOM     58  C   UNL A   1      43.770  22.979  25.643  1.00  0.00     0.135 A 
ATOM     59  F   UNL A   1      41.441  20.844  27.448  1.00  0.00    -0.206 F 
ATOM     60  C   UNL A   1      43.035  20.295  25.847  1.00  0.00     0.059 A 
ATOM     61  C   UNL A   1      44.379  22.023  24.826  1.00  0.00     0.059 A 
ATOM     62  F   UNL A   1      44.204  24.241  25.530  1.00  0.00    -0.206 F 
ATOM     63  C   UNL A   1      44.052  20.677  24.983  1.00  0.00     0.060 A 
BRANCH  63  64
ATOM     64  S   UNL A   1      44.969  19.385  24.120  1.00  0.00     0.124 S 
ATOM     65  O   UNL A   1      44.518  18.186  24.816  1.00  0.00    -0.237 OA
ATOM     66  O   UNL A   1      44.496  19.534  22.745  1.00  0.00    -0.237 OA
ATOM     67  O   UNL A   1      46.362  19.762  24.336  1.00  0.00    -0.744 OA
ENDBRANCH  63  64
ENDBRANCH  42  56
BRANCH  43  68
ATOM     68  C   UNL A   1      44.633  29.427  34.514  1.00  0.00     0.058 A 
ATOM     69  C   UNL A   1      45.536  30.491  34.622  1.00  0.00     0.135 A 
ATOM     70  C   UNL A   1      44.094  29.007  35.773  1.00  0.00     0.135 A 
ATOM     71  F   UNL A   1      46.221  30.919  33.553  1.00  0.00    -0.206 F 
ATOM     72  C   UNL A   1      45.762  31.173  35.842  1.00  0.00     0.059 A 
ATOM     73  C   UNL A   1      44.255  29.695  36.972  1.00  0.00     0.059 A 
ATOM     74  F   UNL A   1      43.340  27.906  35.893  1.00  0.00    -0.206 F 
ATOM     75  C   UNL A   1      45.072  30.803  36.997  1.00  0.00     0.060 A 
BRANCH  75  76
ATOM     76  S   UNL A   1      45.108  31.813  38.497  1.00  0.00     0.124 S 
ATOM     77  O   UNL A   1      44.021  31.240  39.281  1.00  0.00    -0.237 OA
ATOM     78  O   UNL A   1      46.456  31.578  39.006  1.00  0.00    -0.237 OA
ATOM     79  O   UNL A   1      44.875  33.165  37.992  1.00  0.00    -0.744 OA
ENDBRANCH  75  76
ENDBRANCH  43  68
BRANCH  55  80
ATOM     80  C   UNL A   1      45.852  26.810  29.128  1.00  0.00     0.058 A 
ATOM     81  C   UNL A   1      47.162  27.253  28.895  1.00  0.00     0.135 A 
ATOM     82  C   UNL A   1      44.853  27.429  28.356  1.00  0.00     0.135 A 
ATOM     83  F   UNL A   1      48.179  26.721  29.593  1.00  0.00    -0.206 F 
ATOM     84  C   UNL A   1      47.463  28.235  27.946  1.00  0.00     0.059 A 
ATOM     85  C   UNL A   1      45.122  28.409  27.395  1.00  0.00     0.059 A 
ATOM     86  F   UNL A   1      43.572  27.098  28.517  1.00  0.00    -0.206 F 
ATOM     87  C   UNL A   1      46.436  28.807  27.194  1.00  0.00     0.060 A 
BRANCH  87  88
ATOM     88  S   UNL A   1      46.846  30.049  25.947  1.00  0.00     0.124 S 
ATOM     89  O   UNL A   1      48.187  30.466  26.346  1.00  0.00    -0.237 OA
ATOM     90  O   UNL A   1      46.766  29.278  24.711  1.00  0.00    -0.237 OA
ATOM     91  O   UNL A   1      45.807  31.065  26.113  1.00  0.00    -0.744 OA
ENDBRANCH  87  88
ENDBRANCH  55  80
ENDBRANCH  29  30
ENDBRANCH  22  24
ENDBRANCH  21  22
ENDBRANCH  20  21
ENDBRANCH  19  20
ENDBRANCH   1  19
TORSDOF 21
ENDMDL
MODEL 3
REMARK VINA RESULT:      -9.4      5.012     11.492
REMARK SMILES CCN(CCOC)C(=O)c1cccn1CC(=O)OCCOC(=O)c1ccc(-c2c3nc(c(-c4c(F)cc(S(=O)(=O)[O-])cc4F)c4ccc([nH]4)c(-c4c(F)cc(S(=O)(=O)[O-])cc4F)c4nc(c(-c5c(F)cc(S(=O)(=O)[O-])cc5F)c5ccc2[nH]5)C=C4)C=C3)cc1
REMARK SMILES IDX 18 1 16 2 17 3 15 4 14 5 10 6 11 7 12 8 13 9 8 10 9 11 3 12
REMARK SMILES IDX 2 13 1 14 4 15 5 16 6 17 7 18 19 19 20 20 21 21 22 22 23 23
REMARK SMILES IDX 24 24 25 25 89 26 26 27 88 28 27 29 28 30 29 31 82 32 30 33
REMARK SMILES IDX 87 34 81 35 83 36 31 37 86 38 80 39 79 40 32 42 66 43 45 44
REMARK SMILES IDX 65 45 46 46 49 47 64 48 84 49 47 50 48 51 63 53 85 54 50 55
REMARK SMILES IDX 33 56 34 57 43 58 35 59 36 60 42 61 44 62 37 63 38 64 39 65
REMARK SMILES IDX 40 66 41 67 67 68 68 69 77 70 69 71 70 72 76 73 78 74 71 75
REMARK SMILES IDX 72 76 73 77 74 78 75 79 51 80 52 81 61 82 53 83 54 84 60 85
REMARK SMILES IDX 62 86 55 87 56 88 57 89 58 90 59 91
REMARK H PARENT 83 41 49 52
REMARK Flexibility Score: inf
ROOT
ATOM      1  O   UNL A   1      36.320  21.348  25.854  1.00  0.00    -0.461 OA
ENDROOT
BRANCH   1   2
ATOM      2  C   UNL A   1      35.458  22.390  25.706  1.00  0.00     0.326 C 
ATOM      3  O   UNL A   1      35.828  23.556  25.570  1.00  0.00    -0.250 OA
BRANCH   2   4
ATOM      4  C   UNL A   1      33.987  22.042  25.775  1.00  0.00     0.244 C 
BRANCH   4   5
ATOM      5  N   UNL A   1      33.436  21.284  24.657  1.00  0.00    -0.332 N 
ATOM      6  C   UNL A   1      32.858  21.760  23.480  1.00  0.00     0.107 A 
ATOM      7  C   UNL A   1      32.140  20.656  23.016  1.00  0.00     0.033 A 
ATOM      8  C   UNL A   1      32.630  19.493  23.655  1.00  0.00     0.020 A 
ATOM      9  C   UNL A   1      33.575  19.920  24.547  1.00  0.00     0.087 A 
BRANCH   6  10
ATOM     10  C   UNL A   1      33.118  23.100  22.955  1.00  0.00     0.270 C 
ATOM     11  O   UNL A   1      34.042  23.254  22.147  1.00  0.00    -0.267 OA
BRANCH  10  12
ATOM     12  N   UNL A   1      32.314  24.221  23.231  1.00  0.00    -0.335 N 
BRANCH  12  13
ATOM     13  C   UNL A   1      32.913  25.549  23.036  1.00  0.00     0.116 C 
ATOM     14  C   UNL A   1      33.823  26.019  24.163  1.00  0.00     0.027 C 
ENDBRANCH  12  13
BRANCH  12  15
ATOM     15  C   UNL A   1      30.875  24.209  23.498  1.00  0.00     0.148 C 
BRANCH  15  16
ATOM     16  C   UNL A   1      30.259  25.608  23.729  1.00  0.00     0.181 C 
BRANCH  16  17
ATOM     17  O   UNL A   1      29.953  25.885  25.092  1.00  0.00    -0.383 OA
ATOM     18  C   UNL A   1      30.351  24.869  26.003  1.00  0.00     0.194 C 
ENDBRANCH  16  17
ENDBRANCH  15  16
ENDBRANCH  12  15
ENDBRANCH  10  12
ENDBRANCH   6  10
ENDBRANCH   4   5
ENDBRANCH   2   4
ENDBRANCH   1   2
BRANCH   1  19
ATOM     19  C   UNL A   1      37.282  21.164  24.792  1.00  0.00     0.274 C 
BRANCH  19  20
ATOM     20  C   UNL A   1      38.404  20.164  25.113  1.00  0.00     0.275 C 
BRANCH  20  21
ATOM     21  O   UNL A   1      39.214  20.509  26.244  1.00  0.00    -0.458 OA
BRANCH  21  22
ATOM     22  C   UNL A   1      40.477  20.061  26.085  1.00  0.00     0.338 C 
ATOM     23  O   UNL A   1      40.809  18.924  25.794  1.00  0.00    -0.246 OA
BRANCH  22  24
ATOM     24  C   UNL A   1      41.500  21.038  26.435  1.00  0.00     0.060 A 
ATOM     25  C   UNL A   1      41.648  21.331  27.792  1.00  0.00     0.016 A 
ATOM     26  C   UNL A   1      41.933  21.916  25.442  1.00  0.00     0.016 A 
ATOM     27  C   UNL A   1      42.090  22.583  28.173  1.00  0.00     0.010 A 
ATOM     28  C   UNL A   1      42.415  23.161  25.820  1.00  0.00     0.010 A 
ATOM     29  C   UNL A   1      42.456  23.503  27.183  1.00  0.00    -0.014 A 
BRANCH  29  30
ATOM     30  C   UNL A   1      43.149  24.726  27.629  1.00  0.00     0.031 A 
ATOM     31  C   UNL A   1      42.112  25.764  28.135  1.00  0.00     0.074 A 
ATOM     32  C   UNL A   1      44.514  24.750  27.505  1.00  0.00     0.049 A 
ATOM     33  N   UNL A   1      42.212  27.046  28.310  1.00  0.00    -0.248 NA
ATOM     34  C   UNL A   1      40.717  25.305  28.428  1.00  0.00     0.031 C 
ATOM     35  C   UNL A   1      45.351  23.643  26.980  1.00  0.00     0.029 A 
ATOM     36  N   UNL A   1      45.480  25.694  27.792  1.00  0.00    -0.354 N 
ATOM     37  C   UNL A   1      41.022  27.477  28.946  1.00  0.00     0.074 A 
ATOM     38  C   UNL A   1      40.095  26.398  28.865  1.00  0.00     0.031 C 
ATOM     39  C   UNL A   1      46.658  23.999  26.929  1.00  0.00     0.029 A 
ATOM     40  C   UNL A   1      46.818  25.346  27.441  1.00  0.00     0.049 A 
ATOM     41  H   UNL A   1      45.258  26.556  28.213  1.00  0.00     0.167 HD
ATOM     42  C   UNL A   1      40.915  28.651  29.633  1.00  0.00     0.037 A 
ATOM     43  C   UNL A   1      47.958  26.109  27.542  1.00  0.00     0.037 A 
ATOM     44  C   UNL A   1      42.125  29.387  29.524  1.00  0.00     0.049 A 
ATOM     45  C   UNL A   1      47.525  27.293  28.293  1.00  0.00     0.074 A 
ATOM     46  C   UNL A   1      42.673  30.101  28.495  1.00  0.00     0.029 A 
ATOM     47  N   UNL A   1      43.086  29.143  30.474  1.00  0.00    -0.354 N 
ATOM     48  N   UNL A   1      47.280  27.309  29.568  1.00  0.00    -0.248 NA
ATOM     49  C   UNL A   1      47.296  28.542  27.558  1.00  0.00     0.031 C 
ATOM     50  C   UNL A   1      44.056  29.884  28.642  1.00  0.00     0.029 A 
ATOM     51  C   UNL A   1      44.303  29.208  29.843  1.00  0.00     0.049 A 
ATOM     52  H   UNL A   1      42.931  28.956  31.429  1.00  0.00     0.167 HD
ATOM     53  C   UNL A   1      46.563  28.468  29.711  1.00  0.00     0.074 A 
ATOM     54  C   UNL A   1      46.889  29.300  28.573  1.00  0.00     0.031 C 
ATOM     55  C   UNL A   1      45.400  28.454  30.407  1.00  0.00     0.037 A 
BRANCH  42  56
ATOM     56  C   UNL A   1      39.895  29.154  30.617  1.00  0.00     0.058 A 
ATOM     57  C   UNL A   1      39.067  30.231  30.216  1.00  0.00     0.135 A 
ATOM     58  C   UNL A   1      39.947  28.892  31.995  1.00  0.00     0.135 A 
ATOM     59  F   UNL A   1      38.889  30.514  28.914  1.00  0.00    -0.206 F 
ATOM     60  C   UNL A   1      38.470  31.094  31.126  1.00  0.00     0.059 A 
ATOM     61  C   UNL A   1      39.315  29.721  32.926  1.00  0.00     0.059 A 
ATOM     62  F   UNL A   1      40.682  27.882  32.481  1.00  0.00    -0.206 F 
ATOM     63  C   UNL A   1      38.636  30.855  32.484  1.00  0.00     0.060 A 
BRANCH  63  64
ATOM     64  S   UNL A   1      38.002  32.078  33.649  1.00  0.00     0.124 S 
ATOM     65  O   UNL A   1      38.031  31.335  34.904  1.00  0.00    -0.237 OA
ATOM     66  O   UNL A   1      38.980  33.157  33.530  1.00  0.00    -0.237 OA
ATOM     67  O   UNL A   1      36.676  32.386  33.122  1.00  0.00    -0.744 OA
ENDBRANCH  63  64
ENDBRANCH  42  56
BRANCH  43  68
ATOM     68  C   UNL A   1      49.418  26.135  27.104  1.00  0.00     0.058 A 
ATOM     69  C   UNL A   1      50.542  25.889  27.902  1.00  0.00     0.135 A 
ATOM     70  C   UNL A   1      49.728  26.293  25.715  1.00  0.00     0.135 A 
ATOM     71  F   UNL A   1      50.438  25.841  29.236  1.00  0.00    -0.206 F 
ATOM     72  C   UNL A   1      51.827  25.667  27.352  1.00  0.00     0.059 A 
ATOM     73  C   UNL A   1      50.969  26.023  25.146  1.00  0.00     0.059 A 
ATOM     74  F   UNL A   1      48.812  26.691  24.821  1.00  0.00    -0.206 F 
ATOM     75  C   UNL A   1      52.017  25.678  25.969  1.00  0.00     0.060 A 
BRANCH  75  76
ATOM     76  S   UNL A   1      53.562  25.122  25.211  1.00  0.00     0.124 S 
ATOM     77  O   UNL A   1      54.566  25.754  26.060  1.00  0.00    -0.237 OA
ATOM     78  O   UNL A   1      53.463  23.670  25.313  1.00  0.00    -0.237 OA
ATOM     79  O   UNL A   1      53.471  25.645  23.849  1.00  0.00    -0.744 OA
ENDBRANCH  75  76
ENDBRANCH  43  68
BRANCH  55  80
ATOM     80  C   UNL A   1      45.298  27.353  31.450  1.00  0.00     0.058 A 
ATOM     81  C   UNL A   1      46.084  27.412  32.611  1.00  0.00     0.135 A 
ATOM     82  C   UNL A   1      44.518  26.193  31.300  1.00  0.00     0.135 A 
ATOM     83  F   UNL A   1      46.865  28.481  32.832  1.00  0.00    -0.206 F 
ATOM     84  C   UNL A   1      46.083  26.392  33.567  1.00  0.00     0.059 A 
ATOM     85  C   UNL A   1      44.491  25.159  32.241  1.00  0.00     0.059 A 
ATOM     86  F   UNL A   1      43.754  26.027  30.221  1.00  0.00    -0.206 F 
ATOM     87  C   UNL A   1      45.279  25.268  33.378  1.00  0.00     0.060 A 
BRANCH  87  88
ATOM     88  S   UNL A   1      45.263  23.975  34.641  1.00  0.00     0.124 S 
ATOM     89  O   UNL A   1      44.410  24.554  35.674  1.00  0.00    -0.237 OA
ATOM     90  O   UNL A   1      44.693  22.845  33.913  1.00  0.00    -0.237 OA
ATOM     91  O   UNL A   1      46.670  23.830  35.009  1.00  0.00    -0.744 OA
ENDBRANCH  87  88
ENDBRANCH  55  80
ENDBRANCH  29  30
ENDBRANCH  22  24
ENDBRANCH  21  22
ENDBRANCH  20  21
ENDBRANCH  19  20
ENDBRANCH   1  19
TORSDOF 21
ENDMDL
