MODEL 1
REMARK VINA RESULT:     -11.3      0.000      0.000
REMARK SMILES C[C@H](C(=O)OCCOC(=O)c1ccc(-c2c3nc(c(-c4c(F)cc(S(=O)(=O)[O-])cc4F)c4ccc([nH]4)c(-c4c(F)cc(S(=O)(=O)[O-])cc4F)c4nc(c(-c5c(F)cc(S(=O)(=O)[O-])cc5F)c5ccc2[nH]5)C=C4)C=C3)cc1)[C@H](C)[NH+]1CCN(c2ccccc2Cl)CC1
REMARK SMILES IDX 6 1 5 2 3 3 4 4 2 5 1 6 77 7 78 8 79 9 80 10 91 11 81 13
REMARK SMILES IDX 90 14 82 15 83 16 84 17 88 18 85 19 87 20 89 21 86 22 7 23
REMARK SMILES IDX 8 24 9 25 10 26 11 27 12 28 76 29 13 30 75 31 14 32 15 33
REMARK SMILES IDX 16 34 69 35 17 36 74 37 68 38 70 39 18 40 73 41 67 42 66 43
REMARK SMILES IDX 19 45 53 46 32 47 52 48 33 49 36 50 51 51 71 52 34 53 35 54
REMARK SMILES IDX 50 56 72 57 37 58 20 59 21 60 30 61 22 62 23 63 29 64 31 65
REMARK SMILES IDX 24 66 25 67 26 68 27 69 28 70 54 71 55 72 64 73 56 74 57 75
REMARK SMILES IDX 63 76 65 77 58 78 59 79 60 80 61 81 62 82 38 83 39 84 48 85
REMARK SMILES IDX 40 86 41 87 47 88 49 89 42 90 43 91 44 92 45 93 46 94
REMARK H PARENT 79 12 70 44 36 55
REMARK Flexibility Score: inf
ROOT
ATOM      1  C   UNL A   1      32.623  28.176  27.174  1.00  0.00     0.274 C 
ENDROOT
BRANCH   1   2
ATOM      2  O   UNL A   1      31.746  28.073  26.027  1.00  0.00    -0.462 OA
BRANCH   2   3
ATOM      3  C   UNL A   1      31.028  26.919  25.919  1.00  0.00     0.314 C 
ATOM      4  O   UNL A   1      30.561  26.301  26.869  1.00  0.00    -0.252 OA
BRANCH   3   5
ATOM      5  C   UNL A   1      30.850  26.500  24.456  1.00  0.00     0.154 C 
ATOM      6  C   UNL A   1      29.346  26.483  24.181  1.00  0.00     0.026 C 
BRANCH   5   7
ATOM      7  C   UNL A   1      31.773  27.319  23.472  1.00  0.00     0.195 C 
ATOM      8  C   UNL A   1      30.984  27.991  22.367  1.00  0.00     0.076 C 
BRANCH   7   9
ATOM      9  N   UNL A   1      33.050  26.722  23.017  1.00  0.00    -0.329 N 
ATOM     10  C   UNL A   1      34.044  26.357  24.048  1.00  0.00     0.284 C 
ATOM     11  C   UNL A   1      32.896  25.561  22.085  1.00  0.00     0.284 C 
ATOM     12  H   UNL A   1      33.429  27.527  22.520  1.00  0.00     0.348 HD
ATOM     13  C   UNL A   1      33.922  24.976  24.715  1.00  0.00     0.178 C 
ATOM     14  C   UNL A   1      32.858  24.107  22.664  1.00  0.00     0.178 C 
ATOM     15  N   UNL A   1      33.881  23.925  23.702  1.00  0.00    -0.359 N 
BRANCH  15  16
ATOM     16  C   UNL A   1      34.280  22.635  24.060  1.00  0.00     0.056 A 
ATOM     17  C   UNL A   1      33.323  21.613  24.221  1.00  0.00     0.027 A 
ATOM     18  C   UNL A   1      35.621  22.292  24.355  1.00  0.00     0.064 A 
ATOM     19  C   UNL A   1      33.667  20.338  24.677  1.00  0.00     0.002 A 
ATOM     20  C   UNL A   1      35.969  21.001  24.783  1.00  0.00     0.023 A 
ATOM     21  Cl  UNL A   1      36.900  23.465  24.345  1.00  0.00    -0.082 Cl
ATOM     22  C   UNL A   1      34.991  20.026  24.951  1.00  0.00     0.002 A 
ENDBRANCH  15  16
ENDBRANCH   7   9
ENDBRANCH   5   7
ENDBRANCH   3   5
ENDBRANCH   2   3
ENDBRANCH   1   2
BRANCH   1  23
ATOM     23  C   UNL A   1      33.802  29.098  26.857  1.00  0.00     0.275 C 
BRANCH  23  24
ATOM     24  O   UNL A   1      34.849  28.877  27.819  1.00  0.00    -0.458 OA
BRANCH  24  25
ATOM     25  C   UNL A   1      35.432  29.998  28.322  1.00  0.00     0.338 C 
ATOM     26  O   UNL A   1      34.840  30.968  28.764  1.00  0.00    -0.246 OA
BRANCH  25  27
ATOM     27  C   UNL A   1      36.918  29.846  28.354  1.00  0.00     0.060 A 
ATOM     28  C   UNL A   1      37.705  30.134  27.242  1.00  0.00     0.016 A 
ATOM     29  C   UNL A   1      37.536  29.289  29.477  1.00  0.00     0.016 A 
ATOM     30  C   UNL A   1      39.031  29.691  27.180  1.00  0.00     0.010 A 
ATOM     31  C   UNL A   1      38.911  28.989  29.460  1.00  0.00     0.010 A 
ATOM     32  C   UNL A   1      39.678  29.126  28.288  1.00  0.00    -0.014 A 
BRANCH  32  33
ATOM     33  C   UNL A   1      41.104  28.648  28.212  1.00  0.00     0.031 A 
ATOM     34  C   UNL A   1      42.250  29.585  28.543  1.00  0.00     0.074 A 
ATOM     35  C   UNL A   1      41.420  27.378  27.868  1.00  0.00     0.049 A 
ATOM     36  N   UNL A   1      43.518  29.484  28.227  1.00  0.00    -0.248 NA
ATOM     37  C   UNL A   1      41.927  30.808  29.295  1.00  0.00     0.031 C 
ATOM     38  C   UNL A   1      40.470  26.308  27.562  1.00  0.00     0.029 A 
ATOM     39  N   UNL A   1      42.645  26.757  27.744  1.00  0.00    -0.354 N 
ATOM     40  C   UNL A   1      44.110  30.682  28.619  1.00  0.00     0.074 A 
ATOM     41  C   UNL A   1      43.073  31.473  29.245  1.00  0.00     0.031 C 
ATOM     42  C   UNL A   1      41.130  25.152  27.405  1.00  0.00     0.029 A 
ATOM     43  C   UNL A   1      42.563  25.415  27.444  1.00  0.00     0.049 A 
ATOM     44  H   UNL A   1      43.500  27.230  27.859  1.00  0.00     0.167 HD
ATOM     45  C   UNL A   1      45.392  31.089  28.443  1.00  0.00     0.037 A 
ATOM     46  C   UNL A   1      43.517  24.500  27.178  1.00  0.00     0.037 A 
ATOM     47  C   UNL A   1      46.447  30.244  27.942  1.00  0.00     0.049 A 
ATOM     48  C   UNL A   1      44.949  24.941  27.076  1.00  0.00     0.074 A 
ATOM     49  C   UNL A   1      47.774  30.568  27.703  1.00  0.00     0.029 A 
ATOM     50  N   UNL A   1      46.313  28.893  27.661  1.00  0.00    -0.354 N 
ATOM     51  N   UNL A   1      45.460  26.133  27.270  1.00  0.00    -0.248 NA
ATOM     52  C   UNL A   1      45.929  23.925  26.663  1.00  0.00     0.031 C 
ATOM     53  C   UNL A   1      48.437  29.416  27.264  1.00  0.00     0.029 A 
ATOM     54  C   UNL A   1      47.531  28.368  27.262  1.00  0.00     0.049 A 
ATOM     55  H   UNL A   1      45.475  28.383  27.734  1.00  0.00     0.167 HD
ATOM     56  C   UNL A   1      46.810  26.018  26.966  1.00  0.00     0.074 A 
ATOM     57  C   UNL A   1      47.051  24.630  26.634  1.00  0.00     0.031 C 
ATOM     58  C   UNL A   1      47.758  26.987  26.929  1.00  0.00     0.037 A 
BRANCH  45  59
ATOM     59  C   UNL A   1      45.723  32.530  28.726  1.00  0.00     0.058 A 
ATOM     60  C   UNL A   1      46.243  32.964  29.953  1.00  0.00     0.135 A 
ATOM     61  C   UNL A   1      45.565  33.488  27.708  1.00  0.00     0.135 A 
ATOM     62  F   UNL A   1      46.399  32.098  30.965  1.00  0.00    -0.206 F 
ATOM     63  C   UNL A   1      46.576  34.300  30.169  1.00  0.00     0.059 A 
ATOM     64  C   UNL A   1      45.915  34.823  27.892  1.00  0.00     0.059 A 
ATOM     65  F   UNL A   1      45.075  33.127  26.512  1.00  0.00    -0.206 F 
ATOM     66  C   UNL A   1      46.408  35.222  29.132  1.00  0.00     0.060 A 
BRANCH  66  67
ATOM     67  S   UNL A   1      46.853  36.949  29.418  1.00  0.00     0.124 S 
ATOM     68  O   UNL A   1      47.939  37.131  28.459  1.00  0.00    -0.237 OA
ATOM     69  O   UNL A   1      45.612  37.651  29.109  1.00  0.00    -0.237 OA
ATOM     70  O   UNL A   1      47.247  36.971  30.823  1.00  0.00    -0.744 OA
ENDBRANCH  66  67
ENDBRANCH  45  59
BRANCH  46  71
ATOM     71  C   UNL A   1      43.143  23.078  26.934  1.00  0.00     0.058 A 
ATOM     72  C   UNL A   1      43.141  22.550  25.635  1.00  0.00     0.135 A 
ATOM     73  C   UNL A   1      42.819  22.209  27.989  1.00  0.00     0.135 A 
ATOM     74  F   UNL A   1      43.409  23.345  24.587  1.00  0.00    -0.206 F 
ATOM     75  C   UNL A   1      42.863  21.210  25.388  1.00  0.00     0.059 A 
ATOM     76  C   UNL A   1      42.565  20.859  27.772  1.00  0.00     0.059 A 
ATOM     77  F   UNL A   1      42.800  22.661  29.252  1.00  0.00    -0.206 F 
ATOM     78  C   UNL A   1      42.588  20.369  26.467  1.00  0.00     0.060 A 
BRANCH  78  79
ATOM     79  S   UNL A   1      42.335  18.607  26.162  1.00  0.00     0.124 S 
ATOM     80  O   UNL A   1      40.927  18.574  25.788  1.00  0.00    -0.237 OA
ATOM     81  O   UNL A   1      43.288  18.335  25.091  1.00  0.00    -0.237 OA
ATOM     82  O   UNL A   1      42.665  18.001  27.449  1.00  0.00    -0.744 OA
ENDBRANCH  78  79
ENDBRANCH  46  71
BRANCH  58  83
ATOM     83  C   UNL A   1      49.138  26.577  26.503  1.00  0.00     0.058 A 
ATOM     84  C   UNL A   1      50.041  26.011  27.417  1.00  0.00     0.135 A 
ATOM     85  C   UNL A   1      49.553  26.724  25.171  1.00  0.00     0.135 A 
ATOM     86  F   UNL A   1      49.693  25.856  28.704  1.00  0.00    -0.206 F 
ATOM     87  C   UNL A   1      51.320  25.627  27.029  1.00  0.00     0.059 A 
ATOM     88  C   UNL A   1      50.822  26.329  24.758  1.00  0.00     0.059 A 
ATOM     89  F   UNL A   1      48.724  27.254  24.259  1.00  0.00    -0.206 F 
ATOM     90  C   UNL A   1      51.703  25.793  25.697  1.00  0.00     0.060 A 
BRANCH  90  91
ATOM     91  S   UNL A   1      53.362  25.279  25.202  1.00  0.00     0.124 S 
ATOM     92  O   UNL A   1      54.190  26.002  26.159  1.00  0.00    -0.237 OA
ATOM     93  O   UNL A   1      53.307  23.830  25.377  1.00  0.00    -0.237 OA
ATOM     94  O   UNL A   1      53.457  25.733  23.817  1.00  0.00    -0.744 OA
ENDBRANCH  90  91
ENDBRANCH  58  83
ENDBRANCH  32  33
ENDBRANCH  25  27
ENDBRANCH  24  25
ENDBRANCH  23  24
ENDBRANCH   1  23
TORSDOF 17
ENDMDL
MODEL 2
REMARK VINA RESULT:     -11.2      0.904      1.791
REMARK SMILES C[C@H](C(=O)OCCOC(=O)c1ccc(-c2c3nc(c(-c4c(F)cc(S(=O)(=O)[O-])cc4F)c4ccc([nH]4)c(-c4c(F)cc(S(=O)(=O)[O-])cc4F)c4nc(c(-c5c(F)cc(S(=O)(=O)[O-])cc5F)c5ccc2[nH]5)C=C4)C=C3)cc1)[C@H](C)[NH+]1CCN(c2ccccc2Cl)CC1
REMARK SMILES IDX 6 1 5 2 3 3 4 4 2 5 1 6 77 7 78 8 79 9 80 10 91 11 81 13
REMARK SMILES IDX 90 14 82 15 83 16 84 17 88 18 85 19 87 20 89 21 86 22 7 23
REMARK SMILES IDX 8 24 9 25 10 26 11 27 12 28 76 29 13 30 75 31 14 32 15 33
REMARK SMILES IDX 16 34 69 35 17 36 74 37 68 38 70 39 18 40 73 41 67 42 66 43
REMARK SMILES IDX 19 45 53 46 32 47 52 48 33 49 36 50 51 51 71 52 34 53 35 54
REMARK SMILES IDX 50 56 72 57 37 58 20 59 21 60 30 61 22 62 23 63 29 64 31 65
REMARK SMILES IDX 24 66 25 67 26 68 27 69 28 70 54 71 55 72 64 73 56 74 57 75
REMARK SMILES IDX 63 76 65 77 58 78 59 79 60 80 61 81 62 82 38 83 39 84 48 85
REMARK SMILES IDX 40 86 41 87 47 88 49 89 42 90 43 91 44 92 45 93 46 94
REMARK H PARENT 79 12 70 44 36 55
REMARK Flexibility Score: inf
ROOT
ATOM      1  C   UNL A   1      32.030  30.259  26.912  1.00  0.00     0.274 C 
ENDROOT
BRANCH   1   2
ATOM      2  O   UNL A   1      31.769  29.082  26.111  1.00  0.00    -0.462 OA
BRANCH   2   3
ATOM      3  C   UNL A   1      31.619  27.911  26.792  1.00  0.00     0.314 C 
ATOM      4  O   UNL A   1      31.412  27.830  27.998  1.00  0.00    -0.252 OA
BRANCH   3   5
ATOM      5  C   UNL A   1      31.711  26.700  25.858  1.00  0.00     0.154 C 
ATOM      6  C   UNL A   1      30.277  26.274  25.544  1.00  0.00     0.026 C 
BRANCH   5   7
ATOM      7  C   UNL A   1      32.695  26.938  24.647  1.00  0.00     0.195 C 
ATOM      8  C   UNL A   1      31.959  27.132  23.336  1.00  0.00     0.076 C 
BRANCH   7   9
ATOM      9  N   UNL A   1      33.912  26.103  24.532  1.00  0.00    -0.329 N 
ATOM     10  C   UNL A   1      34.239  25.205  25.659  1.00  0.00     0.284 C 
ATOM     11  C   UNL A   1      34.007  25.314  23.263  1.00  0.00     0.284 C 
ATOM     12  H   UNL A   1      34.611  26.846  24.540  1.00  0.00     0.348 HD
ATOM     13  C   UNL A   1      33.586  23.812  25.688  1.00  0.00     0.178 C 
ATOM     14  C   UNL A   1      33.455  23.850  23.223  1.00  0.00     0.178 C 
ATOM     15  N   UNL A   1      33.835  23.109  24.432  1.00  0.00    -0.359 N 
BRANCH  15  16
ATOM     16  C   UNL A   1      33.794  21.712  24.429  1.00  0.00     0.056 A 
ATOM     17  C   UNL A   1      32.652  21.035  23.954  1.00  0.00     0.027 A 
ATOM     18  C   UNL A   1      34.828  20.904  24.958  1.00  0.00     0.064 A 
ATOM     19  C   UNL A   1      32.529  19.646  24.027  1.00  0.00     0.002 A 
ATOM     20  C   UNL A   1      34.715  19.506  25.001  1.00  0.00     0.023 A 
ATOM     21  Cl  UNL A   1      36.238  21.581  25.710  1.00  0.00    -0.082 Cl
ATOM     22  C   UNL A   1      33.562  18.877  24.543  1.00  0.00     0.002 A 
ENDBRANCH  15  16
ENDBRANCH   7   9
ENDBRANCH   5   7
ENDBRANCH   3   5
ENDBRANCH   2   3
ENDBRANCH   1   2
BRANCH   1  23
ATOM     23  C   UNL A   1      33.522  30.597  26.886  1.00  0.00     0.275 C 
BRANCH  23  24
ATOM     24  O   UNL A   1      34.174  29.956  27.996  1.00  0.00    -0.458 OA
BRANCH  24  25
ATOM     25  C   UNL A   1      35.166  30.671  28.590  1.00  0.00     0.338 C 
ATOM     26  O   UNL A   1      35.017  31.712  29.208  1.00  0.00    -0.246 OA
BRANCH  25  27
ATOM     27  C   UNL A   1      36.472  29.954  28.471  1.00  0.00     0.060 A 
ATOM     28  C   UNL A   1      37.054  29.313  29.561  1.00  0.00     0.016 A 
ATOM     29  C   UNL A   1      37.195  30.019  27.277  1.00  0.00     0.016 A 
ATOM     30  C   UNL A   1      38.399  28.929  29.520  1.00  0.00     0.010 A 
ATOM     31  C   UNL A   1      38.496  29.489  27.200  1.00  0.00     0.010 A 
ATOM     32  C   UNL A   1      39.151  28.986  28.339  1.00  0.00    -0.014 A 
BRANCH  32  33
ATOM     33  C   UNL A   1      40.600  28.575  28.304  1.00  0.00     0.031 A 
ATOM     34  C   UNL A   1      41.690  29.555  28.695  1.00  0.00     0.074 A 
ATOM     35  C   UNL A   1      40.987  27.328  27.945  1.00  0.00     0.049 A 
ATOM     36  N   UNL A   1      42.971  29.519  28.423  1.00  0.00    -0.248 NA
ATOM     37  C   UNL A   1      41.284  30.745  29.460  1.00  0.00     0.031 C 
ATOM     38  C   UNL A   1      40.098  26.224  27.583  1.00  0.00     0.029 A 
ATOM     39  N   UNL A   1      42.242  26.766  27.852  1.00  0.00    -0.354 N 
ATOM     40  C   UNL A   1      43.494  30.733  28.860  1.00  0.00     0.074 A 
ATOM     41  C   UNL A   1      42.400  31.462  29.465  1.00  0.00     0.031 C 
ATOM     42  C   UNL A   1      40.815  25.102  27.426  1.00  0.00     0.029 A 
ATOM     43  C   UNL A   1      42.232  25.429  27.521  1.00  0.00     0.049 A 
ATOM     44  H   UNL A   1      43.070  27.275  28.007  1.00  0.00     0.167 HD
ATOM     45  C   UNL A   1      44.760  31.202  28.738  1.00  0.00     0.037 A 
ATOM     46  C   UNL A   1      43.236  24.564  27.271  1.00  0.00     0.037 A 
ATOM     47  C   UNL A   1      45.871  30.417  28.259  1.00  0.00     0.049 A 
ATOM     48  C   UNL A   1      44.649  25.072  27.230  1.00  0.00     0.074 A 
ATOM     49  C   UNL A   1      47.188  30.805  28.074  1.00  0.00     0.029 A 
ATOM     50  N   UNL A   1      45.808  29.068  27.945  1.00  0.00    -0.354 N 
ATOM     51  N   UNL A   1      45.097  26.281  27.467  1.00  0.00    -0.248 NA
ATOM     52  C   UNL A   1      45.689  24.111  26.831  1.00  0.00     0.031 C 
ATOM     53  C   UNL A   1      47.918  29.695  27.635  1.00  0.00     0.029 A 
ATOM     54  C   UNL A   1      47.063  28.607  27.579  1.00  0.00     0.049 A 
ATOM     55  H   UNL A   1      44.992  28.518  27.978  1.00  0.00     0.167 HD
ATOM     56  C   UNL A   1      46.462  26.234  27.209  1.00  0.00     0.074 A 
ATOM     57  C   UNL A   1      46.778  24.866  26.857  1.00  0.00     0.031 C 
ATOM     58  C   UNL A   1      47.365  27.245  27.226  1.00  0.00     0.037 A 
BRANCH  45  59
ATOM     59  C   UNL A   1      45.015  32.649  29.063  1.00  0.00     0.058 A 
ATOM     60  C   UNL A   1      44.809  33.684  28.140  1.00  0.00     0.135 A 
ATOM     61  C   UNL A   1      45.422  33.004  30.362  1.00  0.00     0.135 A 
ATOM     62  F   UNL A   1      44.437  33.403  26.883  1.00  0.00    -0.206 F 
ATOM     63  C   UNL A   1      45.018  35.018  28.486  1.00  0.00     0.059 A 
ATOM     64  C   UNL A   1      45.612  34.331  30.738  1.00  0.00     0.059 A 
ATOM     65  F   UNL A   1      45.631  32.054  31.287  1.00  0.00    -0.206 F 
ATOM     66  C   UNL A   1      45.420  35.331  29.788  1.00  0.00     0.060 A 
BRANCH  66  67
ATOM     67  S   UNL A   1      45.676  37.063  30.230  1.00  0.00     0.124 S 
ATOM     68  O   UNL A   1      47.133  37.134  30.294  1.00  0.00    -0.237 OA
ATOM     69  O   UNL A   1      45.056  37.770  29.114  1.00  0.00    -0.237 OA
ATOM     70  O   UNL A   1      44.986  37.194  31.510  1.00  0.00    -0.744 OA
ENDBRANCH  66  67
ENDBRANCH  45  59
BRANCH  46  71
ATOM     71  C   UNL A   1      42.936  23.132  26.985  1.00  0.00     0.058 A 
ATOM     72  C   UNL A   1      42.992  22.637  25.674  1.00  0.00     0.135 A 
ATOM     73  C   UNL A   1      42.629  22.224  28.010  1.00  0.00     0.135 A 
ATOM     74  F   UNL A   1      43.247  23.469  24.652  1.00  0.00    -0.206 F 
ATOM     75  C   UNL A   1      42.785  21.291  25.389  1.00  0.00     0.059 A 
ATOM     76  C   UNL A   1      42.445  20.869  27.755  1.00  0.00     0.059 A 
ATOM     77  F   UNL A   1      42.556  22.643  29.283  1.00  0.00    -0.206 F 
ATOM     78  C   UNL A   1      42.524  20.413  26.440  1.00  0.00     0.060 A 
BRANCH  78  79
ATOM     79  S   UNL A   1      42.363  18.648  26.088  1.00  0.00     0.124 S 
ATOM     80  O   UNL A   1      43.302  18.484  24.985  1.00  0.00    -0.237 OA
ATOM     81  O   UNL A   1      42.753  18.040  27.356  1.00  0.00    -0.237 OA
ATOM     82  O   UNL A   1      40.951  18.509  25.746  1.00  0.00    -0.744 OA
ENDBRANCH  78  79
ENDBRANCH  46  71
BRANCH  58  83
ATOM     83  C   UNL A   1      48.776  26.908  26.842  1.00  0.00     0.058 A 
ATOM     84  C   UNL A   1      49.211  27.017  25.511  1.00  0.00     0.135 A 
ATOM     85  C   UNL A   1      49.706  26.498  27.808  1.00  0.00     0.135 A 
ATOM     86  F   UNL A   1      48.356  27.398  24.550  1.00  0.00    -0.206 F 
ATOM     87  C   UNL A   1      50.517  26.708  25.148  1.00  0.00     0.059 A 
ATOM     88  C   UNL A   1      51.023  26.202  27.469  1.00  0.00     0.059 A 
ATOM     89  F   UNL A   1      49.340  26.383  29.094  1.00  0.00    -0.206 F 
ATOM     90  C   UNL A   1      51.416  26.297  26.134  1.00  0.00     0.060 A 
BRANCH  90  91
ATOM     91  S   UNL A   1      53.113  25.911  25.652  1.00  0.00     0.124 S 
ATOM     92  O   UNL A   1      53.206  24.502  26.015  1.00  0.00    -0.237 OA
ATOM     93  O   UNL A   1      53.107  26.198  24.220  1.00  0.00    -0.237 OA
ATOM     94  O   UNL A   1      53.911  26.825  26.465  1.00  0.00    -0.744 OA
ENDBRANCH  90  91
ENDBRANCH  58  83
ENDBRANCH  32  33
ENDBRANCH  25  27
ENDBRANCH  24  25
ENDBRANCH  23  24
ENDBRANCH   1  23
TORSDOF 17
ENDMDL
MODEL 3
REMARK VINA RESULT:     -11.1      6.582     12.959
REMARK SMILES C[C@H](C(=O)OCCOC(=O)c1ccc(-c2c3nc(c(-c4c(F)cc(S(=O)(=O)[O-])cc4F)c4ccc([nH]4)c(-c4c(F)cc(S(=O)(=O)[O-])cc4F)c4nc(c(-c5c(F)cc(S(=O)(=O)[O-])cc5F)c5ccc2[nH]5)C=C4)C=C3)cc1)[C@H](C)[NH+]1CCN(c2ccccc2Cl)CC1
REMARK SMILES IDX 6 1 5 2 3 3 4 4 2 5 1 6 77 7 78 8 79 9 80 10 91 11 81 13
REMARK SMILES IDX 90 14 82 15 83 16 84 17 88 18 85 19 87 20 89 21 86 22 7 23
REMARK SMILES IDX 8 24 9 25 10 26 11 27 12 28 76 29 13 30 75 31 14 32 15 33
REMARK SMILES IDX 16 34 69 35 17 36 74 37 68 38 70 39 18 40 73 41 67 42 66 43
REMARK SMILES IDX 19 45 53 46 32 47 52 48 33 49 36 50 51 51 71 52 34 53 35 54
REMARK SMILES IDX 50 56 72 57 37 58 20 59 21 60 30 61 22 62 23 63 29 64 31 65
REMARK SMILES IDX 24 66 25 67 26 68 27 69 28 70 54 71 55 72 64 73 56 74 57 75
REMARK SMILES IDX 63 76 65 77 58 78 59 79 60 80 61 81 62 82 38 83 39 84 48 85
REMARK SMILES IDX 40 86 41 87 47 88 49 89 42 90 43 91 44 92 45 93 46 94
REMARK H PARENT 79 12 70 44 36 55
REMARK Flexibility Score: inf
ROOT
ATOM      1  C   UNL A   1      40.384  20.660  26.114  1.00  0.00     0.274 C 
ENDROOT
BRANCH   1   2
ATOM      2  O   UNL A   1      41.668  21.322  26.019  1.00  0.00    -0.462 OA
BRANCH   2   3
ATOM      3  C   UNL A   1      42.739  20.523  25.745  1.00  0.00     0.314 C 
ATOM      4  O   UNL A   1      42.668  19.319  25.523  1.00  0.00    -0.252 OA
BRANCH   3   5
ATOM      5  C   UNL A   1      44.046  21.321  25.719  1.00  0.00     0.154 C 
ATOM      6  C   UNL A   1      45.154  20.343  25.326  1.00  0.00     0.026 C 
BRANCH   5   7
ATOM      7  C   UNL A   1      43.922  22.666  24.901  1.00  0.00     0.195 C 
ATOM      8  C   UNL A   1      44.543  22.562  23.523  1.00  0.00     0.076 C 
BRANCH   7   9
ATOM      9  N   UNL A   1      44.192  23.952  25.584  1.00  0.00    -0.329 N 
ATOM     10  C   UNL A   1      43.187  24.443  26.549  1.00  0.00     0.284 C 
ATOM     11  C   UNL A   1      45.542  24.042  26.228  1.00  0.00     0.284 C 
ATOM     12  H   UNL A   1      44.145  24.570  24.774  1.00  0.00     0.348 HD
ATOM     13  C   UNL A   1      43.270  23.938  28.000  1.00  0.00     0.178 C 
ATOM     14  C   UNL A   1      45.706  23.641  27.732  1.00  0.00     0.178 C 
ATOM     15  N   UNL A   1      44.605  24.175  28.544  1.00  0.00    -0.359 N 
BRANCH  15  16
ATOM     16  C   UNL A   1      44.754  24.276  29.929  1.00  0.00     0.056 A 
ATOM     17  C   UNL A   1      44.117  23.353  30.783  1.00  0.00     0.027 A 
ATOM     18  C   UNL A   1      45.468  25.323  30.558  1.00  0.00     0.064 A 
ATOM     19  C   UNL A   1      44.156  23.478  32.174  1.00  0.00     0.002 A 
ATOM     20  C   UNL A   1      45.532  25.429  31.956  1.00  0.00     0.023 A 
ATOM     21  Cl  UNL A   1      46.191  26.620  29.659  1.00  0.00    -0.082 Cl
ATOM     22  C   UNL A   1      44.871  24.510  32.764  1.00  0.00     0.002 A 
ENDBRANCH  15  16
ENDBRANCH   7   9
ENDBRANCH   5   7
ENDBRANCH   3   5
ENDBRANCH   2   3
ENDBRANCH   1   2
BRANCH   1  23
ATOM     23  C   UNL A   1      39.257  21.695  26.143  1.00  0.00     0.275 C 
BRANCH  23  24
ATOM     24  O   UNL A   1      39.823  23.008  26.295  1.00  0.00    -0.458 OA
BRANCH  24  25
ATOM     25  C   UNL A   1      38.929  24.031  26.358  1.00  0.00     0.338 C 
ATOM     26  O   UNL A   1      37.891  24.105  25.724  1.00  0.00    -0.246 OA
BRANCH  25  27
ATOM     27  C   UNL A   1      39.342  25.023  27.397  1.00  0.00     0.060 A 
ATOM     28  C   UNL A   1      38.943  24.897  28.725  1.00  0.00     0.016 A 
ATOM     29  C   UNL A   1      40.043  26.172  27.022  1.00  0.00     0.016 A 
ATOM     30  C   UNL A   1      39.062  25.978  29.605  1.00  0.00     0.010 A 
ATOM     31  C   UNL A   1      40.296  27.191  27.959  1.00  0.00     0.010 A 
ATOM     32  C   UNL A   1      39.757  27.145  29.257  1.00  0.00    -0.014 A 
BRANCH  32  33
ATOM     33  C   UNL A   1      39.878  28.306  30.209  1.00  0.00     0.031 A 
ATOM     34  C   UNL A   1      41.030  28.380  31.194  1.00  0.00     0.074 A 
ATOM     35  C   UNL A   1      38.990  29.328  30.216  1.00  0.00     0.049 A 
ATOM     36  N   UNL A   1      41.136  29.089  32.291  1.00  0.00    -0.248 NA
ATOM     37  C   UNL A   1      42.196  27.521  30.933  1.00  0.00     0.031 C 
ATOM     38  C   UNL A   1      37.843  29.475  29.320  1.00  0.00     0.029 A 
ATOM     39  N   UNL A   1      38.928  30.462  30.996  1.00  0.00    -0.354 N 
ATOM     40  C   UNL A   1      42.307  28.666  32.913  1.00  0.00     0.074 A 
ATOM     41  C   UNL A   1      42.905  27.674  32.044  1.00  0.00     0.031 C 
ATOM     42  C   UNL A   1      37.271  30.671  29.515  1.00  0.00     0.029 A 
ATOM     43  C   UNL A   1      37.906  31.319  30.655  1.00  0.00     0.049 A 
ATOM     44  H   UNL A   1      39.558  30.643  31.730  1.00  0.00     0.167 HD
ATOM     45  C   UNL A   1      42.814  29.049  34.111  1.00  0.00     0.037 A 
ATOM     46  C   UNL A   1      37.482  32.471  31.215  1.00  0.00     0.037 A 
ATOM     47  C   UNL A   1      42.287  30.131  34.904  1.00  0.00     0.049 A 
ATOM     48  C   UNL A   1      38.114  32.941  32.495  1.00  0.00     0.074 A 
ATOM     49  C   UNL A   1      42.713  30.582  36.144  1.00  0.00     0.029 A 
ATOM     50  N   UNL A   1      41.257  30.971  34.510  1.00  0.00    -0.354 N 
ATOM     51  N   UNL A   1      39.106  32.411  33.166  1.00  0.00    -0.248 NA
ATOM     52  C   UNL A   1      37.530  34.135  33.123  1.00  0.00     0.031 C 
ATOM     53  C   UNL A   1      41.931  31.686  36.504  1.00  0.00     0.029 A 
ATOM     54  C   UNL A   1      41.040  31.942  35.475  1.00  0.00     0.049 A 
ATOM     55  H   UNL A   1      40.753  30.889  33.669  1.00  0.00     0.167 HD
ATOM     56  C   UNL A   1      39.240  33.182  34.314  1.00  0.00     0.074 A 
ATOM     57  C   UNL A   1      38.269  34.252  34.218  1.00  0.00     0.031 C 
ATOM     58  C   UNL A   1      40.069  32.998  35.371  1.00  0.00     0.037 A 
BRANCH  45  59
ATOM     59  C   UNL A   1      43.961  28.257  34.682  1.00  0.00     0.058 A 
ATOM     60  C   UNL A   1      43.777  27.109  35.465  1.00  0.00     0.135 A 
ATOM     61  C   UNL A   1      45.281  28.637  34.379  1.00  0.00     0.135 A 
ATOM     62  F   UNL A   1      42.541  26.710  35.799  1.00  0.00    -0.206 F 
ATOM     63  C   UNL A   1      44.862  26.377  35.945  1.00  0.00     0.059 A 
ATOM     64  C   UNL A   1      46.378  27.907  34.826  1.00  0.00     0.059 A 
ATOM     65  F   UNL A   1      45.515  29.726  33.630  1.00  0.00    -0.206 F 
ATOM     66  C   UNL A   1      46.159  26.784  35.621  1.00  0.00     0.060 A 
BRANCH  66  67
ATOM     67  S   UNL A   1      47.557  25.822  36.238  1.00  0.00     0.124 S 
ATOM     68  O   UNL A   1      47.952  26.602  37.407  1.00  0.00    -0.237 OA
ATOM     69  O   UNL A   1      46.950  24.525  36.517  1.00  0.00    -0.237 OA
ATOM     70  O   UNL A   1      48.501  25.840  35.124  1.00  0.00    -0.744 OA
ENDBRANCH  66  67
ENDBRANCH  45  59
BRANCH  46  71
ATOM     71  C   UNL A   1      36.363  33.237  30.596  1.00  0.00     0.058 A 
ATOM     72  C   UNL A   1      35.089  33.242  31.181  1.00  0.00     0.135 A 
ATOM     73  C   UNL A   1      36.549  34.007  29.437  1.00  0.00     0.135 A 
ATOM     74  F   UNL A   1      34.847  32.495  32.270  1.00  0.00    -0.206 F 
ATOM     75  C   UNL A   1      34.047  34.003  30.662  1.00  0.00     0.059 A 
ATOM     76  C   UNL A   1      35.532  34.799  28.914  1.00  0.00     0.059 A 
ATOM     77  F   UNL A   1      37.747  34.035  28.831  1.00  0.00    -0.206 F 
ATOM     78  C   UNL A   1      34.283  34.789  29.534  1.00  0.00     0.060 A 
BRANCH  78  79
ATOM     79  S   UNL A   1      32.966  35.863  28.922  1.00  0.00     0.124 S 
ATOM     80  O   UNL A   1      33.731  36.947  28.318  1.00  0.00    -0.237 OA
ATOM     81  O   UNL A   1      32.255  34.989  27.995  1.00  0.00    -0.237 OA
ATOM     82  O   UNL A   1      32.229  36.203  30.136  1.00  0.00    -0.744 OA
ENDBRANCH  78  79
ENDBRANCH  46  71
BRANCH  58  83
ATOM     83  C   UNL A   1      39.949  33.968  36.510  1.00  0.00     0.058 A 
ATOM     84  C   UNL A   1      40.648  35.185  36.502  1.00  0.00     0.135 A 
ATOM     85  C   UNL A   1      39.114  33.694  37.603  1.00  0.00     0.135 A 
ATOM     86  F   UNL A   1      41.466  35.489  35.482  1.00  0.00    -0.206 F 
ATOM     87  C   UNL A   1      40.541  36.089  37.553  1.00  0.00     0.059 A 
ATOM     88  C   UNL A   1      38.978  34.593  38.656  1.00  0.00     0.059 A 
ATOM     89  F   UNL A   1      38.421  32.546  37.654  1.00  0.00    -0.206 F 
ATOM     90  C   UNL A   1      39.706  35.783  38.628  1.00  0.00     0.060 A 
BRANCH  90  91
ATOM     91  S   UNL A   1      39.564  36.971  39.982  1.00  0.00     0.124 S 
ATOM     92  O   UNL A   1      38.934  36.160  41.017  1.00  0.00    -0.237 OA
ATOM     93  O   UNL A   1      40.957  37.338  40.224  1.00  0.00    -0.237 OA
ATOM     94  O   UNL A   1      38.733  38.029  39.416  1.00  0.00    -0.744 OA
ENDBRANCH  90  91
ENDBRANCH  58  83
ENDBRANCH  32  33
ENDBRANCH  25  27
ENDBRANCH  24  25
ENDBRANCH  23  24
ENDBRANCH   1  23
TORSDOF 17
ENDMDL
