MODEL 1
REMARK VINA RESULT:     -11.0      0.000      0.000
REMARK SMILES CCCc1cc(OCC(=O)OCCOC(=O)c2ccc(-c3c4nc(c(-c5c(F)cc(S(=O)(=O)[O-])cc5F)c5ccc([nH]5)c(-c5c(F)cc(S(=O)(=O)[O-])cc5F)c5nc(c(-c6c(F)cc(S(=O)(=O)[O-])cc6F)c6ccc3[nH]6)C=C5)C=C4)cc2)nc(Nc2ccc(C#N)cc2)n1
REMARK SMILES IDX 12 1 11 2 9 3 10 4 8 5 7 6 6 7 4 8 5 9 94 10 84 11 83 12
REMARK SMILES IDX 3 13 2 14 1 15 85 16 86 18 87 19 93 20 88 21 92 22 89 23
REMARK SMILES IDX 90 24 91 25 13 26 14 27 15 28 16 29 17 30 18 31 82 32 19 33
REMARK SMILES IDX 81 34 20 35 21 36 22 37 75 38 23 39 80 40 74 41 76 42 24 43
REMARK SMILES IDX 79 44 73 45 72 46 25 48 59 49 38 50 58 51 39 52 42 53 57 54
REMARK SMILES IDX 77 55 40 56 41 57 56 59 78 60 43 61 26 62 27 63 36 64 28 65
REMARK SMILES IDX 29 66 35 67 37 68 30 69 31 70 32 71 33 72 34 73 60 74 61 75
REMARK SMILES IDX 70 76 62 77 63 78 69 79 71 80 64 81 65 82 66 83 67 84 68 85
REMARK SMILES IDX 44 86 45 87 54 88 46 89 47 90 53 91 55 92 48 93 49 94 50 95
REMARK SMILES IDX 51 96 52 97
REMARK H PARENT 85 17 76 47 42 58
REMARK Flexibility Score: inf
ROOT
ATOM      1  C   UNL A   1      39.844  21.242  26.165  1.00  0.00     0.274 C 
ENDROOT
BRANCH   1   2
ATOM      2  O   UNL A   1      38.555  21.859  25.911  1.00  0.00    -0.460 OA
BRANCH   2   3
ATOM      3  C   UNL A   1      37.714  21.169  25.098  1.00  0.00     0.344 C 
ATOM      4  O   UNL A   1      37.715  19.945  24.994  1.00  0.00    -0.248 OA
BRANCH   3   5
ATOM      5  C   UNL A   1      36.748  22.039  24.273  1.00  0.00     0.353 C 
BRANCH   5   6
ATOM      6  O   UNL A   1      35.941  23.054  24.831  1.00  0.00    -0.466 OA
BRANCH   6   7
ATOM      7  C   UNL A   1      34.585  23.041  24.667  1.00  0.00     0.218 A 
ATOM      8  C   UNL A   1      32.448  23.990  24.454  1.00  0.00     0.050 A 
ATOM      9  C   UNL A   1      33.723  24.067  24.980  1.00  0.00     0.092 A 
ATOM     10  N   UNL A   1      32.028  22.884  23.842  1.00  0.00    -0.218 NA
ATOM     11  C   UNL A   1      32.871  21.853  23.733  1.00  0.00     0.230 A 
ATOM     12  N   UNL A   1      34.151  21.894  24.116  1.00  0.00    -0.177 NA
BRANCH   8  13
ATOM     13  C   UNL A   1      31.466  25.130  24.498  1.00  0.00     0.056 C 
BRANCH  13  14
ATOM     14  C   UNL A   1      30.878  25.435  25.889  1.00  0.00     0.003 C 
ATOM     15  C   UNL A   1      31.335  26.752  26.495  1.00  0.00     0.004 C 
ENDBRANCH  13  14
ENDBRANCH   8  13
BRANCH  11  16
ATOM     16  N   UNL A   1      32.351  20.652  23.251  1.00  0.00    -0.324 N 
ATOM     17  H   UNL A   1      31.720  20.688  22.497  1.00  0.00     0.170 HD
BRANCH  16  18
ATOM     18  C   UNL A   1      32.676  19.399  23.783  1.00  0.00     0.041 A 
ATOM     19  C   UNL A   1      32.525  19.133  25.147  1.00  0.00     0.027 A 
ATOM     20  C   UNL A   1      32.964  18.333  22.918  1.00  0.00     0.027 A 
ATOM     21  C   UNL A   1      32.666  17.826  25.634  1.00  0.00     0.021 A 
ATOM     22  C   UNL A   1      33.114  17.032  23.397  1.00  0.00     0.021 A 
ATOM     23  C   UNL A   1      32.966  16.775  24.759  1.00  0.00     0.052 A 
BRANCH  23  24
ATOM     24  C   UNL A   1      33.125  15.435  25.247  1.00  0.00     0.099 C 
ATOM     25  N   UNL A   1      33.234  14.337  25.598  1.00  0.00    -0.192 NA
ENDBRANCH  23  24
ENDBRANCH  16  18
ENDBRANCH  11  16
ENDBRANCH   6   7
ENDBRANCH   5   6
ENDBRANCH   3   5
ENDBRANCH   2   3
ENDBRANCH   1   2
BRANCH   1  26
ATOM     26  C   UNL A   1      40.992  22.262  26.214  1.00  0.00     0.275 C 
BRANCH  26  27
ATOM     27  O   UNL A   1      40.678  23.383  27.075  1.00  0.00    -0.458 OA
BRANCH  27  28
ATOM     28  C   UNL A   1      41.234  24.524  26.624  1.00  0.00     0.338 C 
ATOM     29  O   UNL A   1      41.841  24.624  25.571  1.00  0.00    -0.246 OA
BRANCH  28  30
ATOM     30  C   UNL A   1      41.011  25.727  27.438  1.00  0.00     0.060 A 
ATOM     31  C   UNL A   1      42.071  26.630  27.568  1.00  0.00     0.016 A 
ATOM     32  C   UNL A   1      39.975  25.732  28.373  1.00  0.00     0.016 A 
ATOM     33  C   UNL A   1      42.150  27.466  28.681  1.00  0.00     0.010 A 
ATOM     34  C   UNL A   1      40.014  26.634  29.448  1.00  0.00     0.010 A 
ATOM     35  C   UNL A   1      41.111  27.493  29.625  1.00  0.00    -0.014 A 
BRANCH  35  36
ATOM     36  C   UNL A   1      41.106  28.528  30.691  1.00  0.00     0.031 A 
ATOM     37  C   UNL A   1      41.969  28.436  31.921  1.00  0.00     0.074 A 
ATOM     38  C   UNL A   1      40.238  29.549  30.547  1.00  0.00     0.049 A 
ATOM     39  N   UNL A   1      41.953  29.187  32.993  1.00  0.00    -0.248 NA
ATOM     40  C   UNL A   1      42.981  27.371  31.958  1.00  0.00     0.031 C 
ATOM     41  C   UNL A   1      39.363  29.749  29.387  1.00  0.00     0.029 A 
ATOM     42  N   UNL A   1      39.923  30.588  31.382  1.00  0.00    -0.354 N 
ATOM     43  C   UNL A   1      42.927  28.673  33.844  1.00  0.00     0.074 A 
ATOM     44  C   UNL A   1      43.523  27.545  33.159  1.00  0.00     0.031 C 
ATOM     45  C   UNL A   1      38.601  30.830  29.590  1.00  0.00     0.029 A 
ATOM     46  C   UNL A   1      38.873  31.348  30.923  1.00  0.00     0.049 A 
ATOM     47  H   UNL A   1      40.398  30.772  32.224  1.00  0.00     0.167 HD
ATOM     48  C   UNL A   1      43.276  29.103  35.083  1.00  0.00     0.037 A 
ATOM     49  C   UNL A   1      38.156  32.314  31.525  1.00  0.00     0.037 A 
ATOM     50  C   UNL A   1      42.668  30.235  35.746  1.00  0.00     0.049 A 
ATOM     51  C   UNL A   1      38.524  32.728  32.919  1.00  0.00     0.074 A 
ATOM     52  C   UNL A   1      42.985  30.779  36.979  1.00  0.00     0.029 A 
ATOM     53  N   UNL A   1      41.609  30.980  35.247  1.00  0.00    -0.354 N 
ATOM     54  N   UNL A   1      39.473  32.258  33.693  1.00  0.00    -0.248 NA
ATOM     55  C   UNL A   1      37.731  33.805  33.521  1.00  0.00     0.031 C 
ATOM     56  C   UNL A   1      42.068  31.796  37.261  1.00  0.00     0.029 A 
ATOM     57  C   UNL A   1      41.234  31.948  36.165  1.00  0.00     0.049 A 
ATOM     58  H   UNL A   1      41.187  30.842  34.368  1.00  0.00     0.167 HD
ATOM     59  C   UNL A   1      39.411  33.006  34.862  1.00  0.00     0.074 A 
ATOM     60  C   UNL A   1      38.344  33.969  34.684  1.00  0.00     0.031 C 
ATOM     61  C   UNL A   1      40.172  32.906  35.979  1.00  0.00     0.037 A 
BRANCH  48  62
ATOM     62  C   UNL A   1      44.330  28.341  35.850  1.00  0.00     0.058 A 
ATOM     63  C   UNL A   1      45.690  28.683  35.797  1.00  0.00     0.135 A 
ATOM     64  C   UNL A   1      43.950  27.329  36.750  1.00  0.00     0.135 A 
ATOM     65  F   UNL A   1      46.117  29.636  34.953  1.00  0.00    -0.206 F 
ATOM     66  C   UNL A   1      46.633  28.046  36.603  1.00  0.00     0.059 A 
ATOM     67  C   UNL A   1      44.869  26.699  37.585  1.00  0.00     0.059 A 
ATOM     68  F   UNL A   1      42.661  26.962  36.846  1.00  0.00    -0.206 F 
ATOM     69  C   UNL A   1      46.211  27.062  37.500  1.00  0.00     0.060 A 
BRANCH  69  70
ATOM     70  S   UNL A   1      47.441  26.282  38.569  1.00  0.00     0.124 S 
ATOM     71  O   UNL A   1      48.082  27.446  39.173  1.00  0.00    -0.237 OA
ATOM     72  O   UNL A   1      46.612  25.480  39.462  1.00  0.00    -0.237 OA
ATOM     73  O   UNL A   1      48.272  25.524  37.638  1.00  0.00    -0.744 OA
ENDBRANCH  69  70
ENDBRANCH  48  62
BRANCH  49  74
ATOM     74  C   UNL A   1      36.990  32.911  30.823  1.00  0.00     0.058 A 
ATOM     75  C   UNL A   1      37.158  33.911  29.858  1.00  0.00     0.135 A 
ATOM     76  C   UNL A   1      35.681  32.482  31.102  1.00  0.00     0.135 A 
ATOM     77  F   UNL A   1      38.388  34.352  29.556  1.00  0.00    -0.206 F 
ATOM     78  C   UNL A   1      36.069  34.492  29.217  1.00  0.00     0.059 A 
ATOM     79  C   UNL A   1      34.580  33.017  30.446  1.00  0.00     0.059 A 
ATOM     80  F   UNL A   1      35.468  31.506  31.999  1.00  0.00    -0.206 F 
ATOM     81  C   UNL A   1      34.784  34.036  29.519  1.00  0.00     0.060 A 
BRANCH  81  82
ATOM     82  S   UNL A   1      33.381  34.786  28.668  1.00  0.00     0.124 S 
ATOM     83  O   UNL A   1      32.996  33.723  27.747  1.00  0.00    -0.237 OA
ATOM     84  O   UNL A   1      32.459  35.044  29.770  1.00  0.00    -0.237 OA
ATOM     85  O   UNL A   1      33.959  35.977  28.052  1.00  0.00    -0.744 OA
ENDBRANCH  81  82
ENDBRANCH  49  74
BRANCH  61  86
ATOM     86  C   UNL A   1      39.913  33.899  37.081  1.00  0.00     0.058 A 
ATOM     87  C   UNL A   1      39.059  33.614  38.159  1.00  0.00     0.135 A 
ATOM     88  C   UNL A   1      40.560  35.147  37.073  1.00  0.00     0.135 A 
ATOM     89  F   UNL A   1      38.406  32.442  38.211  1.00  0.00    -0.206 F 
ATOM     90  C   UNL A   1      38.832  34.540  39.171  1.00  0.00     0.059 A 
ATOM     91  C   UNL A   1      40.378  36.072  38.095  1.00  0.00     0.059 A 
ATOM     92  F   UNL A   1      41.392  35.471  36.071  1.00  0.00    -0.206 F 
ATOM     93  C   UNL A   1      39.501  35.764  39.133  1.00  0.00     0.060 A 
BRANCH  93  94
ATOM     94  S   UNL A   1      39.221  36.942  40.471  1.00  0.00     0.124 S 
ATOM     95  O   UNL A   1      40.586  37.270  40.866  1.00  0.00    -0.237 OA
ATOM     96  O   UNL A   1      38.482  38.006  39.799  1.00  0.00    -0.237 OA
ATOM     97  O   UNL A   1      38.454  36.173  41.447  1.00  0.00    -0.744 OA
ENDBRANCH  93  94
ENDBRANCH  61  86
ENDBRANCH  35  36
ENDBRANCH  28  30
ENDBRANCH  27  28
ENDBRANCH  26  27
ENDBRANCH   1  26
TORSDOF 21
ENDMDL
MODEL 2
REMARK VINA RESULT:     -10.9      1.085      3.338
REMARK SMILES CCCc1cc(OCC(=O)OCCOC(=O)c2ccc(-c3c4nc(c(-c5c(F)cc(S(=O)(=O)[O-])cc5F)c5ccc([nH]5)c(-c5c(F)cc(S(=O)(=O)[O-])cc5F)c5nc(c(-c6c(F)cc(S(=O)(=O)[O-])cc6F)c6ccc3[nH]6)C=C5)C=C4)cc2)nc(Nc2ccc(C#N)cc2)n1
REMARK SMILES IDX 12 1 11 2 9 3 10 4 8 5 7 6 6 7 4 8 5 9 94 10 84 11 83 12
REMARK SMILES IDX 3 13 2 14 1 15 85 16 86 18 87 19 93 20 88 21 92 22 89 23
REMARK SMILES IDX 90 24 91 25 13 26 14 27 15 28 16 29 17 30 18 31 82 32 19 33
REMARK SMILES IDX 81 34 20 35 21 36 22 37 75 38 23 39 80 40 74 41 76 42 24 43
REMARK SMILES IDX 79 44 73 45 72 46 25 48 59 49 38 50 58 51 39 52 42 53 57 54
REMARK SMILES IDX 77 55 40 56 41 57 56 59 78 60 43 61 26 62 27 63 36 64 28 65
REMARK SMILES IDX 29 66 35 67 37 68 30 69 31 70 32 71 33 72 34 73 60 74 61 75
REMARK SMILES IDX 70 76 62 77 63 78 69 79 71 80 64 81 65 82 66 83 67 84 68 85
REMARK SMILES IDX 44 86 45 87 54 88 46 89 47 90 53 91 55 92 48 93 49 94 50 95
REMARK SMILES IDX 51 96 52 97
REMARK H PARENT 85 17 76 47 42 58
REMARK Flexibility Score: inf
ROOT
ATOM      1  C   UNL A   1      40.629  21.325  26.471  1.00  0.00     0.274 C 
ENDROOT
BRANCH   1   2
ATOM      2  O   UNL A   1      39.330  21.963  26.579  1.00  0.00    -0.460 OA
BRANCH   2   3
ATOM      3  C   UNL A   1      38.388  21.548  25.694  1.00  0.00     0.344 C 
ATOM      4  O   UNL A   1      38.436  20.475  25.097  1.00  0.00    -0.248 OA
BRANCH   3   5
ATOM      5  C   UNL A   1      37.234  22.541  25.458  1.00  0.00     0.353 C 
BRANCH   5   6
ATOM      6  O   UNL A   1      36.011  22.497  26.161  1.00  0.00    -0.466 OA
BRANCH   6   7
ATOM      7  C   UNL A   1      34.951  21.780  25.679  1.00  0.00     0.218 A 
ATOM      8  C   UNL A   1      33.856  19.871  24.866  1.00  0.00     0.050 A 
ATOM      9  C   UNL A   1      35.027  20.593  24.988  1.00  0.00     0.092 A 
ATOM     10  N   UNL A   1      32.688  20.395  25.232  1.00  0.00    -0.218 NA
ATOM     11  C   UNL A   1      32.672  21.633  25.733  1.00  0.00     0.230 A 
ATOM     12  N   UNL A   1      33.772  22.350  25.985  1.00  0.00    -0.177 NA
BRANCH   8  13
ATOM     13  C   UNL A   1      33.808  18.454  24.356  1.00  0.00     0.056 C 
BRANCH  13  14
ATOM     14  C   UNL A   1      32.459  18.021  23.751  1.00  0.00     0.003 C 
ATOM     15  C   UNL A   1      32.398  18.079  22.233  1.00  0.00     0.004 C 
ENDBRANCH  13  14
ENDBRANCH   8  13
BRANCH  11  16
ATOM     16  N   UNL A   1      31.424  22.223  25.938  1.00  0.00    -0.324 N 
ATOM     17  H   UNL A   1      30.777  21.755  26.513  1.00  0.00     0.170 HD
BRANCH  16  18
ATOM     18  C   UNL A   1      31.042  23.444  25.370  1.00  0.00     0.041 A 
ATOM     19  C   UNL A   1      30.957  23.599  23.984  1.00  0.00     0.027 A 
ATOM     20  C   UNL A   1      30.544  24.465  26.193  1.00  0.00     0.027 A 
ATOM     21  C   UNL A   1      30.389  24.756  23.434  1.00  0.00     0.021 A 
ATOM     22  C   UNL A   1      29.984  25.622  25.652  1.00  0.00     0.021 A 
ATOM     23  C   UNL A   1      29.906  25.771  24.268  1.00  0.00     0.052 A 
BRANCH  23  24
ATOM     24  C   UNL A   1      29.335  26.966  23.717  1.00  0.00     0.099 C 
ATOM     25  N   UNL A   1      28.878  27.910  23.226  1.00  0.00    -0.192 NA
ENDBRANCH  23  24
ENDBRANCH  16  18
ENDBRANCH  11  16
ENDBRANCH   6   7
ENDBRANCH   5   6
ENDBRANCH   3   5
ENDBRANCH   2   3
ENDBRANCH   1   2
BRANCH   1  26
ATOM     26  C   UNL A   1      41.783  22.337  26.384  1.00  0.00     0.275 C 
BRANCH  26  27
ATOM     27  O   UNL A   1      41.600  23.441  27.304  1.00  0.00    -0.458 OA
BRANCH  27  28
ATOM     28  C   UNL A   1      41.646  24.627  26.668  1.00  0.00     0.338 C 
ATOM     29  O   UNL A   1      41.821  24.758  25.468  1.00  0.00    -0.246 OA
BRANCH  28  30
ATOM     30  C   UNL A   1      41.388  25.819  27.487  1.00  0.00     0.060 A 
ATOM     31  C   UNL A   1      42.437  26.729  27.659  1.00  0.00     0.016 A 
ATOM     32  C   UNL A   1      40.324  25.806  28.390  1.00  0.00     0.016 A 
ATOM     33  C   UNL A   1      42.474  27.554  28.782  1.00  0.00     0.010 A 
ATOM     34  C   UNL A   1      40.322  26.696  29.475  1.00  0.00     0.010 A 
ATOM     35  C   UNL A   1      41.407  27.562  29.694  1.00  0.00    -0.014 A 
BRANCH  35  36
ATOM     36  C   UNL A   1      41.361  28.586  30.771  1.00  0.00     0.031 A 
ATOM     37  C   UNL A   1      42.207  28.502  32.013  1.00  0.00     0.074 A 
ATOM     38  C   UNL A   1      40.470  29.586  30.624  1.00  0.00     0.049 A 
ATOM     39  N   UNL A   1      42.157  29.241  33.092  1.00  0.00    -0.248 NA
ATOM     40  C   UNL A   1      43.244  27.461  32.054  1.00  0.00     0.031 C 
ATOM     41  C   UNL A   1      39.608  29.778  29.453  1.00  0.00     0.029 A 
ATOM     42  N   UNL A   1      40.117  30.609  31.465  1.00  0.00    -0.354 N 
ATOM     43  C   UNL A   1      43.130  28.742  33.952  1.00  0.00     0.074 A 
ATOM     44  C   UNL A   1      43.764  27.635  33.265  1.00  0.00     0.031 C 
ATOM     45  C   UNL A   1      38.817  30.837  29.656  1.00  0.00     0.029 A 
ATOM     46  C   UNL A   1      39.056  31.348  30.998  1.00  0.00     0.049 A 
ATOM     47  H   UNL A   1      40.575  30.795  32.316  1.00  0.00     0.167 HD
ATOM     48  C   UNL A   1      43.450  29.167  35.201  1.00  0.00     0.037 A 
ATOM     49  C   UNL A   1      38.306  32.290  31.599  1.00  0.00     0.037 A 
ATOM     50  C   UNL A   1      42.805  30.277  35.866  1.00  0.00     0.049 A 
ATOM     51  C   UNL A   1      38.643  32.698  33.002  1.00  0.00     0.074 A 
ATOM     52  C   UNL A   1      43.089  30.815  37.109  1.00  0.00     0.029 A 
ATOM     53  N   UNL A   1      41.735  31.001  35.358  1.00  0.00    -0.354 N 
ATOM     54  N   UNL A   1      39.592  32.243  33.786  1.00  0.00    -0.248 NA
ATOM     55  C   UNL A   1      37.815  33.749  33.603  1.00  0.00     0.031 C 
ATOM     56  C   UNL A   1      42.144  31.806  37.388  1.00  0.00     0.029 A 
ATOM     57  C   UNL A   1      41.323  31.950  36.281  1.00  0.00     0.049 A 
ATOM     58  H   UNL A   1      41.329  30.862  34.472  1.00  0.00     0.167 HD
ATOM     59  C   UNL A   1      39.494  32.977  34.961  1.00  0.00     0.074 A 
ATOM     60  C   UNL A   1      38.407  33.915  34.777  1.00  0.00     0.031 C 
ATOM     61  C   UNL A   1      40.240  32.884  36.088  1.00  0.00     0.037 A 
BRANCH  48  62
ATOM     62  C   UNL A   1      44.511  28.423  35.976  1.00  0.00     0.058 A 
ATOM     63  C   UNL A   1      45.866  28.781  35.925  1.00  0.00     0.135 A 
ATOM     64  C   UNL A   1      44.140  27.412  36.881  1.00  0.00     0.135 A 
ATOM     65  F   UNL A   1      46.284  29.734  35.076  1.00  0.00    -0.206 F 
ATOM     66  C   UNL A   1      46.815  28.161  36.738  1.00  0.00     0.059 A 
ATOM     67  C   UNL A   1      45.065  26.799  37.723  1.00  0.00     0.059 A 
ATOM     68  F   UNL A   1      42.856  27.030  36.976  1.00  0.00    -0.206 F 
ATOM     69  C   UNL A   1      46.403  27.178  37.640  1.00  0.00     0.060 A 
BRANCH  69  70
ATOM     70  S   UNL A   1      47.639  26.420  38.718  1.00  0.00     0.124 S 
ATOM     71  O   UNL A   1      48.654  27.467  38.777  1.00  0.00    -0.237 OA
ATOM     72  O   UNL A   1      46.884  26.198  39.946  1.00  0.00    -0.237 OA
ATOM     73  O   UNL A   1      48.027  25.212  37.995  1.00  0.00    -0.744 OA
ENDBRANCH  69  70
ENDBRANCH  48  62
BRANCH  49  74
ATOM     74  C   UNL A   1      37.137  32.865  30.885  1.00  0.00     0.058 A 
ATOM     75  C   UNL A   1      37.294  33.883  29.936  1.00  0.00     0.135 A 
ATOM     76  C   UNL A   1      35.835  32.398  31.137  1.00  0.00     0.135 A 
ATOM     77  F   UNL A   1      38.517  34.360  29.660  1.00  0.00    -0.206 F 
ATOM     78  C   UNL A   1      36.201  34.443  29.285  1.00  0.00     0.059 A 
ATOM     79  C   UNL A   1      34.731  32.913  30.469  1.00  0.00     0.059 A 
ATOM     80  F   UNL A   1      35.633  31.404  32.017  1.00  0.00    -0.206 F 
ATOM     81  C   UNL A   1      34.923  33.950  29.560  1.00  0.00     0.060 A 
BRANCH  81  82
ATOM     82  S   UNL A   1      33.515  34.674  28.695  1.00  0.00     0.124 S 
ATOM     83  O   UNL A   1      33.144  33.596  27.786  1.00  0.00    -0.237 OA
ATOM     84  O   UNL A   1      32.587  34.935  29.790  1.00  0.00    -0.237 OA
ATOM     85  O   UNL A   1      34.082  35.863  28.066  1.00  0.00    -0.744 OA
ENDBRANCH  81  82
ENDBRANCH  49  74
BRANCH  61  86
ATOM     86  C   UNL A   1      39.941  33.858  37.197  1.00  0.00     0.058 A 
ATOM     87  C   UNL A   1      40.514  35.139  37.240  1.00  0.00     0.135 A 
ATOM     88  C   UNL A   1      39.037  33.511  38.216  1.00  0.00     0.135 A 
ATOM     89  F   UNL A   1      41.394  35.518  36.299  1.00  0.00    -0.206 F 
ATOM     90  C   UNL A   1      40.226  36.030  38.270  1.00  0.00     0.059 A 
ATOM     91  C   UNL A   1      38.705  34.400  39.232  1.00  0.00     0.059 A 
ATOM     92  F   UNL A   1      38.454  32.302  38.221  1.00  0.00    -0.206 F 
ATOM     93  C   UNL A   1      39.315  35.652  39.258  1.00  0.00     0.060 A 
BRANCH  93  94
ATOM     94  S   UNL A   1      38.927  36.831  40.568  1.00  0.00     0.124 S 
ATOM     95  O   UNL A   1      40.252  37.125  41.103  1.00  0.00    -0.237 OA
ATOM     96  O   UNL A   1      38.286  37.915  39.829  1.00  0.00    -0.237 OA
ATOM     97  O   UNL A   1      38.046  36.077  41.455  1.00  0.00    -0.744 OA
ENDBRANCH  93  94
ENDBRANCH  61  86
ENDBRANCH  35  36
ENDBRANCH  28  30
ENDBRANCH  27  28
ENDBRANCH  26  27
ENDBRANCH   1  26
TORSDOF 21
ENDMDL
MODEL 3
REMARK VINA RESULT:     -10.5      7.027     13.986
REMARK SMILES CCCc1cc(OCC(=O)OCCOC(=O)c2ccc(-c3c4nc(c(-c5c(F)cc(S(=O)(=O)[O-])cc5F)c5ccc([nH]5)c(-c5c(F)cc(S(=O)(=O)[O-])cc5F)c5nc(c(-c6c(F)cc(S(=O)(=O)[O-])cc6F)c6ccc3[nH]6)C=C5)C=C4)cc2)nc(Nc2ccc(C#N)cc2)n1
REMARK SMILES IDX 12 1 11 2 9 3 10 4 8 5 7 6 6 7 4 8 5 9 94 10 84 11 83 12
REMARK SMILES IDX 3 13 2 14 1 15 85 16 86 18 87 19 93 20 88 21 92 22 89 23
REMARK SMILES IDX 90 24 91 25 13 26 14 27 15 28 16 29 17 30 18 31 82 32 19 33
REMARK SMILES IDX 81 34 20 35 21 36 22 37 75 38 23 39 80 40 74 41 76 42 24 43
REMARK SMILES IDX 79 44 73 45 72 46 25 48 59 49 38 50 58 51 39 52 42 53 57 54
REMARK SMILES IDX 77 55 40 56 41 57 56 59 78 60 43 61 26 62 27 63 36 64 28 65
REMARK SMILES IDX 29 66 35 67 37 68 30 69 31 70 32 71 33 72 34 73 60 74 61 75
REMARK SMILES IDX 70 76 62 77 63 78 69 79 71 80 64 81 65 82 66 83 67 84 68 85
REMARK SMILES IDX 44 86 45 87 54 88 46 89 47 90 53 91 55 92 48 93 49 94 50 95
REMARK SMILES IDX 51 96 52 97
REMARK H PARENT 85 17 76 47 42 58
REMARK Flexibility Score: inf
ROOT
ATOM      1  C   UNL A   1      35.061  32.908  31.155  1.00  0.00     0.274 C 
ENDROOT
BRANCH   1   2
ATOM      2  O   UNL A   1      35.594  32.230  32.322  1.00  0.00    -0.460 OA
BRANCH   2   3
ATOM      3  C   UNL A   1      35.769  32.998  33.429  1.00  0.00     0.344 C 
ATOM      4  O   UNL A   1      34.866  33.287  34.210  1.00  0.00    -0.248 OA
BRANCH   3   5
ATOM      5  C   UNL A   1      37.203  33.519  33.639  1.00  0.00     0.353 C 
BRANCH   5   6
ATOM      6  O   UNL A   1      37.814  34.482  32.806  1.00  0.00    -0.466 OA
BRANCH   6   7
ATOM      7  C   UNL A   1      38.954  34.185  32.113  1.00  0.00     0.218 A 
ATOM      8  C   UNL A   1      40.555  34.454  30.418  1.00  0.00     0.050 A 
ATOM      9  C   UNL A   1      39.241  34.577  30.826  1.00  0.00     0.092 A 
ATOM     10  N   UNL A   1      41.447  33.811  31.170  1.00  0.00    -0.218 NA
ATOM     11  C   UNL A   1      41.047  33.297  32.337  1.00  0.00     0.230 A 
ATOM     12  N   UNL A   1      39.824  33.472  32.849  1.00  0.00    -0.177 NA
BRANCH   8  13
ATOM     13  C   UNL A   1      41.082  35.051  29.140  1.00  0.00     0.056 C 
BRANCH  13  14
ATOM     14  C   UNL A   1      42.606  35.280  29.104  1.00  0.00     0.003 C 
ATOM     15  C   UNL A   1      43.146  35.732  27.756  1.00  0.00     0.004 C 
ENDBRANCH  13  14
ENDBRANCH   8  13
BRANCH  11  16
ATOM     16  N   UNL A   1      41.950  32.478  33.016  1.00  0.00    -0.324 N 
ATOM     17  H   UNL A   1      42.268  32.771  33.900  1.00  0.00     0.170 HD
BRANCH  16  18
ATOM     18  C   UNL A   1      42.428  31.265  32.508  1.00  0.00     0.041 A 
ATOM     19  C   UNL A   1      43.785  31.085  32.230  1.00  0.00     0.027 A 
ATOM     20  C   UNL A   1      41.578  30.150  32.465  1.00  0.00     0.027 A 
ATOM     21  C   UNL A   1      44.280  29.813  31.909  1.00  0.00     0.021 A 
ATOM     22  C   UNL A   1      42.063  28.883  32.140  1.00  0.00     0.021 A 
ATOM     23  C   UNL A   1      43.418  28.712  31.860  1.00  0.00     0.052 A 
BRANCH  23  24
ATOM     24  C   UNL A   1      43.910  27.408  31.520  1.00  0.00     0.099 C 
ATOM     25  N   UNL A   1      44.310  26.370  31.197  1.00  0.00    -0.192 NA
ENDBRANCH  23  24
ENDBRANCH  16  18
ENDBRANCH  11  16
ENDBRANCH   6   7
ENDBRANCH   5   6
ENDBRANCH   3   5
ENDBRANCH   2   3
ENDBRANCH   1   2
BRANCH   1  26
ATOM     26  C   UNL A   1      35.232  32.092  29.864  1.00  0.00     0.275 C 
BRANCH  26  27
ATOM     27  O   UNL A   1      35.886  30.823  30.113  1.00  0.00    -0.458 OA
BRANCH  27  28
ATOM     28  C   UNL A   1      36.057  30.123  28.976  1.00  0.00     0.338 C 
ATOM     29  O   UNL A   1      35.240  30.070  28.071  1.00  0.00    -0.246 OA
BRANCH  28  30
ATOM     30  C   UNL A   1      37.354  29.453  28.808  1.00  0.00     0.060 A 
ATOM     31  C   UNL A   1      38.129  29.242  29.953  1.00  0.00     0.016 A 
ATOM     32  C   UNL A   1      37.956  29.446  27.549  1.00  0.00     0.016 A 
ATOM     33  C   UNL A   1      39.514  29.122  29.851  1.00  0.00     0.010 A 
ATOM     34  C   UNL A   1      39.341  29.241  27.443  1.00  0.00     0.010 A 
ATOM     35  C   UNL A   1      40.135  29.100  28.593  1.00  0.00    -0.014 A 
BRANCH  35  36
ATOM     36  C   UNL A   1      41.580  28.768  28.486  1.00  0.00     0.031 A 
ATOM     37  C   UNL A   1      42.661  29.817  28.498  1.00  0.00     0.074 A 
ATOM     38  C   UNL A   1      41.898  27.470  28.313  1.00  0.00     0.049 A 
ATOM     39  N   UNL A   1      43.941  29.679  28.263  1.00  0.00    -0.248 NA
ATOM     40  C   UNL A   1      42.261  31.195  28.815  1.00  0.00     0.031 C 
ATOM     41  C   UNL A   1      40.933  26.364  28.303  1.00  0.00     0.029 A 
ATOM     42  N   UNL A   1      43.103  26.859  28.086  1.00  0.00    -0.354 N 
ATOM     43  C   UNL A   1      44.498  30.949  28.374  1.00  0.00     0.074 A 
ATOM     44  C   UNL A   1      43.412  31.849  28.705  1.00  0.00     0.031 C 
ATOM     45  C   UNL A   1      41.580  25.218  28.064  1.00  0.00     0.029 A 
ATOM     46  C   UNL A   1      42.984  25.515  27.824  1.00  0.00     0.049 A 
ATOM     47  H   UNL A   1      43.965  27.334  28.107  1.00  0.00     0.167 HD
ATOM     48  C   UNL A   1      45.792  31.321  28.202  1.00  0.00     0.037 A 
ATOM     49  C   UNL A   1      43.885  24.623  27.374  1.00  0.00     0.037 A 
ATOM     50  C   UNL A   1      46.858  30.402  27.875  1.00  0.00     0.049 A 
ATOM     51  C   UNL A   1      45.295  25.074  27.135  1.00  0.00     0.074 A 
ATOM     52  C   UNL A   1      48.209  30.673  27.729  1.00  0.00     0.029 A 
ATOM     53  N   UNL A   1      46.698  29.048  27.619  1.00  0.00    -0.354 N 
ATOM     54  N   UNL A   1      45.812  26.271  27.283  1.00  0.00    -0.248 NA
ATOM     55  C   UNL A   1      46.246  24.058  26.673  1.00  0.00     0.031 C 
ATOM     56  C   UNL A   1      48.849  29.504  27.307  1.00  0.00     0.029 A 
ATOM     57  C   UNL A   1      47.915  28.481  27.275  1.00  0.00     0.049 A 
ATOM     58  H   UNL A   1      45.844  28.560  27.676  1.00  0.00     0.167 HD
ATOM     59  C   UNL A   1      47.158  26.143  26.963  1.00  0.00     0.074 A 
ATOM     60  C   UNL A   1      47.376  24.750  26.632  1.00  0.00     0.031 C 
ATOM     61  C   UNL A   1      48.125  27.091  26.950  1.00  0.00     0.037 A 
BRANCH  48  62
ATOM     62  C   UNL A   1      46.152  32.782  28.315  1.00  0.00     0.058 A 
ATOM     63  C   UNL A   1      46.601  33.354  29.515  1.00  0.00     0.135 A 
ATOM     64  C   UNL A   1      46.164  33.593  27.166  1.00  0.00     0.135 A 
ATOM     65  F   UNL A   1      46.606  32.635  30.649  1.00  0.00    -0.206 F 
ATOM     66  C   UNL A   1      47.042  34.676  29.572  1.00  0.00     0.059 A 
ATOM     67  C   UNL A   1      46.628  34.906  27.192  1.00  0.00     0.059 A 
ATOM     68  F   UNL A   1      45.750  33.098  25.987  1.00  0.00    -0.206 F 
ATOM     69  C   UNL A   1      47.061  35.440  28.403  1.00  0.00     0.060 A 
BRANCH  69  70
ATOM     70  S   UNL A   1      47.682  37.135  28.488  1.00  0.00     0.124 S 
ATOM     71  O   UNL A   1      49.094  36.944  28.175  1.00  0.00    -0.237 OA
ATOM     72  O   UNL A   1      46.890  37.806  27.462  1.00  0.00    -0.237 OA
ATOM     73  O   UNL A   1      47.394  37.536  29.862  1.00  0.00    -0.744 OA
ENDBRANCH  69  70
ENDBRANCH  48  62
BRANCH  49  74
ATOM     74  C   UNL A   1      43.457  23.231  27.076  1.00  0.00     0.058 A 
ATOM     75  C   UNL A   1      43.242  22.303  28.103  1.00  0.00     0.135 A 
ATOM     76  C   UNL A   1      43.246  22.807  25.753  1.00  0.00     0.135 A 
ATOM     77  F   UNL A   1      43.428  22.661  29.382  1.00  0.00    -0.206 F 
ATOM     78  C   UNL A   1      42.868  20.992  27.828  1.00  0.00     0.059 A 
ATOM     79  C   UNL A   1      42.833  21.515  25.456  1.00  0.00     0.059 A 
ATOM     80  F   UNL A   1      43.412  23.667  24.735  1.00  0.00    -0.206 F 
ATOM     81  C   UNL A   1      42.665  20.609  26.500  1.00  0.00     0.060 A 
BRANCH  81  82
ATOM     82  S   UNL A   1      42.163  18.911  26.160  1.00  0.00     0.124 S 
ATOM     83  O   UNL A   1      40.774  19.093  25.754  1.00  0.00    -0.237 OA
ATOM     84  O   UNL A   1      43.092  18.524  25.104  1.00  0.00    -0.237 OA
ATOM     85  O   UNL A   1      42.363  18.237  27.439  1.00  0.00    -0.744 OA
ENDBRANCH  81  82
ENDBRANCH  49  74
BRANCH  61  86
ATOM     86  C   UNL A   1      49.524  26.647  26.614  1.00  0.00     0.058 A 
ATOM     87  C   UNL A   1      50.038  26.718  25.309  1.00  0.00     0.135 A 
ATOM     88  C   UNL A   1      50.375  26.171  27.626  1.00  0.00     0.135 A 
ATOM     89  F   UNL A   1      49.264  27.153  24.301  1.00  0.00    -0.206 F 
ATOM     90  C   UNL A   1      51.333  26.306  25.014  1.00  0.00     0.059 A 
ATOM     91  C   UNL A   1      51.686  25.791  27.360  1.00  0.00     0.059 A 
ATOM     92  F   UNL A   1      49.939  26.086  28.893  1.00  0.00    -0.206 F 
ATOM     93  C   UNL A   1      52.151  25.849  26.049  1.00  0.00     0.060 A 
BRANCH  93  94
ATOM     94  S   UNL A   1      53.840  25.350  25.655  1.00  0.00     0.124 S 
ATOM     95  O   UNL A   1      53.614  24.159  24.843  1.00  0.00    -0.237 OA
ATOM     96  O   UNL A   1      54.350  26.517  24.942  1.00  0.00    -0.237 OA
ATOM     97  O   UNL A   1      54.439  25.111  26.965  1.00  0.00    -0.744 OA
ENDBRANCH  93  94
ENDBRANCH  61  86
ENDBRANCH  35  36
ENDBRANCH  28  30
ENDBRANCH  27  28
ENDBRANCH  26  27
ENDBRANCH   1  26
TORSDOF 21
ENDMDL
