MODEL 1
REMARK VINA RESULT:     -11.3      0.000      0.000
REMARK SMILES COc1ccccc1-c1nnc(S[C@@H](C)C(=O)OCCOC(=O)c2ccc(-c3c4nc(c(-c5c(F)cc(S(=O)(=O)[O-])cc5F)c5ccc([nH]5)c(-c5c(F)cc(S(=O)(=O)[O-])cc5F)c5nc(c(-c6c(F)cc(S(=O)(=O)[O-])cc6F)c6ccc3[nH]6)C=C5)C=C4)cc2)n1-c1ccccc1
REMARK SMILES IDX 19 1 18 2 16 3 17 4 14 5 15 6 13 7 12 8 9 9 10 10 90 11
REMARK SMILES IDX 11 12 8 13 3 14 4 15 5 16 7 17 6 18 2 19 1 20 91 21 92 22
REMARK SMILES IDX 96 23 93 24 95 25 94 26 20 27 21 28 22 29 23 30 24 31 25 32
REMARK SMILES IDX 89 33 26 34 88 35 27 36 28 37 29 38 82 39 30 40 87 41 81 42
REMARK SMILES IDX 83 43 31 44 86 45 80 46 79 47 32 49 66 50 45 51 65 52 46 53
REMARK SMILES IDX 49 54 64 55 84 56 47 57 48 58 63 60 85 61 50 62 33 63 34 64
REMARK SMILES IDX 43 65 35 66 36 67 42 68 44 69 37 70 38 71 39 72 40 73 41 74
REMARK SMILES IDX 67 75 68 76 77 77 69 78 70 79 76 80 78 81 71 82 72 83 73 84
REMARK SMILES IDX 74 85 75 86 51 87 52 88 61 89 53 90 54 91 60 92 62 93 55 94
REMARK SMILES IDX 56 95 57 96 58 97 59 98
REMARK H PARENT 83 48 49 59
REMARK Flexibility Score: inf
ROOT
ATOM      1  C   UNL A   1      34.666  30.413  27.384  1.00  0.00     0.274 C 
ENDROOT
BRANCH   1   2
ATOM      2  O   UNL A   1      33.536  29.941  26.605  1.00  0.00    -0.461 OA
BRANCH   2   3
ATOM      3  C   UNL A   1      33.603  28.771  25.904  1.00  0.00     0.319 C 
ATOM      4  O   UNL A   1      34.093  27.738  26.354  1.00  0.00    -0.251 OA
BRANCH   3   5
ATOM      5  C   UNL A   1      32.888  28.822  24.550  1.00  0.00     0.161 C 
ATOM      6  C   UNL A   1      31.355  28.809  24.564  1.00  0.00     0.032 C 
BRANCH   5   7
ATOM      7  S   UNL A   1      33.392  27.730  23.225  1.00  0.00    -0.071 SA
BRANCH   7   8
ATOM      8  C   UNL A   1      32.670  26.169  23.302  1.00  0.00     0.196 A 
ATOM      9  C   UNL A   1      32.045  24.082  23.429  1.00  0.00     0.173 A 
ATOM     10  N   UNL A   1      31.015  24.782  23.016  1.00  0.00    -0.129 NA
ATOM     11  N   UNL A   1      33.161  24.901  23.605  1.00  0.00    -0.270 N 
ATOM     12  N   UNL A   1      31.396  26.082  22.975  1.00  0.00    -0.122 NA
BRANCH   9  13
ATOM     13  C   UNL A   1      31.988  22.678  23.779  1.00  0.00     0.062 A 
ATOM     14  C   UNL A   1      31.934  22.241  25.112  1.00  0.00     0.129 A 
ATOM     15  C   UNL A   1      32.157  20.893  25.385  1.00  0.00     0.047 A 
ATOM     16  C   UNL A   1      32.361  19.980  24.346  1.00  0.00     0.004 A 
ATOM     17  C   UNL A   1      32.140  21.750  22.734  1.00  0.00     0.016 A 
ATOM     18  C   UNL A   1      32.333  20.403  23.019  1.00  0.00     0.001 A 
BRANCH  14  19
ATOM     19  O   UNL A   1      31.855  23.053  26.217  1.00  0.00    -0.496 OA
ATOM     20  C   UNL A   1      30.542  23.457  26.611  1.00  0.00     0.278 C 
ENDBRANCH  14  19
ENDBRANCH   9  13
BRANCH  11  21
ATOM     21  C   UNL A   1      34.460  24.428  23.979  1.00  0.00     0.050 A 
ATOM     22  C   UNL A   1      35.257  23.701  23.104  1.00  0.00     0.027 A 
ATOM     23  C   UNL A   1      34.921  24.635  25.293  1.00  0.00     0.027 A 
ATOM     24  C   UNL A   1      36.379  23.014  23.587  1.00  0.00     0.002 A 
ATOM     25  C   UNL A   1      36.019  23.926  25.783  1.00  0.00     0.002 A 
ATOM     26  C   UNL A   1      36.724  23.081  24.936  1.00  0.00     0.000 A 
ENDBRANCH  11  21
ENDBRANCH   7   8
ENDBRANCH   5   7
ENDBRANCH   3   5
ENDBRANCH   2   3
ENDBRANCH   1   2
BRANCH   1  27
ATOM     27  C   UNL A   1      34.457  31.855  27.810  1.00  0.00     0.275 C 
BRANCH  27  28
ATOM     28  O   UNL A   1      34.692  31.896  29.203  1.00  0.00    -0.458 OA
BRANCH  28  29
ATOM     29  C   UNL A   1      35.946  32.318  29.511  1.00  0.00     0.338 C 
ATOM     30  O   UNL A   1      36.694  32.951  28.800  1.00  0.00    -0.246 OA
BRANCH  29  31
ATOM     31  C   UNL A   1      36.259  31.915  30.913  1.00  0.00     0.060 A 
ATOM     32  C   UNL A   1      37.350  32.655  31.368  1.00  0.00     0.016 A 
ATOM     33  C   UNL A   1      36.187  30.536  31.097  1.00  0.00     0.016 A 
ATOM     34  C   UNL A   1      38.557  32.011  31.327  1.00  0.00     0.010 A 
ATOM     35  C   UNL A   1      37.383  29.888  30.987  1.00  0.00     0.010 A 
ATOM     36  C   UNL A   1      38.549  30.657  30.994  1.00  0.00    -0.014 A 
BRANCH  36  37
ATOM     37  C   UNL A   1      39.808  30.004  30.768  1.00  0.00     0.031 A 
ATOM     38  C   UNL A   1      40.538  29.841  32.036  1.00  0.00     0.074 A 
ATOM     39  C   UNL A   1      40.152  29.500  29.573  1.00  0.00     0.049 A 
ATOM     40  N   UNL A   1      41.498  30.579  32.486  1.00  0.00    -0.248 NA
ATOM     41  C   UNL A   1      39.907  28.985  33.058  1.00  0.00     0.031 C 
ATOM     42  C   UNL A   1      39.358  29.380  28.349  1.00  0.00     0.029 A 
ATOM     43  N   UNL A   1      41.298  28.841  29.270  1.00  0.00    -0.354 N 
ATOM     44  C   UNL A   1      41.725  30.098  33.767  1.00  0.00     0.074 A 
ATOM     45  C   UNL A   1      40.523  29.420  34.156  1.00  0.00     0.031 C 
ATOM     46  C   UNL A   1      39.952  28.477  27.531  1.00  0.00     0.029 A 
ATOM     47  C   UNL A   1      41.200  28.044  28.135  1.00  0.00     0.049 A 
ATOM     48  H   UNL A   1      42.121  28.921  29.804  1.00  0.00     0.167 HD
ATOM     49  C   UNL A   1      42.978  29.983  34.282  1.00  0.00     0.037 A 
ATOM     50  C   UNL A   1      42.036  27.000  27.890  1.00  0.00     0.037 A 
ATOM     51  C   UNL A   1      43.933  30.706  33.478  1.00  0.00     0.049 A 
ATOM     52  C   UNL A   1      43.263  27.248  28.723  1.00  0.00     0.074 A 
ATOM     53  C   UNL A   1      44.070  32.033  33.119  1.00  0.00     0.029 A 
ATOM     54  N   UNL A   1      44.663  29.986  32.558  1.00  0.00    -0.354 N 
ATOM     55  N   UNL A   1      44.060  28.274  28.541  1.00  0.00    -0.248 NA
ATOM     56  C   UNL A   1      43.285  26.688  30.072  1.00  0.00     0.031 C 
ATOM     57  C   UNL A   1      44.464  32.007  31.750  1.00  0.00     0.029 A 
ATOM     58  C   UNL A   1      44.624  30.674  31.368  1.00  0.00     0.049 A 
ATOM     59  H   UNL A   1      45.128  29.135  32.722  1.00  0.00     0.167 HD
ATOM     60  C   UNL A   1      44.363  28.736  29.820  1.00  0.00     0.074 A 
ATOM     61  C   UNL A   1      43.893  27.687  30.723  1.00  0.00     0.031 C 
ATOM     62  C   UNL A   1      44.690  30.043  30.062  1.00  0.00     0.037 A 
BRANCH  49  63
ATOM     63  C   UNL A   1      43.377  28.933  35.287  1.00  0.00     0.058 A 
ATOM     64  C   UNL A   1      43.965  29.340  36.497  1.00  0.00     0.135 A 
ATOM     65  C   UNL A   1      43.418  27.540  35.032  1.00  0.00     0.135 A 
ATOM     66  F   UNL A   1      43.991  30.638  36.841  1.00  0.00    -0.206 F 
ATOM     67  C   UNL A   1      44.599  28.442  37.357  1.00  0.00     0.059 A 
ATOM     68  C   UNL A   1      43.980  26.623  35.906  1.00  0.00     0.059 A 
ATOM     69  F   UNL A   1      43.011  26.995  33.881  1.00  0.00    -0.206 F 
ATOM     70  C   UNL A   1      44.610  27.086  37.044  1.00  0.00     0.060 A 
BRANCH  70  71
ATOM     71  S   UNL A   1      45.521  25.936  38.081  1.00  0.00     0.124 S 
ATOM     72  O   UNL A   1      44.568  24.840  38.204  1.00  0.00    -0.237 OA
ATOM     73  O   UNL A   1      46.704  25.671  37.269  1.00  0.00    -0.237 OA
ATOM     74  O   UNL A   1      45.764  26.702  39.301  1.00  0.00    -0.744 OA
ENDBRANCH  70  71
ENDBRANCH  49  63
BRANCH  50  75
ATOM     75  C   UNL A   1      41.622  25.660  27.382  1.00  0.00     0.058 A 
ATOM     76  C   UNL A   1      42.401  24.933  26.465  1.00  0.00     0.135 A 
ATOM     77  C   UNL A   1      40.546  24.952  27.965  1.00  0.00     0.135 A 
ATOM     78  F   UNL A   1      43.468  25.506  25.888  1.00  0.00    -0.206 F 
ATOM     79  C   UNL A   1      42.136  23.589  26.156  1.00  0.00     0.059 A 
ATOM     80  C   UNL A   1      40.254  23.625  27.662  1.00  0.00     0.059 A 
ATOM     81  F   UNL A   1      39.787  25.503  28.922  1.00  0.00    -0.206 F 
ATOM     82  C   UNL A   1      41.063  22.940  26.771  1.00  0.00     0.060 A 
BRANCH  82  83
ATOM     83  S   UNL A   1      40.790  21.172  26.495  1.00  0.00     0.124 S 
ATOM     84  O   UNL A   1      40.864  20.639  27.851  1.00  0.00    -0.237 OA
ATOM     85  O   UNL A   1      39.470  21.158  25.874  1.00  0.00    -0.237 OA
ATOM     86  O   UNL A   1      41.892  20.790  25.615  1.00  0.00    -0.744 OA
ENDBRANCH  82  83
ENDBRANCH  50  75
BRANCH  62  87
ATOM     87  C   UNL A   1      44.910  30.974  28.890  1.00  0.00     0.058 A 
ATOM     88  C   UNL A   1      43.918  31.814  28.353  1.00  0.00     0.135 A 
ATOM     89  C   UNL A   1      46.223  31.178  28.439  1.00  0.00     0.135 A 
ATOM     90  F   UNL A   1      42.660  31.767  28.810  1.00  0.00    -0.206 F 
ATOM     91  C   UNL A   1      44.207  32.782  27.388  1.00  0.00     0.059 A 
ATOM     92  C   UNL A   1      46.542  32.159  27.502  1.00  0.00     0.059 A 
ATOM     93  F   UNL A   1      47.232  30.460  28.960  1.00  0.00    -0.206 F 
ATOM     94  C   UNL A   1      45.526  32.949  26.971  1.00  0.00     0.060 A 
BRANCH  94  95
ATOM     95  S   UNL A   1      45.915  34.252  25.780  1.00  0.00     0.124 S 
ATOM     96  O   UNL A   1      45.094  33.872  24.634  1.00  0.00    -0.237 OA
ATOM     97  O   UNL A   1      45.501  35.461  26.484  1.00  0.00    -0.237 OA
ATOM     98  O   UNL A   1      47.356  34.117  25.585  1.00  0.00    -0.744 OA
ENDBRANCH  94  95
ENDBRANCH  62  87
ENDBRANCH  36  37
ENDBRANCH  29  31
ENDBRANCH  28  29
ENDBRANCH  27  28
ENDBRANCH   1  27
TORSDOF 19
ENDMDL
MODEL 2
REMARK VINA RESULT:     -11.2      3.025      7.960
REMARK SMILES COc1ccccc1-c1nnc(S[C@@H](C)C(=O)OCCOC(=O)c2ccc(-c3c4nc(c(-c5c(F)cc(S(=O)(=O)[O-])cc5F)c5ccc([nH]5)c(-c5c(F)cc(S(=O)(=O)[O-])cc5F)c5nc(c(-c6c(F)cc(S(=O)(=O)[O-])cc6F)c6ccc3[nH]6)C=C5)C=C4)cc2)n1-c1ccccc1
REMARK SMILES IDX 19 1 18 2 16 3 17 4 14 5 15 6 13 7 12 8 9 9 10 10 90 11
REMARK SMILES IDX 11 12 8 13 3 14 4 15 5 16 7 17 6 18 2 19 1 20 91 21 92 22
REMARK SMILES IDX 96 23 93 24 95 25 94 26 20 27 21 28 22 29 23 30 24 31 25 32
REMARK SMILES IDX 89 33 26 34 88 35 27 36 28 37 29 38 82 39 30 40 87 41 81 42
REMARK SMILES IDX 83 43 31 44 86 45 80 46 79 47 32 49 66 50 45 51 65 52 46 53
REMARK SMILES IDX 49 54 64 55 84 56 47 57 48 58 63 60 85 61 50 62 33 63 34 64
REMARK SMILES IDX 43 65 35 66 36 67 42 68 44 69 37 70 38 71 39 72 40 73 41 74
REMARK SMILES IDX 67 75 68 76 77 77 69 78 70 79 76 80 78 81 71 82 72 83 73 84
REMARK SMILES IDX 74 85 75 86 51 87 52 88 61 89 53 90 54 91 60 92 62 93 55 94
REMARK SMILES IDX 56 95 57 96 58 97 59 98
REMARK H PARENT 83 48 49 59
REMARK Flexibility Score: inf
ROOT
ATOM      1  C   UNL A   1      31.364  30.426  25.472  1.00  0.00     0.274 C 
ENDROOT
BRANCH   1   2
ATOM      2  O   UNL A   1      31.293  29.587  24.290  1.00  0.00    -0.461 OA
BRANCH   2   3
ATOM      3  C   UNL A   1      31.534  28.245  24.364  1.00  0.00     0.319 C 
ATOM      4  O   UNL A   1      30.751  27.442  24.868  1.00  0.00    -0.251 OA
BRANCH   3   5
ATOM      5  C   UNL A   1      32.810  27.806  23.638  1.00  0.00     0.161 C 
ATOM      6  C   UNL A   1      33.742  28.910  23.125  1.00  0.00     0.032 C 
BRANCH   5   7
ATOM      7  S   UNL A   1      32.731  26.569  22.348  1.00  0.00    -0.071 SA
BRANCH   7   8
ATOM      8  C   UNL A   1      32.312  25.000  22.919  1.00  0.00     0.196 A 
ATOM      9  C   UNL A   1      32.087  22.957  23.655  1.00  0.00     0.173 A 
ATOM     10  N   UNL A   1      30.911  23.362  23.237  1.00  0.00    -0.129 NA
ATOM     11  N   UNL A   1      33.050  23.946  23.454  1.00  0.00    -0.270 N 
ATOM     12  N   UNL A   1      31.047  24.643  22.815  1.00  0.00    -0.122 NA
BRANCH   9  13
ATOM     13  C   UNL A   1      32.319  21.708  24.349  1.00  0.00     0.062 A 
ATOM     14  C   UNL A   1      32.591  21.657  25.725  1.00  0.00     0.129 A 
ATOM     15  C   UNL A   1      33.071  20.467  26.270  1.00  0.00     0.047 A 
ATOM     16  C   UNL A   1      33.211  19.325  25.476  1.00  0.00     0.004 A 
ATOM     17  C   UNL A   1      32.410  20.545  23.565  1.00  0.00     0.016 A 
ATOM     18  C   UNL A   1      32.863  19.358  24.127  1.00  0.00     0.001 A 
BRANCH  14  19
ATOM     19  O   UNL A   1      32.600  22.733  26.579  1.00  0.00    -0.496 OA
ATOM     20  C   UNL A   1      33.319  22.564  27.802  1.00  0.00     0.278 C 
ENDBRANCH  14  19
ENDBRANCH   9  13
BRANCH  11  21
ATOM     21  C   UNL A   1      34.445  23.787  23.739  1.00  0.00     0.050 A 
ATOM     22  C   UNL A   1      35.264  22.974  22.965  1.00  0.00     0.027 A 
ATOM     23  C   UNL A   1      34.996  24.406  24.877  1.00  0.00     0.027 A 
ATOM     24  C   UNL A   1      36.535  22.614  23.434  1.00  0.00     0.002 A 
ATOM     25  C   UNL A   1      36.247  24.023  25.361  1.00  0.00     0.002 A 
ATOM     26  C   UNL A   1      37.000  23.092  24.658  1.00  0.00     0.000 A 
ENDBRANCH  11  21
ENDBRANCH   7   8
ENDBRANCH   5   7
ENDBRANCH   3   5
ENDBRANCH   2   3
ENDBRANCH   1   2
BRANCH   1  27
ATOM     27  C   UNL A   1      32.585  30.077  26.304  1.00  0.00     0.275 C 
BRANCH  27  28
ATOM     28  O   UNL A   1      32.793  31.165  27.180  1.00  0.00    -0.458 OA
BRANCH  28  29
ATOM     29  C   UNL A   1      33.962  31.072  27.865  1.00  0.00     0.338 C 
ATOM     30  O   UNL A   1      34.705  30.116  27.907  1.00  0.00    -0.246 OA
BRANCH  29  31
ATOM     31  C   UNL A   1      34.229  32.374  28.543  1.00  0.00     0.060 A 
ATOM     32  C   UNL A   1      35.109  33.122  27.762  1.00  0.00     0.016 A 
ATOM     33  C   UNL A   1      34.417  32.228  29.916  1.00  0.00     0.016 A 
ATOM     34  C   UNL A   1      36.420  33.094  28.159  1.00  0.00     0.010 A 
ATOM     35  C   UNL A   1      35.723  32.129  30.300  1.00  0.00     0.010 A 
ATOM     36  C   UNL A   1      36.708  32.462  29.368  1.00  0.00    -0.014 A 
BRANCH  36  37
ATOM     37  C   UNL A   1      38.086  32.259  29.718  1.00  0.00     0.031 A 
ATOM     38  C   UNL A   1      38.497  30.879  29.410  1.00  0.00     0.074 A 
ATOM     39  C   UNL A   1      38.880  33.262  30.123  1.00  0.00     0.049 A 
ATOM     40  N   UNL A   1      38.595  29.890  30.237  1.00  0.00    -0.248 NA
ATOM     41  C   UNL A   1      38.460  30.477  27.993  1.00  0.00     0.031 C 
ATOM     42  C   UNL A   1      38.611  34.700  30.179  1.00  0.00     0.029 A 
ATOM     43  N   UNL A   1      40.196  33.176  30.443  1.00  0.00    -0.354 N 
ATOM     44  C   UNL A   1      38.865  28.796  29.427  1.00  0.00     0.074 A 
ATOM     45  C   UNL A   1      38.410  29.152  28.114  1.00  0.00     0.031 C 
ATOM     46  C   UNL A   1      39.790  35.361  30.269  1.00  0.00     0.029 A 
ATOM     47  C   UNL A   1      40.867  34.393  30.374  1.00  0.00     0.049 A 
ATOM     48  H   UNL A   1      40.633  32.332  30.700  1.00  0.00     0.167 HD
ATOM     49  C   UNL A   1      39.742  27.826  29.796  1.00  0.00     0.037 A 
ATOM     50  C   UNL A   1      42.216  34.485  30.231  1.00  0.00     0.037 A 
ATOM     51  C   UNL A   1      40.062  27.928  31.199  1.00  0.00     0.049 A 
ATOM     52  C   UNL A   1      42.772  33.164  30.686  1.00  0.00     0.074 A 
ATOM     53  C   UNL A   1      39.313  27.862  32.358  1.00  0.00     0.029 A 
ATOM     54  N   UNL A   1      41.231  28.575  31.539  1.00  0.00    -0.354 N 
ATOM     55  N   UNL A   1      42.666  32.726  31.918  1.00  0.00    -0.248 NA
ATOM     56  C   UNL A   1      42.939  32.121  29.678  1.00  0.00     0.031 C 
ATOM     57  C   UNL A   1      39.845  28.879  33.202  1.00  0.00     0.029 A 
ATOM     58  C   UNL A   1      40.937  29.458  32.551  1.00  0.00     0.049 A 
ATOM     59  H   UNL A   1      42.115  28.431  31.131  1.00  0.00     0.167 HD
ATOM     60  C   UNL A   1      42.345  31.375  31.802  1.00  0.00     0.074 A 
ATOM     61  C   UNL A   1      42.574  31.051  30.394  1.00  0.00     0.031 C 
ATOM     62  C   UNL A   1      41.640  30.709  32.768  1.00  0.00     0.037 A 
BRANCH  49  63
ATOM     63  C   UNL A   1      40.571  27.031  28.819  1.00  0.00     0.058 A 
ATOM     64  C   UNL A   1      40.193  25.710  28.526  1.00  0.00     0.135 A 
ATOM     65  C   UNL A   1      41.841  27.421  28.328  1.00  0.00     0.135 A 
ATOM     66  F   UNL A   1      39.012  25.229  28.947  1.00  0.00    -0.206 F 
ATOM     67  C   UNL A   1      41.035  24.826  27.851  1.00  0.00     0.059 A 
ATOM     68  C   UNL A   1      42.664  26.581  27.595  1.00  0.00     0.059 A 
ATOM     69  F   UNL A   1      42.406  28.599  28.613  1.00  0.00    -0.206 F 
ATOM     70  C   UNL A   1      42.275  25.270  27.400  1.00  0.00     0.060 A 
BRANCH  70  71
ATOM     71  S   UNL A   1      43.415  24.113  26.634  1.00  0.00     0.124 S 
ATOM     72  O   UNL A   1      44.303  23.801  27.748  1.00  0.00    -0.237 OA
ATOM     73  O   UNL A   1      42.518  23.044  26.209  1.00  0.00    -0.237 OA
ATOM     74  O   UNL A   1      44.011  24.892  25.552  1.00  0.00    -0.744 OA
ENDBRANCH  70  71
ENDBRANCH  49  63
BRANCH  50  75
ATOM     75  C   UNL A   1      42.927  35.427  29.319  1.00  0.00     0.058 A 
ATOM     76  C   UNL A   1      42.365  35.865  28.107  1.00  0.00     0.135 A 
ATOM     77  C   UNL A   1      44.096  36.106  29.731  1.00  0.00     0.135 A 
ATOM     78  F   UNL A   1      41.232  35.309  27.653  1.00  0.00    -0.206 F 
ATOM     79  C   UNL A   1      42.922  36.915  27.359  1.00  0.00     0.059 A 
ATOM     80  C   UNL A   1      44.675  37.139  28.997  1.00  0.00     0.059 A 
ATOM     81  F   UNL A   1      44.674  35.848  30.912  1.00  0.00    -0.206 F 
ATOM     82  C   UNL A   1      44.074  37.554  27.820  1.00  0.00     0.060 A 
BRANCH  82  83
ATOM     83  S   UNL A   1      44.727  38.998  26.947  1.00  0.00     0.124 S 
ATOM     84  O   UNL A   1      43.560  39.454  26.200  1.00  0.00    -0.237 OA
ATOM     85  O   UNL A   1      45.156  39.855  28.047  1.00  0.00    -0.237 OA
ATOM     86  O   UNL A   1      45.809  38.445  26.135  1.00  0.00    -0.744 OA
ENDBRANCH  82  83
ENDBRANCH  50  75
BRANCH  62  87
ATOM     87  C   UNL A   1      41.361  31.403  34.082  1.00  0.00     0.058 A 
ATOM     88  C   UNL A   1      40.237  32.216  34.322  1.00  0.00     0.135 A 
ATOM     89  C   UNL A   1      42.141  31.061  35.197  1.00  0.00     0.135 A 
ATOM     90  F   UNL A   1      39.374  32.497  33.338  1.00  0.00    -0.206 F 
ATOM     91  C   UNL A   1      39.925  32.696  35.596  1.00  0.00     0.059 A 
ATOM     92  C   UNL A   1      41.832  31.499  36.483  1.00  0.00     0.059 A 
ATOM     93  F   UNL A   1      43.188  30.231  35.054  1.00  0.00    -0.206 F 
ATOM     94  C   UNL A   1      40.729  32.327  36.673  1.00  0.00     0.060 A 
BRANCH  94  95
ATOM     95  S   UNL A   1      40.285  32.883  38.335  1.00  0.00     0.124 S 
ATOM     96  O   UNL A   1      38.965  32.287  38.513  1.00  0.00    -0.237 OA
ATOM     97  O   UNL A   1      41.352  32.319  39.155  1.00  0.00    -0.237 OA
ATOM     98  O   UNL A   1      40.301  34.340  38.223  1.00  0.00    -0.744 OA
ENDBRANCH  94  95
ENDBRANCH  62  87
ENDBRANCH  36  37
ENDBRANCH  29  31
ENDBRANCH  28  29
ENDBRANCH  27  28
ENDBRANCH   1  27
TORSDOF 19
ENDMDL
MODEL 3
REMARK VINA RESULT:     -10.8      1.742      2.677
REMARK SMILES COc1ccccc1-c1nnc(S[C@@H](C)C(=O)OCCOC(=O)c2ccc(-c3c4nc(c(-c5c(F)cc(S(=O)(=O)[O-])cc5F)c5ccc([nH]5)c(-c5c(F)cc(S(=O)(=O)[O-])cc5F)c5nc(c(-c6c(F)cc(S(=O)(=O)[O-])cc6F)c6ccc3[nH]6)C=C5)C=C4)cc2)n1-c1ccccc1
REMARK SMILES IDX 19 1 18 2 16 3 17 4 14 5 15 6 13 7 12 8 9 9 10 10 90 11
REMARK SMILES IDX 11 12 8 13 3 14 4 15 5 16 7 17 6 18 2 19 1 20 91 21 92 22
REMARK SMILES IDX 96 23 93 24 95 25 94 26 20 27 21 28 22 29 23 30 24 31 25 32
REMARK SMILES IDX 89 33 26 34 88 35 27 36 28 37 29 38 82 39 30 40 87 41 81 42
REMARK SMILES IDX 83 43 31 44 86 45 80 46 79 47 32 49 66 50 45 51 65 52 46 53
REMARK SMILES IDX 49 54 64 55 84 56 47 57 48 58 63 60 85 61 50 62 33 63 34 64
REMARK SMILES IDX 43 65 35 66 36 67 42 68 44 69 37 70 38 71 39 72 40 73 41 74
REMARK SMILES IDX 67 75 68 76 77 77 69 78 70 79 76 80 78 81 71 82 72 83 73 84
REMARK SMILES IDX 74 85 75 86 51 87 52 88 61 89 53 90 54 91 60 92 62 93 55 94
REMARK SMILES IDX 56 95 57 96 58 97 59 98
REMARK H PARENT 83 48 49 59
REMARK Flexibility Score: inf
ROOT
ATOM      1  C   UNL A   1      33.217  30.068  26.269  1.00  0.00     0.274 C 
ENDROOT
BRANCH   1   2
ATOM      2  O   UNL A   1      32.034  29.232  26.367  1.00  0.00    -0.461 OA
BRANCH   2   3
ATOM      3  C   UNL A   1      31.215  29.041  25.292  1.00  0.00     0.319 C 
ATOM      4  O   UNL A   1      30.790  29.957  24.591  1.00  0.00    -0.251 OA
BRANCH   3   5
ATOM      5  C   UNL A   1      30.980  27.566  24.951  1.00  0.00     0.161 C 
ATOM      6  C   UNL A   1      30.060  27.256  23.764  1.00  0.00     0.032 C 
BRANCH   5   7
ATOM      7  S   UNL A   1      30.550  26.402  26.241  1.00  0.00    -0.071 SA
BRANCH   7   8
ATOM      8  C   UNL A   1      31.574  25.020  26.294  1.00  0.00     0.196 A 
ATOM      9  C   UNL A   1      32.913  23.312  26.056  1.00  0.00     0.173 A 
ATOM     10  N   UNL A   1      32.341  23.209  27.233  1.00  0.00    -0.129 NA
ATOM     11  N   UNL A   1      32.446  24.437  25.376  1.00  0.00    -0.270 N 
ATOM     12  N   UNL A   1      31.539  24.290  27.392  1.00  0.00    -0.122 NA
BRANCH   9  13
ATOM     13  C   UNL A   1      33.978  22.449  25.591  1.00  0.00     0.062 A 
ATOM     14  C   UNL A   1      33.724  21.218  24.965  1.00  0.00     0.129 A 
ATOM     15  C   UNL A   1      34.778  20.323  24.794  1.00  0.00     0.047 A 
ATOM     16  C   UNL A   1      36.078  20.671  25.173  1.00  0.00     0.004 A 
ATOM     17  C   UNL A   1      35.293  22.817  25.922  1.00  0.00     0.016 A 
ATOM     18  C   UNL A   1      36.340  21.926  25.720  1.00  0.00     0.001 A 
BRANCH  14  19
ATOM     19  O   UNL A   1      32.482  20.721  24.653  1.00  0.00    -0.496 OA
ATOM     20  C   UNL A   1      32.291  20.297  23.302  1.00  0.00     0.278 C 
ENDBRANCH  14  19
ENDBRANCH   9  13
BRANCH  11  21
ATOM     21  C   UNL A   1      32.823  24.789  24.039  1.00  0.00     0.050 A 
ATOM     22  C   UNL A   1      33.742  25.796  23.778  1.00  0.00     0.027 A 
ATOM     23  C   UNL A   1      32.193  24.155  22.952  1.00  0.00     0.027 A 
ATOM     24  C   UNL A   1      33.868  26.307  22.478  1.00  0.00     0.002 A 
ATOM     25  C   UNL A   1      32.293  24.683  21.664  1.00  0.00     0.002 A 
ATOM     26  C   UNL A   1      33.101  25.788  21.436  1.00  0.00     0.000 A 
ENDBRANCH  11  21
ENDBRANCH   7   8
ENDBRANCH   5   7
ENDBRANCH   3   5
ENDBRANCH   2   3
ENDBRANCH   1   2
BRANCH   1  27
ATOM     27  C   UNL A   1      33.811  30.317  27.644  1.00  0.00     0.275 C 
BRANCH  27  28
ATOM     28  O   UNL A   1      34.778  29.307  27.846  1.00  0.00    -0.458 OA
BRANCH  28  29
ATOM     29  C   UNL A   1      36.048  29.789  27.840  1.00  0.00     0.338 C 
ATOM     30  O   UNL A   1      36.783  29.887  26.881  1.00  0.00    -0.246 OA
BRANCH  29  31
ATOM     31  C   UNL A   1      36.402  30.236  29.219  1.00  0.00     0.060 A 
ATOM     32  C   UNL A   1      37.237  31.349  29.138  1.00  0.00     0.016 A 
ATOM     33  C   UNL A   1      36.694  29.167  30.063  1.00  0.00     0.016 A 
ATOM     34  C   UNL A   1      38.573  31.098  29.298  1.00  0.00     0.010 A 
ATOM     35  C   UNL A   1      38.023  28.874  30.166  1.00  0.00     0.010 A 
ATOM     36  C   UNL A   1      38.940  29.807  29.676  1.00  0.00    -0.014 A 
BRANCH  36  37
ATOM     37  C   UNL A   1      40.335  29.468  29.675  1.00  0.00     0.031 A 
ATOM     38  C   UNL A   1      40.819  29.275  31.052  1.00  0.00     0.074 A 
ATOM     39  C   UNL A   1      41.016  29.226  28.544  1.00  0.00     0.049 A 
ATOM     40  N   UNL A   1      41.474  30.121  31.777  1.00  0.00    -0.248 NA
ATOM     41  C   UNL A   1      40.217  28.167  31.816  1.00  0.00     0.031 C 
ATOM     42  C   UNL A   1      40.529  29.125  27.167  1.00  0.00     0.029 A 
ATOM     43  N   UNL A   1      42.321  28.870  28.442  1.00  0.00    -0.354 N 
ATOM     44  C   UNL A   1      41.550  29.515  33.022  1.00  0.00     0.074 A 
ATOM     45  C   UNL A   1      40.486  28.553  33.062  1.00  0.00     0.031 C 
ATOM     46  C   UNL A   1      41.465  28.494  26.418  1.00  0.00     0.029 A 
ATOM     47  C   UNL A   1      42.636  28.244  27.240  1.00  0.00     0.049 A 
ATOM     48  H   UNL A   1      42.981  29.038  29.152  1.00  0.00     0.167 HD
ATOM     49  C   UNL A   1      42.668  29.587  33.791  1.00  0.00     0.037 A 
ATOM     50  C   UNL A   1      43.723  27.443  27.088  1.00  0.00     0.037 A 
ATOM     51  C   UNL A   1      43.567  30.601  33.298  1.00  0.00     0.049 A 
ATOM     52  C   UNL A   1      44.670  27.814  28.195  1.00  0.00     0.074 A 
ATOM     53  C   UNL A   1      43.460  31.966  33.112  1.00  0.00     0.029 A 
ATOM     54  N   UNL A   1      44.612  30.190  32.498  1.00  0.00    -0.354 N 
ATOM     55  N   UNL A   1      45.227  28.998  28.299  1.00  0.00    -0.248 NA
ATOM     56  C   UNL A   1      44.557  27.080  29.452  1.00  0.00     0.031 C 
ATOM     57  C   UNL A   1      44.110  32.223  31.870  1.00  0.00     0.029 A 
ATOM     58  C   UNL A   1      44.649  31.022  31.403  1.00  0.00     0.049 A 
ATOM     59  H   UNL A   1      45.221  29.438  32.678  1.00  0.00     0.167 HD
ATOM     60  C   UNL A   1      45.156  29.320  29.653  1.00  0.00     0.074 A 
ATOM     61  C   UNL A   1      44.775  28.076  30.319  1.00  0.00     0.031 C 
ATOM     62  C   UNL A   1      45.115  30.617  30.090  1.00  0.00     0.037 A 
BRANCH  49  63
ATOM     63  C   UNL A   1      43.095  28.505  34.751  1.00  0.00     0.058 A 
ATOM     64  C   UNL A   1      43.289  28.837  36.104  1.00  0.00     0.135 A 
ATOM     65  C   UNL A   1      43.540  27.215  34.373  1.00  0.00     0.135 A 
ATOM     66  F   UNL A   1      42.913  30.037  36.573  1.00  0.00    -0.206 F 
ATOM     67  C   UNL A   1      43.930  27.977  36.996  1.00  0.00     0.059 A 
ATOM     68  C   UNL A   1      44.115  26.319  35.260  1.00  0.00     0.059 A 
ATOM     69  F   UNL A   1      43.539  26.782  33.108  1.00  0.00    -0.206 F 
ATOM     70  C   UNL A   1      44.350  26.724  36.559  1.00  0.00     0.060 A 
BRANCH  70  71
ATOM     71  S   UNL A   1      45.278  25.656  37.666  1.00  0.00     0.124 S 
ATOM     72  O   UNL A   1      45.788  24.653  36.738  1.00  0.00    -0.237 OA
ATOM     73  O   UNL A   1      46.263  26.579  38.219  1.00  0.00    -0.237 OA
ATOM     74  O   UNL A   1      44.267  25.187  38.610  1.00  0.00    -0.744 OA
ENDBRANCH  70  71
ENDBRANCH  49  63
BRANCH  50  75
ATOM     75  C   UNL A   1      43.741  26.136  26.369  1.00  0.00     0.058 A 
ATOM     76  C   UNL A   1      44.716  25.824  25.405  1.00  0.00     0.135 A 
ATOM     77  C   UNL A   1      42.923  25.059  26.781  1.00  0.00     0.135 A 
ATOM     78  F   UNL A   1      45.567  26.770  24.980  1.00  0.00    -0.206 F 
ATOM     79  C   UNL A   1      44.874  24.526  24.892  1.00  0.00     0.059 A 
ATOM     80  C   UNL A   1      43.051  23.768  26.274  1.00  0.00     0.059 A 
ATOM     81  F   UNL A   1      42.020  25.204  27.761  1.00  0.00    -0.206 F 
ATOM     82  C   UNL A   1      44.041  23.501  25.343  1.00  0.00     0.060 A 
BRANCH  82  83
ATOM     83  S   UNL A   1      44.319  21.796  24.802  1.00  0.00     0.124 S 
ATOM     84  O   UNL A   1      43.157  21.109  25.355  1.00  0.00    -0.237 OA
ATOM     85  O   UNL A   1      44.350  21.935  23.351  1.00  0.00    -0.237 OA
ATOM     86  O   UNL A   1      45.598  21.449  25.418  1.00  0.00    -0.744 OA
ENDBRANCH  82  83
ENDBRANCH  50  75
BRANCH  62  87
ATOM     87  C   UNL A   1      45.339  31.734  29.096  1.00  0.00     0.058 A 
ATOM     88  C   UNL A   1      46.607  32.162  28.662  1.00  0.00     0.135 A 
ATOM     89  C   UNL A   1      44.230  32.239  28.400  1.00  0.00     0.135 A 
ATOM     90  F   UNL A   1      47.722  31.644  29.192  1.00  0.00    -0.206 F 
ATOM     91  C   UNL A   1      46.765  33.075  27.616  1.00  0.00     0.059 A 
ATOM     92  C   UNL A   1      44.363  33.124  27.332  1.00  0.00     0.059 A 
ATOM     93  F   UNL A   1      42.992  31.820  28.713  1.00  0.00    -0.206 F 
ATOM     94  C   UNL A   1      45.634  33.548  26.954  1.00  0.00     0.060 A 
BRANCH  94  95
ATOM     95  S   UNL A   1      45.840  34.669  25.551  1.00  0.00     0.124 S 
ATOM     96  O   UNL A   1      45.443  35.951  26.124  1.00  0.00    -0.237 OA
ATOM     97  O   UNL A   1      47.257  34.526  25.235  1.00  0.00    -0.237 OA
ATOM     98  O   UNL A   1      44.929  34.128  24.545  1.00  0.00    -0.744 OA
ENDBRANCH  94  95
ENDBRANCH  62  87
ENDBRANCH  36  37
ENDBRANCH  29  31
ENDBRANCH  28  29
ENDBRANCH  27  28
ENDBRANCH   1  27
TORSDOF 19
ENDMDL
