MODEL 1
REMARK VINA RESULT:     -11.9      0.000      0.000
REMARK SMILES Cc1nsc(N(C)C(=O)Nc2cccc(Cl)c2)c1C(=O)OCCOC(=O)c1ccc(-c2c3nc(c(-c4c(F)cc(S(=O)(=O)[O-])cc4F)c4ccc([nH]4)c(-c4c(F)cc(S(=O)(=O)[O-])cc4F)c4nc(c(-c5c(F)cc(S(=O)(=O)[O-])cc5F)c5ccc2[nH]5)C=C4)C=C3)cc1
REMARK SMILES IDX 22 1 21 2 19 3 20 4 18 5 1 6 2 7 3 8 4 9 5 10 6 11 7 12 8 13
REMARK SMILES IDX 9 14 10 15 11 17 12 18 17 19 13 20 15 21 14 22 16 23 23 24
REMARK SMILES IDX 24 25 25 26 26 27 27 28 28 29 92 30 29 31 91 32 30 33 31 34
REMARK SMILES IDX 32 35 85 36 33 37 90 38 84 39 86 40 34 41 89 42 83 43 82 44
REMARK SMILES IDX 35 46 69 47 48 48 68 49 49 50 52 51 67 52 87 53 50 54 51 55
REMARK SMILES IDX 66 57 88 58 53 59 36 60 37 61 46 62 38 63 39 64 45 65 47 66
REMARK SMILES IDX 40 67 41 68 42 69 43 70 44 71 70 72 71 73 80 74 72 75 73 76
REMARK SMILES IDX 79 77 81 78 74 79 75 80 76 81 77 82 78 83 54 84 55 85 64 86
REMARK SMILES IDX 56 87 57 88 63 89 65 90 58 91 59 92 60 93 61 94 62 95
REMARK H PARENT 10 16 86 45 52 56
REMARK Flexibility Score: inf
ROOT
ATOM      1  C   UNL A   1      36.496  22.996  24.537  1.00  0.00     0.275 C 
ENDROOT
BRANCH   1   2
ATOM      2  O   UNL A   1      35.344  23.594  25.143  1.00  0.00    -0.458 OA
BRANCH   2   3
ATOM      3  C   UNL A   1      34.264  23.852  24.351  1.00  0.00     0.343 C 
ATOM      4  O   UNL A   1      34.185  23.526  23.170  1.00  0.00    -0.246 OA
BRANCH   3   5
ATOM      5  C   UNL A   1      33.304  24.715  25.023  1.00  0.00     0.118 A 
ATOM      6  C   UNL A   1      32.130  22.737  26.326  1.00  0.00     0.069 C 
ATOM      7  C   UNL A   1      32.367  24.176  26.005  1.00  0.00     0.068 A 
ATOM      8  N   UNL A   1      31.661  25.061  26.697  1.00  0.00    -0.195 NA
ATOM      9  S   UNL A   1      32.027  26.553  26.152  1.00  0.00    -0.017 S 
ATOM     10  C   UNL A   1      33.051  26.083  24.829  1.00  0.00     0.134 A 
BRANCH  10  11
ATOM     11  N   UNL A   1      33.374  27.118  23.878  1.00  0.00    -0.286 N 
ATOM     12  C   UNL A   1      33.774  28.457  24.356  1.00  0.00     0.156 C 
BRANCH  11  13
ATOM     13  C   UNL A   1      33.079  26.917  22.523  1.00  0.00     0.326 C 
ATOM     14  O   UNL A   1      33.882  26.489  21.693  1.00  0.00    -0.248 OA
ATOM     15  N   UNL A   1      31.794  27.003  22.043  1.00  0.00    -0.307 N 
ATOM     16  H   UNL A   1      31.659  26.494  21.213  1.00  0.00     0.171 HD
BRANCH  15  17
ATOM     17  C   UNL A   1      30.638  27.660  22.479  1.00  0.00     0.044 A 
ATOM     18  C   UNL A   1      29.642  27.006  23.208  1.00  0.00     0.026 A 
ATOM     19  C   UNL A   1      30.473  28.998  22.106  1.00  0.00     0.046 A 
ATOM     20  C   UNL A   1      28.434  27.655  23.472  1.00  0.00     0.004 A 
ATOM     21  C   UNL A   1      29.248  29.623  22.334  1.00  0.00     0.043 A 
ATOM     22  C   UNL A   1      28.225  28.954  23.005  1.00  0.00     0.020 A 
ATOM     23  Cl  UNL A   1      28.962  31.202  21.721  1.00  0.00    -0.084 Cl
ENDBRANCH  15  17
ENDBRANCH  11  13
ENDBRANCH  10  11
ENDBRANCH   3   5
ENDBRANCH   2   3
ENDBRANCH   1   2
BRANCH   1  24
ATOM     24  C   UNL A   1      37.405  22.508  25.653  1.00  0.00     0.275 C 
BRANCH  24  25
ATOM     25  O   UNL A   1      38.359  23.516  25.972  1.00  0.00    -0.458 OA
BRANCH  25  26
ATOM     26  C   UNL A   1      39.476  23.114  26.625  1.00  0.00     0.338 C 
ATOM     27  O   UNL A   1      39.732  22.001  27.052  1.00  0.00    -0.246 OA
BRANCH  26  28
ATOM     28  C   UNL A   1      40.256  24.316  26.951  1.00  0.00     0.060 A 
ATOM     29  C   UNL A   1      41.157  24.240  28.019  1.00  0.00     0.016 A 
ATOM     30  C   UNL A   1      39.872  25.544  26.393  1.00  0.00     0.016 A 
ATOM     31  C   UNL A   1      41.500  25.406  28.669  1.00  0.00     0.010 A 
ATOM     32  C   UNL A   1      40.172  26.695  27.067  1.00  0.00     0.010 A 
ATOM     33  C   UNL A   1      40.915  26.600  28.240  1.00  0.00    -0.014 A 
BRANCH  33  34
ATOM     34  C   UNL A   1      41.084  27.792  29.034  1.00  0.00     0.031 A 
ATOM     35  C   UNL A   1      42.152  28.688  28.540  1.00  0.00     0.074 A 
ATOM     36  C   UNL A   1      40.202  28.123  29.993  1.00  0.00     0.049 A 
ATOM     37  N   UNL A   1      43.319  28.891  29.053  1.00  0.00    -0.248 NA
ATOM     38  C   UNL A   1      41.978  29.267  27.199  1.00  0.00     0.031 C 
ATOM     39  C   UNL A   1      38.913  27.505  30.315  1.00  0.00     0.029 A 
ATOM     40  N   UNL A   1      40.246  29.190  30.827  1.00  0.00    -0.354 N 
ATOM     41  C   UNL A   1      43.939  29.804  28.205  1.00  0.00     0.074 A 
ATOM     42  C   UNL A   1      43.184  29.787  26.982  1.00  0.00     0.031 C 
ATOM     43  C   UNL A   1      38.206  28.342  31.112  1.00  0.00     0.029 A 
ATOM     44  C   UNL A   1      39.041  29.480  31.454  1.00  0.00     0.049 A 
ATOM     45  H   UNL A   1      41.065  29.716  30.975  1.00  0.00     0.167 HD
ATOM     46  C   UNL A   1      44.867  30.694  28.655  1.00  0.00     0.037 A 
ATOM     47  C   UNL A   1      38.768  30.650  32.087  1.00  0.00     0.037 A 
ATOM     48  C   UNL A   1      45.328  30.335  29.974  1.00  0.00     0.049 A 
ATOM     49  C   UNL A   1      40.085  31.291  32.390  1.00  0.00     0.074 A 
ATOM     50  C   UNL A   1      45.968  29.232  30.507  1.00  0.00     0.029 A 
ATOM     51  N   UNL A   1      44.779  30.999  31.047  1.00  0.00    -0.354 N 
ATOM     52  N   UNL A   1      40.967  30.776  33.211  1.00  0.00    -0.248 NA
ATOM     53  C   UNL A   1      40.632  32.208  31.396  1.00  0.00     0.031 C 
ATOM     54  C   UNL A   1      45.349  29.024  31.776  1.00  0.00     0.029 A 
ATOM     55  C   UNL A   1      44.420  30.048  31.971  1.00  0.00     0.049 A 
ATOM     56  H   UNL A   1      44.664  31.973  31.136  1.00  0.00     0.167 HD
ATOM     57  C   UNL A   1      42.201  30.983  32.602  1.00  0.00     0.074 A 
ATOM     58  C   UNL A   1      41.932  31.915  31.508  1.00  0.00     0.031 C 
ATOM     59  C   UNL A   1      43.271  30.165  32.843  1.00  0.00     0.037 A 
BRANCH  46  60
ATOM     60  C   UNL A   1      45.095  32.065  28.059  1.00  0.00     0.058 A 
ATOM     61  C   UNL A   1      46.380  32.404  27.587  1.00  0.00     0.135 A 
ATOM     62  C   UNL A   1      44.184  33.142  28.153  1.00  0.00     0.135 A 
ATOM     63  F   UNL A   1      47.334  31.467  27.462  1.00  0.00    -0.206 F 
ATOM     64  C   UNL A   1      46.750  33.720  27.304  1.00  0.00     0.059 A 
ATOM     65  C   UNL A   1      44.512  34.448  27.814  1.00  0.00     0.059 A 
ATOM     66  F   UNL A   1      42.960  33.014  28.677  1.00  0.00    -0.206 F 
ATOM     67  C   UNL A   1      45.810  34.737  27.435  1.00  0.00     0.060 A 
BRANCH  67  68
ATOM     68  S   UNL A   1      46.307  36.449  27.190  1.00  0.00     0.124 S 
ATOM     69  O   UNL A   1      45.039  37.147  27.364  1.00  0.00    -0.237 OA
ATOM     70  O   UNL A   1      47.292  36.634  28.251  1.00  0.00    -0.237 OA
ATOM     71  O   UNL A   1      46.849  36.450  25.833  1.00  0.00    -0.744 OA
ENDBRANCH  67  68
ENDBRANCH  46  60
BRANCH  47  72
ATOM     72  C   UNL A   1      37.487  31.403  32.011  1.00  0.00     0.058 A 
ATOM     73  C   UNL A   1      36.798  31.821  33.162  1.00  0.00     0.135 A 
ATOM     74  C   UNL A   1      37.035  31.945  30.788  1.00  0.00     0.135 A 
ATOM     75  F   UNL A   1      37.184  31.385  34.371  1.00  0.00    -0.206 F 
ATOM     76  C   UNL A   1      35.734  32.733  33.105  1.00  0.00     0.059 A 
ATOM     77  C   UNL A   1      35.974  32.844  30.706  1.00  0.00     0.059 A 
ATOM     78  F   UNL A   1      37.671  31.681  29.638  1.00  0.00    -0.206 F 
ATOM     79  C   UNL A   1      35.337  33.249  31.871  1.00  0.00     0.060 A 
BRANCH  79  80
ATOM     80  S   UNL A   1      34.056  34.524  31.798  1.00  0.00     0.124 S 
ATOM     81  O   UNL A   1      33.662  34.476  30.394  1.00  0.00    -0.237 OA
ATOM     82  O   UNL A   1      33.073  34.028  32.755  1.00  0.00    -0.237 OA
ATOM     83  O   UNL A   1      34.760  35.737  32.206  1.00  0.00    -0.744 OA
ENDBRANCH  79  80
ENDBRANCH  47  72
BRANCH  59  84
ATOM     84  C   UNL A   1      43.163  29.150  33.955  1.00  0.00     0.058 A 
ATOM     85  C   UNL A   1      43.334  29.451  35.318  1.00  0.00     0.135 A 
ATOM     86  C   UNL A   1      42.697  27.865  33.642  1.00  0.00     0.135 A 
ATOM     87  F   UNL A   1      43.668  30.688  35.711  1.00  0.00    -0.206 F 
ATOM     88  C   UNL A   1      43.095  28.508  36.321  1.00  0.00     0.059 A 
ATOM     89  C   UNL A   1      42.424  26.917  34.624  1.00  0.00     0.059 A 
ATOM     90  F   UNL A   1      42.446  27.536  32.364  1.00  0.00    -0.206 F 
ATOM     91  C   UNL A   1      42.639  27.240  35.963  1.00  0.00     0.060 A 
BRANCH  91  92
ATOM     92  S   UNL A   1      42.264  26.040  37.260  1.00  0.00     0.124 S 
ATOM     93  O   UNL A   1      43.260  26.366  38.275  1.00  0.00    -0.237 OA
ATOM     94  O   UNL A   1      40.881  26.364  37.601  1.00  0.00    -0.237 OA
ATOM     95  O   UNL A   1      42.447  24.752  36.597  1.00  0.00    -0.744 OA
ENDBRANCH  91  92
ENDBRANCH  59  84
ENDBRANCH  33  34
ENDBRANCH  26  28
ENDBRANCH  25  26
ENDBRANCH  24  25
ENDBRANCH   1  24
TORSDOF 17
ENDMDL
MODEL 2
REMARK VINA RESULT:     -11.8      3.295      9.337
REMARK SMILES Cc1nsc(N(C)C(=O)Nc2cccc(Cl)c2)c1C(=O)OCCOC(=O)c1ccc(-c2c3nc(c(-c4c(F)cc(S(=O)(=O)[O-])cc4F)c4ccc([nH]4)c(-c4c(F)cc(S(=O)(=O)[O-])cc4F)c4nc(c(-c5c(F)cc(S(=O)(=O)[O-])cc5F)c5ccc2[nH]5)C=C4)C=C3)cc1
REMARK SMILES IDX 22 1 21 2 19 3 20 4 18 5 1 6 2 7 3 8 4 9 5 10 6 11 7 12 8 13
REMARK SMILES IDX 9 14 10 15 11 17 12 18 17 19 13 20 15 21 14 22 16 23 23 24
REMARK SMILES IDX 24 25 25 26 26 27 27 28 28 29 92 30 29 31 91 32 30 33 31 34
REMARK SMILES IDX 32 35 85 36 33 37 90 38 84 39 86 40 34 41 89 42 83 43 82 44
REMARK SMILES IDX 35 46 69 47 48 48 68 49 49 50 52 51 67 52 87 53 50 54 51 55
REMARK SMILES IDX 66 57 88 58 53 59 36 60 37 61 46 62 38 63 39 64 45 65 47 66
REMARK SMILES IDX 40 67 41 68 42 69 43 70 44 71 70 72 71 73 80 74 72 75 73 76
REMARK SMILES IDX 79 77 81 78 74 79 75 80 76 81 77 82 78 83 54 84 55 85 64 86
REMARK SMILES IDX 56 87 57 88 63 89 65 90 58 91 59 92 60 93 61 94 62 95
REMARK H PARENT 10 16 86 45 52 56
REMARK Flexibility Score: inf
ROOT
ATOM      1  C   UNL A   1      32.764  29.372  26.289  1.00  0.00     0.275 C 
ENDROOT
BRANCH   1   2
ATOM      2  O   UNL A   1      32.137  29.847  25.091  1.00  0.00    -0.458 OA
BRANCH   2   3
ATOM      3  C   UNL A   1      32.116  29.021  24.007  1.00  0.00     0.343 C 
ATOM      4  O   UNL A   1      32.973  29.021  23.127  1.00  0.00    -0.246 OA
BRANCH   3   5
ATOM      5  C   UNL A   1      30.868  28.276  23.929  1.00  0.00     0.118 A 
ATOM      6  C   UNL A   1      29.501  30.280  22.877  1.00  0.00     0.069 C 
ATOM      7  C   UNL A   1      29.678  28.865  23.320  1.00  0.00     0.068 A 
ATOM      8  N   UNL A   1      28.648  28.051  23.128  1.00  0.00    -0.195 NA
ATOM      9  S   UNL A   1      29.028  26.585  23.731  1.00  0.00    -0.017 S 
ATOM     10  C   UNL A   1      30.559  27.004  24.439  1.00  0.00     0.134 A 
BRANCH  10  11
ATOM     11  N   UNL A   1      31.124  26.037  25.347  1.00  0.00    -0.286 N 
ATOM     12  C   UNL A   1      32.590  25.892  25.450  1.00  0.00     0.156 C 
BRANCH  11  13
ATOM     13  C   UNL A   1      30.282  25.088  25.943  1.00  0.00     0.326 C 
ATOM     14  O   UNL A   1      29.420  25.354  26.782  1.00  0.00    -0.248 OA
ATOM     15  N   UNL A   1      30.223  23.791  25.494  1.00  0.00    -0.307 N 
ATOM     16  H   UNL A   1      29.373  23.346  25.713  1.00  0.00     0.171 HD
BRANCH  15  17
ATOM     17  C   UNL A   1      31.109  22.967  24.792  1.00  0.00     0.044 A 
ATOM     18  C   UNL A   1      31.365  23.139  23.430  1.00  0.00     0.026 A 
ATOM     19  C   UNL A   1      31.697  21.906  25.490  1.00  0.00     0.046 A 
ATOM     20  C   UNL A   1      32.121  22.190  22.739  1.00  0.00     0.004 A 
ATOM     21  C   UNL A   1      32.412  20.940  24.784  1.00  0.00     0.043 A 
ATOM     22  C   UNL A   1      32.618  21.071  23.411  1.00  0.00     0.020 A 
ATOM     23  Cl  UNL A   1      32.985  19.535  25.590  1.00  0.00    -0.084 Cl
ENDBRANCH  15  17
ENDBRANCH  11  13
ENDBRANCH  10  11
ENDBRANCH   3   5
ENDBRANCH   2   3
ENDBRANCH   1   2
BRANCH   1  24
ATOM     24  C   UNL A   1      33.289  30.580  27.047  1.00  0.00     0.275 C 
BRANCH  24  25
ATOM     25  O   UNL A   1      34.687  30.435  27.275  1.00  0.00    -0.458 OA
BRANCH  25  26
ATOM     26  C   UNL A   1      35.323  31.483  27.855  1.00  0.00     0.338 C 
ATOM     27  O   UNL A   1      35.195  32.667  27.599  1.00  0.00    -0.246 OA
BRANCH  26  28
ATOM     28  C   UNL A   1      36.389  30.938  28.707  1.00  0.00     0.060 A 
ATOM     29  C   UNL A   1      37.327  31.834  29.231  1.00  0.00     0.016 A 
ATOM     30  C   UNL A   1      36.598  29.552  28.727  1.00  0.00     0.016 A 
ATOM     31  C   UNL A   1      38.573  31.351  29.572  1.00  0.00     0.010 A 
ATOM     32  C   UNL A   1      37.847  29.079  29.018  1.00  0.00     0.010 A 
ATOM     33  C   UNL A   1      38.838  29.996  29.358  1.00  0.00    -0.014 A 
BRANCH  33  34
ATOM     34  C   UNL A   1      40.190  29.513  29.499  1.00  0.00     0.031 A 
ATOM     35  C   UNL A   1      40.591  29.268  30.900  1.00  0.00     0.074 A 
ATOM     36  C   UNL A   1      40.910  29.134  28.428  1.00  0.00     0.049 A 
ATOM     37  N   UNL A   1      41.392  29.968  31.632  1.00  0.00    -0.248 NA
ATOM     38  C   UNL A   1      39.847  28.239  31.644  1.00  0.00     0.031 C 
ATOM     39  C   UNL A   1      40.484  28.984  27.034  1.00  0.00     0.029 A 
ATOM     40  N   UNL A   1      42.190  28.687  28.407  1.00  0.00    -0.354 N 
ATOM     41  C   UNL A   1      41.419  29.326  32.866  1.00  0.00     0.074 A 
ATOM     42  C   UNL A   1      40.277  28.453  32.886  1.00  0.00     0.031 C 
ATOM     43  C   UNL A   1      41.417  28.271  26.359  1.00  0.00     0.029 A 
ATOM     44  C   UNL A   1      42.549  28.032  27.236  1.00  0.00     0.049 A 
ATOM     45  H   UNL A   1      42.811  28.816  29.159  1.00  0.00     0.167 HD
ATOM     46  C   UNL A   1      42.513  29.363  33.676  1.00  0.00     0.037 A 
ATOM     47  C   UNL A   1      43.656  27.256  27.101  1.00  0.00     0.037 A 
ATOM     48  C   UNL A   1      43.439  30.383  33.247  1.00  0.00     0.049 A 
ATOM     49  C   UNL A   1      44.586  27.639  28.208  1.00  0.00     0.074 A 
ATOM     50  C   UNL A   1      43.364  31.755  33.102  1.00  0.00     0.029 A 
ATOM     51  N   UNL A   1      44.523  29.989  32.497  1.00  0.00    -0.354 N 
ATOM     52  N   UNL A   1      45.137  28.823  28.311  1.00  0.00    -0.248 NA
ATOM     53  C   UNL A   1      44.485  26.897  29.460  1.00  0.00     0.031 C 
ATOM     54  C   UNL A   1      44.075  32.038  31.897  1.00  0.00     0.029 A 
ATOM     55  C   UNL A   1      44.596  30.834  31.417  1.00  0.00     0.049 A 
ATOM     56  H   UNL A   1      45.132  29.241  32.696  1.00  0.00     0.167 HD
ATOM     57  C   UNL A   1      45.088  29.136  29.665  1.00  0.00     0.074 A 
ATOM     58  C   UNL A   1      44.718  27.886  30.329  1.00  0.00     0.031 C 
ATOM     59  C   UNL A   1      45.059  30.431  30.106  1.00  0.00     0.037 A 
BRANCH  46  60
ATOM     60  C   UNL A   1      42.906  28.258  34.631  1.00  0.00     0.058 A 
ATOM     61  C   UNL A   1      43.063  28.556  36.000  1.00  0.00     0.135 A 
ATOM     62  C   UNL A   1      43.376  26.984  34.233  1.00  0.00     0.135 A 
ATOM     63  F   UNL A   1      42.661  29.738  36.495  1.00  0.00    -0.206 F 
ATOM     64  C   UNL A   1      43.702  27.687  36.887  1.00  0.00     0.059 A 
ATOM     65  C   UNL A   1      43.955  26.079  35.113  1.00  0.00     0.059 A 
ATOM     66  F   UNL A   1      43.397  26.584  32.958  1.00  0.00    -0.206 F 
ATOM     67  C   UNL A   1      44.158  26.456  36.427  1.00  0.00     0.060 A 
BRANCH  67  68
ATOM     68  S   UNL A   1      45.088  25.381  37.530  1.00  0.00     0.124 S 
ATOM     69  O   UNL A   1      44.595  25.806  38.834  1.00  0.00    -0.237 OA
ATOM     70  O   UNL A   1      44.670  24.055  37.086  1.00  0.00    -0.237 OA
ATOM     71  O   UNL A   1      46.479  25.722  37.238  1.00  0.00    -0.744 OA
ENDBRANCH  67  68
ENDBRANCH  46  60
BRANCH  47  72
ATOM     72  C   UNL A   1      43.723  25.952  26.387  1.00  0.00     0.058 A 
ATOM     73  C   UNL A   1      44.660  25.707  25.369  1.00  0.00     0.135 A 
ATOM     74  C   UNL A   1      43.019  24.825  26.865  1.00  0.00     0.135 A 
ATOM     75  F   UNL A   1      45.401  26.713  24.881  1.00  0.00    -0.206 F 
ATOM     76  C   UNL A   1      44.895  24.419  24.865  1.00  0.00     0.059 A 
ATOM     77  C   UNL A   1      43.229  23.538  26.373  1.00  0.00     0.059 A 
ATOM     78  F   UNL A   1      42.163  24.929  27.892  1.00  0.00    -0.206 F 
ATOM     79  C   UNL A   1      44.181  23.338  25.384  1.00  0.00     0.060 A 
BRANCH  79  80
ATOM     80  S   UNL A   1      44.568  21.657  24.838  1.00  0.00     0.124 S 
ATOM     81  O   UNL A   1      43.444  20.898  25.375  1.00  0.00    -0.237 OA
ATOM     82  O   UNL A   1      44.604  21.806  23.387  1.00  0.00    -0.237 OA
ATOM     83  O   UNL A   1      45.859  21.385  25.464  1.00  0.00    -0.744 OA
ENDBRANCH  79  80
ENDBRANCH  47  72
BRANCH  59  84
ATOM     84  C   UNL A   1      45.302  31.536  29.108  1.00  0.00     0.058 A 
ATOM     85  C   UNL A   1      46.577  31.942  28.674  1.00  0.00     0.135 A 
ATOM     86  C   UNL A   1      44.200  32.081  28.435  1.00  0.00     0.135 A 
ATOM     87  F   UNL A   1      47.685  31.387  29.185  1.00  0.00    -0.206 F 
ATOM     88  C   UNL A   1      46.749  32.878  27.651  1.00  0.00     0.059 A 
ATOM     89  C   UNL A   1      44.345  32.994  27.394  1.00  0.00     0.059 A 
ATOM     90  F   UNL A   1      42.956  31.683  28.752  1.00  0.00    -0.206 F 
ATOM     91  C   UNL A   1      45.623  33.399  27.015  1.00  0.00     0.060 A 
BRANCH  91  92
ATOM     92  S   UNL A   1      45.842  34.558  25.646  1.00  0.00     0.124 S 
ATOM     93  O   UNL A   1      44.923  34.026  24.645  1.00  0.00    -0.237 OA
ATOM     94  O   UNL A   1      45.457  35.833  26.246  1.00  0.00    -0.237 OA
ATOM     95  O   UNL A   1      47.260  34.437  25.318  1.00  0.00    -0.744 OA
ENDBRANCH  91  92
ENDBRANCH  59  84
ENDBRANCH  33  34
ENDBRANCH  26  28
ENDBRANCH  25  26
ENDBRANCH  24  25
ENDBRANCH   1  24
TORSDOF 17
ENDMDL
MODEL 3
REMARK VINA RESULT:     -11.8      1.591      2.107
REMARK SMILES Cc1nsc(N(C)C(=O)Nc2cccc(Cl)c2)c1C(=O)OCCOC(=O)c1ccc(-c2c3nc(c(-c4c(F)cc(S(=O)(=O)[O-])cc4F)c4ccc([nH]4)c(-c4c(F)cc(S(=O)(=O)[O-])cc4F)c4nc(c(-c5c(F)cc(S(=O)(=O)[O-])cc5F)c5ccc2[nH]5)C=C4)C=C3)cc1
REMARK SMILES IDX 22 1 21 2 19 3 20 4 18 5 1 6 2 7 3 8 4 9 5 10 6 11 7 12 8 13
REMARK SMILES IDX 9 14 10 15 11 17 12 18 17 19 13 20 15 21 14 22 16 23 23 24
REMARK SMILES IDX 24 25 25 26 26 27 27 28 28 29 92 30 29 31 91 32 30 33 31 34
REMARK SMILES IDX 32 35 85 36 33 37 90 38 84 39 86 40 34 41 89 42 83 43 82 44
REMARK SMILES IDX 35 46 69 47 48 48 68 49 49 50 52 51 67 52 87 53 50 54 51 55
REMARK SMILES IDX 66 57 88 58 53 59 36 60 37 61 46 62 38 63 39 64 45 65 47 66
REMARK SMILES IDX 40 67 41 68 42 69 43 70 44 71 70 72 71 73 80 74 72 75 73 76
REMARK SMILES IDX 79 77 81 78 74 79 75 80 76 81 77 82 78 83 54 84 55 85 64 86
REMARK SMILES IDX 56 87 57 88 63 89 65 90 58 91 59 92 60 93 61 94 62 95
REMARK H PARENT 10 16 86 45 52 56
REMARK Flexibility Score: inf
ROOT
ATOM      1  C   UNL A   1      37.247  21.578  24.759  1.00  0.00     0.275 C 
ENDROOT
BRANCH   1   2
ATOM      2  O   UNL A   1      36.223  20.679  25.203  1.00  0.00    -0.458 OA
BRANCH   2   3
ATOM      3  C   UNL A   1      35.054  21.213  25.657  1.00  0.00     0.343 C 
ATOM      4  O   UNL A   1      34.841  21.503  26.831  1.00  0.00    -0.246 OA
BRANCH   3   5
ATOM      5  C   UNL A   1      34.035  21.224  24.618  1.00  0.00     0.118 A 
ATOM      6  C   UNL A   1      33.635  18.612  24.698  1.00  0.00     0.069 C 
ATOM      7  C   UNL A   1      33.329  20.001  24.245  1.00  0.00     0.068 A 
ATOM      8  N   UNL A   1      32.295  20.142  23.425  1.00  0.00    -0.195 NA
ATOM      9  S   UNL A   1      32.175  21.715  23.010  1.00  0.00    -0.017 S 
ATOM     10  C   UNL A   1      33.621  22.281  23.791  1.00  0.00     0.134 A 
BRANCH  10  11
ATOM     11  N   UNL A   1      34.059  23.606  23.428  1.00  0.00    -0.286 N 
ATOM     12  C   UNL A   1      35.128  24.267  24.204  1.00  0.00     0.156 C 
BRANCH  11  13
ATOM     13  C   UNL A   1      33.311  24.342  22.499  1.00  0.00     0.326 C 
ATOM     14  O   UNL A   1      33.382  24.197  21.278  1.00  0.00    -0.248 OA
ATOM     15  N   UNL A   1      32.284  25.167  22.890  1.00  0.00    -0.307 N 
ATOM     16  H   UNL A   1      31.621  25.319  22.180  1.00  0.00     0.171 HD
BRANCH  15  17
ATOM     17  C   UNL A   1      31.978  25.838  24.079  1.00  0.00     0.044 A 
ATOM     18  C   UNL A   1      31.042  25.344  24.991  1.00  0.00     0.026 A 
ATOM     19  C   UNL A   1      32.600  27.070  24.306  1.00  0.00     0.046 A 
ATOM     20  C   UNL A   1      30.647  26.131  26.075  1.00  0.00     0.004 A 
ATOM     21  C   UNL A   1      32.167  27.867  25.365  1.00  0.00     0.043 A 
ATOM     22  C   UNL A   1      31.186  27.408  26.243  1.00  0.00     0.020 A 
ATOM     23  Cl  UNL A   1      32.787  29.459  25.552  1.00  0.00    -0.084 Cl
ENDBRANCH  15  17
ENDBRANCH  11  13
ENDBRANCH  10  11
ENDBRANCH   3   5
ENDBRANCH   2   3
ENDBRANCH   1   2
BRANCH   1  24
ATOM     24  C   UNL A   1      38.444  21.409  25.680  1.00  0.00     0.275 C 
BRANCH  24  25
ATOM     25  O   UNL A   1      38.801  22.667  26.241  1.00  0.00    -0.458 OA
BRANCH  25  26
ATOM     26  C   UNL A   1      39.856  22.678  27.094  1.00  0.00     0.338 C 
ATOM     27  O   UNL A   1      40.239  21.776  27.818  1.00  0.00    -0.246 OA
BRANCH  26  28
ATOM     28  C   UNL A   1      40.342  24.061  27.179  1.00  0.00     0.060 A 
ATOM     29  C   UNL A   1      41.614  24.274  27.722  1.00  0.00     0.016 A 
ATOM     30  C   UNL A   1      39.432  25.112  26.994  1.00  0.00     0.016 A 
ATOM     31  C   UNL A   1      41.888  25.503  28.285  1.00  0.00     0.010 A 
ATOM     32  C   UNL A   1      39.684  26.314  27.596  1.00  0.00     0.010 A 
ATOM     33  C   UNL A   1      40.874  26.464  28.301  1.00  0.00    -0.014 A 
BRANCH  33  34
ATOM     34  C   UNL A   1      41.060  27.669  29.071  1.00  0.00     0.031 A 
ATOM     35  C   UNL A   1      42.119  28.555  28.543  1.00  0.00     0.074 A 
ATOM     36  C   UNL A   1      40.195  28.017  30.041  1.00  0.00     0.049 A 
ATOM     37  N   UNL A   1      43.295  28.766  29.030  1.00  0.00    -0.248 NA
ATOM     38  C   UNL A   1      41.920  29.112  27.195  1.00  0.00     0.031 C 
ATOM     39  C   UNL A   1      38.911  27.406  30.397  1.00  0.00     0.029 A 
ATOM     40  N   UNL A   1      40.256  29.099  30.855  1.00  0.00    -0.354 N 
ATOM     41  C   UNL A   1      43.900  29.663  28.156  1.00  0.00     0.074 A 
ATOM     42  C   UNL A   1      43.123  29.627  26.947  1.00  0.00     0.031 C 
ATOM     43  C   UNL A   1      38.221  28.257  31.192  1.00  0.00     0.029 A 
ATOM     44  C   UNL A   1      39.063  29.400  31.499  1.00  0.00     0.049 A 
ATOM     45  H   UNL A   1      41.077  29.626  30.979  1.00  0.00     0.167 HD
ATOM     46  C   UNL A   1      44.837  30.560  28.573  1.00  0.00     0.037 A 
ATOM     47  C   UNL A   1      38.803  30.581  32.117  1.00  0.00     0.037 A 
ATOM     48  C   UNL A   1      45.322  30.223  29.890  1.00  0.00     0.049 A 
ATOM     49  C   UNL A   1      40.126  31.226  32.385  1.00  0.00     0.074 A 
ATOM     50  C   UNL A   1      45.971  29.128  30.429  1.00  0.00     0.029 A 
ATOM     51  N   UNL A   1      44.794  30.905  30.961  1.00  0.00    -0.354 N 
ATOM     52  N   UNL A   1      41.022  30.724  33.198  1.00  0.00    -0.248 NA
ATOM     53  C   UNL A   1      40.655  32.125  31.366  1.00  0.00     0.031 C 
ATOM     54  C   UNL A   1      45.375  28.942  31.713  1.00  0.00     0.029 A 
ATOM     55  C   UNL A   1      44.451  29.971  31.907  1.00  0.00     0.049 A 
ATOM     56  H   UNL A   1      44.681  31.881  31.036  1.00  0.00     0.167 HD
ATOM     57  C   UNL A   1      42.244  30.919  32.563  1.00  0.00     0.074 A 
ATOM     58  C   UNL A   1      41.956  31.833  31.459  1.00  0.00     0.031 C 
ATOM     59  C   UNL A   1      43.318  30.103  32.798  1.00  0.00     0.037 A 
BRANCH  46  60
ATOM     60  C   UNL A   1      45.056  31.920  27.950  1.00  0.00     0.058 A 
ATOM     61  C   UNL A   1      46.302  32.213  27.360  1.00  0.00     0.135 A 
ATOM     62  C   UNL A   1      44.193  33.028  28.120  1.00  0.00     0.135 A 
ATOM     63  F   UNL A   1      47.208  31.244  27.154  1.00  0.00    -0.206 F 
ATOM     64  C   UNL A   1      46.688  33.515  27.036  1.00  0.00     0.059 A 
ATOM     65  C   UNL A   1      44.533  34.321  27.744  1.00  0.00     0.059 A 
ATOM     66  F   UNL A   1      43.019  32.943  28.754  1.00  0.00    -0.206 F 
ATOM     67  C   UNL A   1      45.799  34.564  27.246  1.00  0.00     0.060 A 
BRANCH  67  68
ATOM     68  S   UNL A   1      46.329  36.257  26.945  1.00  0.00     0.124 S 
ATOM     69  O   UNL A   1      47.158  36.515  28.117  1.00  0.00    -0.237 OA
ATOM     70  O   UNL A   1      47.036  36.133  25.674  1.00  0.00    -0.237 OA
ATOM     71  O   UNL A   1      45.071  36.997  26.885  1.00  0.00    -0.744 OA
ENDBRANCH  67  68
ENDBRANCH  46  60
BRANCH  47  72
ATOM     72  C   UNL A   1      37.521  31.334  32.052  1.00  0.00     0.058 A 
ATOM     73  C   UNL A   1      36.841  31.750  33.209  1.00  0.00     0.135 A 
ATOM     74  C   UNL A   1      37.060  31.878  30.834  1.00  0.00     0.135 A 
ATOM     75  F   UNL A   1      37.235  31.312  34.415  1.00  0.00    -0.206 F 
ATOM     76  C   UNL A   1      35.776  32.662  33.162  1.00  0.00     0.059 A 
ATOM     77  C   UNL A   1      35.998  32.778  30.761  1.00  0.00     0.059 A 
ATOM     78  F   UNL A   1      37.687  31.617  29.678  1.00  0.00    -0.206 F 
ATOM     79  C   UNL A   1      35.370  33.180  31.932  1.00  0.00     0.060 A 
BRANCH  79  80
ATOM     80  S   UNL A   1      34.089  34.456  31.870  1.00  0.00     0.124 S 
ATOM     81  O   UNL A   1      34.835  35.652  32.243  1.00  0.00    -0.237 OA
ATOM     82  O   UNL A   1      33.650  34.384  30.480  1.00  0.00    -0.237 OA
ATOM     83  O   UNL A   1      33.108  34.001  32.853  1.00  0.00    -0.744 OA
ENDBRANCH  79  80
ENDBRANCH  47  72
BRANCH  59  84
ATOM     84  C   UNL A   1      43.230  29.108  33.929  1.00  0.00     0.058 A 
ATOM     85  C   UNL A   1      43.459  29.425  35.280  1.00  0.00     0.135 A 
ATOM     86  C   UNL A   1      42.724  27.829  33.654  1.00  0.00     0.135 A 
ATOM     87  F   UNL A   1      43.835  30.659  35.641  1.00  0.00    -0.206 F 
ATOM     88  C   UNL A   1      43.238  28.502  36.305  1.00  0.00     0.059 A 
ATOM     89  C   UNL A   1      42.468  26.903  34.661  1.00  0.00     0.059 A 
ATOM     90  F   UNL A   1      42.417  27.487  32.392  1.00  0.00    -0.206 F 
ATOM     91  C   UNL A   1      42.740  27.240  35.985  1.00  0.00     0.060 A 
BRANCH  91  92
ATOM     92  S   UNL A   1      42.387  26.068  37.313  1.00  0.00     0.124 S 
ATOM     93  O   UNL A   1      40.975  26.322  37.579  1.00  0.00    -0.237 OA
ATOM     94  O   UNL A   1      42.694  24.783  36.691  1.00  0.00    -0.237 OA
ATOM     95  O   UNL A   1      43.304  26.470  38.376  1.00  0.00    -0.744 OA
ENDBRANCH  91  92
ENDBRANCH  59  84
ENDBRANCH  33  34
ENDBRANCH  26  28
ENDBRANCH  25  26
ENDBRANCH  24  25
ENDBRANCH   1  24
TORSDOF 17
ENDMDL
