MODEL 1
REMARK VINA RESULT:     -11.5      0.000      0.000
REMARK SMILES Cc1ccc(-c2ccc(/C=C(\C#N)C3N=c4ccccc4=N3)o2)cc1C(=O)OCCOC(=O)c1ccc(-c2c3nc(c(-c4c(F)cc(S(=O)(=O)[O-])cc4F)c4ccc([nH]4)c(-c4c(F)cc(S(=O)(=O)[O-])cc4F)c4nc(c(-c5c(F)cc(S(=O)(=O)[O-])cc5F)c5ccc2[nH]5)C=C4)C=C3)cc1
REMARK SMILES IDX 29 1 28 2 26 3 27 4 25 5 1 6 2 7 3 8 4 9 24 10 5 11 6 12
REMARK SMILES IDX 7 13 23 14 8 15 9 16 10 17 11 18 12 19 13 20 14 21 15 22
REMARK SMILES IDX 22 23 16 24 21 25 17 26 20 27 18 28 19 29 30 30 31 31 32 32
REMARK SMILES IDX 33 33 34 34 35 35 99 36 36 37 98 38 37 39 38 40 39 41 92 42
REMARK SMILES IDX 40 43 97 44 91 45 93 46 41 47 96 48 90 49 89 50 42 52 76 53
REMARK SMILES IDX 55 54 75 55 56 56 59 57 74 58 94 59 57 60 58 61 73 63 95 64
REMARK SMILES IDX 60 65 43 66 44 67 53 68 45 69 46 70 52 71 54 72 47 73 48 74
REMARK SMILES IDX 49 75 50 76 51 77 77 78 78 79 87 80 79 81 80 82 86 83 88 84
REMARK SMILES IDX 81 85 82 86 83 87 84 88 85 89 61 90 62 91 71 92 63 93 64 94
REMARK SMILES IDX 70 95 72 96 65 97 66 98 67 99 68 100 69 101
REMARK H PARENT 93 51 59 62
REMARK Flexibility Score: inf
ROOT
ATOM      1  C   UNL A   1      42.814  22.414  26.763  1.00  0.00     0.275 C 
ENDROOT
BRANCH   1   2
ATOM      2  O   UNL A   1      41.481  22.970  26.637  1.00  0.00    -0.458 OA
BRANCH   2   3
ATOM      3  C   UNL A   1      40.518  22.126  27.090  1.00  0.00     0.338 C 
ATOM      4  O   UNL A   1      40.463  21.734  28.247  1.00  0.00    -0.246 OA
BRANCH   3   5
ATOM      5  C   UNL A   1      39.596  21.497  26.113  1.00  0.00     0.063 A 
ATOM      6  C   UNL A   1      41.129  19.448  26.165  1.00  0.00     0.045 C 
ATOM      7  C   UNL A   1      39.832  20.139  25.824  1.00  0.00    -0.037 A 
ATOM      8  C   UNL A   1      38.822  19.396  25.199  1.00  0.00     0.005 A 
ATOM      9  C   UNL A   1      37.562  19.955  24.950  1.00  0.00     0.012 A 
ATOM     10  C   UNL A   1      38.344  22.073  25.791  1.00  0.00     0.028 A 
ATOM     11  C   UNL A   1      37.290  21.292  25.258  1.00  0.00     0.018 A 
BRANCH  11  12
ATOM     12  C   UNL A   1      35.937  21.838  25.045  1.00  0.00     0.134 A 
ATOM     13  C   UNL A   1      34.768  21.300  24.559  1.00  0.00     0.051 A 
ATOM     14  O   UNL A   1      35.717  23.165  25.362  1.00  0.00    -0.457 OA
ATOM     15  C   UNL A   1      33.797  22.328  24.602  1.00  0.00     0.051 A 
ATOM     16  C   UNL A   1      34.402  23.494  25.064  1.00  0.00     0.128 A 
BRANCH  16  17
ATOM     17  C   UNL A   1      33.755  24.765  25.220  1.00  0.00     0.066 C 
ATOM     18  C   UNL A   1      32.692  25.071  25.994  1.00  0.00     0.080 C 
BRANCH  18  19
ATOM     19  C   UNL A   1      32.025  24.116  26.806  1.00  0.00     0.099 C 
ATOM     20  N   UNL A   1      31.400  23.331  27.410  1.00  0.00    -0.193 NA
ENDBRANCH  18  19
BRANCH  18  21
ATOM     21  C   UNL A   1      32.135  26.492  26.008  1.00  0.00     0.263 C 
ATOM     22  N   UNL A   1      32.938  27.366  25.104  1.00  0.00    -0.251 NA
ATOM     23  N   UNL A   1      30.697  26.537  25.618  1.00  0.00    -0.251 NA
ATOM     24  C   UNL A   1      32.059  27.785  24.259  1.00  0.00     0.086 A 
ATOM     25  C   UNL A   1      30.700  27.293  24.574  1.00  0.00     0.086 A 
ATOM     26  C   UNL A   1      32.262  28.648  23.090  1.00  0.00     0.030 A 
ATOM     27  C   UNL A   1      29.577  27.703  23.721  1.00  0.00     0.030 A 
ATOM     28  C   UNL A   1      31.186  28.952  22.349  1.00  0.00     0.002 A 
ATOM     29  C   UNL A   1      29.850  28.487  22.668  1.00  0.00     0.002 A 
ENDBRANCH  18  21
ENDBRANCH  16  17
ENDBRANCH  11  12
ENDBRANCH   3   5
ENDBRANCH   2   3
ENDBRANCH   1   2
BRANCH   1  30
ATOM     30  C   UNL A   1      43.950  23.323  26.248  1.00  0.00     0.275 C 
BRANCH  30  31
ATOM     31  O   UNL A   1      44.937  23.855  27.161  1.00  0.00    -0.458 OA
BRANCH  31  32
ATOM     32  C   UNL A   1      44.543  24.111  28.437  1.00  0.00     0.338 C 
ATOM     33  O   UNL A   1      44.474  23.256  29.302  1.00  0.00    -0.246 OA
BRANCH  32  34
ATOM     34  C   UNL A   1      44.568  25.582  28.665  1.00  0.00     0.060 A 
ATOM     35  C   UNL A   1      44.290  26.447  27.596  1.00  0.00     0.016 A 
ATOM     36  C   UNL A   1      44.483  26.025  29.984  1.00  0.00     0.016 A 
ATOM     37  C   UNL A   1      43.797  27.720  27.837  1.00  0.00     0.010 A 
ATOM     38  C   UNL A   1      43.796  27.176  30.229  1.00  0.00     0.010 A 
ATOM     39  C   UNL A   1      43.524  28.043  29.159  1.00  0.00    -0.014 A 
BRANCH  39  40
ATOM     40  C   UNL A   1      43.306  29.396  29.617  1.00  0.00     0.031 A 
ATOM     41  C   UNL A   1      41.947  29.965  29.549  1.00  0.00     0.074 A 
ATOM     42  C   UNL A   1      44.447  29.803  30.234  1.00  0.00     0.049 A 
ATOM     43  N   UNL A   1      41.692  31.214  29.643  1.00  0.00    -0.248 NA
ATOM     44  C   UNL A   1      40.715  29.207  29.315  1.00  0.00     0.031 C 
ATOM     45  C   UNL A   1      44.796  30.863  31.155  1.00  0.00     0.029 A 
ATOM     46  N   UNL A   1      45.710  29.224  29.958  1.00  0.00    -0.354 N 
ATOM     47  C   UNL A   1      40.342  31.350  29.931  1.00  0.00     0.074 A 
ATOM     48  C   UNL A   1      39.751  30.117  29.512  1.00  0.00     0.031 C 
ATOM     49  C   UNL A   1      46.125  31.098  31.049  1.00  0.00     0.029 A 
ATOM     50  C   UNL A   1      46.654  30.234  29.993  1.00  0.00     0.049 A 
ATOM     51  H   UNL A   1      45.883  28.273  29.773  1.00  0.00     0.167 HD
ATOM     52  C   UNL A   1      39.974  32.424  30.689  1.00  0.00     0.037 A 
ATOM     53  C   UNL A   1      47.126  30.619  28.768  1.00  0.00     0.037 A 
ATOM     54  C   UNL A   1      41.181  33.217  30.925  1.00  0.00     0.049 A 
ATOM     55  C   UNL A   1      46.494  31.957  28.451  1.00  0.00     0.074 A 
ATOM     56  C   UNL A   1      42.092  33.210  31.967  1.00  0.00     0.029 A 
ATOM     57  N   UNL A   1      41.831  33.767  29.828  1.00  0.00    -0.354 N 
ATOM     58  N   UNL A   1      45.256  32.291  28.726  1.00  0.00    -0.248 NA
ATOM     59  C   UNL A   1      47.322  33.086  28.050  1.00  0.00     0.031 C 
ATOM     60  C   UNL A   1      43.333  33.675  31.445  1.00  0.00     0.029 A 
ATOM     61  C   UNL A   1      43.185  33.901  30.082  1.00  0.00     0.049 A 
ATOM     62  H   UNL A   1      41.390  34.028  28.987  1.00  0.00     0.167 HD
ATOM     63  C   UNL A   1      45.147  33.659  28.661  1.00  0.00     0.074 A 
ATOM     64  C   UNL A   1      46.462  34.102  28.219  1.00  0.00     0.031 C 
ATOM     65  C   UNL A   1      44.063  34.405  29.040  1.00  0.00     0.037 A 
BRANCH  52  66
ATOM     66  C   UNL A   1      38.684  32.672  31.454  1.00  0.00     0.058 A 
ATOM     67  C   UNL A   1      37.547  33.123  30.739  1.00  0.00     0.135 A 
ATOM     68  C   UNL A   1      38.479  32.546  32.845  1.00  0.00     0.135 A 
ATOM     69  F   UNL A   1      37.566  33.261  29.406  1.00  0.00    -0.206 F 
ATOM     70  C   UNL A   1      36.335  33.461  31.343  1.00  0.00     0.059 A 
ATOM     71  C   UNL A   1      37.263  32.873  33.475  1.00  0.00     0.059 A 
ATOM     72  F   UNL A   1      39.436  32.094  33.662  1.00  0.00    -0.206 F 
ATOM     73  C   UNL A   1      36.200  33.340  32.714  1.00  0.00     0.060 A 
BRANCH  73  74
ATOM     74  S   UNL A   1      34.614  33.780  33.454  1.00  0.00     0.124 S 
ATOM     75  O   UNL A   1      34.457  35.169  33.032  1.00  0.00    -0.237 OA
ATOM     76  O   UNL A   1      33.706  32.823  32.831  1.00  0.00    -0.237 OA
ATOM     77  O   UNL A   1      34.837  33.588  34.884  1.00  0.00    -0.744 OA
ENDBRANCH  73  74
ENDBRANCH  52  66
BRANCH  53  78
ATOM     78  C   UNL A   1      47.414  29.457  27.837  1.00  0.00     0.058 A 
ATOM     79  C   UNL A   1      46.588  29.317  26.692  1.00  0.00     0.135 A 
ATOM     80  C   UNL A   1      48.565  28.655  27.851  1.00  0.00     0.135 A 
ATOM     81  F   UNL A   1      45.444  30.019  26.601  1.00  0.00    -0.206 F 
ATOM     82  C   UNL A   1      46.939  28.548  25.581  1.00  0.00     0.059 A 
ATOM     83  C   UNL A   1      48.926  27.841  26.752  1.00  0.00     0.059 A 
ATOM     84  F   UNL A   1      49.409  28.701  28.892  1.00  0.00    -0.206 F 
ATOM     85  C   UNL A   1      48.126  27.825  25.605  1.00  0.00     0.060 A 
BRANCH  85  86
ATOM     86  S   UNL A   1      48.679  27.047  24.056  1.00  0.00     0.124 S 
ATOM     87  O   UNL A   1      47.449  27.021  23.272  1.00  0.00    -0.237 OA
ATOM     88  O   UNL A   1      49.698  27.986  23.593  1.00  0.00    -0.237 OA
ATOM     89  O   UNL A   1      49.171  25.744  24.491  1.00  0.00    -0.744 OA
ENDBRANCH  85  86
ENDBRANCH  53  78
BRANCH  65  90
ATOM     90  C   UNL A   1      43.783  35.778  28.479  1.00  0.00     0.058 A 
ATOM     91  C   UNL A   1      43.190  35.982  27.223  1.00  0.00     0.135 A 
ATOM     92  C   UNL A   1      43.952  36.943  29.271  1.00  0.00     0.135 A 
ATOM     93  F   UNL A   1      42.809  34.963  26.442  1.00  0.00    -0.206 F 
ATOM     94  C   UNL A   1      42.932  37.250  26.724  1.00  0.00     0.059 A 
ATOM     95  C   UNL A   1      43.595  38.209  28.833  1.00  0.00     0.059 A 
ATOM     96  F   UNL A   1      44.460  36.902  30.512  1.00  0.00    -0.206 F 
ATOM     97  C   UNL A   1      43.146  38.357  27.534  1.00  0.00     0.060 A 
BRANCH  97  98
ATOM     98  S   UNL A   1      42.842  39.993  26.869  1.00  0.00     0.124 S 
ATOM     99  O   UNL A   1      43.163  40.829  28.021  1.00  0.00    -0.237 OA
ATOM    100  O   UNL A   1      43.783  40.063  25.755  1.00  0.00    -0.237 OA
ATOM    101  O   UNL A   1      41.433  39.949  26.491  1.00  0.00    -0.744 OA
ENDBRANCH  97  98
ENDBRANCH  65  90
ENDBRANCH  39  40
ENDBRANCH  32  34
ENDBRANCH  31  32
ENDBRANCH  30  31
ENDBRANCH   1  30
TORSDOF 18
ENDMDL
MODEL 2
REMARK VINA RESULT:     -11.4      4.543     11.669
REMARK SMILES Cc1ccc(-c2ccc(/C=C(\C#N)C3N=c4ccccc4=N3)o2)cc1C(=O)OCCOC(=O)c1ccc(-c2c3nc(c(-c4c(F)cc(S(=O)(=O)[O-])cc4F)c4ccc([nH]4)c(-c4c(F)cc(S(=O)(=O)[O-])cc4F)c4nc(c(-c5c(F)cc(S(=O)(=O)[O-])cc5F)c5ccc2[nH]5)C=C4)C=C3)cc1
REMARK SMILES IDX 29 1 28 2 26 3 27 4 25 5 1 6 2 7 3 8 4 9 24 10 5 11 6 12
REMARK SMILES IDX 7 13 23 14 8 15 9 16 10 17 11 18 12 19 13 20 14 21 15 22
REMARK SMILES IDX 22 23 16 24 21 25 17 26 20 27 18 28 19 29 30 30 31 31 32 32
REMARK SMILES IDX 33 33 34 34 35 35 99 36 36 37 98 38 37 39 38 40 39 41 92 42
REMARK SMILES IDX 40 43 97 44 91 45 93 46 41 47 96 48 90 49 89 50 42 52 76 53
REMARK SMILES IDX 55 54 75 55 56 56 59 57 74 58 94 59 57 60 58 61 73 63 95 64
REMARK SMILES IDX 60 65 43 66 44 67 53 68 45 69 46 70 52 71 54 72 47 73 48 74
REMARK SMILES IDX 49 75 50 76 51 77 77 78 78 79 87 80 79 81 80 82 86 83 88 84
REMARK SMILES IDX 81 85 82 86 83 87 84 88 85 89 61 90 62 91 71 92 63 93 64 94
REMARK SMILES IDX 70 95 72 96 65 97 66 98 67 99 68 100 69 101
REMARK H PARENT 93 51 59 62
REMARK Flexibility Score: inf
ROOT
ATOM      1  C   UNL A   1      36.149  32.769  30.150  1.00  0.00     0.275 C 
ENDROOT
BRANCH   1   2
ATOM      2  O   UNL A   1      35.076  31.880  29.749  1.00  0.00    -0.458 OA
BRANCH   2   3
ATOM      3  C   UNL A   1      34.910  31.837  28.402  1.00  0.00     0.338 C 
ATOM      4  O   UNL A   1      35.820  32.036  27.610  1.00  0.00    -0.246 OA
BRANCH   3   5
ATOM      5  C   UNL A   1      33.537  31.728  27.850  1.00  0.00     0.063 A 
ATOM      6  C   UNL A   1      33.236  34.203  28.427  1.00  0.00     0.045 C 
ATOM      7  C   UNL A   1      32.824  32.935  27.723  1.00  0.00    -0.037 A 
ATOM      8  C   UNL A   1      31.686  32.964  26.905  1.00  0.00     0.005 A 
ATOM      9  C   UNL A   1      31.312  31.847  26.146  1.00  0.00     0.012 A 
ATOM     10  C   UNL A   1      33.109  30.583  27.136  1.00  0.00     0.028 A 
ATOM     11  C   UNL A   1      32.023  30.646  26.229  1.00  0.00     0.018 A 
BRANCH  11  12
ATOM     12  C   UNL A   1      31.648  29.506  25.373  1.00  0.00     0.134 A 
ATOM     13  C   UNL A   1      30.709  29.339  24.381  1.00  0.00     0.051 A 
ATOM     14  O   UNL A   1      32.324  28.313  25.549  1.00  0.00    -0.457 OA
ATOM     15  C   UNL A   1      30.831  28.006  23.923  1.00  0.00     0.051 A 
ATOM     16  C   UNL A   1      31.808  27.363  24.679  1.00  0.00     0.128 A 
BRANCH  16  17
ATOM     17  C   UNL A   1      32.204  25.990  24.538  1.00  0.00     0.066 C 
ATOM     18  C   UNL A   1      32.866  25.414  23.513  1.00  0.00     0.080 C 
BRANCH  18  19
ATOM     19  C   UNL A   1      33.283  26.131  22.360  1.00  0.00     0.099 C 
ATOM     20  N   UNL A   1      33.679  26.640  21.384  1.00  0.00    -0.193 NA
ENDBRANCH  18  19
BRANCH  18  21
ATOM     21  C   UNL A   1      33.180  23.921  23.544  1.00  0.00     0.263 C 
ATOM     22  N   UNL A   1      34.400  23.636  22.731  1.00  0.00    -0.251 NA
ATOM     23  N   UNL A   1      33.362  23.412  24.933  1.00  0.00    -0.251 NA
ATOM     24  C   UNL A   1      35.197  23.103  23.593  1.00  0.00     0.086 A 
ATOM     25  C   UNL A   1      34.568  22.957  24.923  1.00  0.00     0.086 A 
ATOM     26  C   UNL A   1      36.581  22.656  23.394  1.00  0.00     0.030 A 
ATOM     27  C   UNL A   1      35.336  22.340  26.012  1.00  0.00     0.030 A 
ATOM     28  C   UNL A   1      37.219  22.128  24.449  1.00  0.00     0.002 A 
ATOM     29  C   UNL A   1      36.596  21.965  25.749  1.00  0.00     0.002 A 
ENDBRANCH  18  21
ENDBRANCH  16  17
ENDBRANCH  11  12
ENDBRANCH   3   5
ENDBRANCH   2   3
ENDBRANCH   1   2
BRANCH   1  30
ATOM     30  C   UNL A   1      37.425  32.064  30.655  1.00  0.00     0.275 C 
BRANCH  30  31
ATOM     31  O   UNL A   1      38.216  32.647  31.717  1.00  0.00    -0.458 OA
BRANCH  31  32
ATOM     32  C   UNL A   1      39.452  33.116  31.397  1.00  0.00     0.338 C 
ATOM     33  O   UNL A   1      39.812  34.259  31.617  1.00  0.00    -0.246 OA
BRANCH  32  34
ATOM     34  C   UNL A   1      40.344  31.964  31.094  1.00  0.00     0.060 A 
ATOM     35  C   UNL A   1      41.410  32.138  30.198  1.00  0.00     0.016 A 
ATOM     36  C   UNL A   1      40.326  30.892  31.985  1.00  0.00     0.016 A 
ATOM     37  C   UNL A   1      42.527  31.322  30.274  1.00  0.00     0.010 A 
ATOM     38  C   UNL A   1      41.497  30.235  32.216  1.00  0.00     0.010 A 
ATOM     39  C   UNL A   1      42.560  30.405  31.315  1.00  0.00    -0.014 A 
BRANCH  39  40
ATOM     40  C   UNL A   1      43.478  29.291  31.364  1.00  0.00     0.031 A 
ATOM     41  C   UNL A   1      43.124  28.040  30.667  1.00  0.00     0.074 A 
ATOM     42  C   UNL A   1      44.634  29.743  31.918  1.00  0.00     0.049 A 
ATOM     43  N   UNL A   1      43.699  26.918  30.881  1.00  0.00    -0.248 NA
ATOM     44  C   UNL A   1      42.048  27.884  29.686  1.00  0.00     0.031 C 
ATOM     45  C   UNL A   1      46.003  29.276  31.967  1.00  0.00     0.029 A 
ATOM     46  N   UNL A   1      44.681  30.882  32.759  1.00  0.00    -0.354 N 
ATOM     47  C   UNL A   1      43.407  26.083  29.812  1.00  0.00     0.074 A 
ATOM     48  C   UNL A   1      42.232  26.642  29.220  1.00  0.00     0.031 C 
ATOM     49  C   UNL A   1      46.606  29.838  33.040  1.00  0.00     0.029 A 
ATOM     50  C   UNL A   1      45.607  30.633  33.756  1.00  0.00     0.049 A 
ATOM     51  H   UNL A   1      44.148  31.703  32.653  1.00  0.00     0.167 HD
ATOM     52  C   UNL A   1      44.352  25.159  29.470  1.00  0.00     0.037 A 
ATOM     53  C   UNL A   1      45.068  30.372  34.985  1.00  0.00     0.037 A 
ATOM     54  C   UNL A   1      45.437  25.273  30.446  1.00  0.00     0.049 A 
ATOM     55  C   UNL A   1      45.213  28.884  35.225  1.00  0.00     0.074 A 
ATOM     56  C   UNL A   1      46.614  26.001  30.426  1.00  0.00     0.029 A 
ATOM     57  N   UNL A   1      45.152  25.006  31.779  1.00  0.00    -0.354 N 
ATOM     58  N   UNL A   1      45.057  27.954  34.314  1.00  0.00    -0.248 NA
ATOM     59  C   UNL A   1      45.817  28.392  36.456  1.00  0.00     0.031 C 
ATOM     60  C   UNL A   1      46.977  26.251  31.781  1.00  0.00     0.029 A 
ATOM     61  C   UNL A   1      45.990  25.731  32.609  1.00  0.00     0.049 A 
ATOM     62  H   UNL A   1      44.453  24.387  32.091  1.00  0.00     0.167 HD
ATOM     63  C   UNL A   1      45.631  26.793  34.770  1.00  0.00     0.074 A 
ATOM     64  C   UNL A   1      46.076  27.120  36.118  1.00  0.00     0.031 C 
ATOM     65  C   UNL A   1      45.822  25.645  34.049  1.00  0.00     0.037 A 
BRANCH  52  66
ATOM     66  C   UNL A   1      44.503  24.359  28.187  1.00  0.00     0.058 A 
ATOM     67  C   UNL A   1      43.652  23.246  27.977  1.00  0.00     0.135 A 
ATOM     68  C   UNL A   1      45.447  24.566  27.158  1.00  0.00     0.135 A 
ATOM     69  F   UNL A   1      42.677  22.935  28.844  1.00  0.00    -0.206 F 
ATOM     70  C   UNL A   1      43.750  22.391  26.879  1.00  0.00     0.059 A 
ATOM     71  C   UNL A   1      45.559  23.721  26.037  1.00  0.00     0.059 A 
ATOM     72  F   UNL A   1      46.300  25.595  27.178  1.00  0.00    -0.206 F 
ATOM     73  C   UNL A   1      44.711  22.629  25.912  1.00  0.00     0.060 A 
BRANCH  73  74
ATOM     74  S   UNL A   1      44.800  21.504  24.506  1.00  0.00     0.124 S 
ATOM     75  O   UNL A   1      43.790  20.507  24.849  1.00  0.00    -0.237 OA
ATOM     76  O   UNL A   1      44.468  22.380  23.387  1.00  0.00    -0.237 OA
ATOM     77  O   UNL A   1      46.179  21.026  24.534  1.00  0.00    -0.744 OA
ENDBRANCH  73  74
ENDBRANCH  52  66
BRANCH  53  78
ATOM     78  C   UNL A   1      43.914  31.287  35.349  1.00  0.00     0.058 A 
ATOM     79  C   UNL A   1      42.654  30.682  35.598  1.00  0.00     0.135 A 
ATOM     80  C   UNL A   1      44.016  32.638  35.710  1.00  0.00     0.135 A 
ATOM     81  F   UNL A   1      42.448  29.399  35.255  1.00  0.00    -0.206 F 
ATOM     82  C   UNL A   1      41.617  31.322  36.280  1.00  0.00     0.059 A 
ATOM     83  C   UNL A   1      42.967  33.319  36.372  1.00  0.00     0.059 A 
ATOM     84  F   UNL A   1      45.159  33.308  35.507  1.00  0.00    -0.206 F 
ATOM     85  C   UNL A   1      41.786  32.640  36.687  1.00  0.00     0.060 A 
BRANCH  85  86
ATOM     86  S   UNL A   1      40.529  33.356  37.791  1.00  0.00     0.124 S 
ATOM     87  O   UNL A   1      41.212  34.539  38.304  1.00  0.00    -0.237 OA
ATOM     88  O   UNL A   1      39.430  33.619  36.866  1.00  0.00    -0.237 OA
ATOM     89  O   UNL A   1      40.295  32.296  38.767  1.00  0.00    -0.744 OA
ENDBRANCH  85  86
ENDBRANCH  53  78
BRANCH  65  90
ATOM     90  C   UNL A   1      45.950  24.287  34.698  1.00  0.00     0.058 A 
ATOM     91  C   UNL A   1      44.845  23.464  34.969  1.00  0.00     0.135 A 
ATOM     92  C   UNL A   1      47.220  23.696  34.916  1.00  0.00     0.135 A 
ATOM     93  F   UNL A   1      43.595  23.822  34.646  1.00  0.00    -0.206 F 
ATOM     94  C   UNL A   1      44.979  22.216  35.558  1.00  0.00     0.059 A 
ATOM     95  C   UNL A   1      47.377  22.406  35.400  1.00  0.00     0.059 A 
ATOM     96  F   UNL A   1      48.368  24.340  34.658  1.00  0.00    -0.206 F 
ATOM     97  C   UNL A   1      46.249  21.700  35.778  1.00  0.00     0.060 A 
BRANCH  97  98
ATOM     98  S   UNL A   1      46.412  20.102  36.571  1.00  0.00     0.124 S 
ATOM     99  O   UNL A   1      45.606  19.267  35.686  1.00  0.00    -0.237 OA
ATOM    100  O   UNL A   1      47.852  19.868  36.522  1.00  0.00    -0.237 OA
ATOM    101  O   UNL A   1      45.863  20.325  37.904  1.00  0.00    -0.744 OA
ENDBRANCH  97  98
ENDBRANCH  65  90
ENDBRANCH  39  40
ENDBRANCH  32  34
ENDBRANCH  31  32
ENDBRANCH  30  31
ENDBRANCH   1  30
TORSDOF 18
ENDMDL
MODEL 3
REMARK VINA RESULT:     -11.2      5.844      9.071
REMARK SMILES Cc1ccc(-c2ccc(/C=C(\C#N)C3N=c4ccccc4=N3)o2)cc1C(=O)OCCOC(=O)c1ccc(-c2c3nc(c(-c4c(F)cc(S(=O)(=O)[O-])cc4F)c4ccc([nH]4)c(-c4c(F)cc(S(=O)(=O)[O-])cc4F)c4nc(c(-c5c(F)cc(S(=O)(=O)[O-])cc5F)c5ccc2[nH]5)C=C4)C=C3)cc1
REMARK SMILES IDX 29 1 28 2 26 3 27 4 25 5 1 6 2 7 3 8 4 9 24 10 5 11 6 12
REMARK SMILES IDX 7 13 23 14 8 15 9 16 10 17 11 18 12 19 13 20 14 21 15 22
REMARK SMILES IDX 22 23 16 24 21 25 17 26 20 27 18 28 19 29 30 30 31 31 32 32
REMARK SMILES IDX 33 33 34 34 35 35 99 36 36 37 98 38 37 39 38 40 39 41 92 42
REMARK SMILES IDX 40 43 97 44 91 45 93 46 41 47 96 48 90 49 89 50 42 52 76 53
REMARK SMILES IDX 55 54 75 55 56 56 59 57 74 58 94 59 57 60 58 61 73 63 95 64
REMARK SMILES IDX 60 65 43 66 44 67 53 68 45 69 46 70 52 71 54 72 47 73 48 74
REMARK SMILES IDX 49 75 50 76 51 77 77 78 78 79 87 80 79 81 80 82 86 83 88 84
REMARK SMILES IDX 81 85 82 86 83 87 84 88 85 89 61 90 62 91 71 92 63 93 64 94
REMARK SMILES IDX 70 95 72 96 65 97 66 98 67 99 68 100 69 101
REMARK H PARENT 93 51 59 62
REMARK Flexibility Score: inf
ROOT
ATOM      1  C   UNL A   1      43.463  22.208  25.373  1.00  0.00     0.275 C 
ENDROOT
BRANCH   1   2
ATOM      2  O   UNL A   1      42.200  21.495  25.399  1.00  0.00    -0.458 OA
BRANCH   2   3
ATOM      3  C   UNL A   1      41.669  21.421  26.647  1.00  0.00     0.338 C 
ATOM      4  O   UNL A   1      41.920  20.513  27.427  1.00  0.00    -0.246 OA
BRANCH   3   5
ATOM      5  C   UNL A   1      40.596  22.371  27.030  1.00  0.00     0.063 A 
ATOM      6  C   UNL A   1      42.332  23.560  28.486  1.00  0.00     0.045 C 
ATOM      7  C   UNL A   1      41.000  23.490  27.783  1.00  0.00    -0.037 A 
ATOM      8  C   UNL A   1      40.132  24.586  27.881  1.00  0.00     0.005 A 
ATOM      9  C   UNL A   1      38.927  24.621  27.168  1.00  0.00     0.012 A 
ATOM     10  C   UNL A   1      39.342  22.385  26.373  1.00  0.00     0.028 A 
ATOM     11  C   UNL A   1      38.518  23.536  26.386  1.00  0.00     0.018 A 
BRANCH  11  12
ATOM     12  C   UNL A   1      37.277  23.623  25.596  1.00  0.00     0.134 A 
ATOM     13  C   UNL A   1      36.907  23.139  24.362  1.00  0.00     0.051 A 
ATOM     14  O   UNL A   1      36.218  24.336  26.127  1.00  0.00    -0.457 OA
ATOM     15  C   UNL A   1      35.572  23.551  24.144  1.00  0.00     0.051 A 
ATOM     16  C   UNL A   1      35.163  24.327  25.226  1.00  0.00     0.128 A 
BRANCH  16  17
ATOM     17  C   UNL A   1      33.880  24.956  25.365  1.00  0.00     0.066 C 
ATOM     18  C   UNL A   1      32.836  24.562  26.126  1.00  0.00     0.080 C 
BRANCH  18  19
ATOM     19  C   UNL A   1      32.866  23.397  26.937  1.00  0.00     0.099 C 
ATOM     20  N   UNL A   1      32.798  22.462  27.638  1.00  0.00    -0.193 NA
ENDBRANCH  18  19
BRANCH  18  21
ATOM     21  C   UNL A   1      31.538  25.364  26.123  1.00  0.00     0.263 C 
ATOM     22  N   UNL A   1      31.823  26.802  26.405  1.00  0.00    -0.251 NA
ATOM     23  N   UNL A   1      30.797  25.233  24.835  1.00  0.00    -0.251 NA
ATOM     24  C   UNL A   1      31.364  27.393  25.355  1.00  0.00     0.086 A 
ATOM     25  C   UNL A   1      30.734  26.447  24.409  1.00  0.00     0.086 A 
ATOM     26  C   UNL A   1      31.404  28.824  25.028  1.00  0.00     0.030 A 
ATOM     27  C   UNL A   1      30.137  26.967  23.172  1.00  0.00     0.030 A 
ATOM     28  C   UNL A   1      30.859  29.209  23.866  1.00  0.00     0.002 A 
ATOM     29  C   UNL A   1      30.222  28.286  22.947  1.00  0.00     0.002 A 
ENDBRANCH  18  21
ENDBRANCH  16  17
ENDBRANCH  11  12
ENDBRANCH   3   5
ENDBRANCH   2   3
ENDBRANCH   1   2
BRANCH   1  30
ATOM     30  C   UNL A   1      43.407  23.607  24.723  1.00  0.00     0.275 C 
BRANCH  30  31
ATOM     31  O   UNL A   1      44.310  24.653  25.152  1.00  0.00    -0.458 OA
BRANCH  31  32
ATOM     32  C   UNL A   1      43.781  25.695  25.848  1.00  0.00     0.338 C 
ATOM     33  O   UNL A   1      42.646  26.105  25.683  1.00  0.00    -0.246 OA
BRANCH  32  34
ATOM     34  C   UNL A   1      44.649  25.981  27.023  1.00  0.00     0.060 A 
ATOM     35  C   UNL A   1      44.236  26.934  27.966  1.00  0.00     0.016 A 
ATOM     36  C   UNL A   1      45.625  25.037  27.341  1.00  0.00     0.016 A 
ATOM     37  C   UNL A   1      44.695  26.870  29.272  1.00  0.00     0.010 A 
ATOM     38  C   UNL A   1      45.907  24.829  28.657  1.00  0.00     0.010 A 
ATOM     39  C   UNL A   1      45.498  25.786  29.598  1.00  0.00    -0.014 A 
BRANCH  39  40
ATOM     40  C   UNL A   1      46.300  25.724  30.798  1.00  0.00     0.031 A 
ATOM     41  C   UNL A   1      45.725  25.116  32.013  1.00  0.00     0.074 A 
ATOM     42  C   UNL A   1      47.564  26.092  30.460  1.00  0.00     0.049 A 
ATOM     43  N   UNL A   1      46.214  25.268  33.185  1.00  0.00    -0.248 NA
ATOM     44  C   UNL A   1      44.505  24.307  32.068  1.00  0.00     0.031 C 
ATOM     45  C   UNL A   1      48.872  25.949  31.061  1.00  0.00     0.029 A 
ATOM     46  N   UNL A   1      47.846  26.891  29.325  1.00  0.00    -0.354 N 
ATOM     47  C   UNL A   1      45.686  24.272  33.995  1.00  0.00     0.074 A 
ATOM     48  C   UNL A   1      44.495  23.847  33.327  1.00  0.00     0.031 C 
ATOM     49  C   UNL A   1      49.681  26.909  30.554  1.00  0.00     0.029 A 
ATOM     50  C   UNL A   1      48.881  27.746  29.657  1.00  0.00     0.049 A 
ATOM     51  H   UNL A   1      47.386  26.846  28.456  1.00  0.00     0.167 HD
ATOM     52  C   UNL A   1      46.474  23.816  35.012  1.00  0.00     0.037 A 
ATOM     53  C   UNL A   1      48.508  29.047  29.854  1.00  0.00     0.037 A 
ATOM     54  C   UNL A   1      47.698  24.619  35.000  1.00  0.00     0.049 A 
ATOM     55  C   UNL A   1      48.541  29.296  31.346  1.00  0.00     0.074 A 
ATOM     56  C   UNL A   1      48.925  24.409  34.393  1.00  0.00     0.029 A 
ATOM     57  N   UNL A   1      47.590  25.985  35.226  1.00  0.00    -0.354 N 
ATOM     58  N   UNL A   1      48.161  28.439  32.263  1.00  0.00    -0.248 NA
ATOM     59  C   UNL A   1      49.270  30.435  31.887  1.00  0.00     0.031 C 
ATOM     60  C   UNL A   1      49.507  25.690  34.170  1.00  0.00     0.029 A 
ATOM     61  C   UNL A   1      48.608  26.666  34.581  1.00  0.00     0.049 A 
ATOM     62  H   UNL A   1      46.888  26.410  35.769  1.00  0.00     0.167 HD
ATOM     63  C   UNL A   1      48.681  28.832  33.472  1.00  0.00     0.074 A 
ATOM     64  C   UNL A   1      49.350  30.092  33.181  1.00  0.00     0.031 C 
ATOM     65  C   UNL A   1      48.648  28.117  34.639  1.00  0.00     0.037 A 
BRANCH  52  66
ATOM     66  C   UNL A   1      46.354  22.543  35.833  1.00  0.00     0.058 A 
ATOM     67  C   UNL A   1      46.082  22.653  37.219  1.00  0.00     0.135 A 
ATOM     68  C   UNL A   1      46.527  21.217  35.382  1.00  0.00     0.135 A 
ATOM     69  F   UNL A   1      45.857  23.841  37.798  1.00  0.00    -0.206 F 
ATOM     70  C   UNL A   1      46.029  21.562  38.087  1.00  0.00     0.059 A 
ATOM     71  C   UNL A   1      46.471  20.101  36.238  1.00  0.00     0.059 A 
ATOM     72  F   UNL A   1      46.751  20.932  34.095  1.00  0.00    -0.206 F 
ATOM     73  C   UNL A   1      46.231  20.286  37.593  1.00  0.00     0.060 A 
BRANCH  73  74
ATOM     74  S   UNL A   1      46.148  18.903  38.748  1.00  0.00     0.124 S 
ATOM     75  O   UNL A   1      47.537  18.457  38.789  1.00  0.00    -0.237 OA
ATOM     76  O   UNL A   1      45.653  19.543  39.962  1.00  0.00    -0.237 OA
ATOM     77  O   UNL A   1      45.218  17.977  38.110  1.00  0.00    -0.744 OA
ENDBRANCH  73  74
ENDBRANCH  52  66
BRANCH  53  78
ATOM     78  C   UNL A   1      47.516  29.555  28.825  1.00  0.00     0.058 A 
ATOM     79  C   UNL A   1      46.229  29.933  29.290  1.00  0.00     0.135 A 
ATOM     80  C   UNL A   1      47.814  29.929  27.507  1.00  0.00     0.135 A 
ATOM     81  F   UNL A   1      45.837  29.590  30.529  1.00  0.00    -0.206 F 
ATOM     82  C   UNL A   1      45.354  30.739  28.558  1.00  0.00     0.059 A 
ATOM     83  C   UNL A   1      46.931  30.718  26.732  1.00  0.00     0.059 A 
ATOM     84  F   UNL A   1      48.999  29.612  26.965  1.00  0.00    -0.206 F 
ATOM     85  C   UNL A   1      45.720  31.151  27.282  1.00  0.00     0.060 A 
BRANCH  85  86
ATOM     86  S   UNL A   1      44.684  32.403  26.463  1.00  0.00     0.124 S 
ATOM     87  O   UNL A   1      45.652  33.095  25.620  1.00  0.00    -0.237 OA
ATOM     88  O   UNL A   1      43.714  31.573  25.752  1.00  0.00    -0.237 OA
ATOM     89  O   UNL A   1      44.154  33.182  27.577  1.00  0.00    -0.744 OA
ENDBRANCH  85  86
ENDBRANCH  53  78
BRANCH  65  90
ATOM     90  C   UNL A   1      48.739  28.770  35.998  1.00  0.00     0.058 A 
ATOM     91  C   UNL A   1      47.631  29.342  36.644  1.00  0.00     0.135 A 
ATOM     92  C   UNL A   1      49.924  28.691  36.773  1.00  0.00     0.135 A 
ATOM     93  F   UNL A   1      46.405  29.325  36.104  1.00  0.00    -0.206 F 
ATOM     94  C   UNL A   1      47.728  29.932  37.895  1.00  0.00     0.059 A 
ATOM     95  C   UNL A   1      50.009  29.174  38.070  1.00  0.00     0.059 A 
ATOM     96  F   UNL A   1      51.049  28.128  36.311  1.00  0.00    -0.206 F 
ATOM     97  C   UNL A   1      48.923  29.851  38.596  1.00  0.00     0.060 A 
BRANCH  97  98
ATOM     98  S   UNL A   1      49.048  30.645  40.197  1.00  0.00     0.124 S 
ATOM     99  O   UNL A   1      49.928  31.767  39.886  1.00  0.00    -0.237 OA
ATOM    100  O   UNL A   1      47.660  30.991  40.488  1.00  0.00    -0.237 OA
ATOM    101  O   UNL A   1      49.621  29.608  41.048  1.00  0.00    -0.744 OA
ENDBRANCH  97  98
ENDBRANCH  65  90
ENDBRANCH  39  40
ENDBRANCH  32  34
ENDBRANCH  31  32
ENDBRANCH  30  31
ENDBRANCH   1  30
TORSDOF 18
ENDMDL
