MODEL 1
REMARK VINA RESULT:     -11.7      0.000      0.000
REMARK SMILES O=C(OCCOC(=O)[C@@H]1C[N@@H+](CC(=O)c2ccc[nH]2)CC[NH2+]1)c1ccc(-c2c3nc(c(-c4c(F)cc(S(=O)(=O)[O-])cc4F)c4ccc([nH]4)c(-c4c(F)cc(S(=O)(=O)[O-])cc4F)c4nc(c(-c5c(F)cc(S(=O)(=O)[O-])cc5F)c5ccc2[nH]5)C=C4)C=C3)cc1
REMARK SMILES IDX 4 1 3 2 2 3 1 4 23 5 24 6 88 7 25 8 87 9 26 10 27 11 28 12
REMARK SMILES IDX 81 13 29 14 86 15 80 16 82 17 30 18 85 19 79 20 78 21 31 23
REMARK SMILES IDX 65 24 44 25 64 26 45 27 48 28 63 29 83 30 46 31 47 32 62 34
REMARK SMILES IDX 84 35 49 36 32 37 33 38 42 39 34 40 35 41 41 42 43 43 36 44
REMARK SMILES IDX 37 45 38 46 39 47 40 48 66 49 67 50 76 51 68 52 69 53 75 54
REMARK SMILES IDX 77 55 70 56 71 57 72 58 73 59 74 60 50 61 51 62 60 63 52 64
REMARK SMILES IDX 53 65 59 66 61 67 54 68 55 69 56 70 57 71 58 72 5 73 6 74
REMARK SMILES IDX 7 75 8 76 9 77 10 78 22 79 11 80 21 81 20 84 12 86 13 87
REMARK SMILES IDX 14 88 15 89 16 90 19 91 17 92 18 93
REMARK H PARENT 82 22 48 33 22 82 22 83 11 85 19 94
REMARK Flexibility Score: inf
ROOT
ATOM      1  C   UNL A   1      34.564  32.062  27.796  1.00  0.00     0.275 C 
ENDROOT
BRANCH   1   2
ATOM      2  O   UNL A   1      35.834  31.388  27.691  1.00  0.00    -0.458 OA
BRANCH   2   3
ATOM      3  C   UNL A   1      35.882  30.043  27.769  1.00  0.00     0.338 C 
ATOM      4  O   UNL A   1      35.007  29.310  27.333  1.00  0.00    -0.246 OA
BRANCH   3   5
ATOM      5  C   UNL A   1      37.200  29.526  28.227  1.00  0.00     0.060 A 
ATOM      6  C   UNL A   1      38.365  29.683  27.469  1.00  0.00     0.016 A 
ATOM      7  C   UNL A   1      37.245  28.837  29.448  1.00  0.00     0.016 A 
ATOM      8  C   UNL A   1      39.553  29.116  27.890  1.00  0.00     0.010 A 
ATOM      9  C   UNL A   1      38.430  28.240  29.863  1.00  0.00     0.010 A 
ATOM     10  C   UNL A   1      39.571  28.363  29.063  1.00  0.00    -0.014 A 
BRANCH  10  11
ATOM     11  C   UNL A   1      40.834  27.689  29.400  1.00  0.00     0.031 A 
ATOM     12  C   UNL A   1      41.018  26.389  28.594  1.00  0.00     0.074 A 
ATOM     13  C   UNL A   1      41.533  28.290  30.416  1.00  0.00     0.049 A 
ATOM     14  N   UNL A   1      41.563  25.260  28.931  1.00  0.00    -0.248 NA
ATOM     15  C   UNL A   1      40.403  26.294  27.240  1.00  0.00     0.031 C 
ATOM     16  C   UNL A   1      41.133  29.559  31.073  1.00  0.00     0.029 A 
ATOM     17  N   UNL A   1      42.682  27.988  31.115  1.00  0.00    -0.354 N 
ATOM     18  C   UNL A   1      41.592  24.439  27.774  1.00  0.00     0.074 A 
ATOM     19  C   UNL A   1      40.723  25.066  26.825  1.00  0.00     0.031 C 
ATOM     20  C   UNL A   1      41.958  29.863  32.097  1.00  0.00     0.029 A 
ATOM     21  C   UNL A   1      42.984  28.850  32.208  1.00  0.00     0.049 A 
ATOM     22  H   UNL A   1      43.257  27.227  30.873  1.00  0.00     0.167 HD
ATOM     23  C   UNL A   1      42.466  23.396  27.618  1.00  0.00     0.037 A 
ATOM     24  C   UNL A   1      43.961  28.723  33.163  1.00  0.00     0.037 A 
ATOM     25  C   UNL A   1      43.288  23.295  28.780  1.00  0.00     0.049 A 
ATOM     26  C   UNL A   1      44.743  27.550  32.738  1.00  0.00     0.074 A 
ATOM     27  C   UNL A   1      43.054  22.857  30.055  1.00  0.00     0.029 A 
ATOM     28  N   UNL A   1      44.462  24.012  28.757  1.00  0.00    -0.354 N 
ATOM     29  N   UNL A   1      45.523  27.514  31.698  1.00  0.00    -0.248 NA
ATOM     30  C   UNL A   1      44.535  26.279  33.439  1.00  0.00     0.031 C 
ATOM     31  C   UNL A   1      43.834  23.727  30.845  1.00  0.00     0.029 A 
ATOM     32  C   UNL A   1      44.660  24.503  30.023  1.00  0.00     0.049 A 
ATOM     33  H   UNL A   1      45.049  24.147  27.979  1.00  0.00     0.167 HD
ATOM     34  C   UNL A   1      45.613  26.169  31.438  1.00  0.00     0.074 A 
ATOM     35  C   UNL A   1      45.269  25.484  32.665  1.00  0.00     0.031 C 
ATOM     36  C   UNL A   1      45.441  25.714  30.170  1.00  0.00     0.037 A 
BRANCH  23  37
ATOM     37  C   UNL A   1      42.914  22.582  26.422  1.00  0.00     0.058 A 
ATOM     38  C   UNL A   1      42.467  21.235  26.343  1.00  0.00     0.135 A 
ATOM     39  C   UNL A   1      44.002  22.909  25.602  1.00  0.00     0.135 A 
ATOM     40  F   UNL A   1      41.368  20.834  27.006  1.00  0.00    -0.206 F 
ATOM     41  C   UNL A   1      43.171  20.244  25.666  1.00  0.00     0.059 A 
ATOM     42  C   UNL A   1      44.696  21.936  24.869  1.00  0.00     0.059 A 
ATOM     43  F   UNL A   1      44.477  24.159  25.544  1.00  0.00    -0.206 F 
ATOM     44  C   UNL A   1      44.316  20.599  24.970  1.00  0.00     0.060 A 
BRANCH  44  45
ATOM     45  S   UNL A   1      45.321  19.284  24.249  1.00  0.00     0.124 S 
ATOM     46  O   UNL A   1      46.655  19.873  24.295  1.00  0.00    -0.237 OA
ATOM     47  O   UNL A   1      45.091  18.173  25.170  1.00  0.00    -0.237 OA
ATOM     48  O   UNL A   1      44.745  19.113  22.919  1.00  0.00    -0.744 OA
ENDBRANCH  44  45
ENDBRANCH  23  37
BRANCH  24  49
ATOM     49  C   UNL A   1      44.306  29.320  34.518  1.00  0.00     0.058 A 
ATOM     50  C   UNL A   1      43.500  29.317  35.664  1.00  0.00     0.135 A 
ATOM     51  C   UNL A   1      45.624  29.815  34.746  1.00  0.00     0.135 A 
ATOM     52  F   UNL A   1      42.193  29.043  35.595  1.00  0.00    -0.206 F 
ATOM     53  C   UNL A   1      44.009  29.590  36.949  1.00  0.00     0.059 A 
ATOM     54  C   UNL A   1      46.167  30.041  36.009  1.00  0.00     0.059 A 
ATOM     55  F   UNL A   1      46.469  30.060  33.735  1.00  0.00    -0.206 F 
ATOM     56  C   UNL A   1      45.361  29.884  37.118  1.00  0.00     0.060 A 
BRANCH  56  57
ATOM     57  S   UNL A   1      46.102  29.923  38.764  1.00  0.00     0.124 S 
ATOM     58  O   UNL A   1      47.381  29.261  38.542  1.00  0.00    -0.237 OA
ATOM     59  O   UNL A   1      46.165  31.355  39.046  1.00  0.00    -0.237 OA
ATOM     60  O   UNL A   1      45.140  29.183  39.579  1.00  0.00    -0.744 OA
ENDBRANCH  56  57
ENDBRANCH  24  49
BRANCH  36  61
ATOM     61  C   UNL A   1      45.739  26.735  29.075  1.00  0.00     0.058 A 
ATOM     62  C   UNL A   1      47.047  27.208  28.879  1.00  0.00     0.135 A 
ATOM     63  C   UNL A   1      44.759  27.327  28.261  1.00  0.00     0.135 A 
ATOM     64  F   UNL A   1      48.057  26.692  29.598  1.00  0.00    -0.206 F 
ATOM     65  C   UNL A   1      47.352  28.209  27.947  1.00  0.00     0.059 A 
ATOM     66  C   UNL A   1      45.031  28.324  27.318  1.00  0.00     0.059 A 
ATOM     67  F   UNL A   1      43.487  26.951  28.357  1.00  0.00    -0.206 F 
ATOM     68  C   UNL A   1      46.337  28.763  27.169  1.00  0.00     0.060 A 
BRANCH  68  69
ATOM     69  S   UNL A   1      46.746  30.038  25.954  1.00  0.00     0.124 S 
ATOM     70  O   UNL A   1      46.750  29.288  24.703  1.00  0.00    -0.237 OA
ATOM     71  O   UNL A   1      45.646  30.982  26.120  1.00  0.00    -0.237 OA
ATOM     72  O   UNL A   1      48.054  30.524  26.389  1.00  0.00    -0.744 OA
ENDBRANCH  68  69
ENDBRANCH  36  61
ENDBRANCH  10  11
ENDBRANCH   3   5
ENDBRANCH   2   3
ENDBRANCH   1   2
BRANCH   1  73
ATOM     73  C   UNL A   1      34.570  33.513  28.268  1.00  0.00     0.274 C 
BRANCH  73  74
ATOM     74  O   UNL A   1      33.824  33.709  29.482  1.00  0.00    -0.457 OA
BRANCH  74  75
ATOM     75  C   UNL A   1      33.211  34.929  29.615  1.00  0.00     0.371 C 
ATOM     76  O   UNL A   1      32.540  35.454  28.734  1.00  0.00    -0.245 OA
BRANCH  75  77
ATOM     77  C   UNL A   1      33.642  35.647  30.901  1.00  0.00     0.348 C 
ATOM     78  C   UNL A   1      33.483  34.829  32.200  1.00  0.00     0.341 C 
ATOM     79  N   UNL A   1      33.017  36.987  31.064  1.00  0.00    -0.325 N 
ATOM     80  N   UNL A   1      34.143  35.438  33.363  1.00  0.00    -0.318 N 
ATOM     81  C   UNL A   1      33.706  37.680  32.173  1.00  0.00     0.323 C 
ATOM     82  H   UNL A   1      32.026  36.883  31.283  1.00  0.00     0.347 HD
ATOM     83  H   UNL A   1      33.102  37.525  30.201  1.00  0.00     0.347 HD
ATOM     84  C   UNL A   1      33.817  36.869  33.492  1.00  0.00     0.324 C 
ATOM     85  H   UNL A   1      33.727  34.992  34.180  1.00  0.00     0.348 HD
BRANCH  80  86
ATOM     86  C   UNL A   1      35.560  35.074  33.565  1.00  0.00     0.346 C 
BRANCH  86  87
ATOM     87  C   UNL A   1      35.971  33.643  33.197  1.00  0.00     0.232 C 
ATOM     88  O   UNL A   1      35.625  32.692  33.902  1.00  0.00    -0.286 OA
BRANCH  87  89
ATOM     89  C   UNL A   1      36.808  33.415  32.022  1.00  0.00     0.088 A 
ATOM     90  C   UNL A   1      37.334  32.267  31.451  1.00  0.00     0.031 A 
ATOM     91  N   UNL A   1      37.159  34.456  31.184  1.00  0.00    -0.359 N 
ATOM     92  C   UNL A   1      37.859  32.610  30.179  1.00  0.00     0.020 A 
ATOM     93  C   UNL A   1      37.740  33.972  30.043  1.00  0.00     0.083 A 
ATOM     94  H   UNL A   1      37.012  35.411  31.379  1.00  0.00     0.166 HD
ENDBRANCH  87  89
ENDBRANCH  86  87
ENDBRANCH  80  86
ENDBRANCH  75  77
ENDBRANCH  74  75
ENDBRANCH  73  74
ENDBRANCH   1  73
TORSDOF 17
ENDMDL
MODEL 2
REMARK VINA RESULT:     -11.1      3.053      8.964
REMARK SMILES O=C(OCCOC(=O)[C@@H]1C[N@@H+](CC(=O)c2ccc[nH]2)CC[NH2+]1)c1ccc(-c2c3nc(c(-c4c(F)cc(S(=O)(=O)[O-])cc4F)c4ccc([nH]4)c(-c4c(F)cc(S(=O)(=O)[O-])cc4F)c4nc(c(-c5c(F)cc(S(=O)(=O)[O-])cc5F)c5ccc2[nH]5)C=C4)C=C3)cc1
REMARK SMILES IDX 4 1 3 2 2 3 1 4 23 5 24 6 88 7 25 8 87 9 26 10 27 11 28 12
REMARK SMILES IDX 81 13 29 14 86 15 80 16 82 17 30 18 85 19 79 20 78 21 31 23
REMARK SMILES IDX 65 24 44 25 64 26 45 27 48 28 63 29 83 30 46 31 47 32 62 34
REMARK SMILES IDX 84 35 49 36 32 37 33 38 42 39 34 40 35 41 41 42 43 43 36 44
REMARK SMILES IDX 37 45 38 46 39 47 40 48 66 49 67 50 76 51 68 52 69 53 75 54
REMARK SMILES IDX 77 55 70 56 71 57 72 58 73 59 74 60 50 61 51 62 60 63 52 64
REMARK SMILES IDX 53 65 59 66 61 67 54 68 55 69 56 70 57 71 58 72 5 73 6 74
REMARK SMILES IDX 7 75 8 76 9 77 10 78 22 79 11 80 21 81 20 84 12 86 13 87
REMARK SMILES IDX 14 88 15 89 16 90 19 91 17 92 18 93
REMARK H PARENT 82 22 48 33 22 82 22 83 11 85 19 94
REMARK Flexibility Score: inf
ROOT
ATOM      1  C   UNL A   1      34.352  32.545  28.052  1.00  0.00     0.275 C 
ENDROOT
BRANCH   1   2
ATOM      2  O   UNL A   1      34.540  31.383  28.886  1.00  0.00    -0.458 OA
BRANCH   2   3
ATOM      3  C   UNL A   1      34.966  30.230  28.334  1.00  0.00     0.338 C 
ATOM      4  O   UNL A   1      34.292  29.560  27.566  1.00  0.00    -0.246 OA
BRANCH   3   5
ATOM      5  C   UNL A   1      36.412  29.965  28.565  1.00  0.00     0.060 A 
ATOM      6  C   UNL A   1      37.379  30.215  27.585  1.00  0.00     0.016 A 
ATOM      7  C   UNL A   1      36.790  29.420  29.801  1.00  0.00     0.016 A 
ATOM      8  C   UNL A   1      38.700  29.878  27.808  1.00  0.00     0.010 A 
ATOM      9  C   UNL A   1      38.113  29.052  30.020  1.00  0.00     0.010 A 
ATOM     10  C   UNL A   1      39.054  29.261  29.007  1.00  0.00    -0.014 A 
BRANCH  10  11
ATOM     11  C   UNL A   1      40.451  28.821  29.141  1.00  0.00     0.031 A 
ATOM     12  C   UNL A   1      41.379  29.985  29.538  1.00  0.00     0.074 A 
ATOM     13  C   UNL A   1      40.659  27.510  28.794  1.00  0.00     0.049 A 
ATOM     14  N   UNL A   1      42.608  30.234  29.202  1.00  0.00    -0.248 NA
ATOM     15  C   UNL A   1      40.818  31.103  30.347  1.00  0.00     0.031 C 
ATOM     16  C   UNL A   1      39.582  26.564  28.410  1.00  0.00     0.029 A 
ATOM     17  N   UNL A   1      41.769  26.701  28.675  1.00  0.00    -0.354 N 
ATOM     18  C   UNL A   1      43.034  31.361  29.951  1.00  0.00     0.074 A 
ATOM     19  C   UNL A   1      41.847  31.938  30.503  1.00  0.00     0.031 C 
ATOM     20  C   UNL A   1      40.088  25.371  28.034  1.00  0.00     0.029 A 
ATOM     21  C   UNL A   1      41.530  25.399  28.147  1.00  0.00     0.049 A 
ATOM     22  H   UNL A   1      42.667  27.003  28.938  1.00  0.00     0.167 HD
ATOM     23  C   UNL A   1      44.353  31.635  30.208  1.00  0.00     0.037 A 
ATOM     24  C   UNL A   1      42.437  24.437  27.781  1.00  0.00     0.037 A 
ATOM     25  C   UNL A   1      45.166  30.630  29.602  1.00  0.00     0.049 A 
ATOM     26  C   UNL A   1      43.742  24.988  28.182  1.00  0.00     0.074 A 
ATOM     27  C   UNL A   1      45.513  30.366  28.306  1.00  0.00     0.029 A 
ATOM     28  N   UNL A   1      45.456  29.534  30.380  1.00  0.00    -0.354 N 
ATOM     29  N   UNL A   1      44.142  25.132  29.410  1.00  0.00    -0.248 NA
ATOM     30  C   UNL A   1      44.612  25.550  27.143  1.00  0.00     0.031 C 
ATOM     31  C   UNL A   1      45.550  28.956  28.260  1.00  0.00     0.029 A 
ATOM     32  C   UNL A   1      45.437  28.437  29.556  1.00  0.00     0.049 A 
ATOM     33  H   UNL A   1      45.643  29.536  31.347  1.00  0.00     0.167 HD
ATOM     34  C   UNL A   1      45.121  26.088  29.295  1.00  0.00     0.074 A 
ATOM     35  C   UNL A   1      45.562  26.069  27.917  1.00  0.00     0.031 C 
ATOM     36  C   UNL A   1      45.133  27.148  30.144  1.00  0.00     0.037 A 
BRANCH  23  37
ATOM     37  C   UNL A   1      45.056  32.546  31.191  1.00  0.00     0.058 A 
ATOM     38  C   UNL A   1      44.847  32.301  32.575  1.00  0.00     0.135 A 
ATOM     39  C   UNL A   1      45.580  33.806  30.870  1.00  0.00     0.135 A 
ATOM     40  F   UNL A   1      44.447  31.093  33.008  1.00  0.00    -0.206 F 
ATOM     41  C   UNL A   1      44.953  33.295  33.542  1.00  0.00     0.059 A 
ATOM     42  C   UNL A   1      45.744  34.808  31.836  1.00  0.00     0.059 A 
ATOM     43  F   UNL A   1      45.875  34.134  29.606  1.00  0.00    -0.206 F 
ATOM     44  C   UNL A   1      45.355  34.564  33.153  1.00  0.00     0.060 A 
BRANCH  44  45
ATOM     45  S   UNL A   1      45.312  35.889  34.377  1.00  0.00     0.124 S 
ATOM     46  O   UNL A   1      44.157  35.508  35.183  1.00  0.00    -0.237 OA
ATOM     47  O   UNL A   1      46.611  35.753  35.031  1.00  0.00    -0.237 OA
ATOM     48  O   UNL A   1      45.153  37.091  33.564  1.00  0.00    -0.744 OA
ENDBRANCH  44  45
ENDBRANCH  23  37
BRANCH  24  49
ATOM     49  C   UNL A   1      42.455  23.143  26.983  1.00  0.00     0.058 A 
ATOM     50  C   UNL A   1      42.894  22.981  25.661  1.00  0.00     0.135 A 
ATOM     51  C   UNL A   1      42.148  21.915  27.639  1.00  0.00     0.135 A 
ATOM     52  F   UNL A   1      43.066  24.032  24.851  1.00  0.00    -0.206 F 
ATOM     53  C   UNL A   1      43.187  21.718  25.110  1.00  0.00     0.059 A 
ATOM     54  C   UNL A   1      42.476  20.657  27.138  1.00  0.00     0.059 A 
ATOM     55  F   UNL A   1      41.545  21.887  28.836  1.00  0.00    -0.206 F 
ATOM     56  C   UNL A   1      43.040  20.567  25.882  1.00  0.00     0.060 A 
BRANCH  56  57
ATOM     57  S   UNL A   1      43.702  18.984  25.319  1.00  0.00     0.124 S 
ATOM     58  O   UNL A   1      43.869  19.211  23.889  1.00  0.00    -0.237 OA
ATOM     59  O   UNL A   1      44.935  18.867  26.095  1.00  0.00    -0.237 OA
ATOM     60  O   UNL A   1      42.655  18.035  25.691  1.00  0.00    -0.744 OA
ENDBRANCH  56  57
ENDBRANCH  24  49
BRANCH  36  61
ATOM     61  C   UNL A   1      44.442  26.907  31.483  1.00  0.00     0.058 A 
ATOM     62  C   UNL A   1      44.922  25.925  32.365  1.00  0.00     0.135 A 
ATOM     63  C   UNL A   1      43.266  27.558  31.893  1.00  0.00     0.135 A 
ATOM     64  F   UNL A   1      46.049  25.258  32.070  1.00  0.00    -0.206 F 
ATOM     65  C   UNL A   1      44.270  25.608  33.564  1.00  0.00     0.059 A 
ATOM     66  C   UNL A   1      42.594  27.269  33.085  1.00  0.00     0.059 A 
ATOM     67  F   UNL A   1      42.726  28.510  31.138  1.00  0.00    -0.206 F 
ATOM     68  C   UNL A   1      43.104  26.285  33.917  1.00  0.00     0.060 A 
BRANCH  68  69
ATOM     69  S   UNL A   1      42.282  25.884  35.477  1.00  0.00     0.124 S 
ATOM     70  O   UNL A   1      42.768  24.535  35.748  1.00  0.00    -0.237 OA
ATOM     71  O   UNL A   1      42.787  26.926  36.365  1.00  0.00    -0.237 OA
ATOM     72  O   UNL A   1      40.860  25.976  35.153  1.00  0.00    -0.744 OA
ENDBRANCH  68  69
ENDBRANCH  36  61
ENDBRANCH  10  11
ENDBRANCH   3   5
ENDBRANCH   2   3
ENDBRANCH   1   2
BRANCH   1  73
ATOM     73  C   UNL A   1      34.363  33.912  28.731  1.00  0.00     0.274 C 
BRANCH  73  74
ATOM     74  O   UNL A   1      33.089  34.263  29.299  1.00  0.00    -0.457 OA
BRANCH  74  75
ATOM     75  C   UNL A   1      32.883  35.602  29.519  1.00  0.00     0.371 C 
ATOM     76  O   UNL A   1      32.486  36.380  28.659  1.00  0.00    -0.245 OA
BRANCH  75  77
ATOM     77  C   UNL A   1      33.411  36.043  30.890  1.00  0.00     0.348 C 
ATOM     78  C   UNL A   1      32.845  35.266  32.098  1.00  0.00     0.341 C 
ATOM     79  N   UNL A   1      33.288  37.507  31.125  1.00  0.00    -0.325 N 
ATOM     80  N   UNL A   1      33.559  35.530  33.354  1.00  0.00    -0.318 N 
ATOM     81  C   UNL A   1      34.065  37.841  32.336  1.00  0.00     0.323 C 
ATOM     82  H   UNL A   1      32.308  37.755  31.261  1.00  0.00     0.347 HD
ATOM     83  H   UNL A   1      33.644  38.025  30.320  1.00  0.00     0.347 HD
ATOM     84  C   UNL A   1      33.750  36.972  33.584  1.00  0.00     0.324 C 
ATOM     85  H   UNL A   1      32.933  35.219  34.096  1.00  0.00     0.348 HD
BRANCH  80  86
ATOM     86  C   UNL A   1      34.728  34.668  33.625  1.00  0.00     0.346 C 
BRANCH  86  87
ATOM     87  C   UNL A   1      35.004  33.535  32.630  1.00  0.00     0.232 C 
ATOM     88  O   UNL A   1      34.187  32.623  32.478  1.00  0.00    -0.286 OA
BRANCH  87  89
ATOM     89  C   UNL A   1      36.261  33.522  31.886  1.00  0.00     0.088 A 
ATOM     90  C   UNL A   1      36.883  32.558  31.107  1.00  0.00     0.031 A 
ATOM     91  N   UNL A   1      37.050  34.653  31.800  1.00  0.00    -0.359 N 
ATOM     92  C   UNL A   1      37.960  33.175  30.422  1.00  0.00     0.020 A 
ATOM     93  C   UNL A   1      38.041  34.470  30.873  1.00  0.00     0.083 A 
ATOM     94  H   UNL A   1      36.918  35.474  32.328  1.00  0.00     0.166 HD
ENDBRANCH  87  89
ENDBRANCH  86  87
ENDBRANCH  80  86
ENDBRANCH  75  77
ENDBRANCH  74  75
ENDBRANCH  73  74
ENDBRANCH   1  73
TORSDOF 17
ENDMDL
MODEL 3
REMARK VINA RESULT:     -11.0      3.768      5.746
REMARK SMILES O=C(OCCOC(=O)[C@@H]1C[N@@H+](CC(=O)c2ccc[nH]2)CC[NH2+]1)c1ccc(-c2c3nc(c(-c4c(F)cc(S(=O)(=O)[O-])cc4F)c4ccc([nH]4)c(-c4c(F)cc(S(=O)(=O)[O-])cc4F)c4nc(c(-c5c(F)cc(S(=O)(=O)[O-])cc5F)c5ccc2[nH]5)C=C4)C=C3)cc1
REMARK SMILES IDX 4 1 3 2 2 3 1 4 23 5 24 6 88 7 25 8 87 9 26 10 27 11 28 12
REMARK SMILES IDX 81 13 29 14 86 15 80 16 82 17 30 18 85 19 79 20 78 21 31 23
REMARK SMILES IDX 65 24 44 25 64 26 45 27 48 28 63 29 83 30 46 31 47 32 62 34
REMARK SMILES IDX 84 35 49 36 32 37 33 38 42 39 34 40 35 41 41 42 43 43 36 44
REMARK SMILES IDX 37 45 38 46 39 47 40 48 66 49 67 50 76 51 68 52 69 53 75 54
REMARK SMILES IDX 77 55 70 56 71 57 72 58 73 59 74 60 50 61 51 62 60 63 52 64
REMARK SMILES IDX 53 65 59 66 61 67 54 68 55 69 56 70 57 71 58 72 5 73 6 74
REMARK SMILES IDX 7 75 8 76 9 77 10 78 22 79 11 80 21 81 20 84 12 86 13 87
REMARK SMILES IDX 14 88 15 89 16 90 19 91 17 92 18 93
REMARK H PARENT 82 22 48 33 22 82 22 83 11 85 19 94
REMARK Flexibility Score: inf
ROOT
ATOM      1  C   UNL A   1      34.231  29.200  27.490  1.00  0.00     0.275 C 
ENDROOT
BRANCH   1   2
ATOM      2  O   UNL A   1      35.311  30.048  27.051  1.00  0.00    -0.458 OA
BRANCH   2   3
ATOM      3  C   UNL A   1      36.153  30.579  27.960  1.00  0.00     0.338 C 
ATOM      4  O   UNL A   1      35.892  31.574  28.620  1.00  0.00    -0.246 OA
BRANCH   3   5
ATOM      5  C   UNL A   1      37.328  29.715  28.250  1.00  0.00     0.060 A 
ATOM      6  C   UNL A   1      37.400  28.916  29.397  1.00  0.00     0.016 A 
ATOM      7  C   UNL A   1      38.399  29.739  27.345  1.00  0.00     0.016 A 
ATOM      8  C   UNL A   1      38.543  28.192  29.672  1.00  0.00     0.010 A 
ATOM      9  C   UNL A   1      39.564  29.035  27.631  1.00  0.00     0.010 A 
ATOM     10  C   UNL A   1      39.635  28.287  28.810  1.00  0.00    -0.014 A 
BRANCH  10  11
ATOM     11  C   UNL A   1      40.863  27.586  29.214  1.00  0.00     0.031 A 
ATOM     12  C   UNL A   1      41.063  26.283  28.417  1.00  0.00     0.074 A 
ATOM     13  C   UNL A   1      41.518  28.171  30.267  1.00  0.00     0.049 A 
ATOM     14  N   UNL A   1      41.565  25.142  28.782  1.00  0.00    -0.248 NA
ATOM     15  C   UNL A   1      40.521  26.201  27.032  1.00  0.00     0.031 C 
ATOM     16  C   UNL A   1      41.110  29.449  30.903  1.00  0.00     0.029 A 
ATOM     17  N   UNL A   1      42.621  27.845  31.027  1.00  0.00    -0.354 N 
ATOM     18  C   UNL A   1      41.639  24.321  27.627  1.00  0.00     0.074 A 
ATOM     19  C   UNL A   1      40.837  24.966  26.633  1.00  0.00     0.031 C 
ATOM     20  C   UNL A   1      41.884  29.735  31.971  1.00  0.00     0.029 A 
ATOM     21  C   UNL A   1      42.881  28.700  32.137  1.00  0.00     0.049 A 
ATOM     22  H   UNL A   1      43.192  27.072  30.816  1.00  0.00     0.167 HD
ATOM     23  C   UNL A   1      42.498  23.259  27.517  1.00  0.00     0.037 A 
ATOM     24  C   UNL A   1      43.802  28.551  33.144  1.00  0.00     0.037 A 
ATOM     25  C   UNL A   1      43.253  23.141  28.722  1.00  0.00     0.049 A 
ATOM     26  C   UNL A   1      44.580  27.362  32.760  1.00  0.00     0.074 A 
ATOM     27  C   UNL A   1      42.940  22.707  29.982  1.00  0.00     0.029 A 
ATOM     28  N   UNL A   1      44.441  23.832  28.765  1.00  0.00    -0.354 N 
ATOM     29  N   UNL A   1      45.415  27.310  31.765  1.00  0.00    -0.248 NA
ATOM     30  C   UNL A   1      44.307  26.095  33.447  1.00  0.00     0.031 C 
ATOM     31  C   UNL A   1      43.694  23.560  30.815  1.00  0.00     0.029 A 
ATOM     32  C   UNL A   1      44.581  24.318  30.041  1.00  0.00     0.049 A 
ATOM     33  H   UNL A   1      45.073  23.954  28.020  1.00  0.00     0.167 HD
ATOM     34  C   UNL A   1      45.490  25.963  31.507  1.00  0.00     0.074 A 
ATOM     35  C   UNL A   1      45.065  25.285  32.713  1.00  0.00     0.031 C 
ATOM     36  C   UNL A   1      45.378  25.512  30.231  1.00  0.00     0.037 A 
BRANCH  23  37
ATOM     37  C   UNL A   1      42.993  22.436  26.347  1.00  0.00     0.058 A 
ATOM     38  C   UNL A   1      42.619  21.065  26.306  1.00  0.00     0.135 A 
ATOM     39  C   UNL A   1      44.065  22.796  25.519  1.00  0.00     0.135 A 
ATOM     40  F   UNL A   1      41.540  20.625  26.978  1.00  0.00    -0.206 F 
ATOM     41  C   UNL A   1      43.377  20.095  25.659  1.00  0.00     0.059 A 
ATOM     42  C   UNL A   1      44.812  21.842  24.817  1.00  0.00     0.059 A 
ATOM     43  F   UNL A   1      44.473  24.068  25.426  1.00  0.00    -0.206 F 
ATOM     44  C   UNL A   1      44.504  20.489  24.956  1.00  0.00     0.060 A 
BRANCH  44  45
ATOM     45  S   UNL A   1      45.580  19.210  24.276  1.00  0.00     0.124 S 
ATOM     46  O   UNL A   1      45.397  18.129  25.238  1.00  0.00    -0.237 OA
ATOM     47  O   UNL A   1      45.000  18.982  22.955  1.00  0.00    -0.237 OA
ATOM     48  O   UNL A   1      46.894  19.844  24.272  1.00  0.00    -0.744 OA
ENDBRANCH  44  45
ENDBRANCH  23  37
BRANCH  24  49
ATOM     49  C   UNL A   1      44.085  29.141  34.516  1.00  0.00     0.058 A 
ATOM     50  C   UNL A   1      43.291  29.010  35.664  1.00  0.00     0.135 A 
ATOM     51  C   UNL A   1      45.340  29.774  34.757  1.00  0.00     0.135 A 
ATOM     52  F   UNL A   1      42.023  28.592  35.589  1.00  0.00    -0.206 F 
ATOM     53  C   UNL A   1      43.774  29.298  36.955  1.00  0.00     0.059 A 
ATOM     54  C   UNL A   1      45.861  30.021  36.025  1.00  0.00     0.059 A 
ATOM     55  F   UNL A   1      46.146  30.146  33.752  1.00  0.00    -0.206 F 
ATOM     56  C   UNL A   1      45.085  29.738  37.130  1.00  0.00     0.060 A 
BRANCH  56  57
ATOM     57  S   UNL A   1      45.826  29.809  38.775  1.00  0.00     0.124 S 
ATOM     58  O   UNL A   1      45.088  28.776  39.490  1.00  0.00    -0.237 OA
ATOM     59  O   UNL A   1      47.231  29.516  38.499  1.00  0.00    -0.237 OA
ATOM     60  O   UNL A   1      45.562  31.183  39.200  1.00  0.00    -0.744 OA
ENDBRANCH  56  57
ENDBRANCH  24  49
BRANCH  36  61
ATOM     61  C   UNL A   1      45.757  26.526  29.155  1.00  0.00     0.058 A 
ATOM     62  C   UNL A   1      47.080  26.985  29.044  1.00  0.00     0.135 A 
ATOM     63  C   UNL A   1      44.838  27.128  28.279  1.00  0.00     0.135 A 
ATOM     64  F   UNL A   1      48.036  26.460  29.826  1.00  0.00    -0.206 F 
ATOM     65  C   UNL A   1      47.456  27.979  28.131  1.00  0.00     0.059 A 
ATOM     66  C   UNL A   1      45.181  28.119  27.354  1.00  0.00     0.059 A 
ATOM     67  F   UNL A   1      43.559  26.766  28.294  1.00  0.00    -0.206 F 
ATOM     68  C   UNL A   1      46.499  28.543  27.288  1.00  0.00     0.060 A 
BRANCH  68  69
ATOM     69  S   UNL A   1      46.999  29.809  26.100  1.00  0.00     0.124 S 
ATOM     70  O   UNL A   1      46.406  31.018  26.661  1.00  0.00    -0.237 OA
ATOM     71  O   UNL A   1      48.455  29.732  26.166  1.00  0.00    -0.237 OA
ATOM     72  O   UNL A   1      46.409  29.357  24.842  1.00  0.00    -0.744 OA
ENDBRANCH  68  69
ENDBRANCH  36  61
ENDBRANCH  10  11
ENDBRANCH   3   5
ENDBRANCH   2   3
ENDBRANCH   1   2
BRANCH   1  73
ATOM     73  C   UNL A   1      33.468  28.417  26.424  1.00  0.00     0.274 C 
BRANCH  73  74
ATOM     74  O   UNL A   1      33.390  27.011  26.714  1.00  0.00    -0.457 OA
BRANCH  74  75
ATOM     75  C   UNL A   1      32.271  26.367  26.247  1.00  0.00     0.371 C 
ATOM     76  O   UNL A   1      31.735  25.428  26.824  1.00  0.00    -0.245 OA
BRANCH  75  77
ATOM     77  C   UNL A   1      31.904  26.817  24.826  1.00  0.00     0.348 C 
ATOM     78  C   UNL A   1      30.406  26.719  24.468  1.00  0.00     0.341 C 
ATOM     79  N   UNL A   1      32.724  26.162  23.772  1.00  0.00    -0.325 N 
ATOM     80  N   UNL A   1      30.057  27.398  23.213  1.00  0.00    -0.318 N 
ATOM     81  C   UNL A   1      32.473  26.866  22.497  1.00  0.00     0.323 C 
ATOM     82  H   UNL A   1      32.458  25.182  23.685  1.00  0.00     0.347 HD
ATOM     83  H   UNL A   1      33.714  26.208  24.014  1.00  0.00     0.347 HD
ATOM     84  C   UNL A   1      30.977  27.038  22.120  1.00  0.00     0.324 C 
ATOM     85  H   UNL A   1      29.152  27.018  22.938  1.00  0.00     0.348 HD
BRANCH  80  86
ATOM     86  C   UNL A   1      29.712  28.830  23.327  1.00  0.00     0.346 C 
BRANCH  86  87
ATOM     87  C   UNL A   1      28.288  29.236  22.930  1.00  0.00     0.232 C 
ATOM     88  O   UNL A   1      27.338  28.479  23.145  1.00  0.00    -0.286 OA
BRANCH  87  89
ATOM     89  C   UNL A   1      28.066  30.515  22.260  1.00  0.00     0.088 A 
ATOM     90  C   UNL A   1      28.001  31.820  22.723  1.00  0.00     0.031 A 
ATOM     91  N   UNL A   1      27.951  30.589  20.885  1.00  0.00    -0.359 N 
ATOM     92  C   UNL A   1      28.015  32.685  21.600  1.00  0.00     0.020 A 
ATOM     93  C   UNL A   1      27.981  31.895  20.477  1.00  0.00     0.083 A 
ATOM     94  H   UNL A   1      27.863  29.814  20.284  1.00  0.00     0.166 HD
ENDBRANCH  87  89
ENDBRANCH  86  87
ENDBRANCH  80  86
ENDBRANCH  75  77
ENDBRANCH  74  75
ENDBRANCH  73  74
ENDBRANCH   1  73
TORSDOF 17
ENDMDL
