MODEL 1
REMARK VINA RESULT:     -11.8      0.000      0.000
REMARK SMILES Cc1nccn1C1(C(=O)OCCOC(=O)c2ccc(-c3c4nc(c(-c5c(F)cc(S(=O)(=O)[O-])cc5F)c5ccc([nH]5)c(-c5c(F)cc(S(=O)(=O)[O-])cc5F)c5nc(c(-c6c(F)cc(S(=O)(=O)[O-])cc6F)c6ccc3[nH]6)C=C5)C=C4)cc2)CCN(C(=O)[C@@H]2C[C@H]2c2ccccc2)CC1
REMARK SMILES IDX 12 1 11 2 10 3 8 4 9 5 7 6 82 7 97 8 83 9 96 10 84 11 85 12
REMARK SMILES IDX 86 13 6 14 1 15 2 16 3 17 4 18 5 19 87 20 88 21 89 22 90 23
REMARK SMILES IDX 91 24 95 25 92 26 94 27 93 28 13 29 14 30 15 31 16 32 17 33
REMARK SMILES IDX 81 34 18 35 80 36 19 37 20 38 21 39 74 40 22 41 79 42 73 43
REMARK SMILES IDX 75 44 23 45 78 46 72 47 71 48 24 50 58 51 37 52 57 53 38 54
REMARK SMILES IDX 41 55 56 56 76 57 39 58 40 59 55 61 77 62 42 63 25 64 26 65
REMARK SMILES IDX 35 66 27 67 28 68 34 69 36 70 29 71 30 72 31 73 32 74 33 75
REMARK SMILES IDX 59 76 60 77 69 78 61 79 62 80 68 81 70 82 63 83 64 84 65 85
REMARK SMILES IDX 66 86 67 87 43 88 44 89 53 90 45 91 46 92 52 93 54 94 47 95
REMARK SMILES IDX 48 96 49 97 50 98 51 99
REMARK H PARENT 75 49 41 60
REMARK Flexibility Score: inf
ROOT
ATOM      1  C   UNL A   1      33.603  30.398  26.907  1.00  0.00     0.275 C 
ENDROOT
BRANCH   1   2
ATOM      2  C   UNL A   1      32.783  29.180  26.475  1.00  0.00     0.274 C 
BRANCH   2   3
ATOM      3  O   UNL A   1      33.563  28.252  25.683  1.00  0.00    -0.460 OA
BRANCH   3   4
ATOM      4  C   UNL A   1      33.279  28.179  24.345  1.00  0.00     0.332 C 
ATOM      5  O   UNL A   1      33.458  29.146  23.608  1.00  0.00    -0.249 OA
BRANCH   4   6
ATOM      6  C   UNL A   1      32.551  26.839  23.903  1.00  0.00     0.146 C 
ATOM      7  C   UNL A   1      33.005  26.385  22.472  1.00  0.00     0.062 C 
ATOM      8  C   UNL A   1      33.042  25.895  25.029  1.00  0.00     0.062 C 
ATOM      9  C   UNL A   1      33.512  24.946  22.270  1.00  0.00     0.122 C 
ATOM     10  C   UNL A   1      33.014  24.448  24.609  1.00  0.00     0.122 C 
ATOM     11  N   UNL A   1      33.924  24.282  23.497  1.00  0.00    -0.342 N 
ATOM     12  C   UNL A   1      35.048  23.451  23.439  1.00  0.00     0.226 C 
ATOM     13  O   UNL A   1      35.481  23.040  22.378  1.00  0.00    -0.275 OA
BRANCH   6  14
ATOM     14  N   UNL A   1      31.045  26.957  23.994  1.00  0.00    -0.318 N 
ATOM     15  C   UNL A   1      30.354  28.880  22.345  1.00  0.00     0.087 C 
ATOM     16  C   UNL A   1      30.136  27.733  23.259  1.00  0.00     0.106 A 
ATOM     17  N   UNL A   1      28.893  27.339  23.473  1.00  0.00    -0.242 NA
ATOM     18  C   UNL A   1      28.942  26.414  24.453  1.00  0.00     0.131 A 
ATOM     19  C   UNL A   1      30.241  26.187  24.816  1.00  0.00     0.108 A 
ENDBRANCH   6  14
BRANCH  12  20
ATOM     20  C   UNL A   1      35.848  23.109  24.661  1.00  0.00     0.087 C 
ATOM     21  C   UNL A   1      35.417  23.531  26.040  1.00  0.00     0.023 C 
ATOM     22  C   UNL A   1      36.712  24.040  25.462  1.00  0.00     0.032 C 
BRANCH  22  23
ATOM     23  C   UNL A   1      38.058  23.686  26.005  1.00  0.00    -0.044 A 
ATOM     24  C   UNL A   1      38.560  22.389  25.822  1.00  0.00     0.004 A 
ATOM     25  C   UNL A   1      38.690  24.514  26.946  1.00  0.00     0.004 A 
ATOM     26  C   UNL A   1      39.602  21.903  26.608  1.00  0.00     0.000 A 
ATOM     27  C   UNL A   1      39.735  24.031  27.734  1.00  0.00     0.000 A 
ATOM     28  C   UNL A   1      40.174  22.718  27.581  1.00  0.00     0.000 A 
ENDBRANCH  22  23
ENDBRANCH  12  20
ENDBRANCH   4   6
ENDBRANCH   3   4
ENDBRANCH   2   3
ENDBRANCH   1   2
BRANCH   1  29
ATOM     29  O   UNL A   1      34.903  30.021  27.367  1.00  0.00    -0.458 OA
BRANCH  29  30
ATOM     30  C   UNL A   1      35.594  31.054  27.887  1.00  0.00     0.338 C 
ATOM     31  O   UNL A   1      35.590  32.211  27.484  1.00  0.00    -0.246 OA
BRANCH  30  32
ATOM     32  C   UNL A   1      36.517  30.630  28.929  1.00  0.00     0.060 A 
ATOM     33  C   UNL A   1      37.444  31.596  29.338  1.00  0.00     0.016 A 
ATOM     34  C   UNL A   1      36.703  29.262  29.148  1.00  0.00     0.016 A 
ATOM     35  C   UNL A   1      38.682  31.175  29.744  1.00  0.00     0.010 A 
ATOM     36  C   UNL A   1      37.943  28.843  29.566  1.00  0.00     0.010 A 
ATOM     37  C   UNL A   1      38.941  29.804  29.742  1.00  0.00    -0.014 A 
BRANCH  37  38
ATOM     38  C   UNL A   1      40.328  29.410  29.854  1.00  0.00     0.031 A 
ATOM     39  C   UNL A   1      40.837  29.337  31.242  1.00  0.00     0.074 A 
ATOM     40  C   UNL A   1      41.026  29.066  28.756  1.00  0.00     0.049 A 
ATOM     41  N   UNL A   1      41.847  29.944  31.773  1.00  0.00    -0.248 NA
ATOM     42  C   UNL A   1      40.016  28.576  32.199  1.00  0.00     0.031 C 
ATOM     43  C   UNL A   1      40.533  28.872  27.386  1.00  0.00     0.029 A 
ATOM     44  N   UNL A   1      42.322  28.683  28.668  1.00  0.00    -0.354 N 
ATOM     45  C   UNL A   1      41.899  29.494  33.088  1.00  0.00     0.074 A 
ATOM     46  C   UNL A   1      40.672  28.783  33.336  1.00  0.00     0.031 C 
ATOM     47  C   UNL A   1      41.449  28.168  26.686  1.00  0.00     0.029 A 
ATOM     48  C   UNL A   1      42.621  27.973  27.520  1.00  0.00     0.049 A 
ATOM     49  H   UNL A   1      42.991  28.892  29.359  1.00  0.00     0.167 HD
ATOM     50  C   UNL A   1      43.034  29.545  33.834  1.00  0.00     0.037 A 
ATOM     51  C   UNL A   1      43.697  27.167  27.353  1.00  0.00     0.037 A 
ATOM     52  C   UNL A   1      43.985  30.489  33.319  1.00  0.00     0.049 A 
ATOM     53  C   UNL A   1      44.710  27.575  28.367  1.00  0.00     0.074 A 
ATOM     54  C   UNL A   1      43.978  31.859  33.140  1.00  0.00     0.029 A 
ATOM     55  N   UNL A   1      45.029  30.019  32.560  1.00  0.00    -0.354 N 
ATOM     56  N   UNL A   1      45.299  28.743  28.378  1.00  0.00    -0.248 NA
ATOM     57  C   UNL A   1      44.735  26.864  29.638  1.00  0.00     0.031 C 
ATOM     58  C   UNL A   1      44.704  32.083  31.935  1.00  0.00     0.029 A 
ATOM     59  C   UNL A   1      45.129  30.840  31.462  1.00  0.00     0.049 A 
ATOM     60  H   UNL A   1      45.597  29.242  32.763  1.00  0.00     0.167 HD
ATOM     61  C   UNL A   1      45.424  29.081  29.720  1.00  0.00     0.074 A 
ATOM     62  C   UNL A   1      45.142  27.846  30.448  1.00  0.00     0.031 C 
ATOM     63  C   UNL A   1      45.469  30.385  30.130  1.00  0.00     0.037 A 
BRANCH  50  64
ATOM     64  C   UNL A   1      43.374  28.493  34.852  1.00  0.00     0.058 A 
ATOM     65  C   UNL A   1      43.608  28.847  36.192  1.00  0.00     0.135 A 
ATOM     66  C   UNL A   1      43.726  27.171  34.491  1.00  0.00     0.135 A 
ATOM     67  F   UNL A   1      43.330  30.086  36.628  1.00  0.00    -0.206 F 
ATOM     68  C   UNL A   1      44.194  27.962  37.098  1.00  0.00     0.059 A 
ATOM     69  C   UNL A   1      44.254  26.257  35.390  1.00  0.00     0.059 A 
ATOM     70  F   UNL A   1      43.665  26.741  33.222  1.00  0.00    -0.206 F 
ATOM     71  C   UNL A   1      44.529  26.675  36.680  1.00  0.00     0.060 A 
BRANCH  71  72
ATOM     72  S   UNL A   1      45.415  25.576  37.799  1.00  0.00     0.124 S 
ATOM     73  O   UNL A   1      45.210  26.246  39.079  1.00  0.00    -0.237 OA
ATOM     74  O   UNL A   1      44.706  24.314  37.616  1.00  0.00    -0.237 OA
ATOM     75  O   UNL A   1      46.781  25.602  37.283  1.00  0.00    -0.744 OA
ENDBRANCH  71  72
ENDBRANCH  50  64
BRANCH  51  76
ATOM     76  C   UNL A   1      43.675  25.840  26.678  1.00  0.00     0.058 A 
ATOM     77  C   UNL A   1      44.250  25.649  25.413  1.00  0.00     0.135 A 
ATOM     78  C   UNL A   1      43.282  24.668  27.362  1.00  0.00     0.135 A 
ATOM     79  F   UNL A   1      44.693  26.703  24.709  1.00  0.00    -0.206 F 
ATOM     80  C   UNL A   1      44.432  24.374  24.863  1.00  0.00     0.059 A 
ATOM     81  C   UNL A   1      43.433  23.392  26.828  1.00  0.00     0.059 A 
ATOM     82  F   UNL A   1      42.811  24.715  28.618  1.00  0.00    -0.206 F 
ATOM     83  C   UNL A   1      44.027  23.249  25.583  1.00  0.00     0.060 A 
BRANCH  83  84
ATOM     84  S   UNL A   1      44.375  21.595  24.942  1.00  0.00     0.124 S 
ATOM     85  O   UNL A   1      43.197  20.852  25.374  1.00  0.00    -0.237 OA
ATOM     86  O   UNL A   1      44.487  21.840  23.508  1.00  0.00    -0.237 OA
ATOM     87  O   UNL A   1      45.623  21.229  25.608  1.00  0.00    -0.744 OA
ENDBRANCH  83  84
ENDBRANCH  51  76
BRANCH  63  88
ATOM     88  C   UNL A   1      45.586  31.450  29.066  1.00  0.00     0.058 A 
ATOM     89  C   UNL A   1      44.468  32.083  28.494  1.00  0.00     0.135 A 
ATOM     90  C   UNL A   1      46.845  31.979  28.750  1.00  0.00     0.135 A 
ATOM     91  F   UNL A   1      43.227  31.723  28.841  1.00  0.00    -0.206 F 
ATOM     92  C   UNL A   1      44.590  33.160  27.616  1.00  0.00     0.059 A 
ATOM     93  C   UNL A   1      46.992  33.075  27.899  1.00  0.00     0.059 A 
ATOM     94  F   UNL A   1      47.949  31.472  29.324  1.00  0.00    -0.206 F 
ATOM     95  C   UNL A   1      45.859  33.653  27.325  1.00  0.00     0.060 A 
BRANCH  95  96
ATOM     96  S   UNL A   1      46.006  35.118  26.279  1.00  0.00     0.124 S 
ATOM     97  O   UNL A   1      46.505  36.117  27.219  1.00  0.00    -0.237 OA
ATOM     98  O   UNL A   1      46.953  34.687  25.253  1.00  0.00    -0.237 OA
ATOM     99  O   UNL A   1      44.642  35.334  25.802  1.00  0.00    -0.744 OA
ENDBRANCH  95  96
ENDBRANCH  63  88
ENDBRANCH  37  38
ENDBRANCH  30  32
ENDBRANCH  29  30
ENDBRANCH   1  29
TORSDOF 17
ENDMDL
MODEL 2
REMARK VINA RESULT:     -11.7      4.934      6.781
REMARK SMILES Cc1nccn1C1(C(=O)OCCOC(=O)c2ccc(-c3c4nc(c(-c5c(F)cc(S(=O)(=O)[O-])cc5F)c5ccc([nH]5)c(-c5c(F)cc(S(=O)(=O)[O-])cc5F)c5nc(c(-c6c(F)cc(S(=O)(=O)[O-])cc6F)c6ccc3[nH]6)C=C5)C=C4)cc2)CCN(C(=O)[C@@H]2C[C@H]2c2ccccc2)CC1
REMARK SMILES IDX 12 1 11 2 10 3 8 4 9 5 7 6 82 7 97 8 83 9 96 10 84 11 85 12
REMARK SMILES IDX 86 13 6 14 1 15 2 16 3 17 4 18 5 19 87 20 88 21 89 22 90 23
REMARK SMILES IDX 91 24 95 25 92 26 94 27 93 28 13 29 14 30 15 31 16 32 17 33
REMARK SMILES IDX 81 34 18 35 80 36 19 37 20 38 21 39 74 40 22 41 79 42 73 43
REMARK SMILES IDX 75 44 23 45 78 46 72 47 71 48 24 50 58 51 37 52 57 53 38 54
REMARK SMILES IDX 41 55 56 56 76 57 39 58 40 59 55 61 77 62 42 63 25 64 26 65
REMARK SMILES IDX 35 66 27 67 28 68 34 69 36 70 29 71 30 72 31 73 32 74 33 75
REMARK SMILES IDX 59 76 60 77 69 78 61 79 62 80 68 81 70 82 63 83 64 84 65 85
REMARK SMILES IDX 66 86 67 87 43 88 44 89 53 90 45 91 46 92 52 93 54 94 47 95
REMARK SMILES IDX 48 96 49 97 50 98 51 99
REMARK H PARENT 75 49 41 60
REMARK Flexibility Score: inf
ROOT
ATOM      1  C   UNL A   1      37.214  33.398  35.295  1.00  0.00     0.275 C 
ENDROOT
BRANCH   1   2
ATOM      2  C   UNL A   1      35.787  33.727  34.849  1.00  0.00     0.274 C 
BRANCH   2   3
ATOM      3  O   UNL A   1      35.315  32.821  33.823  1.00  0.00    -0.460 OA
BRANCH   3   4
ATOM      4  C   UNL A   1      34.337  33.282  32.983  1.00  0.00     0.332 C 
ATOM      5  O   UNL A   1      33.155  33.019  33.186  1.00  0.00    -0.249 OA
BRANCH   4   6
ATOM      6  C   UNL A   1      34.882  34.001  31.676  1.00  0.00     0.146 C 
ATOM      7  C   UNL A   1      36.342  34.537  31.882  1.00  0.00     0.062 C 
ATOM      8  C   UNL A   1      34.799  32.819  30.678  1.00  0.00     0.062 C 
ATOM      9  C   UNL A   1      37.429  34.153  30.863  1.00  0.00     0.122 C 
ATOM     10  C   UNL A   1      35.755  32.981  29.525  1.00  0.00     0.122 C 
ATOM     11  N   UNL A   1      37.102  32.991  30.051  1.00  0.00    -0.342 N 
ATOM     12  C   UNL A   1      38.137  32.100  29.746  1.00  0.00     0.226 C 
ATOM     13  O   UNL A   1      39.306  32.418  29.869  1.00  0.00    -0.275 OA
BRANCH   6  14
ATOM     14  N   UNL A   1      33.952  35.098  31.205  1.00  0.00    -0.318 N 
ATOM     15  C   UNL A   1      33.776  36.818  33.181  1.00  0.00     0.087 C 
ATOM     16  C   UNL A   1      33.590  36.316  31.798  1.00  0.00     0.106 A 
ATOM     17  N   UNL A   1      32.966  37.098  30.934  1.00  0.00    -0.242 NA
ATOM     18  C   UNL A   1      32.770  36.366  29.819  1.00  0.00     0.131 A 
ATOM     19  C   UNL A   1      33.329  35.127  29.969  1.00  0.00     0.108 A 
ENDBRANCH   6  14
BRANCH  12  20
ATOM     20  C   UNL A   1      37.872  30.675  29.361  1.00  0.00     0.087 C 
ATOM     21  C   UNL A   1      37.207  29.705  30.302  1.00  0.00     0.023 C 
ATOM     22  C   UNL A   1      38.618  29.459  29.831  1.00  0.00     0.032 C 
BRANCH  22  23
ATOM     23  C   UNL A   1      39.012  28.317  28.953  1.00  0.00    -0.044 A 
ATOM     24  C   UNL A   1      39.039  27.016  29.478  1.00  0.00     0.004 A 
ATOM     25  C   UNL A   1      39.644  28.547  27.721  1.00  0.00     0.004 A 
ATOM     26  C   UNL A   1      39.743  25.998  28.841  1.00  0.00     0.000 A 
ATOM     27  C   UNL A   1      40.348  27.529  27.079  1.00  0.00     0.000 A 
ATOM     28  C   UNL A   1      40.417  26.261  27.651  1.00  0.00     0.000 A 
ENDBRANCH  22  23
ENDBRANCH  12  20
ENDBRANCH   4   6
ENDBRANCH   3   4
ENDBRANCH   2   3
ENDBRANCH   1   2
BRANCH   1  29
ATOM     29  O   UNL A   1      37.503  32.005  35.148  1.00  0.00    -0.458 OA
BRANCH  29  30
ATOM     30  C   UNL A   1      38.532  31.770  34.311  1.00  0.00     0.338 C 
ATOM     31  O   UNL A   1      38.912  32.496  33.401  1.00  0.00    -0.246 OA
BRANCH  30  32
ATOM     32  C   UNL A   1      39.090  30.438  34.486  1.00  0.00     0.060 A 
ATOM     33  C   UNL A   1      40.115  30.337  35.435  1.00  0.00     0.016 A 
ATOM     34  C   UNL A   1      38.896  29.489  33.478  1.00  0.00     0.016 A 
ATOM     35  C   UNL A   1      41.105  29.415  35.224  1.00  0.00     0.010 A 
ATOM     36  C   UNL A   1      39.887  28.558  33.275  1.00  0.00     0.010 A 
ATOM     37  C   UNL A   1      41.026  28.618  34.081  1.00  0.00    -0.014 A 
BRANCH  37  38
ATOM     38  C   UNL A   1      42.225  27.899  33.712  1.00  0.00     0.031 A 
ATOM     39  C   UNL A   1      42.826  27.103  34.806  1.00  0.00     0.074 A 
ATOM     40  C   UNL A   1      42.664  27.920  32.441  1.00  0.00     0.049 A 
ATOM     41  N   UNL A   1      44.024  27.155  35.289  1.00  0.00    -0.248 NA
ATOM     42  C   UNL A   1      41.912  26.216  35.546  1.00  0.00     0.031 C 
ATOM     43  C   UNL A   1      41.997  28.474  31.255  1.00  0.00     0.029 A 
ATOM     44  N   UNL A   1      43.760  27.320  31.918  1.00  0.00    -0.354 N 
ATOM     45  C   UNL A   1      44.069  26.172  36.273  1.00  0.00     0.074 A 
ATOM     46  C   UNL A   1      42.713  25.739  36.493  1.00  0.00     0.031 C 
ATOM     47  C   UNL A   1      42.571  27.956  30.147  1.00  0.00     0.029 A 
ATOM     48  C   UNL A   1      43.703  27.141  30.548  1.00  0.00     0.049 A 
ATOM     49  H   UNL A   1      44.529  27.037  32.465  1.00  0.00     0.167 HD
ATOM     50  C   UNL A   1      45.233  25.618  36.701  1.00  0.00     0.037 A 
ATOM     51  C   UNL A   1      44.452  26.262  29.839  1.00  0.00     0.037 A 
ATOM     52  C   UNL A   1      46.373  26.437  36.397  1.00  0.00     0.049 A 
ATOM     53  C   UNL A   1      45.640  25.929  30.674  1.00  0.00     0.074 A 
ATOM     54  C   UNL A   1      46.774  27.704  36.776  1.00  0.00     0.029 A 
ATOM     55  N   UNL A   1      47.135  26.118  35.299  1.00  0.00    -0.354 N 
ATOM     56  N   UNL A   1      46.561  26.795  31.009  1.00  0.00    -0.248 NA
ATOM     57  C   UNL A   1      45.573  24.746  31.523  1.00  0.00     0.031 C 
ATOM     58  C   UNL A   1      47.405  28.257  35.625  1.00  0.00     0.029 A 
ATOM     59  C   UNL A   1      47.371  27.289  34.620  1.00  0.00     0.049 A 
ATOM     60  H   UNL A   1      47.450  25.221  35.046  1.00  0.00     0.167 HD
ATOM     61  C   UNL A   1      46.923  26.465  32.309  1.00  0.00     0.074 A 
ATOM     62  C   UNL A   1      46.348  25.143  32.537  1.00  0.00     0.031 C 
ATOM     63  C   UNL A   1      47.413  27.403  33.176  1.00  0.00     0.037 A 
BRANCH  50  64
ATOM     64  C   UNL A   1      45.332  24.178  37.118  1.00  0.00     0.058 A 
ATOM     65  C   UNL A   1      45.733  23.840  38.422  1.00  0.00     0.135 A 
ATOM     66  C   UNL A   1      45.287  23.112  36.189  1.00  0.00     0.135 A 
ATOM     67  F   UNL A   1      45.832  24.784  39.371  1.00  0.00    -0.206 F 
ATOM     68  C   UNL A   1      46.107  22.540  38.766  1.00  0.00     0.059 A 
ATOM     69  C   UNL A   1      45.596  21.803  36.524  1.00  0.00     0.059 A 
ATOM     70  F   UNL A   1      45.035  23.314  34.887  1.00  0.00    -0.206 F 
ATOM     71  C   UNL A   1      46.052  21.533  37.803  1.00  0.00     0.060 A 
BRANCH  71  72
ATOM     72  S   UNL A   1      46.667  19.888  38.197  1.00  0.00     0.124 S 
ATOM     73  O   UNL A   1      48.092  20.148  38.368  1.00  0.00    -0.237 OA
ATOM     74  O   UNL A   1      45.925  19.564  39.411  1.00  0.00    -0.237 OA
ATOM     75  O   UNL A   1      46.305  19.103  37.020  1.00  0.00    -0.744 OA
ENDBRANCH  71  72
ENDBRANCH  50  64
BRANCH  51  76
ATOM     76  C   UNL A   1      43.949  25.417  28.722  1.00  0.00     0.058 A 
ATOM     77  C   UNL A   1      44.288  25.684  27.387  1.00  0.00     0.135 A 
ATOM     78  C   UNL A   1      43.298  24.186  28.961  1.00  0.00     0.135 A 
ATOM     79  F   UNL A   1      44.947  26.810  27.073  1.00  0.00    -0.206 F 
ATOM     80  C   UNL A   1      44.008  24.781  26.354  1.00  0.00     0.059 A 
ATOM     81  C   UNL A   1      42.990  23.282  27.948  1.00  0.00     0.059 A 
ATOM     82  F   UNL A   1      43.011  23.775  30.206  1.00  0.00    -0.206 F 
ATOM     83  C   UNL A   1      43.365  23.578  26.646  1.00  0.00     0.060 A 
BRANCH  83  84
ATOM     84  S   UNL A   1      43.115  22.350  25.343  1.00  0.00     0.124 S 
ATOM     85  O   UNL A   1      43.392  23.128  24.140  1.00  0.00    -0.237 OA
ATOM     86  O   UNL A   1      44.103  21.333  25.687  1.00  0.00    -0.237 OA
ATOM     87  O   UNL A   1      41.723  21.947  25.518  1.00  0.00    -0.744 OA
ENDBRANCH  83  84
ENDBRANCH  51  76
BRANCH  63  88
ATOM     88  C   UNL A   1      47.746  28.766  32.620  1.00  0.00     0.058 A 
ATOM     89  C   UNL A   1      46.811  29.814  32.560  1.00  0.00     0.135 A 
ATOM     90  C   UNL A   1      49.076  29.084  32.315  1.00  0.00     0.135 A 
ATOM     91  F   UNL A   1      45.547  29.626  32.955  1.00  0.00    -0.206 F 
ATOM     92  C   UNL A   1      47.165  31.107  32.173  1.00  0.00     0.059 A 
ATOM     93  C   UNL A   1      49.462  30.377  31.956  1.00  0.00     0.059 A 
ATOM     94  F   UNL A   1      50.034  28.149  32.429  1.00  0.00    -0.206 F 
ATOM     95  C   UNL A   1      48.496  31.381  31.875  1.00  0.00     0.060 A 
BRANCH  95  96
ATOM     96  S   UNL A   1      48.970  33.081  31.487  1.00  0.00     0.124 S 
ATOM     97  O   UNL A   1      50.298  32.904  30.907  1.00  0.00    -0.237 OA
ATOM     98  O   UNL A   1      47.925  33.502  30.557  1.00  0.00    -0.237 OA
ATOM     99  O   UNL A   1      48.940  33.748  32.786  1.00  0.00    -0.744 OA
ENDBRANCH  95  96
ENDBRANCH  63  88
ENDBRANCH  37  38
ENDBRANCH  30  32
ENDBRANCH  29  30
ENDBRANCH   1  29
TORSDOF 17
ENDMDL
MODEL 3
REMARK VINA RESULT:     -11.7      5.297     10.998
REMARK SMILES Cc1nccn1C1(C(=O)OCCOC(=O)c2ccc(-c3c4nc(c(-c5c(F)cc(S(=O)(=O)[O-])cc5F)c5ccc([nH]5)c(-c5c(F)cc(S(=O)(=O)[O-])cc5F)c5nc(c(-c6c(F)cc(S(=O)(=O)[O-])cc6F)c6ccc3[nH]6)C=C5)C=C4)cc2)CCN(C(=O)[C@@H]2C[C@H]2c2ccccc2)CC1
REMARK SMILES IDX 12 1 11 2 10 3 8 4 9 5 7 6 82 7 97 8 83 9 96 10 84 11 85 12
REMARK SMILES IDX 86 13 6 14 1 15 2 16 3 17 4 18 5 19 87 20 88 21 89 22 90 23
REMARK SMILES IDX 91 24 95 25 92 26 94 27 93 28 13 29 14 30 15 31 16 32 17 33
REMARK SMILES IDX 81 34 18 35 80 36 19 37 20 38 21 39 74 40 22 41 79 42 73 43
REMARK SMILES IDX 75 44 23 45 78 46 72 47 71 48 24 50 58 51 37 52 57 53 38 54
REMARK SMILES IDX 41 55 56 56 76 57 39 58 40 59 55 61 77 62 42 63 25 64 26 65
REMARK SMILES IDX 35 66 27 67 28 68 34 69 36 70 29 71 30 72 31 73 32 74 33 75
REMARK SMILES IDX 59 76 60 77 69 78 61 79 62 80 68 81 70 82 63 83 64 84 65 85
REMARK SMILES IDX 66 86 67 87 43 88 44 89 53 90 45 91 46 92 52 93 54 94 47 95
REMARK SMILES IDX 48 96 49 97 50 98 51 99
REMARK H PARENT 75 49 41 60
REMARK Flexibility Score: inf
ROOT
ATOM      1  C   UNL A   1      46.871  25.416  24.891  1.00  0.00     0.275 C 
ENDROOT
BRANCH   1   2
ATOM      2  C   UNL A   1      46.413  24.056  24.359  1.00  0.00     0.274 C 
BRANCH   2   3
ATOM      3  O   UNL A   1      44.971  23.972  24.251  1.00  0.00    -0.460 OA
BRANCH   3   4
ATOM      4  C   UNL A   1      44.426  22.723  24.121  1.00  0.00     0.332 C 
ATOM      5  O   UNL A   1      44.159  22.262  23.014  1.00  0.00    -0.249 OA
BRANCH   4   6
ATOM      6  C   UNL A   1      44.020  22.040  25.496  1.00  0.00     0.146 C 
ATOM      7  C   UNL A   1      44.885  22.586  26.686  1.00  0.00     0.062 C 
ATOM      8  C   UNL A   1      42.534  22.473  25.571  1.00  0.00     0.062 C 
ATOM      9  C   UNL A   1      44.175  23.122  27.941  1.00  0.00     0.122 C 
ATOM     10  C   UNL A   1      42.018  22.489  26.986  1.00  0.00     0.122 C 
ATOM     11  N   UNL A   1      42.776  23.467  27.734  1.00  0.00    -0.342 N 
ATOM     12  C   UNL A   1      42.284  24.602  28.387  1.00  0.00     0.226 C 
ATOM     13  O   UNL A   1      42.878  25.104  29.324  1.00  0.00    -0.275 OA
BRANCH   6  14
ATOM     14  N   UNL A   1      44.080  20.530  25.417  1.00  0.00    -0.318 N 
ATOM     15  C   UNL A   1      46.510  19.928  24.624  1.00  0.00     0.087 C 
ATOM     16  C   UNL A   1      45.153  19.663  25.161  1.00  0.00     0.106 A 
ATOM     17  N   UNL A   1      44.833  18.414  25.448  1.00  0.00    -0.242 NA
ATOM     18  C   UNL A   1      43.518  18.408  25.749  1.00  0.00     0.131 A 
ATOM     19  C   UNL A   1      43.023  19.682  25.702  1.00  0.00     0.108 A 
ENDBRANCH   6  14
BRANCH  12  20
ATOM     20  C   UNL A   1      41.065  25.330  27.904  1.00  0.00     0.087 C 
ATOM     21  C   UNL A   1      40.949  25.844  26.494  1.00  0.00     0.023 C 
ATOM     22  C   UNL A   1      40.935  26.805  27.655  1.00  0.00     0.032 C 
BRANCH  22  23
ATOM     23  C   UNL A   1      39.747  27.626  28.038  1.00  0.00    -0.044 A 
ATOM     24  C   UNL A   1      39.551  28.882  27.443  1.00  0.00     0.004 A 
ATOM     25  C   UNL A   1      39.002  27.314  29.185  1.00  0.00     0.004 A 
ATOM     26  C   UNL A   1      38.705  29.826  28.018  1.00  0.00     0.000 A 
ATOM     27  C   UNL A   1      38.152  28.257  29.764  1.00  0.00     0.000 A 
ATOM     28  C   UNL A   1      38.023  29.521  29.193  1.00  0.00     0.000 A 
ENDBRANCH  22  23
ENDBRANCH  12  20
ENDBRANCH   4   6
ENDBRANCH   3   4
ENDBRANCH   2   3
ENDBRANCH   1   2
BRANCH   1  29
ATOM     29  O   UNL A   1      45.965  25.930  25.870  1.00  0.00    -0.458 OA
BRANCH  29  30
ATOM     30  C   UNL A   1      45.412  27.104  25.505  1.00  0.00     0.338 C 
ATOM     31  O   UNL A   1      45.716  27.781  24.531  1.00  0.00    -0.246 OA
BRANCH  30  32
ATOM     32  C   UNL A   1      44.478  27.606  26.501  1.00  0.00     0.060 A 
ATOM     33  C   UNL A   1      43.531  28.522  26.028  1.00  0.00     0.016 A 
ATOM     34  C   UNL A   1      44.813  27.494  27.854  1.00  0.00     0.016 A 
ATOM     35  C   UNL A   1      43.099  29.505  26.878  1.00  0.00     0.010 A 
ATOM     36  C   UNL A   1      44.369  28.476  28.707  1.00  0.00     0.010 A 
ATOM     37  C   UNL A   1      43.617  29.525  28.173  1.00  0.00    -0.014 A 
BRANCH  37  38
ATOM     38  C   UNL A   1      43.405  30.737  28.933  1.00  0.00     0.031 A 
ATOM     39  C   UNL A   1      44.092  31.931  28.392  1.00  0.00     0.074 A 
ATOM     40  C   UNL A   1      42.571  30.738  29.989  1.00  0.00     0.049 A 
ATOM     41  N   UNL A   1      44.933  32.721  28.973  1.00  0.00    -0.248 NA
ATOM     42  C   UNL A   1      43.905  32.196  26.955  1.00  0.00     0.031 C 
ATOM     43  C   UNL A   1      41.668  29.670  30.438  1.00  0.00     0.029 A 
ATOM     44  N   UNL A   1      42.260  31.765  30.816  1.00  0.00    -0.354 N 
ATOM     45  C   UNL A   1      45.240  33.696  28.029  1.00  0.00     0.074 A 
ATOM     46  C   UNL A   1      44.707  33.241  26.771  1.00  0.00     0.031 C 
ATOM     47  C   UNL A   1      40.745  30.198  31.272  1.00  0.00     0.029 A 
ATOM     48  C   UNL A   1      41.069  31.594  31.499  1.00  0.00     0.049 A 
ATOM     49  H   UNL A   1      42.830  32.560  30.921  1.00  0.00     0.167 HD
ATOM     50  C   UNL A   1      45.726  34.918  28.370  1.00  0.00     0.037 A 
ATOM     51  C   UNL A   1      40.346  32.585  32.074  1.00  0.00     0.037 A 
ATOM     52  C   UNL A   1      46.305  34.929  29.683  1.00  0.00     0.049 A 
ATOM     53  C   UNL A   1      41.272  33.734  32.286  1.00  0.00     0.074 A 
ATOM     54  C   UNL A   1      47.378  34.281  30.266  1.00  0.00     0.029 A 
ATOM     55  N   UNL A   1      45.558  35.422  30.725  1.00  0.00    -0.354 N 
ATOM     56  N   UNL A   1      42.299  33.702  33.095  1.00  0.00    -0.248 NA
ATOM     57  C   UNL A   1      41.331  34.766  31.259  1.00  0.00     0.031 C 
ATOM     58  C   UNL A   1      46.973  34.016  31.605  1.00  0.00     0.029 A 
ATOM     59  C   UNL A   1      45.688  34.536  31.768  1.00  0.00     0.049 A 
ATOM     60  H   UNL A   1      45.028  36.251  30.725  1.00  0.00     0.167 HD
ATOM     61  C   UNL A   1      43.294  34.434  32.457  1.00  0.00     0.074 A 
ATOM     62  C   UNL A   1      42.609  35.138  31.377  1.00  0.00     0.031 C 
ATOM     63  C   UNL A   1      44.620  34.188  32.683  1.00  0.00     0.037 A 
BRANCH  50  64
ATOM     64  C   UNL A   1      45.377  36.163  27.604  1.00  0.00     0.058 A 
ATOM     65  C   UNL A   1      46.386  36.939  27.009  1.00  0.00     0.135 A 
ATOM     66  C   UNL A   1      44.092  36.753  27.655  1.00  0.00     0.135 A 
ATOM     67  F   UNL A   1      47.646  36.479  26.934  1.00  0.00    -0.206 F 
ATOM     68  C   UNL A   1      46.145  38.231  26.539  1.00  0.00     0.059 A 
ATOM     69  C   UNL A   1      43.817  38.010  27.141  1.00  0.00     0.059 A 
ATOM     70  F   UNL A   1      43.069  36.172  28.298  1.00  0.00    -0.206 F 
ATOM     71  C   UNL A   1      44.859  38.762  26.627  1.00  0.00     0.060 A 
BRANCH  71  72
ATOM     72  S   UNL A   1      44.568  40.476  26.156  1.00  0.00     0.124 S 
ATOM     73  O   UNL A   1      45.451  40.610  25.002  1.00  0.00    -0.237 OA
ATOM     74  O   UNL A   1      43.138  40.479  25.871  1.00  0.00    -0.237 OA
ATOM     75  O   UNL A   1      44.966  41.223  27.346  1.00  0.00    -0.744 OA
ENDBRANCH  71  72
ENDBRANCH  50  64
BRANCH  51  76
ATOM     76  C   UNL A   1      38.864  32.702  32.023  1.00  0.00     0.058 A 
ATOM     77  C   UNL A   1      38.097  32.852  33.188  1.00  0.00     0.135 A 
ATOM     78  C   UNL A   1      38.178  32.892  30.802  1.00  0.00     0.135 A 
ATOM     79  F   UNL A   1      38.674  32.731  34.394  1.00  0.00    -0.206 F 
ATOM     80  C   UNL A   1      36.736  33.181  33.146  1.00  0.00     0.059 A 
ATOM     81  C   UNL A   1      36.822  33.199  30.734  1.00  0.00     0.059 A 
ATOM     82  F   UNL A   1      38.824  32.872  29.626  1.00  0.00    -0.206 F 
ATOM     83  C   UNL A   1      36.108  33.360  31.912  1.00  0.00     0.060 A 
BRANCH  83  84
ATOM     84  S   UNL A   1      34.389  33.912  31.848  1.00  0.00     0.124 S 
ATOM     85  O   UNL A   1      34.028  33.612  30.467  1.00  0.00    -0.237 OA
ATOM     86  O   UNL A   1      33.761  33.077  32.867  1.00  0.00    -0.237 OA
ATOM     87  O   UNL A   1      34.474  35.332  32.177  1.00  0.00    -0.744 OA
ENDBRANCH  83  84
ENDBRANCH  51  76
BRANCH  63  88
ATOM     88  C   UNL A   1      44.977  33.239  33.801  1.00  0.00     0.058 A 
ATOM     89  C   UNL A   1      45.117  31.853  33.609  1.00  0.00     0.135 A 
ATOM     90  C   UNL A   1      45.369  33.749  35.046  1.00  0.00     0.135 A 
ATOM     91  F   UNL A   1      44.885  31.302  32.412  1.00  0.00    -0.206 F 
ATOM     92  C   UNL A   1      45.581  31.005  34.614  1.00  0.00     0.059 A 
ATOM     93  C   UNL A   1      45.866  32.926  36.058  1.00  0.00     0.059 A 
ATOM     94  F   UNL A   1      45.336  35.074  35.269  1.00  0.00    -0.206 F 
ATOM     95  C   UNL A   1      45.958  31.551  35.838  1.00  0.00     0.060 A 
BRANCH  95  96
ATOM     96  S   UNL A   1      46.665  30.466  37.097  1.00  0.00     0.124 S 
ATOM     97  O   UNL A   1      45.538  30.273  38.004  1.00  0.00    -0.237 OA
ATOM     98  O   UNL A   1      47.061  29.292  36.323  1.00  0.00    -0.237 OA
ATOM     99  O   UNL A   1      47.775  31.247  37.636  1.00  0.00    -0.744 OA
ENDBRANCH  95  96
ENDBRANCH  63  88
ENDBRANCH  37  38
ENDBRANCH  30  32
ENDBRANCH  29  30
ENDBRANCH   1  29
TORSDOF 17
ENDMDL
