MODEL 1
REMARK VINA RESULT:     -11.3      0.000      0.000
REMARK SMILES COC(=O)c1ccccc1-c1ccc(/C=C(\C#N)C(=O)OCCOC(=O)c2ccc(-c3c4nc(c(-c5c(F)cc(S(=O)(=O)[O-])cc5F)c5ccc([nH]5)c(-c5c(F)cc(S(=O)(=O)[O-])cc5F)c5nc(c(-c6c(F)cc(S(=O)(=O)[O-])cc6F)c6ccc3[nH]6)C=C5)C=C4)cc2)o1
REMARK SMILES IDX 22 1 21 2 19 3 20 4 16 5 15 6 14 7 11 8 12 9 93 10 13 11
REMARK SMILES IDX 10 12 5 13 6 14 7 15 9 16 8 17 3 18 4 19 2 20 1 21 17 22
REMARK SMILES IDX 18 23 23 24 24 25 25 26 26 27 27 28 28 29 92 30 29 31 91 32
REMARK SMILES IDX 30 33 31 34 32 35 85 36 33 37 90 38 84 39 86 40 34 41 89 42
REMARK SMILES IDX 83 43 82 44 35 46 69 47 48 48 68 49 49 50 52 51 67 52 87 53
REMARK SMILES IDX 50 54 51 55 66 57 88 58 53 59 36 60 37 61 46 62 38 63 39 64
REMARK SMILES IDX 45 65 47 66 40 67 41 68 42 69 43 70 44 71 70 72 71 73 80 74
REMARK SMILES IDX 72 75 73 76 79 77 81 78 74 79 75 80 76 81 77 82 78 83 54 84
REMARK SMILES IDX 55 85 64 86 56 87 57 88 63 89 65 90 58 91 59 92 60 93 61 94
REMARK SMILES IDX 62 95
REMARK H PARENT 86 45 52 56
REMARK Flexibility Score: inf
ROOT
ATOM      1  C   UNL A   1      32.750  29.525  25.808  1.00  0.00     0.275 C 
ENDROOT
BRANCH   1   2
ATOM      2  O   UNL A   1      31.446  28.935  25.985  1.00  0.00    -0.458 OA
BRANCH   2   3
ATOM      3  C   UNL A   1      31.407  27.845  26.788  1.00  0.00     0.349 C 
ATOM      4  O   UNL A   1      31.213  27.844  27.994  1.00  0.00    -0.245 OA
BRANCH   3   5
ATOM      5  C   UNL A   1      31.631  26.619  26.006  1.00  0.00     0.141 C 
ATOM      6  C   UNL A   1      32.855  26.054  25.967  1.00  0.00     0.074 C 
BRANCH   6   7
ATOM      7  C   UNL A   1      33.264  25.055  25.030  1.00  0.00     0.129 A 
ATOM      8  C   UNL A   1      33.525  23.050  24.084  1.00  0.00     0.135 A 
ATOM      9  C   UNL A   1      34.130  23.949  23.239  1.00  0.00     0.051 A 
ATOM     10  O   UNL A   1      32.997  23.709  25.148  1.00  0.00    -0.457 OA
ATOM     11  C   UNL A   1      33.965  25.223  23.840  1.00  0.00     0.051 A 
BRANCH   8  12
ATOM     12  C   UNL A   1      33.362  21.603  24.095  1.00  0.00     0.032 A 
ATOM     13  C   UNL A   1      34.172  20.745  24.863  1.00  0.00     0.071 A 
ATOM     14  C   UNL A   1      34.020  19.351  24.767  1.00  0.00     0.016 A 
ATOM     15  C   UNL A   1      33.051  18.801  23.929  1.00  0.00     0.001 A 
ATOM     16  C   UNL A   1      32.381  21.028  23.268  1.00  0.00     0.013 A 
ATOM     17  C   UNL A   1      32.228  19.641  23.184  1.00  0.00     0.001 A 
BRANCH  13  18
ATOM     18  C   UNL A   1      35.229  21.229  25.782  1.00  0.00     0.338 C 
ATOM     19  O   UNL A   1      34.990  21.872  26.790  1.00  0.00    -0.246 OA
BRANCH  18  20
ATOM     20  O   UNL A   1      36.452  20.909  25.300  1.00  0.00    -0.465 OA
ATOM     21  C   UNL A   1      36.967  21.832  24.341  1.00  0.00     0.282 C 
ENDBRANCH  18  20
ENDBRANCH  13  18
ENDBRANCH   8  12
ENDBRANCH   6   7
BRANCH   5  22
ATOM     22  C   UNL A   1      30.658  26.381  24.863  1.00  0.00     0.107 C 
ATOM     23  N   UNL A   1      29.852  26.185  23.915  1.00  0.00    -0.192 NA
ENDBRANCH   5  22
ENDBRANCH   3   5
ENDBRANCH   2   3
ENDBRANCH   1   2
BRANCH   1  24
ATOM     24  C   UNL A   1      33.068  30.448  26.983  1.00  0.00     0.275 C 
BRANCH  24  25
ATOM     25  O   UNL A   1      34.049  29.826  27.833  1.00  0.00    -0.458 OA
BRANCH  25  26
ATOM     26  C   UNL A   1      34.851  30.664  28.534  1.00  0.00     0.338 C 
ATOM     27  O   UNL A   1      34.524  31.685  29.110  1.00  0.00    -0.246 OA
BRANCH  26  28
ATOM     28  C   UNL A   1      36.224  30.120  28.578  1.00  0.00     0.060 A 
ATOM     29  C   UNL A   1      36.758  29.714  29.794  1.00  0.00     0.016 A 
ATOM     30  C   UNL A   1      37.033  30.133  27.447  1.00  0.00     0.016 A 
ATOM     31  C   UNL A   1      38.118  29.452  29.923  1.00  0.00     0.010 A 
ATOM     32  C   UNL A   1      38.366  29.708  27.546  1.00  0.00     0.010 A 
ATOM     33  C   UNL A   1      38.937  29.388  28.793  1.00  0.00    -0.014 A 
BRANCH  33  34
ATOM     34  C   UNL A   1      40.369  28.985  28.918  1.00  0.00     0.031 A 
ATOM     35  C   UNL A   1      41.402  29.990  29.354  1.00  0.00     0.074 A 
ATOM     36  C   UNL A   1      40.761  27.722  28.638  1.00  0.00     0.049 A 
ATOM     37  N   UNL A   1      42.703  29.942  29.235  1.00  0.00    -0.248 NA
ATOM     38  C   UNL A   1      40.904  31.222  29.990  1.00  0.00     0.031 C 
ATOM     39  C   UNL A   1      39.879  26.610  28.269  1.00  0.00     0.029 A 
ATOM     40  N   UNL A   1      42.015  27.154  28.618  1.00  0.00    -0.354 N 
ATOM     41  C   UNL A   1      43.173  31.167  29.697  1.00  0.00     0.074 A 
ATOM     42  C   UNL A   1      42.018  31.929  30.123  1.00  0.00     0.031 C 
ATOM     43  C   UNL A   1      40.604  25.494  28.114  1.00  0.00     0.029 A 
ATOM     44  C   UNL A   1      42.015  25.834  28.228  1.00  0.00     0.049 A 
ATOM     45  H   UNL A   1      42.833  27.645  28.859  1.00  0.00     0.167 HD
ATOM     46  C   UNL A   1      44.451  31.613  29.747  1.00  0.00     0.037 A 
ATOM     47  C   UNL A   1      43.025  25.002  27.909  1.00  0.00     0.037 A 
ATOM     48  C   UNL A   1      45.595  30.815  29.388  1.00  0.00     0.049 A 
ATOM     49  C   UNL A   1      44.429  25.529  27.916  1.00  0.00     0.074 A 
ATOM     50  C   UNL A   1      46.935  31.163  29.426  1.00  0.00     0.029 A 
ATOM     51  N   UNL A   1      45.537  29.503  28.944  1.00  0.00    -0.354 N 
ATOM     52  N   UNL A   1      44.855  26.721  28.259  1.00  0.00    -0.248 NA
ATOM     53  C   UNL A   1      45.482  24.621  27.447  1.00  0.00     0.031 C 
ATOM     54  C   UNL A   1      47.683  30.071  28.973  1.00  0.00     0.029 A 
ATOM     55  C   UNL A   1      46.813  29.032  28.686  1.00  0.00     0.049 A 
ATOM     56  H   UNL A   1      44.709  28.981  28.831  1.00  0.00     0.167 HD
ATOM     57  C   UNL A   1      46.225  26.711  28.034  1.00  0.00     0.074 A 
ATOM     58  C   UNL A   1      46.561  25.385  27.553  1.00  0.00     0.031 C 
ATOM     59  C   UNL A   1      47.122  27.712  28.196  1.00  0.00     0.037 A 
BRANCH  46  60
ATOM     60  C   UNL A   1      44.680  33.041  30.154  1.00  0.00     0.058 A 
ATOM     61  C   UNL A   1      44.607  34.103  29.241  1.00  0.00     0.135 A 
ATOM     62  C   UNL A   1      44.946  33.351  31.499  1.00  0.00     0.135 A 
ATOM     63  F   UNL A   1      44.375  33.860  27.942  1.00  0.00    -0.206 F 
ATOM     64  C   UNL A   1      44.811  35.420  29.641  1.00  0.00     0.059 A 
ATOM     65  C   UNL A   1      45.132  34.662  31.925  1.00  0.00     0.059 A 
ATOM     66  F   UNL A   1      45.030  32.372  32.414  1.00  0.00    -0.206 F 
ATOM     67  C   UNL A   1      45.077  35.689  30.986  1.00  0.00     0.060 A 
BRANCH  67  68
ATOM     68  S   UNL A   1      45.342  37.402  31.493  1.00  0.00     0.124 S 
ATOM     69  O   UNL A   1      44.035  37.990  31.220  1.00  0.00    -0.237 OA
ATOM     70  O   UNL A   1      45.693  37.262  32.903  1.00  0.00    -0.237 OA
ATOM     71  O   UNL A   1      46.425  37.850  30.623  1.00  0.00    -0.744 OA
ENDBRANCH  67  68
ENDBRANCH  46  60
BRANCH  47  72
ATOM     72  C   UNL A   1      42.727  23.616  27.458  1.00  0.00     0.058 A 
ATOM     73  C   UNL A   1      42.661  23.298  26.095  1.00  0.00     0.135 A 
ATOM     74  C   UNL A   1      42.549  22.573  28.383  1.00  0.00     0.135 A 
ATOM     75  F   UNL A   1      42.810  24.261  25.173  1.00  0.00    -0.206 F 
ATOM     76  C   UNL A   1      42.436  21.994  25.663  1.00  0.00     0.059 A 
ATOM     77  C   UNL A   1      42.351  21.259  27.976  1.00  0.00     0.059 A 
ATOM     78  F   UNL A   1      42.613  22.825  29.700  1.00  0.00    -0.206 F 
ATOM     79  C   UNL A   1      42.291  20.979  26.612  1.00  0.00     0.060 A 
BRANCH  79  80
ATOM     80  S   UNL A   1      42.087  19.276  26.047  1.00  0.00     0.124 S 
ATOM     81  O   UNL A   1      40.673  19.253  25.695  1.00  0.00    -0.237 OA
ATOM     82  O   UNL A   1      43.025  19.204  24.931  1.00  0.00    -0.237 OA
ATOM     83  O   UNL A   1      42.461  18.490  27.220  1.00  0.00    -0.744 OA
ENDBRANCH  79  80
ENDBRANCH  47  72
BRANCH  59  84
ATOM     84  C   UNL A   1      48.550  27.414  27.849  1.00  0.00     0.058 A 
ATOM     85  C   UNL A   1      49.457  26.976  28.826  1.00  0.00     0.135 A 
ATOM     86  C   UNL A   1      49.001  27.514  26.524  1.00  0.00     0.135 A 
ATOM     87  F   UNL A   1      49.074  26.878  30.107  1.00  0.00    -0.206 F 
ATOM     88  C   UNL A   1      50.769  26.654  28.500  1.00  0.00     0.059 A 
ATOM     89  C   UNL A   1      50.304  27.178  26.173  1.00  0.00     0.059 A 
ATOM     90  F   UNL A   1      48.166  27.925  25.556  1.00  0.00    -0.206 F 
ATOM     91  C   UNL A   1      51.183  26.755  27.170  1.00  0.00     0.060 A 
BRANCH  91  92
ATOM     92  S   UNL A   1      52.875  26.288  26.752  1.00  0.00     0.124 S 
ATOM     93  O   UNL A   1      52.655  25.133  25.886  1.00  0.00    -0.237 OA
ATOM     94  O   UNL A   1      53.377  27.489  26.091  1.00  0.00    -0.237 OA
ATOM     95  O   UNL A   1      53.477  25.995  28.049  1.00  0.00    -0.744 OA
ENDBRANCH  91  92
ENDBRANCH  59  84
ENDBRANCH  33  34
ENDBRANCH  26  28
ENDBRANCH  25  26
ENDBRANCH  24  25
ENDBRANCH   1  24
TORSDOF 19
ENDMDL
MODEL 2
REMARK VINA RESULT:     -11.1      0.888      1.856
REMARK SMILES COC(=O)c1ccccc1-c1ccc(/C=C(\C#N)C(=O)OCCOC(=O)c2ccc(-c3c4nc(c(-c5c(F)cc(S(=O)(=O)[O-])cc5F)c5ccc([nH]5)c(-c5c(F)cc(S(=O)(=O)[O-])cc5F)c5nc(c(-c6c(F)cc(S(=O)(=O)[O-])cc6F)c6ccc3[nH]6)C=C5)C=C4)cc2)o1
REMARK SMILES IDX 22 1 21 2 19 3 20 4 16 5 15 6 14 7 11 8 12 9 93 10 13 11
REMARK SMILES IDX 10 12 5 13 6 14 7 15 9 16 8 17 3 18 4 19 2 20 1 21 17 22
REMARK SMILES IDX 18 23 23 24 24 25 25 26 26 27 27 28 28 29 92 30 29 31 91 32
REMARK SMILES IDX 30 33 31 34 32 35 85 36 33 37 90 38 84 39 86 40 34 41 89 42
REMARK SMILES IDX 83 43 82 44 35 46 69 47 48 48 68 49 49 50 52 51 67 52 87 53
REMARK SMILES IDX 50 54 51 55 66 57 88 58 53 59 36 60 37 61 46 62 38 63 39 64
REMARK SMILES IDX 45 65 47 66 40 67 41 68 42 69 43 70 44 71 70 72 71 73 80 74
REMARK SMILES IDX 72 75 73 76 79 77 81 78 74 79 75 80 76 81 77 82 78 83 54 84
REMARK SMILES IDX 55 85 64 86 56 87 57 88 63 89 65 90 58 91 59 92 60 93 61 94
REMARK SMILES IDX 62 95
REMARK H PARENT 86 45 52 56
REMARK Flexibility Score: inf
ROOT
ATOM      1  C   UNL A   1      32.218  30.021  26.450  1.00  0.00     0.275 C 
ENDROOT
BRANCH   1   2
ATOM      2  O   UNL A   1      31.444  28.836  26.172  1.00  0.00    -0.458 OA
BRANCH   2   3
ATOM      3  C   UNL A   1      31.421  28.451  24.873  1.00  0.00     0.349 C 
ATOM      4  O   UNL A   1      30.945  29.081  23.941  1.00  0.00    -0.245 OA
BRANCH   3   5
ATOM      5  C   UNL A   1      32.062  27.136  24.714  1.00  0.00     0.141 C 
ATOM      6  C   UNL A   1      32.662  26.811  23.551  1.00  0.00     0.074 C 
BRANCH   6   7
ATOM      7  C   UNL A   1      33.054  25.489  23.175  1.00  0.00     0.129 A 
ATOM      8  C   UNL A   1      34.086  23.511  23.237  1.00  0.00     0.135 A 
ATOM      9  C   UNL A   1      33.268  23.477  22.133  1.00  0.00     0.051 A 
ATOM     10  O   UNL A   1      33.951  24.707  23.866  1.00  0.00    -0.457 OA
ATOM     11  C   UNL A   1      32.611  24.733  22.093  1.00  0.00     0.051 A 
BRANCH   8  12
ATOM     12  C   UNL A   1      35.046  22.591  23.830  1.00  0.00     0.032 A 
ATOM     13  C   UNL A   1      34.665  21.457  24.572  1.00  0.00     0.071 A 
ATOM     14  C   UNL A   1      35.639  20.653  25.191  1.00  0.00     0.016 A 
ATOM     15  C   UNL A   1      36.994  20.956  25.058  1.00  0.00     0.001 A 
ATOM     16  C   UNL A   1      36.418  22.869  23.696  1.00  0.00     0.013 A 
ATOM     17  C   UNL A   1      37.383  22.061  24.306  1.00  0.00     0.001 A 
BRANCH  13  18
ATOM     18  C   UNL A   1      33.255  21.051  24.773  1.00  0.00     0.338 C 
ATOM     19  O   UNL A   1      32.518  21.586  25.584  1.00  0.00    -0.246 OA
BRANCH  18  20
ATOM     20  O   UNL A   1      32.956  19.989  23.988  1.00  0.00    -0.465 OA
ATOM     21  C   UNL A   1      32.126  20.299  22.869  1.00  0.00     0.282 C 
ENDBRANCH  18  20
ENDBRANCH  13  18
ENDBRANCH   8  12
ENDBRANCH   6   7
BRANCH   5  22
ATOM     22  C   UNL A   1      31.538  26.034  25.621  1.00  0.00     0.107 C 
ATOM     23  N   UNL A   1      31.105  25.121  26.374  1.00  0.00    -0.192 NA
ENDBRANCH   5  22
ENDBRANCH   3   5
ENDBRANCH   2   3
ENDBRANCH   1   2
BRANCH   1  24
ATOM     24  C   UNL A   1      33.709  29.704  26.351  1.00  0.00     0.275 C 
BRANCH  24  25
ATOM     25  O   UNL A   1      34.233  29.434  27.664  1.00  0.00    -0.458 OA
BRANCH  25  26
ATOM     26  C   UNL A   1      34.801  30.483  28.309  1.00  0.00     0.338 C 
ATOM     27  O   UNL A   1      34.246  31.490  28.708  1.00  0.00    -0.246 OA
BRANCH  26  28
ATOM     28  C   UNL A   1      36.233  30.207  28.544  1.00  0.00     0.060 A 
ATOM     29  C   UNL A   1      37.133  30.332  27.493  1.00  0.00     0.016 A 
ATOM     30  C   UNL A   1      36.672  29.699  29.762  1.00  0.00     0.016 A 
ATOM     31  C   UNL A   1      38.426  29.831  27.600  1.00  0.00     0.010 A 
ATOM     32  C   UNL A   1      38.021  29.350  29.919  1.00  0.00     0.010 A 
ATOM     33  C   UNL A   1      38.913  29.384  28.830  1.00  0.00    -0.014 A 
BRANCH  33  34
ATOM     34  C   UNL A   1      40.339  28.963  28.974  1.00  0.00     0.031 A 
ATOM     35  C   UNL A   1      41.377  29.955  29.431  1.00  0.00     0.074 A 
ATOM     36  C   UNL A   1      40.720  27.697  28.693  1.00  0.00     0.049 A 
ATOM     37  N   UNL A   1      42.679  29.892  29.331  1.00  0.00    -0.248 NA
ATOM     38  C   UNL A   1      40.883  31.189  30.066  1.00  0.00     0.031 C 
ATOM     39  C   UNL A   1      39.831  26.598  28.305  1.00  0.00     0.029 A 
ATOM     40  N   UNL A   1      41.967  27.115  28.689  1.00  0.00    -0.354 N 
ATOM     41  C   UNL A   1      43.156  31.108  29.807  1.00  0.00     0.074 A 
ATOM     42  C   UNL A   1      42.004  31.881  30.220  1.00  0.00     0.031 C 
ATOM     43  C   UNL A   1      40.544  25.474  28.155  1.00  0.00     0.029 A 
ATOM     44  C   UNL A   1      41.957  25.797  28.293  1.00  0.00     0.049 A 
ATOM     45  H   UNL A   1      42.788  27.595  28.945  1.00  0.00     0.167 HD
ATOM     46  C   UNL A   1      44.438  31.539  29.878  1.00  0.00     0.037 A 
ATOM     47  C   UNL A   1      42.963  24.955  27.984  1.00  0.00     0.037 A 
ATOM     48  C   UNL A   1      45.578  30.730  29.532  1.00  0.00     0.049 A 
ATOM     49  C   UNL A   1      44.372  25.466  28.015  1.00  0.00     0.074 A 
ATOM     50  C   UNL A   1      46.921  31.062  29.592  1.00  0.00     0.029 A 
ATOM     51  N   UNL A   1      45.511  29.420  29.081  1.00  0.00    -0.354 N 
ATOM     52  N   UNL A   1      44.807  26.650  28.371  1.00  0.00    -0.248 NA
ATOM     53  C   UNL A   1      45.422  24.547  27.556  1.00  0.00     0.031 C 
ATOM     54  C   UNL A   1      47.663  29.963  29.145  1.00  0.00     0.029 A 
ATOM     55  C   UNL A   1      46.786  28.936  28.839  1.00  0.00     0.049 A 
ATOM     56  H   UNL A   1      44.679  28.909  28.952  1.00  0.00     0.167 HD
ATOM     57  C   UNL A   1      46.180  26.625  28.166  1.00  0.00     0.074 A 
ATOM     58  C   UNL A   1      46.508  25.298  27.683  1.00  0.00     0.031 C 
ATOM     59  C   UNL A   1      47.087  27.615  28.347  1.00  0.00     0.037 A 
BRANCH  46  60
ATOM     60  C   UNL A   1      44.678  32.962  30.296  1.00  0.00     0.058 A 
ATOM     61  C   UNL A   1      44.942  33.319  31.626  1.00  0.00     0.135 A 
ATOM     62  C   UNL A   1      44.675  33.984  29.332  1.00  0.00     0.135 A 
ATOM     63  F   UNL A   1      44.938  32.384  32.589  1.00  0.00    -0.206 F 
ATOM     64  C   UNL A   1      45.174  34.642  31.992  1.00  0.00     0.059 A 
ATOM     65  C   UNL A   1      44.925  35.311  29.670  1.00  0.00     0.059 A 
ATOM     66  F   UNL A   1      44.425  33.698  28.044  1.00  0.00    -0.206 F 
ATOM     67  C   UNL A   1      45.159  35.632  31.005  1.00  0.00     0.060 A 
BRANCH  67  68
ATOM     68  S   UNL A   1      45.458  37.345  31.491  1.00  0.00     0.124 S 
ATOM     69  O   UNL A   1      44.774  37.403  32.779  1.00  0.00    -0.237 OA
ATOM     70  O   UNL A   1      46.915  37.408  31.544  1.00  0.00    -0.237 OA
ATOM     71  O   UNL A   1      44.839  38.116  30.417  1.00  0.00    -0.744 OA
ENDBRANCH  67  68
ENDBRANCH  46  60
BRANCH  47  72
ATOM     72  C   UNL A   1      42.656  23.574  27.521  1.00  0.00     0.058 A 
ATOM     73  C   UNL A   1      42.499  23.287  26.159  1.00  0.00     0.135 A 
ATOM     74  C   UNL A   1      42.559  22.508  28.431  1.00  0.00     0.135 A 
ATOM     75  F   UNL A   1      42.568  24.274  25.253  1.00  0.00    -0.206 F 
ATOM     76  C   UNL A   1      42.264  21.990  25.712  1.00  0.00     0.059 A 
ATOM     77  C   UNL A   1      42.353  21.200  28.007  1.00  0.00     0.059 A 
ATOM     78  F   UNL A   1      42.712  22.730  29.746  1.00  0.00    -0.206 F 
ATOM     79  C   UNL A   1      42.202  20.951  26.643  1.00  0.00     0.060 A 
BRANCH  79  80
ATOM     80  S   UNL A   1      41.985  19.258  26.053  1.00  0.00     0.124 S 
ATOM     81  O   UNL A   1      42.363  18.488  27.231  1.00  0.00    -0.237 OA
ATOM     82  O   UNL A   1      40.570  19.232  25.698  1.00  0.00    -0.237 OA
ATOM     83  O   UNL A   1      42.907  19.180  24.922  1.00  0.00    -0.744 OA
ENDBRANCH  79  80
ENDBRANCH  47  72
BRANCH  59  84
ATOM     84  C   UNL A   1      48.516  27.302  28.020  1.00  0.00     0.058 A 
ATOM     85  C   UNL A   1      49.366  26.718  28.971  1.00  0.00     0.135 A 
ATOM     86  C   UNL A   1      49.024  27.537  26.733  1.00  0.00     0.135 A 
ATOM     87  F   UNL A   1      48.927  26.486  30.217  1.00  0.00    -0.206 F 
ATOM     88  C   UNL A   1      50.678  26.383  28.658  1.00  0.00     0.059 A 
ATOM     89  C   UNL A   1      50.328  27.192  26.393  1.00  0.00     0.059 A 
ATOM     90  F   UNL A   1      48.245  28.090  25.790  1.00  0.00    -0.206 F 
ATOM     91  C   UNL A   1      51.149  26.620  27.365  1.00  0.00     0.060 A 
BRANCH  91  92
ATOM     92  S   UNL A   1      52.840  26.137  26.957  1.00  0.00     0.124 S 
ATOM     93  O   UNL A   1      52.624  24.863  26.279  1.00  0.00    -0.237 OA
ATOM     94  O   UNL A   1      53.284  27.239  26.109  1.00  0.00    -0.237 OA
ATOM     95  O   UNL A   1      53.492  26.054  28.260  1.00  0.00    -0.744 OA
ENDBRANCH  91  92
ENDBRANCH  59  84
ENDBRANCH  33  34
ENDBRANCH  26  28
ENDBRANCH  25  26
ENDBRANCH  24  25
ENDBRANCH   1  24
TORSDOF 19
ENDMDL
MODEL 3
REMARK VINA RESULT:     -11.1      5.772     10.887
REMARK SMILES COC(=O)c1ccccc1-c1ccc(/C=C(\C#N)C(=O)OCCOC(=O)c2ccc(-c3c4nc(c(-c5c(F)cc(S(=O)(=O)[O-])cc5F)c5ccc([nH]5)c(-c5c(F)cc(S(=O)(=O)[O-])cc5F)c5nc(c(-c6c(F)cc(S(=O)(=O)[O-])cc6F)c6ccc3[nH]6)C=C5)C=C4)cc2)o1
REMARK SMILES IDX 22 1 21 2 19 3 20 4 16 5 15 6 14 7 11 8 12 9 93 10 13 11
REMARK SMILES IDX 10 12 5 13 6 14 7 15 9 16 8 17 3 18 4 19 2 20 1 21 17 22
REMARK SMILES IDX 18 23 23 24 24 25 25 26 26 27 27 28 28 29 92 30 29 31 91 32
REMARK SMILES IDX 30 33 31 34 32 35 85 36 33 37 90 38 84 39 86 40 34 41 89 42
REMARK SMILES IDX 83 43 82 44 35 46 69 47 48 48 68 49 49 50 52 51 67 52 87 53
REMARK SMILES IDX 50 54 51 55 66 57 88 58 53 59 36 60 37 61 46 62 38 63 39 64
REMARK SMILES IDX 45 65 47 66 40 67 41 68 42 69 43 70 44 71 70 72 71 73 80 74
REMARK SMILES IDX 72 75 73 76 79 77 81 78 74 79 75 80 76 81 77 82 78 83 54 84
REMARK SMILES IDX 55 85 64 86 56 87 57 88 63 89 65 90 58 91 59 92 60 93 61 94
REMARK SMILES IDX 62 95
REMARK H PARENT 86 45 52 56
REMARK Flexibility Score: inf
ROOT
ATOM      1  C   UNL A   1      42.487  22.214  26.203  1.00  0.00     0.275 C 
ENDROOT
BRANCH   1   2
ATOM      2  O   UNL A   1      41.146  22.387  26.703  1.00  0.00    -0.458 OA
BRANCH   2   3
ATOM      3  C   UNL A   1      40.261  21.430  26.333  1.00  0.00     0.349 C 
ATOM      4  O   UNL A   1      40.502  20.241  26.190  1.00  0.00    -0.245 OA
BRANCH   3   5
ATOM      5  C   UNL A   1      38.928  22.014  26.121  1.00  0.00     0.141 C 
ATOM      6  C   UNL A   1      38.064  21.437  25.261  1.00  0.00     0.074 C 
BRANCH   6   7
ATOM      7  C   UNL A   1      36.879  22.056  24.755  1.00  0.00     0.129 A 
ATOM      8  C   UNL A   1      34.799  22.864  24.692  1.00  0.00     0.135 A 
ATOM      9  C   UNL A   1      35.340  23.115  23.455  1.00  0.00     0.051 A 
ATOM     10  O   UNL A   1      35.720  22.242  25.474  1.00  0.00    -0.457 OA
ATOM     11  C   UNL A   1      36.662  22.603  23.493  1.00  0.00     0.051 A 
BRANCH   8  12
ATOM     12  C   UNL A   1      33.497  23.085  25.307  1.00  0.00     0.032 A 
ATOM     13  C   UNL A   1      32.456  22.140  25.260  1.00  0.00     0.071 A 
ATOM     14  C   UNL A   1      31.194  22.446  25.800  1.00  0.00     0.016 A 
ATOM     15  C   UNL A   1      30.966  23.680  26.408  1.00  0.00     0.001 A 
ATOM     16  C   UNL A   1      33.251  24.317  25.938  1.00  0.00     0.013 A 
ATOM     17  C   UNL A   1      31.997  24.613  26.481  1.00  0.00     0.001 A 
BRANCH  13  18
ATOM     18  C   UNL A   1      32.596  20.803  24.637  1.00  0.00     0.338 C 
ATOM     19  O   UNL A   1      32.250  20.563  23.493  1.00  0.00    -0.246 OA
BRANCH  18  20
ATOM     20  O   UNL A   1      33.088  19.917  25.534  1.00  0.00    -0.465 OA
ATOM     21  C   UNL A   1      32.735  18.559  25.273  1.00  0.00     0.282 C 
ENDBRANCH  18  20
ENDBRANCH  13  18
ENDBRANCH   8  12
ENDBRANCH   6   7
BRANCH   5  22
ATOM     22  C   UNL A   1      38.803  23.497  26.429  1.00  0.00     0.107 C 
ATOM     23  N   UNL A   1      38.700  24.727  26.685  1.00  0.00    -0.192 NA
ENDBRANCH   5  22
ENDBRANCH   3   5
ENDBRANCH   2   3
ENDBRANCH   1   2
BRANCH   1  24
ATOM     24  C   UNL A   1      42.911  23.450  25.411  1.00  0.00     0.275 C 
BRANCH  24  25
ATOM     25  O   UNL A   1      43.306  24.493  26.319  1.00  0.00    -0.458 OA
BRANCH  25  26
ATOM     26  C   UNL A   1      42.797  25.725  26.073  1.00  0.00     0.338 C 
ATOM     27  O   UNL A   1      42.519  26.204  24.989  1.00  0.00    -0.246 OA
BRANCH  26  28
ATOM     28  C   UNL A   1      42.539  26.423  27.349  1.00  0.00     0.060 A 
ATOM     29  C   UNL A   1      41.695  25.840  28.286  1.00  0.00     0.016 A 
ATOM     30  C   UNL A   1      43.020  27.709  27.570  1.00  0.00     0.016 A 
ATOM     31  C   UNL A   1      41.219  26.573  29.368  1.00  0.00     0.010 A 
ATOM     32  C   UNL A   1      42.670  28.385  28.748  1.00  0.00     0.010 A 
ATOM     33  C   UNL A   1      41.740  27.837  29.652  1.00  0.00    -0.014 A 
BRANCH  33  34
ATOM     34  C   UNL A   1      41.320  28.572  30.883  1.00  0.00     0.031 A 
ATOM     35  C   UNL A   1      40.113  29.473  30.850  1.00  0.00     0.074 A 
ATOM     36  C   UNL A   1      42.013  28.446  32.036  1.00  0.00     0.049 A 
ATOM     37  N   UNL A   1      39.762  30.414  31.687  1.00  0.00    -0.248 NA
ATOM     38  C   UNL A   1      39.189  29.306  29.715  1.00  0.00     0.031 C 
ATOM     39  C   UNL A   1      43.162  27.563  32.256  1.00  0.00     0.029 A 
ATOM     40  N   UNL A   1      41.851  29.068  33.253  1.00  0.00    -0.354 N 
ATOM     41  C   UNL A   1      38.631  31.010  31.138  1.00  0.00     0.074 A 
ATOM     42  C   UNL A   1      38.339  30.306  29.908  1.00  0.00     0.031 C 
ATOM     43  C   UNL A   1      43.565  27.658  33.530  1.00  0.00     0.029 A 
ATOM     44  C   UNL A   1      42.801  28.711  34.184  1.00  0.00     0.049 A 
ATOM     45  H   UNL A   1      41.127  29.708  33.441  1.00  0.00     0.167 HD
ATOM     46  C   UNL A   1      37.916  32.055  31.616  1.00  0.00     0.037 A 
ATOM     47  C   UNL A   1      43.094  29.223  35.395  1.00  0.00     0.037 A 
ATOM     48  C   UNL A   1      38.176  32.697  32.879  1.00  0.00     0.049 A 
ATOM     49  C   UNL A   1      42.328  30.415  35.883  1.00  0.00     0.074 A 
ATOM     50  C   UNL A   1      37.495  33.749  33.468  1.00  0.00     0.029 A 
ATOM     51  N   UNL A   1      39.186  32.335  33.758  1.00  0.00    -0.354 N 
ATOM     52  N   UNL A   1      41.324  31.036  35.311  1.00  0.00    -0.248 NA
ATOM     53  C   UNL A   1      42.762  31.010  37.154  1.00  0.00     0.031 C 
ATOM     54  C   UNL A   1      38.115  34.042  34.688  1.00  0.00     0.029 A 
ATOM     55  C   UNL A   1      39.160  33.153  34.874  1.00  0.00     0.049 A 
ATOM     56  H   UNL A   1      39.827  31.602  33.609  1.00  0.00     0.167 HD
ATOM     57  C   UNL A   1      41.015  32.102  36.144  1.00  0.00     0.074 A 
ATOM     58  C   UNL A   1      41.919  32.026  37.275  1.00  0.00     0.031 C 
ATOM     59  C   UNL A   1      40.078  33.066  35.982  1.00  0.00     0.037 A 
BRANCH  46  60
ATOM     60  C   UNL A   1      36.817  32.607  30.752  1.00  0.00     0.058 A 
ATOM     61  C   UNL A   1      35.477  32.226  30.908  1.00  0.00     0.135 A 
ATOM     62  C   UNL A   1      37.116  33.565  29.768  1.00  0.00     0.135 A 
ATOM     63  F   UNL A   1      35.141  31.300  31.819  1.00  0.00    -0.206 F 
ATOM     64  C   UNL A   1      34.472  32.758  30.105  1.00  0.00     0.059 A 
ATOM     65  C   UNL A   1      36.126  34.127  28.969  1.00  0.00     0.059 A 
ATOM     66  F   UNL A   1      38.384  33.964  29.575  1.00  0.00    -0.206 F 
ATOM     67  C   UNL A   1      34.808  33.706  29.135  1.00  0.00     0.060 A 
BRANCH  67  68
ATOM     68  S   UNL A   1      33.497  34.387  28.097  1.00  0.00     0.124 S 
ATOM     69  O   UNL A   1      34.268  35.148  27.118  1.00  0.00    -0.237 OA
ATOM     70  O   UNL A   1      32.840  33.186  27.591  1.00  0.00    -0.237 OA
ATOM     71  O   UNL A   1      32.706  35.185  29.028  1.00  0.00    -0.744 OA
ENDBRANCH  67  68
ENDBRANCH  46  60
BRANCH  47  72
ATOM     72  C   UNL A   1      44.232  28.668  36.177  1.00  0.00     0.058 A 
ATOM     73  C   UNL A   1      45.511  29.232  36.091  1.00  0.00     0.135 A 
ATOM     74  C   UNL A   1      44.050  27.590  37.059  1.00  0.00     0.135 A 
ATOM     75  F   UNL A   1      45.739  30.254  35.251  1.00  0.00    -0.206 F 
ATOM     76  C   UNL A   1      46.570  28.754  36.858  1.00  0.00     0.059 A 
ATOM     77  C   UNL A   1      45.084  27.113  37.857  1.00  0.00     0.059 A 
ATOM     78  F   UNL A   1      42.840  27.021  37.185  1.00  0.00    -0.206 F 
ATOM     79  C   UNL A   1      46.344  27.699  37.745  1.00  0.00     0.060 A 
BRANCH  79  80
ATOM     80  S   UNL A   1      47.697  27.140  38.802  1.00  0.00     0.124 S 
ATOM     81  O   UNL A   1      48.436  28.379  39.011  1.00  0.00    -0.237 OA
ATOM     82  O   UNL A   1      46.987  26.615  39.964  1.00  0.00    -0.237 OA
ATOM     83  O   UNL A   1      48.367  26.134  37.981  1.00  0.00    -0.744 OA
ENDBRANCH  79  80
ENDBRANCH  47  72
BRANCH  59  84
ATOM     84  C   UNL A   1      39.985  34.116  37.049  1.00  0.00     0.058 A 
ATOM     85  C   UNL A   1      40.668  35.335  36.928  1.00  0.00     0.135 A 
ATOM     86  C   UNL A   1      39.166  33.924  38.172  1.00  0.00     0.135 A 
ATOM     87  F   UNL A   1      41.472  35.558  35.877  1.00  0.00    -0.206 F 
ATOM     88  C   UNL A   1      40.548  36.329  37.892  1.00  0.00     0.059 A 
ATOM     89  C   UNL A   1      39.016  34.913  39.139  1.00  0.00     0.059 A 
ATOM     90  F   UNL A   1      38.490  32.774  38.327  1.00  0.00    -0.206 F 
ATOM     91  C   UNL A   1      39.717  36.110  38.992  1.00  0.00     0.060 A 
BRANCH  91  92
ATOM     92  S   UNL A   1      39.531  37.427  40.213  1.00  0.00     0.124 S 
ATOM     93  O   UNL A   1      40.893  37.945  40.295  1.00  0.00    -0.237 OA
ATOM     94  O   UNL A   1      38.555  38.307  39.578  1.00  0.00    -0.237 OA
ATOM     95  O   UNL A   1      39.053  36.723  41.400  1.00  0.00    -0.744 OA
ENDBRANCH  91  92
ENDBRANCH  59  84
ENDBRANCH  33  34
ENDBRANCH  26  28
ENDBRANCH  25  26
ENDBRANCH  24  25
ENDBRANCH   1  24
TORSDOF 19
ENDMDL
