MODEL 1
REMARK VINA RESULT:     -12.8      0.000      0.000
REMARK SMILES Nc1c(N2CCC(C(=O)OCCOC(=O)c3ccc(-c4c5nc(c(-c6c(F)cc(S(=O)(=O)[O-])cc6F)c6ccc([nH]6)c(-c6c(F)cc(S(=O)(=O)[O-])cc6F)c6nc(c(-c7c(F)cc(S(=O)(=O)[O-])cc7F)c7ccc4[nH]7)C=C6)C=C5)cc3)CC2)ncnc1N1CCN(c2ccccc2)CC1
REMARK SMILES IDX 11 1 10 2 8 3 9 4 7 5 4 6 5 7 83 8 6 9 82 10 3 11 2 12 87 13
REMARK SMILES IDX 84 14 86 15 85 16 1 17 88 20 89 21 99 22 90 23 98 24 91 25
REMARK SMILES IDX 92 26 93 27 97 28 94 29 96 30 95 31 12 32 13 33 14 34 15 35
REMARK SMILES IDX 16 36 17 37 81 38 18 39 80 40 19 41 20 42 21 43 74 44 22 45
REMARK SMILES IDX 79 46 73 47 75 48 23 49 78 50 72 51 71 52 24 54 58 55 37 56
REMARK SMILES IDX 57 57 38 58 41 59 56 60 76 61 39 62 40 63 55 65 77 66 42 67
REMARK SMILES IDX 25 68 26 69 35 70 27 71 28 72 34 73 36 74 29 75 30 76 31 77
REMARK SMILES IDX 32 78 33 79 59 80 60 81 69 82 61 83 62 84 68 85 70 86 63 87
REMARK SMILES IDX 64 88 65 89 66 90 67 91 43 92 44 93 53 94 45 95 46 96 52 97
REMARK SMILES IDX 54 98 47 99 48 100 49 101 50 102 51 103
REMARK H PARENT 1 18 1 19 75 53 41 64
REMARK Flexibility Score: inf
ROOT
ATOM      1  C   UNL A   1      33.880  32.142  27.759  1.00  0.00     0.274 C 
ENDROOT
BRANCH   1   2
ATOM      2  O   UNL A   1      33.406  30.837  27.381  1.00  0.00    -0.462 OA
BRANCH   2   3
ATOM      3  C   UNL A   1      32.193  30.802  26.778  1.00  0.00     0.309 C 
ATOM      4  O   UNL A   1      31.504  31.785  26.534  1.00  0.00    -0.252 OA
BRANCH   3   5
ATOM      5  C   UNL A   1      31.761  29.409  26.392  1.00  0.00     0.103 C 
ATOM      6  N   UNL A   1      31.652  26.813  25.268  1.00  0.00    -0.355 N 
ATOM      7  C   UNL A   1      30.707  27.813  24.790  1.00  0.00     0.119 C 
ATOM      8  C   UNL A   1      32.287  26.996  26.574  1.00  0.00     0.119 C 
ATOM      9  C   UNL A   1      31.263  29.223  24.958  1.00  0.00     0.037 C 
ATOM     10  C   UNL A   1      32.863  28.400  26.697  1.00  0.00     0.037 C 
BRANCH   6  11
ATOM     11  C   UNL A   1      32.379  26.090  24.322  1.00  0.00     0.157 A 
ATOM     12  C   UNL A   1      32.483  24.701  24.476  1.00  0.00     0.118 A 
ATOM     13  C   UNL A   1      33.306  24.030  23.561  1.00  0.00     0.157 A 
ATOM     14  N   UNL A   1      33.008  26.747  23.333  1.00  0.00    -0.217 NA
ATOM     15  N   UNL A   1      34.001  24.679  22.613  1.00  0.00    -0.217 NA
ATOM     16  C   UNL A   1      33.787  26.002  22.536  1.00  0.00     0.226 A 
BRANCH  12  17
ATOM     17  N   UNL A   1      31.743  24.010  25.453  1.00  0.00    -0.393 N 
ATOM     18  H   UNL A   1      30.799  23.786  25.290  1.00  0.00     0.156 HD
ATOM     19  H   UNL A   1      32.170  23.749  26.301  1.00  0.00     0.156 HD
ENDBRANCH  12  17
BRANCH  13  20
ATOM     20  N   UNL A   1      33.439  22.661  23.680  1.00  0.00    -0.351 N 
ATOM     21  C   UNL A   1      34.638  22.079  24.267  1.00  0.00     0.139 C 
ATOM     22  C   UNL A   1      32.696  21.795  22.758  1.00  0.00     0.139 C 
ATOM     23  C   UNL A   1      34.224  20.803  25.045  1.00  0.00     0.138 C 
ATOM     24  C   UNL A   1      32.282  20.505  23.496  1.00  0.00     0.138 C 
ATOM     25  N   UNL A   1      33.447  19.896  24.176  1.00  0.00    -0.368 N 
BRANCH  25  26
ATOM     26  C   UNL A   1      33.378  18.542  24.447  1.00  0.00     0.037 A 
ATOM     27  C   UNL A   1      32.793  18.024  25.607  1.00  0.00     0.026 A 
ATOM     28  C   UNL A   1      33.930  17.635  23.531  1.00  0.00     0.026 A 
ATOM     29  C   UNL A   1      32.765  16.646  25.846  1.00  0.00     0.002 A 
ATOM     30  C   UNL A   1      33.919  16.261  23.768  1.00  0.00     0.002 A 
ATOM     31  C   UNL A   1      33.335  15.765  24.929  1.00  0.00     0.000 A 
ENDBRANCH  25  26
ENDBRANCH  13  20
ENDBRANCH   6  11
ENDBRANCH   3   5
ENDBRANCH   2   3
ENDBRANCH   1   2
BRANCH   1  32
ATOM     32  C   UNL A   1      34.836  32.046  28.948  1.00  0.00     0.275 C 
BRANCH  32  33
ATOM     33  O   UNL A   1      35.564  30.804  28.948  1.00  0.00    -0.458 OA
BRANCH  33  34
ATOM     34  C   UNL A   1      36.339  30.589  30.038  1.00  0.00     0.338 C 
ATOM     35  O   UNL A   1      36.045  30.782  31.205  1.00  0.00    -0.246 OA
BRANCH  34  36
ATOM     36  C   UNL A   1      37.614  29.982  29.634  1.00  0.00     0.060 A 
ATOM     37  C   UNL A   1      38.493  29.559  30.632  1.00  0.00     0.016 A 
ATOM     38  C   UNL A   1      37.997  29.949  28.293  1.00  0.00     0.016 A 
ATOM     39  C   UNL A   1      39.773  29.124  30.302  1.00  0.00     0.010 A 
ATOM     40  C   UNL A   1      39.276  29.491  27.958  1.00  0.00     0.010 A 
ATOM     41  C   UNL A   1      40.178  29.095  28.962  1.00  0.00    -0.014 A 
BRANCH  41  42
ATOM     42  C   UNL A   1      41.566  28.699  28.623  1.00  0.00     0.031 A 
ATOM     43  C   UNL A   1      42.666  29.720  28.668  1.00  0.00     0.074 A 
ATOM     44  C   UNL A   1      41.840  27.419  28.306  1.00  0.00     0.049 A 
ATOM     45  N   UNL A   1      43.917  29.603  28.304  1.00  0.00    -0.248 NA
ATOM     46  C   UNL A   1      42.314  31.048  29.198  1.00  0.00     0.031 C 
ATOM     47  C   UNL A   1      40.868  26.324  28.294  1.00  0.00     0.029 A 
ATOM     48  N   UNL A   1      43.019  26.822  27.938  1.00  0.00    -0.354 N 
ATOM     49  C   UNL A   1      44.496  30.844  28.539  1.00  0.00     0.074 A 
ATOM     50  C   UNL A   1      43.459  31.704  29.068  1.00  0.00     0.031 C 
ATOM     51  C   UNL A   1      41.491  25.189  27.941  1.00  0.00     0.029 A 
ATOM     52  C   UNL A   1      42.891  25.484  27.651  1.00  0.00     0.049 A 
ATOM     53  H   UNL A   1      43.875  27.306  27.883  1.00  0.00     0.167 HD
ATOM     54  C   UNL A   1      45.779  31.227  28.333  1.00  0.00     0.037 A 
ATOM     55  C   UNL A   1      43.794  24.604  27.177  1.00  0.00     0.037 A 
ATOM     56  C   UNL A   1      46.808  30.360  27.821  1.00  0.00     0.049 A 
ATOM     57  C   UNL A   1      45.193  25.071  26.886  1.00  0.00     0.074 A 
ATOM     58  C   UNL A   1      48.135  30.658  27.563  1.00  0.00     0.029 A 
ATOM     59  N   UNL A   1      46.628  29.025  27.494  1.00  0.00    -0.354 N 
ATOM     60  N   UNL A   1      45.716  26.261  27.064  1.00  0.00    -0.248 NA
ATOM     61  C   UNL A   1      46.119  24.084  26.315  1.00  0.00     0.031 C 
ATOM     62  C   UNL A   1      48.750  29.509  27.052  1.00  0.00     0.029 A 
ATOM     63  C   UNL A   1      47.815  28.487  27.025  1.00  0.00     0.049 A 
ATOM     64  H   UNL A   1      45.781  28.531  27.583  1.00  0.00     0.167 HD
ATOM     65  C   UNL A   1      47.035  26.164  26.634  1.00  0.00     0.074 A 
ATOM     66  C   UNL A   1      47.234  24.795  26.202  1.00  0.00     0.031 C 
ATOM     67  C   UNL A   1      47.992  27.123  26.597  1.00  0.00     0.037 A 
BRANCH  54  68
ATOM     68  C   UNL A   1      46.139  32.652  28.640  1.00  0.00     0.058 A 
ATOM     69  C   UNL A   1      46.070  33.655  27.662  1.00  0.00     0.135 A 
ATOM     70  C   UNL A   1      46.513  33.026  29.941  1.00  0.00     0.135 A 
ATOM     71  F   UNL A   1      45.737  33.346  26.399  1.00  0.00    -0.206 F 
ATOM     72  C   UNL A   1      46.372  34.981  27.960  1.00  0.00     0.059 A 
ATOM     73  C   UNL A   1      46.802  34.348  30.266  1.00  0.00     0.059 A 
ATOM     74  F   UNL A   1      46.599  32.101  30.911  1.00  0.00    -0.206 F 
ATOM     75  C   UNL A   1      46.737  35.318  29.266  1.00  0.00     0.060 A 
BRANCH  75  76
ATOM     76  S   UNL A   1      47.112  37.043  29.640  1.00  0.00     0.124 S 
ATOM     77  O   UNL A   1      47.700  37.493  28.382  1.00  0.00    -0.237 OA
ATOM     78  O   UNL A   1      45.795  37.588  29.954  1.00  0.00    -0.237 OA
ATOM     79  O   UNL A   1      48.035  36.954  30.766  1.00  0.00    -0.744 OA
ENDBRANCH  75  76
ENDBRANCH  54  68
BRANCH  55  80
ATOM     80  C   UNL A   1      43.389  23.197  26.918  1.00  0.00     0.058 A 
ATOM     81  C   UNL A   1      43.263  22.713  25.609  1.00  0.00     0.135 A 
ATOM     82  C   UNL A   1      43.143  22.307  27.975  1.00  0.00     0.135 A 
ATOM     83  F   UNL A   1      43.475  23.531  24.567  1.00  0.00    -0.206 F 
ATOM     84  C   UNL A   1      42.903  21.393  25.354  1.00  0.00     0.059 A 
ATOM     85  C   UNL A   1      42.804  20.977  27.746  1.00  0.00     0.059 A 
ATOM     86  F   UNL A   1      43.260  22.722  29.245  1.00  0.00    -0.206 F 
ATOM     87  C   UNL A   1      42.681  20.532  26.430  1.00  0.00     0.060 A 
BRANCH  87  88
ATOM     88  S   UNL A   1      42.278  18.804  26.090  1.00  0.00     0.124 S 
ATOM     89  O   UNL A   1      42.560  18.178  27.376  1.00  0.00    -0.237 OA
ATOM     90  O   UNL A   1      40.870  18.885  25.713  1.00  0.00    -0.237 OA
ATOM     91  O   UNL A   1      43.189  18.455  25.004  1.00  0.00    -0.744 OA
ENDBRANCH  87  88
ENDBRANCH  55  80
BRANCH  67  92
ATOM     92  C   UNL A   1      49.345  26.725  26.081  1.00  0.00     0.058 A 
ATOM     93  C   UNL A   1      49.713  26.954  24.747  1.00  0.00     0.135 A 
ATOM     94  C   UNL A   1      50.301  26.165  26.943  1.00  0.00     0.135 A 
ATOM     95  F   UNL A   1      48.831  27.481  23.883  1.00  0.00    -0.206 F 
ATOM     96  C   UNL A   1      50.983  26.628  24.280  1.00  0.00     0.059 A 
ATOM     97  C   UNL A   1      51.583  25.850  26.502  1.00  0.00     0.059 A 
ATOM     98  F   UNL A   1      49.997  25.935  28.231  1.00  0.00    -0.206 F 
ATOM     99  C   UNL A   1      51.911  26.077  25.167  1.00  0.00     0.060 A 
BRANCH  99 100
ATOM    100  S   UNL A   1      53.567  25.696  24.558  1.00  0.00     0.124 S 
ATOM    101  O   UNL A   1      53.647  24.260  24.804  1.00  0.00    -0.237 OA
ATOM    102  O   UNL A   1      53.486  26.095  23.156  1.00  0.00    -0.237 OA
ATOM    103  O   UNL A   1      54.434  26.526  25.390  1.00  0.00    -0.744 OA
ENDBRANCH  99 100
ENDBRANCH  67  92
ENDBRANCH  41  42
ENDBRANCH  34  36
ENDBRANCH  33  34
ENDBRANCH  32  33
ENDBRANCH   1  32
TORSDOF 18
ENDMDL
MODEL 2
REMARK VINA RESULT:     -12.6      6.319     12.385
REMARK SMILES Nc1c(N2CCC(C(=O)OCCOC(=O)c3ccc(-c4c5nc(c(-c6c(F)cc(S(=O)(=O)[O-])cc6F)c6ccc([nH]6)c(-c6c(F)cc(S(=O)(=O)[O-])cc6F)c6nc(c(-c7c(F)cc(S(=O)(=O)[O-])cc7F)c7ccc4[nH]7)C=C6)C=C5)cc3)CC2)ncnc1N1CCN(c2ccccc2)CC1
REMARK SMILES IDX 11 1 10 2 8 3 9 4 7 5 4 6 5 7 83 8 6 9 82 10 3 11 2 12 87 13
REMARK SMILES IDX 84 14 86 15 85 16 1 17 88 20 89 21 99 22 90 23 98 24 91 25
REMARK SMILES IDX 92 26 93 27 97 28 94 29 96 30 95 31 12 32 13 33 14 34 15 35
REMARK SMILES IDX 16 36 17 37 81 38 18 39 80 40 19 41 20 42 21 43 74 44 22 45
REMARK SMILES IDX 79 46 73 47 75 48 23 49 78 50 72 51 71 52 24 54 58 55 37 56
REMARK SMILES IDX 57 57 38 58 41 59 56 60 76 61 39 62 40 63 55 65 77 66 42 67
REMARK SMILES IDX 25 68 26 69 35 70 27 71 28 72 34 73 36 74 29 75 30 76 31 77
REMARK SMILES IDX 32 78 33 79 59 80 60 81 69 82 61 83 62 84 68 85 70 86 63 87
REMARK SMILES IDX 64 88 65 89 66 90 67 91 43 92 44 93 53 94 45 95 46 96 52 97
REMARK SMILES IDX 54 98 47 99 48 100 49 101 50 102 51 103
REMARK H PARENT 1 18 1 19 75 53 41 64
REMARK Flexibility Score: inf
ROOT
ATOM      1  C   UNL A   1      39.895  21.497  26.287  1.00  0.00     0.274 C 
ENDROOT
BRANCH   1   2
ATOM      2  O   UNL A   1      38.523  21.873  26.070  1.00  0.00    -0.462 OA
BRANCH   2   3
ATOM      3  C   UNL A   1      37.825  21.090  25.212  1.00  0.00     0.309 C 
ATOM      4  O   UNL A   1      38.062  19.908  24.993  1.00  0.00    -0.252 OA
BRANCH   3   5
ATOM      5  C   UNL A   1      36.677  21.810  24.549  1.00  0.00     0.103 C 
ATOM      6  N   UNL A   1      34.332  23.321  24.074  1.00  0.00    -0.355 N 
ATOM      7  C   UNL A   1      34.308  21.895  23.772  1.00  0.00     0.119 C 
ATOM      8  C   UNL A   1      35.618  24.014  24.156  1.00  0.00     0.119 C 
ATOM      9  C   UNL A   1      35.309  21.133  24.634  1.00  0.00     0.037 C 
ATOM     10  C   UNL A   1      36.582  23.247  25.051  1.00  0.00     0.037 C 
BRANCH   6  11
ATOM     11  C   UNL A   1      33.295  23.847  24.845  1.00  0.00     0.157 A 
ATOM     12  C   UNL A   1      32.649  25.007  24.397  1.00  0.00     0.118 A 
ATOM     13  C   UNL A   1      31.685  25.556  25.253  1.00  0.00     0.157 A 
ATOM     14  N   UNL A   1      32.987  23.267  26.017  1.00  0.00    -0.217 NA
ATOM     15  N   UNL A   1      31.418  25.034  26.461  1.00  0.00    -0.217 NA
ATOM     16  C   UNL A   1      32.067  23.899  26.761  1.00  0.00     0.226 A 
BRANCH  12  17
ATOM     17  N   UNL A   1      32.907  25.551  23.125  1.00  0.00    -0.393 N 
ATOM     18  H   UNL A   1      32.904  26.527  22.997  1.00  0.00     0.156 HD
ATOM     19  H   UNL A   1      33.091  24.956  22.362  1.00  0.00     0.156 HD
ENDBRANCH  12  17
BRANCH  13  20
ATOM     20  N   UNL A   1      31.028  26.703  24.851  1.00  0.00    -0.351 N 
ATOM     21  C   UNL A   1      31.429  28.007  25.361  1.00  0.00     0.139 C 
ATOM     22  C   UNL A   1      29.639  26.599  24.391  1.00  0.00     0.139 C 
ATOM     23  C   UNL A   1      31.224  29.051  24.233  1.00  0.00     0.138 C 
ATOM     24  C   UNL A   1      29.393  27.637  23.277  1.00  0.00     0.138 C 
ATOM     25  N   UNL A   1      29.846  28.979  23.707  1.00  0.00    -0.368 N 
BRANCH  25  26
ATOM     26  C   UNL A   1      29.272  30.067  23.074  1.00  0.00     0.037 A 
ATOM     27  C   UNL A   1      28.870  30.046  21.734  1.00  0.00     0.026 A 
ATOM     28  C   UNL A   1      29.093  31.258  23.791  1.00  0.00     0.026 A 
ATOM     29  C   UNL A   1      28.312  31.178  21.131  1.00  0.00     0.002 A 
ATOM     30  C   UNL A   1      28.551  32.395  23.195  1.00  0.00     0.002 A 
ATOM     31  C   UNL A   1      28.160  32.355  21.861  1.00  0.00     0.000 A 
ENDBRANCH  25  26
ENDBRANCH  13  20
ENDBRANCH   6  11
ENDBRANCH   3   5
ENDBRANCH   2   3
ENDBRANCH   1   2
BRANCH   1  32
ATOM     32  C   UNL A   1      40.734  22.715  26.675  1.00  0.00     0.275 C 
BRANCH  32  33
ATOM     33  O   UNL A   1      39.936  23.911  26.747  1.00  0.00    -0.458 OA
BRANCH  33  34
ATOM     34  C   UNL A   1      40.579  25.054  26.406  1.00  0.00     0.338 C 
ATOM     35  O   UNL A   1      40.961  25.385  25.297  1.00  0.00    -0.246 OA
BRANCH  34  36
ATOM     36  C   UNL A   1      40.690  25.934  27.577  1.00  0.00     0.060 A 
ATOM     37  C   UNL A   1      39.685  25.881  28.544  1.00  0.00     0.016 A 
ATOM     38  C   UNL A   1      41.701  26.891  27.659  1.00  0.00     0.016 A 
ATOM     39  C   UNL A   1      39.665  26.801  29.588  1.00  0.00     0.010 A 
ATOM     40  C   UNL A   1      41.694  27.803  28.720  1.00  0.00     0.010 A 
ATOM     41  C   UNL A   1      40.665  27.776  29.679  1.00  0.00    -0.014 A 
BRANCH  41  42
ATOM     42  C   UNL A   1      40.600  28.798  30.751  1.00  0.00     0.031 A 
ATOM     43  C   UNL A   1      41.561  28.734  31.903  1.00  0.00     0.074 A 
ATOM     44  C   UNL A   1      39.701  29.798  30.672  1.00  0.00     0.049 A 
ATOM     45  N   UNL A   1      41.598  29.461  32.989  1.00  0.00    -0.248 NA
ATOM     46  C   UNL A   1      42.625  27.720  31.820  1.00  0.00     0.031 C 
ATOM     47  C   UNL A   1      38.761  30.003  29.568  1.00  0.00     0.029 A 
ATOM     48  N   UNL A   1      39.434  30.831  31.534  1.00  0.00    -0.354 N 
ATOM     49  C   UNL A   1      42.672  28.982  33.729  1.00  0.00     0.074 A 
ATOM     50  C   UNL A   1      43.256  27.895  32.974  1.00  0.00     0.031 C 
ATOM     51  C   UNL A   1      38.023  31.097  29.819  1.00  0.00     0.029 A 
ATOM     52  C   UNL A   1      38.401  31.638  31.121  1.00  0.00     0.049 A 
ATOM     53  H   UNL A   1      39.933  30.979  32.369  1.00  0.00     0.167 HD
ATOM     54  C   UNL A   1      43.128  29.415  34.929  1.00  0.00     0.037 A 
ATOM     55  C   UNL A   1      37.806  32.676  31.739  1.00  0.00     0.037 A 
ATOM     56  C   UNL A   1      42.551  30.508  35.666  1.00  0.00     0.049 A 
ATOM     57  C   UNL A   1      38.283  33.091  33.103  1.00  0.00     0.074 A 
ATOM     58  C   UNL A   1      42.932  31.013  36.897  1.00  0.00     0.029 A 
ATOM     59  N   UNL A   1      41.474  31.269  35.238  1.00  0.00    -0.354 N 
ATOM     60  N   UNL A   1      39.267  32.596  33.816  1.00  0.00    -0.248 NA
ATOM     61  C   UNL A   1      37.560  34.191  33.755  1.00  0.00     0.031 C 
ATOM     62  C   UNL A   1      42.065  32.061  37.227  1.00  0.00     0.029 A 
ATOM     63  C   UNL A   1      41.167  32.232  36.185  1.00  0.00     0.049 A 
ATOM     64  H   UNL A   1      40.996  31.144  34.386  1.00  0.00     0.167 HD
ATOM     65  C   UNL A   1      39.286  33.330  34.997  1.00  0.00     0.074 A 
ATOM     66  C   UNL A   1      38.225  34.312  34.896  1.00  0.00     0.031 C 
ATOM     67  C   UNL A   1      40.105  33.199  36.069  1.00  0.00     0.037 A 
BRANCH  54  68
ATOM     68  C   UNL A   1      44.297  28.691  35.532  1.00  0.00     0.058 A 
ATOM     69  C   UNL A   1      45.620  29.073  35.261  1.00  0.00     0.135 A 
ATOM     70  C   UNL A   1      44.089  27.629  36.428  1.00  0.00     0.135 A 
ATOM     71  F   UNL A   1      45.872  30.068  34.397  1.00  0.00    -0.206 F 
ATOM     72  C   UNL A   1      46.698  28.420  35.850  1.00  0.00     0.059 A 
ATOM     73  C   UNL A   1      45.152  26.974  37.043  1.00  0.00     0.059 A 
ATOM     74  F   UNL A   1      42.843  27.222  36.715  1.00  0.00    -0.206 F 
ATOM     75  C   UNL A   1      46.455  27.371  36.740  1.00  0.00     0.060 A 
BRANCH  75  76
ATOM     76  S   UNL A   1      47.864  26.543  37.506  1.00  0.00     0.124 S 
ATOM     77  O   UNL A   1      47.207  25.723  38.517  1.00  0.00    -0.237 OA
ATOM     78  O   UNL A   1      48.448  25.817  36.382  1.00  0.00    -0.237 OA
ATOM     79  O   UNL A   1      48.669  27.647  38.020  1.00  0.00    -0.744 OA
ENDBRANCH  75  76
ENDBRANCH  54  68
BRANCH  55  80
ATOM     80  C   UNL A   1      36.671  33.375  31.082  1.00  0.00     0.058 A 
ATOM     81  C   UNL A   1      36.887  34.252  30.010  1.00  0.00     0.135 A 
ATOM     82  C   UNL A   1      35.348  33.162  31.499  1.00  0.00     0.135 A 
ATOM     83  F   UNL A   1      38.136  34.497  29.584  1.00  0.00    -0.206 F 
ATOM     84  C   UNL A   1      35.831  34.898  29.374  1.00  0.00     0.059 A 
ATOM     85  C   UNL A   1      34.274  33.779  30.866  1.00  0.00     0.059 A 
ATOM     86  F   UNL A   1      35.089  32.325  32.515  1.00  0.00    -0.206 F 
ATOM     87  C   UNL A   1      34.527  34.650  29.807  1.00  0.00     0.060 A 
BRANCH  87  88
ATOM     88  S   UNL A   1      33.158  35.442  28.934  1.00  0.00     0.124 S 
ATOM     89  O   UNL A   1      32.573  34.314  28.220  1.00  0.00    -0.237 OA
ATOM     90  O   UNL A   1      32.364  35.983  30.034  1.00  0.00    -0.237 OA
ATOM     91  O   UNL A   1      33.824  36.441  28.103  1.00  0.00    -0.744 OA
ENDBRANCH  87  88
ENDBRANCH  55  80
BRANCH  67  92
ATOM     92  C   UNL A   1      39.896  34.145  37.215  1.00  0.00     0.058 A 
ATOM     93  C   UNL A   1      40.324  35.479  37.147  1.00  0.00     0.135 A 
ATOM     94  C   UNL A   1      39.209  33.731  38.367  1.00  0.00     0.135 A 
ATOM     95  F   UNL A   1      40.992  35.920  36.069  1.00  0.00    -0.206 F 
ATOM     96  C   UNL A   1      40.090  36.369  38.190  1.00  0.00     0.059 A 
ATOM     97  C   UNL A   1      38.947  34.609  39.414  1.00  0.00     0.059 A 
ATOM     98  F   UNL A   1      38.772  32.465  38.475  1.00  0.00    -0.206 F 
ATOM     99  C   UNL A   1      39.399  35.925  39.319  1.00  0.00     0.060 A 
BRANCH  99 100
ATOM    100  S   UNL A   1      39.066  37.100  40.649  1.00  0.00     0.124 S 
ATOM    101  O   UNL A   1      38.335  36.269  41.599  1.00  0.00    -0.237 OA
ATOM    102  O   UNL A   1      40.410  37.499  41.058  1.00  0.00    -0.237 OA
ATOM    103  O   UNL A   1      38.283  38.143  39.991  1.00  0.00    -0.744 OA
ENDBRANCH  99 100
ENDBRANCH  67  92
ENDBRANCH  41  42
ENDBRANCH  34  36
ENDBRANCH  33  34
ENDBRANCH  32  33
ENDBRANCH   1  32
TORSDOF 18
ENDMDL
MODEL 3
REMARK VINA RESULT:     -12.4      0.850      7.953
REMARK SMILES Nc1c(N2CCC(C(=O)OCCOC(=O)c3ccc(-c4c5nc(c(-c6c(F)cc(S(=O)(=O)[O-])cc6F)c6ccc([nH]6)c(-c6c(F)cc(S(=O)(=O)[O-])cc6F)c6nc(c(-c7c(F)cc(S(=O)(=O)[O-])cc7F)c7ccc4[nH]7)C=C6)C=C5)cc3)CC2)ncnc1N1CCN(c2ccccc2)CC1
REMARK SMILES IDX 11 1 10 2 8 3 9 4 7 5 4 6 5 7 83 8 6 9 82 10 3 11 2 12 87 13
REMARK SMILES IDX 84 14 86 15 85 16 1 17 88 20 89 21 99 22 90 23 98 24 91 25
REMARK SMILES IDX 92 26 93 27 97 28 94 29 96 30 95 31 12 32 13 33 14 34 15 35
REMARK SMILES IDX 16 36 17 37 81 38 18 39 80 40 19 41 20 42 21 43 74 44 22 45
REMARK SMILES IDX 79 46 73 47 75 48 23 49 78 50 72 51 71 52 24 54 58 55 37 56
REMARK SMILES IDX 57 57 38 58 41 59 56 60 76 61 39 62 40 63 55 65 77 66 42 67
REMARK SMILES IDX 25 68 26 69 35 70 27 71 28 72 34 73 36 74 29 75 30 76 31 77
REMARK SMILES IDX 32 78 33 79 59 80 60 81 69 82 61 83 62 84 68 85 70 86 63 87
REMARK SMILES IDX 64 88 65 89 66 90 67 91 43 92 44 93 53 94 45 95 46 96 52 97
REMARK SMILES IDX 54 98 47 99 48 100 49 101 50 102 51 103
REMARK H PARENT 1 18 1 19 75 53 41 64
REMARK Flexibility Score: inf
ROOT
ATOM      1  C   UNL A   1      35.076  31.813  27.988  1.00  0.00     0.274 C 
ENDROOT
BRANCH   1   2
ATOM      2  O   UNL A   1      34.492  30.693  27.300  1.00  0.00    -0.462 OA
BRANCH   2   3
ATOM      3  C   UNL A   1      33.158  30.770  27.073  1.00  0.00     0.309 C 
ATOM      4  O   UNL A   1      32.496  31.799  27.138  1.00  0.00    -0.252 OA
BRANCH   3   5
ATOM      5  C   UNL A   1      32.542  29.446  26.692  1.00  0.00     0.103 C 
ATOM      6  N   UNL A   1      32.043  26.925  25.508  1.00  0.00    -0.355 N 
ATOM      7  C   UNL A   1      31.166  28.036  25.162  1.00  0.00     0.119 C 
ATOM      8  C   UNL A   1      32.822  26.986  26.745  1.00  0.00     0.119 C 
ATOM      9  C   UNL A   1      31.886  29.373  25.313  1.00  0.00     0.037 C 
ATOM     10  C   UNL A   1      33.554  28.317  26.850  1.00  0.00     0.037 C 
BRANCH   6  11
ATOM     11  C   UNL A   1      32.588  26.169  24.470  1.00  0.00     0.157 A 
ATOM     12  C   UNL A   1      32.727  24.787  24.648  1.00  0.00     0.118 A 
ATOM     13  C   UNL A   1      33.372  24.085  23.621  1.00  0.00     0.157 A 
ATOM     14  N   UNL A   1      33.021  26.792  23.361  1.00  0.00    -0.217 NA
ATOM     15  N   UNL A   1      33.879  24.701  22.541  1.00  0.00    -0.217 NA
ATOM     16  C   UNL A   1      33.646  26.020  22.460  1.00  0.00     0.226 A 
BRANCH  12  17
ATOM     17  N   UNL A   1      32.183  24.129  25.767  1.00  0.00    -0.393 N 
ATOM     18  H   UNL A   1      32.618  23.321  26.123  1.00  0.00     0.156 HD
ATOM     19  H   UNL A   1      31.367  24.477  26.195  1.00  0.00     0.156 HD
ENDBRANCH  12  17
BRANCH  13  20
ATOM     20  N   UNL A   1      33.533  22.720  23.760  1.00  0.00    -0.351 N 
ATOM     21  C   UNL A   1      34.825  22.157  24.129  1.00  0.00     0.139 C 
ATOM     22  C   UNL A   1      32.634  21.824  23.025  1.00  0.00     0.139 C 
ATOM     23  C   UNL A   1      34.573  20.910  25.014  1.00  0.00     0.138 C 
ATOM     24  C   UNL A   1      32.374  20.560  23.871  1.00  0.00     0.138 C 
ATOM     25  N   UNL A   1      33.650  19.975  24.340  1.00  0.00    -0.368 N 
BRANCH  25  26
ATOM     26  C   UNL A   1      33.642  18.630  24.664  1.00  0.00     0.037 A 
ATOM     27  C   UNL A   1      32.586  18.017  25.347  1.00  0.00     0.026 A 
ATOM     28  C   UNL A   1      34.742  17.837  24.313  1.00  0.00     0.026 A 
ATOM     29  C   UNL A   1      32.631  16.656  25.671  1.00  0.00     0.002 A 
ATOM     30  C   UNL A   1      34.802  16.484  24.645  1.00  0.00     0.002 A 
ATOM     31  C   UNL A   1      33.743  15.892  25.326  1.00  0.00     0.000 A 
ENDBRANCH  25  26
ENDBRANCH  13  20
ENDBRANCH   6  11
ENDBRANCH   3   5
ENDBRANCH   2   3
ENDBRANCH   1   2
BRANCH   1  32
ATOM     32  C   UNL A   1      35.055  31.589  29.501  1.00  0.00     0.275 C 
BRANCH  32  33
ATOM     33  O   UNL A   1      36.374  31.683  30.072  1.00  0.00    -0.458 OA
BRANCH  33  34
ATOM     34  C   UNL A   1      36.879  30.521  30.551  1.00  0.00     0.338 C 
ATOM     35  O   UNL A   1      36.292  29.668  31.194  1.00  0.00    -0.246 OA
BRANCH  34  36
ATOM     36  C   UNL A   1      38.270  30.360  30.106  1.00  0.00     0.060 A 
ATOM     37  C   UNL A   1      38.523  30.266  28.737  1.00  0.00     0.016 A 
ATOM     38  C   UNL A   1      39.299  30.172  31.030  1.00  0.00     0.016 A 
ATOM     39  C   UNL A   1      39.799  29.957  28.278  1.00  0.00     0.010 A 
ATOM     40  C   UNL A   1      40.587  29.882  30.568  1.00  0.00     0.010 A 
ATOM     41  C   UNL A   1      40.840  29.754  29.190  1.00  0.00    -0.014 A 
BRANCH  41  42
ATOM     42  C   UNL A   1      42.181  29.354  28.699  1.00  0.00     0.031 A 
ATOM     43  C   UNL A   1      42.426  27.937  28.268  1.00  0.00     0.074 A 
ATOM     44  C   UNL A   1      43.164  30.271  28.610  1.00  0.00     0.049 A 
ATOM     45  N   UNL A   1      43.547  27.364  27.914  1.00  0.00    -0.248 NA
ATOM     46  C   UNL A   1      41.254  27.047  28.224  1.00  0.00     0.031 C 
ATOM     47  C   UNL A   1      43.026  31.692  28.936  1.00  0.00     0.029 A 
ATOM     48  N   UNL A   1      44.471  30.144  28.216  1.00  0.00    -0.354 N 
ATOM     49  C   UNL A   1      43.223  26.043  27.626  1.00  0.00     0.074 A 
ATOM     50  C   UNL A   1      41.802  25.896  27.856  1.00  0.00     0.031 C 
ATOM     51  C   UNL A   1      44.201  32.305  28.724  1.00  0.00     0.029 A 
ATOM     52  C   UNL A   1      45.187  31.314  28.300  1.00  0.00     0.049 A 
ATOM     53  H   UNL A   1      44.861  29.295  27.905  1.00  0.00     0.167 HD
ATOM     54  C   UNL A   1      44.039  25.048  27.206  1.00  0.00     0.037 A 
ATOM     55  C   UNL A   1      46.495  31.554  28.089  1.00  0.00     0.037 A 
ATOM     56  C   UNL A   1      45.450  25.207  26.965  1.00  0.00     0.049 A 
ATOM     57  C   UNL A   1      47.396  30.416  27.695  1.00  0.00     0.074 A 
ATOM     58  C   UNL A   1      46.366  24.255  26.552  1.00  0.00     0.029 A 
ATOM     59  N   UNL A   1      46.147  26.397  27.109  1.00  0.00    -0.354 N 
ATOM     60  N   UNL A   1      47.087  29.160  27.476  1.00  0.00    -0.248 NA
ATOM     61  C   UNL A   1      48.824  30.723  27.536  1.00  0.00     0.031 C 
ATOM     62  C   UNL A   1      47.624  24.863  26.475  1.00  0.00     0.029 A 
ATOM     63  C   UNL A   1      47.484  26.202  26.806  1.00  0.00     0.049 A 
ATOM     64  H   UNL A   1      45.750  27.254  27.386  1.00  0.00     0.167 HD
ATOM     65  C   UNL A   1      48.280  28.528  27.146  1.00  0.00     0.074 A 
ATOM     66  C   UNL A   1      49.314  29.542  27.179  1.00  0.00     0.031 C 
ATOM     67  C   UNL A   1      48.499  27.224  26.847  1.00  0.00     0.037 A 
BRANCH  54  68
ATOM     68  C   UNL A   1      43.433  23.690  27.002  1.00  0.00     0.058 A 
ATOM     69  C   UNL A   1      43.084  23.223  25.725  1.00  0.00     0.135 A 
ATOM     70  C   UNL A   1      43.242  22.826  28.093  1.00  0.00     0.135 A 
ATOM     71  F   UNL A   1      43.229  24.017  24.653  1.00  0.00    -0.206 F 
ATOM     72  C   UNL A   1      42.555  21.950  25.537  1.00  0.00     0.059 A 
ATOM     73  C   UNL A   1      42.731  21.542  27.926  1.00  0.00     0.059 A 
ATOM     74  F   UNL A   1      43.555  23.227  29.335  1.00  0.00    -0.206 F 
ATOM     75  C   UNL A   1      42.382  21.116  26.645  1.00  0.00     0.060 A 
BRANCH  75  76
ATOM     76  S   UNL A   1      41.706  19.463  26.383  1.00  0.00     0.124 S 
ATOM     77  O   UNL A   1      42.158  18.769  27.584  1.00  0.00    -0.237 OA
ATOM     78  O   UNL A   1      40.272  19.721  26.302  1.00  0.00    -0.237 OA
ATOM     79  O   UNL A   1      42.333  19.032  25.137  1.00  0.00    -0.744 OA
ENDBRANCH  75  76
ENDBRANCH  54  68
BRANCH  55  80
ATOM     80  C   UNL A   1      47.036  32.925  28.279  1.00  0.00     0.058 A 
ATOM     81  C   UNL A   1      46.999  33.865  27.240  1.00  0.00     0.135 A 
ATOM     82  C   UNL A   1      47.579  33.328  29.510  1.00  0.00     0.135 A 
ATOM     83  F   UNL A   1      46.501  33.522  26.042  1.00  0.00    -0.206 F 
ATOM     84  C   UNL A   1      47.485  35.158  27.411  1.00  0.00     0.059 A 
ATOM     85  C   UNL A   1      48.050  34.620  29.712  1.00  0.00     0.059 A 
ATOM     86  F   UNL A   1      47.627  32.466  30.537  1.00  0.00    -0.206 F 
ATOM     87  C   UNL A   1      48.004  35.527  28.654  1.00  0.00     0.060 A 
BRANCH  87  88
ATOM     88  S   UNL A   1      48.573  37.226  28.886  1.00  0.00     0.124 S 
ATOM     89  O   UNL A   1      49.962  37.133  28.451  1.00  0.00    -0.237 OA
ATOM     90  O   UNL A   1      47.677  37.972  28.008  1.00  0.00    -0.237 OA
ATOM     91  O   UNL A   1      48.371  37.454  30.314  1.00  0.00    -0.744 OA
ENDBRANCH  87  88
ENDBRANCH  55  80
BRANCH  67  92
ATOM     92  C   UNL A   1      49.908  26.820  26.521  1.00  0.00     0.058 A 
ATOM     93  C   UNL A   1      50.769  26.318  27.508  1.00  0.00     0.135 A 
ATOM     94  C   UNL A   1      50.381  26.880  25.201  1.00  0.00     0.135 A 
ATOM     95  F   UNL A   1      50.365  26.249  28.786  1.00  0.00    -0.206 F 
ATOM     96  C   UNL A   1      52.060  25.900  27.198  1.00  0.00     0.059 A 
ATOM     97  C   UNL A   1      51.661  26.449  24.866  1.00  0.00     0.059 A 
ATOM     98  F   UNL A   1      49.590  27.346  24.221  1.00  0.00    -0.206 F 
ATOM     99  C   UNL A   1      52.496  25.969  25.873  1.00  0.00     0.060 A 
BRANCH  99 100
ATOM    100  S   UNL A   1      54.158  25.387  25.478  1.00  0.00     0.124 S 
ATOM    101  O   UNL A   1      53.874  24.137  24.781  1.00  0.00    -0.237 OA
ATOM    102  O   UNL A   1      54.681  26.469  24.650  1.00  0.00    -0.237 OA
ATOM    103  O   UNL A   1      54.789  25.248  26.788  1.00  0.00    -0.744 OA
ENDBRANCH  99 100
ENDBRANCH  67  92
ENDBRANCH  41  42
ENDBRANCH  34  36
ENDBRANCH  33  34
ENDBRANCH  32  33
ENDBRANCH   1  32
TORSDOF 18
ENDMDL
