MODEL 1
REMARK VINA RESULT:     -12.3      0.000      0.000
REMARK SMILES O=C(OCCOC(=O)c1ccccc1Nc1cccc(S(F)(F)(F)(F)F)c1)c1ccc(-c2c3nc(c(-c4c(F)cc(S(=O)(=O)[O-])cc4F)c4ccc([nH]4)c(-c4c(F)cc(S(=O)(=O)[O-])cc4F)c4nc(c(-c5c(F)cc(S(=O)(=O)[O-])cc5F)c5ccc2[nH]5)C=C4)C=C3)cc1
REMARK SMILES IDX 4 1 3 2 2 3 1 4 28 5 29 6 93 7 30 8 92 9 31 10 32 11 33 12
REMARK SMILES IDX 86 13 34 14 91 15 85 16 87 17 35 18 90 19 84 20 83 21 36 23
REMARK SMILES IDX 70 24 49 25 69 26 50 27 53 28 68 29 88 30 51 31 52 32 67 34
REMARK SMILES IDX 89 35 54 36 37 37 38 38 47 39 39 40 40 41 46 42 48 43 41 44
REMARK SMILES IDX 42 45 43 46 44 47 45 48 71 49 72 50 81 51 73 52 74 53 80 54
REMARK SMILES IDX 82 55 75 56 76 57 77 58 78 59 79 60 55 61 56 62 65 63 57 64
REMARK SMILES IDX 58 65 64 66 66 67 59 68 60 69 61 70 62 71 63 72 5 73 6 74
REMARK SMILES IDX 7 75 8 76 9 77 10 78 14 79 11 80 13 81 12 82 15 83 16 85
REMARK SMILES IDX 17 86 27 87 18 88 20 89 19 90 21 91 22 92 23 93 24 94 25 95
REMARK SMILES IDX 26 96
REMARK H PARENT 87 22 53 33 15 84
REMARK Flexibility Score: inf
ROOT
ATOM      1  C   UNL A   1      32.372  29.584  27.030  1.00  0.00     0.275 C 
ENDROOT
BRANCH   1   2
ATOM      2  O   UNL A   1      33.786  29.504  27.131  1.00  0.00    -0.458 OA
BRANCH   2   3
ATOM      3  C   UNL A   1      34.501  30.481  27.874  1.00  0.00     0.338 C 
ATOM      4  O   UNL A   1      33.948  31.586  28.168  1.00  0.00    -0.246 OA
BRANCH   3   5
ATOM      5  C   UNL A   1      35.929  30.204  28.316  1.00  0.00     0.060 A 
ATOM      6  C   UNL A   1      36.923  30.330  27.359  1.00  0.00     0.016 A 
ATOM      7  C   UNL A   1      36.196  29.736  29.530  1.00  0.00     0.016 A 
ATOM      8  C   UNL A   1      38.124  29.660  27.690  1.00  0.00     0.010 A 
ATOM      9  C   UNL A   1      37.435  29.220  29.824  1.00  0.00     0.010 A 
ATOM     10  C   UNL A   1      38.447  29.258  28.906  1.00  0.00    -0.014 A 
BRANCH  10  11
ATOM     11  C   UNL A   1      39.869  28.858  29.265  1.00  0.00     0.031 A 
ATOM     12  C   UNL A   1      40.371  27.602  28.917  1.00  0.00     0.074 A 
ATOM     13  C   UNL A   1      40.626  29.856  29.854  1.00  0.00     0.049 A 
ATOM     14  N   UNL A   1      41.621  27.160  29.049  1.00  0.00    -0.248 NA
ATOM     15  C   UNL A   1      39.560  26.527  28.323  1.00  0.00     0.031 C 
ATOM     16  C   UNL A   1      40.130  31.129  30.200  1.00  0.00     0.029 A 
ATOM     17  N   UNL A   1      41.956  29.812  30.206  1.00  0.00    -0.354 N 
ATOM     18  C   UNL A   1      41.720  25.912  28.587  1.00  0.00     0.074 A 
ATOM     19  C   UNL A   1      40.395  25.485  28.119  1.00  0.00     0.031 C 
ATOM     20  C   UNL A   1      41.144  31.838  30.763  1.00  0.00     0.029 A 
ATOM     21  C   UNL A   1      42.291  31.020  30.778  1.00  0.00     0.049 A 
ATOM     22  H   UNL A   1      42.564  29.049  30.072  1.00  0.00     0.167 HD
ATOM     23  C   UNL A   1      42.865  25.114  28.535  1.00  0.00     0.037 A 
ATOM     24  C   UNL A   1      43.519  31.406  31.290  1.00  0.00     0.037 A 
ATOM     25  C   UNL A   1      44.104  25.516  29.008  1.00  0.00     0.049 A 
ATOM     26  C   UNL A   1      44.651  30.585  31.292  1.00  0.00     0.074 A 
ATOM     27  C   UNL A   1      45.269  24.726  28.956  1.00  0.00     0.029 A 
ATOM     28  N   UNL A   1      44.432  26.714  29.602  1.00  0.00    -0.354 N 
ATOM     29  N   UNL A   1      44.758  29.353  30.795  1.00  0.00    -0.248 NA
ATOM     30  C   UNL A   1      45.949  30.971  31.861  1.00  0.00     0.031 C 
ATOM     31  C   UNL A   1      46.283  25.435  29.520  1.00  0.00     0.029 A 
ATOM     32  C   UNL A   1      45.768  26.678  29.933  1.00  0.00     0.049 A 
ATOM     33  H   UNL A   1      43.817  27.467  29.762  1.00  0.00     0.167 HD
ATOM     34  C   UNL A   1      46.001  28.896  30.964  1.00  0.00     0.074 A 
ATOM     35  C   UNL A   1      46.782  29.928  31.659  1.00  0.00     0.031 C 
ATOM     36  C   UNL A   1      46.515  27.662  30.562  1.00  0.00     0.037 A 
BRANCH  23  37
ATOM     37  C   UNL A   1      42.745  23.727  27.925  1.00  0.00     0.058 A 
ATOM     38  C   UNL A   1      42.958  23.647  26.559  1.00  0.00     0.135 A 
ATOM     39  C   UNL A   1      42.528  22.637  28.653  1.00  0.00     0.135 A 
ATOM     40  F   UNL A   1      43.425  24.663  25.838  1.00  0.00    -0.206 F 
ATOM     41  C   UNL A   1      42.634  22.389  26.000  1.00  0.00     0.059 A 
ATOM     42  C   UNL A   1      42.356  21.415  28.048  1.00  0.00     0.059 A 
ATOM     43  F   UNL A   1      42.476  22.729  29.978  1.00  0.00    -0.206 F 
ATOM     44  C   UNL A   1      42.494  21.274  26.695  1.00  0.00     0.060 A 
BRANCH  44  45
ATOM     45  S   UNL A   1      42.483  19.649  25.900  1.00  0.00     0.124 S 
ATOM     46  O   UNL A   1      42.899  18.581  26.913  1.00  0.00    -0.237 OA
ATOM     47  O   UNL A   1      41.074  19.343  25.386  1.00  0.00    -0.237 OA
ATOM     48  O   UNL A   1      43.580  19.649  24.587  1.00  0.00    -0.744 OA
ENDBRANCH  44  45
ENDBRANCH  23  37
BRANCH  24  49
ATOM     49  C   UNL A   1      43.643  32.799  31.885  1.00  0.00     0.058 A 
ATOM     50  C   UNL A   1      43.338  33.047  33.213  1.00  0.00     0.135 A 
ATOM     51  C   UNL A   1      43.967  33.785  31.057  1.00  0.00     0.135 A 
ATOM     52  F   UNL A   1      43.257  32.088  34.131  1.00  0.00    -0.206 F 
ATOM     53  C   UNL A   1      43.119  34.414  33.506  1.00  0.00     0.059 A 
ATOM     54  C   UNL A   1      43.858  35.096  31.454  1.00  0.00     0.059 A 
ATOM     55  F   UNL A   1      44.398  33.501  29.832  1.00  0.00    -0.206 F 
ATOM     56  C   UNL A   1      43.505  35.416  32.736  1.00  0.00     0.060 A 
BRANCH  56  57
ATOM     57  S   UNL A   1      43.561  37.119  33.343  1.00  0.00     0.124 S 
ATOM     58  O   UNL A   1      43.608  38.083  32.154  1.00  0.00    -0.237 OA
ATOM     59  O   UNL A   1      42.311  37.404  34.180  1.00  0.00    -0.237 OA
ATOM     60  O   UNL A   1      44.955  37.335  34.308  1.00  0.00    -0.744 OA
ENDBRANCH  56  57
ENDBRANCH  24  49
BRANCH  36  61
ATOM     61  C   UNL A   1      47.984  27.380  30.832  1.00  0.00     0.058 A 
ATOM     62  C   UNL A   1      48.894  27.711  29.841  1.00  0.00     0.135 A 
ATOM     63  C   UNL A   1      48.370  26.767  31.944  1.00  0.00     0.135 A 
ATOM     64  F   UNL A   1      48.608  28.538  28.840  1.00  0.00    -0.206 F 
ATOM     65  C   UNL A   1      50.156  27.087  29.990  1.00  0.00     0.059 A 
ATOM     66  C   UNL A   1      49.657  26.302  32.077  1.00  0.00     0.059 A 
ATOM     67  F   UNL A   1      47.504  26.598  32.939  1.00  0.00    -0.206 F 
ATOM     68  C   UNL A   1      50.594  26.540  31.109  1.00  0.00     0.060 A 
BRANCH  68  69
ATOM     69  S   UNL A   1      52.340  26.130  31.350  1.00  0.00     0.124 S 
ATOM     70  O   UNL A   1      53.060  26.150  30.000  1.00  0.00    -0.237 OA
ATOM     71  O   UNL A   1      52.981  27.158  32.287  1.00  0.00    -0.237 OA
ATOM     72  O   UNL A   1      52.468  24.571  32.042  1.00  0.00    -0.744 OA
ENDBRANCH  68  69
ENDBRANCH  36  61
ENDBRANCH  10  11
ENDBRANCH   3   5
ENDBRANCH   2   3
ENDBRANCH   1   2
BRANCH   1  73
ATOM     73  C   UNL A   1      31.970  29.614  25.566  1.00  0.00     0.275 C 
BRANCH  73  74
ATOM     74  O   UNL A   1      33.135  29.665  24.755  1.00  0.00    -0.458 OA
BRANCH  74  75
ATOM     75  C   UNL A   1      33.341  28.688  23.746  1.00  0.00     0.340 C 
ATOM     76  O   UNL A   1      33.975  28.993  22.687  1.00  0.00    -0.246 OA
BRANCH  75  77
ATOM     77  C   UNL A   1      32.803  27.279  23.931  1.00  0.00     0.083 A 
ATOM     78  C   UNL A   1      33.359  26.429  24.873  1.00  0.00     0.018 A 
ATOM     79  C   UNL A   1      31.907  26.843  23.054  1.00  0.00     0.053 A 
ATOM     80  C   UNL A   1      33.117  25.058  24.621  1.00  0.00     0.001 A 
ATOM     81  C   UNL A   1      31.619  25.503  22.954  1.00  0.00     0.027 A 
ATOM     82  C   UNL A   1      32.178  24.598  23.814  1.00  0.00     0.002 A 
BRANCH  79  83
ATOM     83  N   UNL A   1      31.216  27.804  22.180  1.00  0.00    -0.355 N 
ATOM     84  H   UNL A   1      31.582  28.010  21.290  1.00  0.00     0.167 HD
BRANCH  83  85
ATOM     85  C   UNL A   1      29.979  28.455  22.637  1.00  0.00     0.040 A 
ATOM     86  C   UNL A   1      28.909  27.674  23.040  1.00  0.00     0.026 A 
ATOM     87  C   UNL A   1      29.908  29.781  22.645  1.00  0.00     0.050 A 
ATOM     88  C   UNL A   1      27.693  28.389  23.162  1.00  0.00     0.004 A 
ATOM     89  C   UNL A   1      28.718  30.415  22.906  1.00  0.00     0.109 A 
ATOM     90  C   UNL A   1      27.603  29.703  23.252  1.00  0.00     0.024 A 
BRANCH  89  91
ATOM     91  S   UNL A   1      28.623  32.218  22.791  1.00  0.00     0.310 S 
ATOM     92  F   UNL A   1      27.255  32.106  23.585  1.00  0.00    -0.094 F 
ATOM     93  F   UNL A   1      27.778  32.165  21.462  1.00  0.00    -0.094 F 
ATOM     94  F   UNL A   1      28.466  33.764  22.860  1.00  0.00    -0.094 F 
ATOM     95  F   UNL A   1      29.351  32.237  24.193  1.00  0.00    -0.094 F 
ATOM     96  F   UNL A   1      28.694  30.640  22.791  1.00  0.00    -0.094 F 
ENDBRANCH  89  91
ENDBRANCH  83  85
ENDBRANCH  79  83
ENDBRANCH  75  77
ENDBRANCH  74  75
ENDBRANCH  73  74
ENDBRANCH   1  73
TORSDOF 17
ENDMDL
MODEL 2
REMARK VINA RESULT:     -12.2      5.374      7.027
REMARK SMILES O=C(OCCOC(=O)c1ccccc1Nc1cccc(S(F)(F)(F)(F)F)c1)c1ccc(-c2c3nc(c(-c4c(F)cc(S(=O)(=O)[O-])cc4F)c4ccc([nH]4)c(-c4c(F)cc(S(=O)(=O)[O-])cc4F)c4nc(c(-c5c(F)cc(S(=O)(=O)[O-])cc5F)c5ccc2[nH]5)C=C4)C=C3)cc1
REMARK SMILES IDX 4 1 3 2 2 3 1 4 28 5 29 6 93 7 30 8 92 9 31 10 32 11 33 12
REMARK SMILES IDX 86 13 34 14 91 15 85 16 87 17 35 18 90 19 84 20 83 21 36 23
REMARK SMILES IDX 70 24 49 25 69 26 50 27 53 28 68 29 88 30 51 31 52 32 67 34
REMARK SMILES IDX 89 35 54 36 37 37 38 38 47 39 39 40 40 41 46 42 48 43 41 44
REMARK SMILES IDX 42 45 43 46 44 47 45 48 71 49 72 50 81 51 73 52 74 53 80 54
REMARK SMILES IDX 82 55 75 56 76 57 77 58 78 59 79 60 55 61 56 62 65 63 57 64
REMARK SMILES IDX 58 65 64 66 66 67 59 68 60 69 61 70 62 71 63 72 5 73 6 74
REMARK SMILES IDX 7 75 8 76 9 77 10 78 14 79 11 80 13 81 12 82 15 83 16 85
REMARK SMILES IDX 17 86 27 87 18 88 20 89 19 90 21 91 22 92 23 93 24 94 25 95
REMARK SMILES IDX 26 96
REMARK H PARENT 87 22 53 33 15 84
REMARK Flexibility Score: inf
ROOT
ATOM      1  C   UNL A   1      34.505  32.201  28.625  1.00  0.00     0.275 C 
ENDROOT
BRANCH   1   2
ATOM      2  O   UNL A   1      35.531  31.270  28.312  1.00  0.00    -0.458 OA
BRANCH   2   3
ATOM      3  C   UNL A   1      36.180  30.553  29.352  1.00  0.00     0.338 C 
ATOM      4  O   UNL A   1      35.616  30.425  30.484  1.00  0.00    -0.246 OA
BRANCH   3   5
ATOM      5  C   UNL A   1      37.549  29.939  29.111  1.00  0.00     0.060 A 
ATOM      6  C   UNL A   1      38.348  29.720  30.221  1.00  0.00     0.016 A 
ATOM      7  C   UNL A   1      38.009  29.741  27.881  1.00  0.00     0.016 A 
ATOM      8  C   UNL A   1      39.722  29.570  29.917  1.00  0.00     0.010 A 
ATOM      9  C   UNL A   1      39.338  29.463  27.667  1.00  0.00     0.010 A 
ATOM     10  C   UNL A   1      40.197  29.292  28.717  1.00  0.00    -0.014 A 
BRANCH  10  11
ATOM     11  C   UNL A   1      41.624  28.810  28.512  1.00  0.00     0.031 A 
ATOM     12  C   UNL A   1      41.895  27.470  28.228  1.00  0.00     0.074 A 
ATOM     13  C   UNL A   1      42.585  29.806  28.530  1.00  0.00     0.049 A 
ATOM     14  N   UNL A   1      43.069  26.929  27.901  1.00  0.00    -0.248 NA
ATOM     15  C   UNL A   1      40.881  26.404  28.243  1.00  0.00     0.031 C 
ATOM     16  C   UNL A   1      42.320  31.162  28.808  1.00  0.00     0.029 A 
ATOM     17  N   UNL A   1      43.936  29.682  28.291  1.00  0.00    -0.354 N 
ATOM     18  C   UNL A   1      42.927  25.620  27.683  1.00  0.00     0.074 A 
ATOM     19  C   UNL A   1      41.520  25.263  27.905  1.00  0.00     0.031 C 
ATOM     20  C   UNL A   1      43.495  31.843  28.749  1.00  0.00     0.029 A 
ATOM     21  C   UNL A   1      44.514  30.925  28.432  1.00  0.00     0.049 A 
ATOM     22  H   UNL A   1      44.407  28.850  28.060  1.00  0.00     0.167 HD
ATOM     23  C   UNL A   1      43.917  24.711  27.305  1.00  0.00     0.037 A 
ATOM     24  C   UNL A   1      45.852  31.258  28.298  1.00  0.00     0.037 A 
ATOM     25  C   UNL A   1      45.249  25.053  27.129  1.00  0.00     0.049 A 
ATOM     26  C   UNL A   1      46.853  30.337  27.978  1.00  0.00     0.074 A 
ATOM     27  C   UNL A   1      46.257  24.149  26.740  1.00  0.00     0.029 A 
ATOM     28  N   UNL A   1      45.830  26.290  27.294  1.00  0.00    -0.354 N 
ATOM     29  N   UNL A   1      46.705  29.036  27.722  1.00  0.00    -0.248 NA
ATOM     30  C   UNL A   1      48.279  30.673  27.865  1.00  0.00     0.031 C 
ATOM     31  C   UNL A   1      47.433  24.831  26.682  1.00  0.00     0.029 A 
ATOM     32  C   UNL A   1      47.177  26.170  27.032  1.00  0.00     0.049 A 
ATOM     33  H   UNL A   1      45.364  27.117  27.554  1.00  0.00     0.167 HD
ATOM     34  C   UNL A   1      47.887  28.488  27.435  1.00  0.00     0.074 A 
ATOM     35  C   UNL A   1      48.917  29.530  27.530  1.00  0.00     0.031 C 
ATOM     36  C   UNL A   1      48.147  27.159  27.093  1.00  0.00     0.037 A 
BRANCH  23  37
ATOM     37  C   UNL A   1      43.511  23.264  27.074  1.00  0.00     0.058 A 
ATOM     38  C   UNL A   1      43.331  22.892  25.751  1.00  0.00     0.135 A 
ATOM     39  C   UNL A   1      43.409  22.379  28.059  1.00  0.00     0.135 A 
ATOM     40  F   UNL A   1      43.667  23.670  24.727  1.00  0.00    -0.206 F 
ATOM     41  C   UNL A   1      42.755  21.609  25.590  1.00  0.00     0.059 A 
ATOM     42  C   UNL A   1      42.969  21.101  27.808  1.00  0.00     0.059 A 
ATOM     43  F   UNL A   1      43.734  22.732  29.298  1.00  0.00    -0.206 F 
ATOM     44  C   UNL A   1      42.715  20.683  26.531  1.00  0.00     0.060 A 
BRANCH  44  45
ATOM     45  S   UNL A   1      42.341  18.954  26.152  1.00  0.00     0.124 S 
ATOM     46  O   UNL A   1      42.499  18.107  27.416  1.00  0.00    -0.237 OA
ATOM     47  O   UNL A   1      40.902  18.844  25.640  1.00  0.00    -0.237 OA
ATOM     48  O   UNL A   1      43.417  18.388  24.949  1.00  0.00    -0.744 OA
ENDBRANCH  44  45
ENDBRANCH  23  37
BRANCH  24  49
ATOM     49  C   UNL A   1      46.255  32.708  28.514  1.00  0.00     0.058 A 
ATOM     50  C   UNL A   1      46.583  33.187  29.771  1.00  0.00     0.135 A 
ATOM     51  C   UNL A   1      46.191  33.517  27.463  1.00  0.00     0.135 A 
ATOM     52  F   UNL A   1      46.905  32.394  30.790  1.00  0.00    -0.206 F 
ATOM     53  C   UNL A   1      46.544  34.598  29.875  1.00  0.00     0.059 A 
ATOM     54  C   UNL A   1      46.296  34.878  27.621  1.00  0.00     0.059 A 
ATOM     55  F   UNL A   1      46.022  33.006  26.248  1.00  0.00    -0.206 F 
ATOM     56  C   UNL A   1      46.561  35.426  28.846  1.00  0.00     0.060 A 
BRANCH  56  57
ATOM     57  S   UNL A   1      46.915  37.189  29.045  1.00  0.00     0.124 S 
ATOM     58  O   UNL A   1      45.704  38.007  28.588  1.00  0.00    -0.237 OA
ATOM     59  O   UNL A   1      47.205  37.488  30.519  1.00  0.00    -0.237 OA
ATOM     60  O   UNL A   1      48.276  37.608  28.100  1.00  0.00    -0.744 OA
ENDBRANCH  56  57
ENDBRANCH  24  49
BRANCH  36  61
ATOM     61  C   UNL A   1      49.580  26.774  26.767  1.00  0.00     0.058 A 
ATOM     62  C   UNL A   1      49.995  26.895  25.451  1.00  0.00     0.135 A 
ATOM     63  C   UNL A   1      50.380  26.266  27.697  1.00  0.00     0.135 A 
ATOM     64  F   UNL A   1      49.340  27.619  24.547  1.00  0.00    -0.206 F 
ATOM     65  C   UNL A   1      51.178  26.177  25.153  1.00  0.00     0.059 A 
ATOM     66  C   UNL A   1      51.585  25.701  27.351  1.00  0.00     0.059 A 
ATOM     67  F   UNL A   1      50.013  26.301  28.974  1.00  0.00    -0.206 F 
ATOM     68  C   UNL A   1      52.030  25.731  26.058  1.00  0.00     0.060 A 
BRANCH  68  69
ATOM     69  S   UNL A   1      53.698  25.190  25.611  1.00  0.00     0.124 S 
ATOM     70  O   UNL A   1      54.515  24.952  26.883  1.00  0.00    -0.237 OA
ATOM     71  O   UNL A   1      53.615  23.891  24.806  1.00  0.00    -0.237 OA
ATOM     72  O   UNL A   1      54.455  26.399  24.666  1.00  0.00    -0.744 OA
ENDBRANCH  68  69
ENDBRANCH  36  61
ENDBRANCH  10  11
ENDBRANCH   3   5
ENDBRANCH   2   3
ENDBRANCH   1   2
BRANCH   1  73
ATOM     73  C   UNL A   1      34.841  33.549  28.009  1.00  0.00     0.275 C 
BRANCH  73  74
ATOM     74  O   UNL A   1      34.830  34.547  29.018  1.00  0.00    -0.458 OA
BRANCH  74  75
ATOM     75  C   UNL A   1      33.596  35.026  29.532  1.00  0.00     0.340 C 
ATOM     76  O   UNL A   1      32.529  34.884  28.855  1.00  0.00    -0.246 OA
BRANCH  75  77
ATOM     77  C   UNL A   1      33.550  35.708  30.889  1.00  0.00     0.083 A 
ATOM     78  C   UNL A   1      33.091  37.009  31.011  1.00  0.00     0.018 A 
ATOM     79  C   UNL A   1      34.114  35.078  31.913  1.00  0.00     0.053 A 
ATOM     80  C   UNL A   1      33.539  37.667  32.180  1.00  0.00     0.001 A 
ATOM     81  C   UNL A   1      34.400  35.751  33.076  1.00  0.00     0.027 A 
ATOM     82  C   UNL A   1      34.029  37.056  33.243  1.00  0.00     0.002 A 
BRANCH  79  83
ATOM     83  N   UNL A   1      34.436  33.648  31.799  1.00  0.00    -0.355 N 
ATOM     84  H   UNL A   1      33.751  33.012  31.491  1.00  0.00     0.167 HD
BRANCH  83  85
ATOM     85  C   UNL A   1      35.783  33.168  32.146  1.00  0.00     0.040 A 
ATOM     86  C   UNL A   1      35.966  32.438  33.308  1.00  0.00     0.026 A 
ATOM     87  C   UNL A   1      36.801  33.455  31.344  1.00  0.00     0.050 A 
ATOM     88  C   UNL A   1      37.322  32.299  33.689  1.00  0.00     0.004 A 
ATOM     89  C   UNL A   1      38.091  33.168  31.721  1.00  0.00     0.109 A 
ATOM     90  C   UNL A   1      38.350  32.500  32.886  1.00  0.00     0.024 A 
BRANCH  89  91
ATOM     91  S   UNL A   1      39.465  33.679  30.661  1.00  0.00     0.310 S 
ATOM     92  F   UNL A   1      38.539  34.878  30.192  1.00  0.00    -0.094 F 
ATOM     93  F   UNL A   1      38.919  32.864  29.429  1.00  0.00    -0.094 F 
ATOM     94  F   UNL A   1      40.597  34.292  29.788  1.00  0.00    -0.094 F 
ATOM     95  F   UNL A   1      39.913  34.594  31.869  1.00  0.00    -0.094 F 
ATOM     96  F   UNL A   1      38.256  33.151  31.529  1.00  0.00    -0.094 F 
ENDBRANCH  89  91
ENDBRANCH  83  85
ENDBRANCH  79  83
ENDBRANCH  75  77
ENDBRANCH  74  75
ENDBRANCH  73  74
ENDBRANCH   1  73
TORSDOF 17
ENDMDL
MODEL 3
REMARK VINA RESULT:     -12.0      5.642     10.616
REMARK SMILES O=C(OCCOC(=O)c1ccccc1Nc1cccc(S(F)(F)(F)(F)F)c1)c1ccc(-c2c3nc(c(-c4c(F)cc(S(=O)(=O)[O-])cc4F)c4ccc([nH]4)c(-c4c(F)cc(S(=O)(=O)[O-])cc4F)c4nc(c(-c5c(F)cc(S(=O)(=O)[O-])cc5F)c5ccc2[nH]5)C=C4)C=C3)cc1
REMARK SMILES IDX 4 1 3 2 2 3 1 4 28 5 29 6 93 7 30 8 92 9 31 10 32 11 33 12
REMARK SMILES IDX 86 13 34 14 91 15 85 16 87 17 35 18 90 19 84 20 83 21 36 23
REMARK SMILES IDX 70 24 49 25 69 26 50 27 53 28 68 29 88 30 51 31 52 32 67 34
REMARK SMILES IDX 89 35 54 36 37 37 38 38 47 39 39 40 40 41 46 42 48 43 41 44
REMARK SMILES IDX 42 45 43 46 44 47 45 48 71 49 72 50 81 51 73 52 74 53 80 54
REMARK SMILES IDX 82 55 75 56 76 57 77 58 78 59 79 60 55 61 56 62 65 63 57 64
REMARK SMILES IDX 58 65 64 66 66 67 59 68 60 69 61 70 62 71 63 72 5 73 6 74
REMARK SMILES IDX 7 75 8 76 9 77 10 78 14 79 11 80 13 81 12 82 15 83 16 85
REMARK SMILES IDX 17 86 27 87 18 88 20 89 19 90 21 91 22 92 23 93 24 94 25 95
REMARK SMILES IDX 26 96
REMARK H PARENT 87 22 53 33 15 84
REMARK Flexibility Score: inf
ROOT
ATOM      1  C   UNL A   1      36.794  31.828  33.509  1.00  0.00     0.275 C 
ENDROOT
BRANCH   1   2
ATOM      2  O   UNL A   1      36.983  31.754  32.103  1.00  0.00    -0.458 OA
BRANCH   2   3
ATOM      3  C   UNL A   1      37.019  30.490  31.457  1.00  0.00     0.338 C 
ATOM      4  O   UNL A   1      35.980  29.757  31.437  1.00  0.00    -0.246 OA
BRANCH   3   5
ATOM      5  C   UNL A   1      38.299  30.013  30.790  1.00  0.00     0.060 A 
ATOM      6  C   UNL A   1      39.399  29.812  31.605  1.00  0.00     0.016 A 
ATOM      7  C   UNL A   1      38.393  29.920  29.468  1.00  0.00     0.016 A 
ATOM      8  C   UNL A   1      40.632  29.800  30.911  1.00  0.00     0.010 A 
ATOM      9  C   UNL A   1      39.618  29.772  28.863  1.00  0.00     0.010 A 
ATOM     10  C   UNL A   1      40.756  29.626  29.607  1.00  0.00    -0.014 A 
BRANCH  10  11
ATOM     11  C   UNL A   1      42.092  29.285  28.968  1.00  0.00     0.031 A 
ATOM     12  C   UNL A   1      43.110  30.236  28.882  1.00  0.00     0.074 A 
ATOM     13  C   UNL A   1      42.236  27.961  28.589  1.00  0.00     0.049 A 
ATOM     14  N   UNL A   1      44.364  30.051  28.470  1.00  0.00    -0.248 NA
ATOM     15  C   UNL A   1      42.949  31.651  29.252  1.00  0.00     0.031 C 
ATOM     16  C   UNL A   1      41.217  26.993  28.680  1.00  0.00     0.029 A 
ATOM     17  N   UNL A   1      43.354  27.348  28.068  1.00  0.00    -0.354 N 
ATOM     18  C   UNL A   1      45.048  31.194  28.547  1.00  0.00     0.074 A 
ATOM     19  C   UNL A   1      44.146  32.241  29.045  1.00  0.00     0.031 C 
ATOM     20  C   UNL A   1      41.709  25.816  28.210  1.00  0.00     0.029 A 
ATOM     21  C   UNL A   1      43.045  26.029  27.819  1.00  0.00     0.049 A 
ATOM     22  H   UNL A   1      44.224  27.778  27.903  1.00  0.00     0.167 HD
ATOM     23  C   UNL A   1      46.390  31.403  28.224  1.00  0.00     0.037 A 
ATOM     24  C   UNL A   1      43.866  25.052  27.279  1.00  0.00     0.037 A 
ATOM     25  C   UNL A   1      47.224  30.416  27.724  1.00  0.00     0.049 A 
ATOM     26  C   UNL A   1      45.193  25.276  26.899  1.00  0.00     0.074 A 
ATOM     27  C   UNL A   1      48.581  30.609  27.401  1.00  0.00     0.029 A 
ATOM     28  N   UNL A   1      46.908  29.104  27.452  1.00  0.00    -0.354 N 
ATOM     29  N   UNL A   1      45.887  26.410  27.014  1.00  0.00    -0.248 NA
ATOM     30  C   UNL A   1      46.062  24.258  26.297  1.00  0.00     0.031 C 
ATOM     31  C   UNL A   1      49.074  29.432  26.930  1.00  0.00     0.029 A 
ATOM     32  C   UNL A   1      48.033  28.485  26.953  1.00  0.00     0.049 A 
ATOM     33  H   UNL A   1      46.030  28.680  27.591  1.00  0.00     0.167 HD
ATOM     34  C   UNL A   1      47.131  26.233  26.563  1.00  0.00     0.074 A 
ATOM     35  C   UNL A   1      47.259  24.849  26.089  1.00  0.00     0.031 C 
ATOM     36  C   UNL A   1      48.165  27.171  26.532  1.00  0.00     0.037 A 
BRANCH  23  37
ATOM     37  C   UNL A   1      46.969  32.794  28.431  1.00  0.00     0.058 A 
ATOM     38  C   UNL A   1      46.872  33.656  27.351  1.00  0.00     0.135 A 
ATOM     39  C   UNL A   1      47.467  33.200  29.593  1.00  0.00     0.135 A 
ATOM     40  F   UNL A   1      46.159  33.377  26.263  1.00  0.00    -0.206 F 
ATOM     41  C   UNL A   1      47.601  34.858  27.508  1.00  0.00     0.059 A 
ATOM     42  C   UNL A   1      48.044  34.442  29.711  1.00  0.00     0.059 A 
ATOM     43  F   UNL A   1      47.409  32.397  30.651  1.00  0.00    -0.206 F 
ATOM     44  C   UNL A   1      48.037  35.323  28.666  1.00  0.00     0.060 A 
BRANCH  44  45
ATOM     45  S   UNL A   1      48.597  37.032  28.856  1.00  0.00     0.124 S 
ATOM     46  O   UNL A   1      49.935  37.216  28.136  1.00  0.00    -0.237 OA
ATOM     47  O   UNL A   1      47.558  37.980  28.251  1.00  0.00    -0.237 OA
ATOM     48  O   UNL A   1      48.791  37.388  30.518  1.00  0.00    -0.744 OA
ENDBRANCH  44  45
ENDBRANCH  23  37
BRANCH  24  49
ATOM     49  C   UNL A   1      43.292  23.658  27.087  1.00  0.00     0.058 A 
ATOM     50  C   UNL A   1      43.242  22.747  28.128  1.00  0.00     0.135 A 
ATOM     51  C   UNL A   1      42.924  23.319  25.857  1.00  0.00     0.135 A 
ATOM     52  F   UNL A   1      43.355  23.098  29.406  1.00  0.00    -0.206 F 
ATOM     53  C   UNL A   1      43.063  21.407  27.710  1.00  0.00     0.059 A 
ATOM     54  C   UNL A   1      42.631  22.013  25.549  1.00  0.00     0.059 A 
ATOM     55  F   UNL A   1      42.840  24.253  24.914  1.00  0.00    -0.206 F 
ATOM     56  C   UNL A   1      42.620  21.047  26.518  1.00  0.00     0.060 A 
BRANCH  56  57
ATOM     57  S   UNL A   1      42.033  19.369  26.185  1.00  0.00     0.124 S 
ATOM     58  O   UNL A   1      40.526  19.400  25.913  1.00  0.00    -0.237 OA
ATOM     59  O   UNL A   1      42.760  18.808  24.959  1.00  0.00    -0.237 OA
ATOM     60  O   UNL A   1      42.348  18.374  27.539  1.00  0.00    -0.744 OA
ENDBRANCH  56  57
ENDBRANCH  24  49
BRANCH  36  61
ATOM     61  C   UNL A   1      49.518  26.722  26.006  1.00  0.00     0.058 A 
ATOM     62  C   UNL A   1      50.439  26.244  26.923  1.00  0.00     0.135 A 
ATOM     63  C   UNL A   1      49.832  26.859  24.723  1.00  0.00     0.135 A 
ATOM     64  F   UNL A   1      50.104  25.853  28.150  1.00  0.00    -0.206 F 
ATOM     65  C   UNL A   1      51.768  26.211  26.439  1.00  0.00     0.059 A 
ATOM     66  C   UNL A   1      51.126  26.679  24.296  1.00  0.00     0.059 A 
ATOM     67  F   UNL A   1      48.888  27.175  23.842  1.00  0.00    -0.206 F 
ATOM     68  C   UNL A   1      52.101  26.264  25.162  1.00  0.00     0.060 A 
BRANCH  68  69
ATOM     69  S   UNL A   1      53.757  25.814  24.589  1.00  0.00     0.124 S 
ATOM     70  O   UNL A   1      53.887  24.289  24.555  1.00  0.00    -0.237 OA
ATOM     71  O   UNL A   1      53.983  26.378  23.184  1.00  0.00    -0.237 OA
ATOM     72  O   UNL A   1      54.926  26.461  25.658  1.00  0.00    -0.744 OA
ENDBRANCH  68  69
ENDBRANCH  36  61
ENDBRANCH  10  11
ENDBRANCH   3   5
ENDBRANCH   2   3
ENDBRANCH   1   2
BRANCH   1  73
ATOM     73  C   UNL A   1      36.577  33.275  33.915  1.00  0.00     0.275 C 
BRANCH  73  74
ATOM     74  O   UNL A   1      35.260  33.433  34.421  1.00  0.00    -0.458 OA
BRANCH  74  75
ATOM     75  C   UNL A   1      34.191  33.740  33.538  1.00  0.00     0.340 C 
ATOM     76  O   UNL A   1      33.281  32.879  33.319  1.00  0.00    -0.246 OA
BRANCH  75  77
ATOM     77  C   UNL A   1      34.135  35.096  32.855  1.00  0.00     0.083 A 
ATOM     78  C   UNL A   1      34.245  36.264  33.592  1.00  0.00     0.018 A 
ATOM     79  C   UNL A   1      33.814  35.123  31.567  1.00  0.00     0.053 A 
ATOM     80  C   UNL A   1      33.709  37.402  32.944  1.00  0.00     0.001 A 
ATOM     81  C   UNL A   1      33.429  36.297  30.965  1.00  0.00     0.027 A 
ATOM     82  C   UNL A   1      33.456  37.479  31.650  1.00  0.00     0.002 A 
BRANCH  79  83
ATOM     83  N   UNL A   1      33.869  33.883  30.777  1.00  0.00    -0.355 N 
ATOM     84  H   UNL A   1      33.143  33.223  30.847  1.00  0.00     0.167 HD
BRANCH  83  85
ATOM     85  C   UNL A   1      35.011  33.631  29.884  1.00  0.00     0.040 A 
ATOM     86  C   UNL A   1      34.835  32.837  28.764  1.00  0.00     0.026 A 
ATOM     87  C   UNL A   1      36.193  34.161  30.176  1.00  0.00     0.050 A 
ATOM     88  C   UNL A   1      36.046  32.420  28.162  1.00  0.00     0.004 A 
ATOM     89  C   UNL A   1      37.311  33.812  29.459  1.00  0.00     0.109 A 
ATOM     90  C   UNL A   1      37.221  32.983  28.374  1.00  0.00     0.024 A 
BRANCH  89  91
ATOM     91  S   UNL A   1      38.927  34.457  29.955  1.00  0.00     0.310 S 
ATOM     92  F   UNL A   1      39.448  32.961  29.874  1.00  0.00    -0.094 F 
ATOM     93  F   UNL A   1      38.643  34.204  31.484  1.00  0.00    -0.094 F 
ATOM     94  F   UNL A   1      40.389  34.884  30.269  1.00  0.00    -0.094 F 
ATOM     95  F   UNL A   1      39.235  34.570  28.410  1.00  0.00    -0.094 F 
ATOM     96  F   UNL A   1      37.482  33.919  29.613  1.00  0.00    -0.094 F 
ENDBRANCH  89  91
ENDBRANCH  83  85
ENDBRANCH  79  83
ENDBRANCH  75  77
ENDBRANCH  74  75
ENDBRANCH  73  74
ENDBRANCH   1  73
TORSDOF 17
ENDMDL
