MODEL 1
REMARK VINA RESULT:     -10.4      0.000      0.000
REMARK SMILES CC(C)[C@H](NC(=O)OCc1ccccc1)C(=O)NCC(=O)OCCOC(=O)c1ccc(-c2c3nc(c(-c4c(F)cc(S(=O)(=O)[O-])cc4F)c4ccc([nH]4)c(-c4c(F)cc(S(=O)(=O)[O-])cc4F)c4nc(c(-c5c(F)cc(S(=O)(=O)[O-])cc5F)c5ccc2[nH]5)C=C4)C=C3)cc1
REMARK SMILES IDX 22 1 20 2 21 3 19 4 18 5 16 6 17 7 4 9 2 10 1 11 3 12 5 13
REMARK SMILES IDX 6 14 7 16 8 17 9 18 10 19 11 20 15 21 12 22 14 23 13 24
REMARK SMILES IDX 23 25 24 26 25 27 26 28 27 29 28 30 29 31 93 32 30 33 92 34
REMARK SMILES IDX 31 35 32 36 33 37 86 38 34 39 91 40 85 41 87 42 35 43 90 44
REMARK SMILES IDX 84 45 83 46 36 48 70 49 49 50 69 51 50 52 53 53 68 54 88 55
REMARK SMILES IDX 51 56 52 57 67 59 89 60 54 61 37 62 38 63 47 64 39 65 40 66
REMARK SMILES IDX 46 67 48 68 41 69 42 70 43 71 44 72 45 73 71 74 72 75 81 76
REMARK SMILES IDX 73 77 74 78 80 79 82 80 75 81 76 82 77 83 78 84 79 85 55 86
REMARK SMILES IDX 56 87 65 88 57 89 58 90 64 91 66 92 59 93 60 94 61 95 62 96
REMARK SMILES IDX 63 97
REMARK H PARENT 18 8 5 15 87 47 53 58
REMARK Flexibility Score: inf
ROOT
ATOM      1  O   UNL A   1      37.623  23.177  25.551  1.00  0.00    -0.461 OA
ENDROOT
BRANCH   1   2
ATOM      2  C   UNL A   1      36.858  23.052  24.437  1.00  0.00     0.325 C 
ATOM      3  O   UNL A   1      36.996  22.157  23.608  1.00  0.00    -0.250 OA
BRANCH   2   4
ATOM      4  C   UNL A   1      35.677  24.012  24.377  1.00  0.00     0.238 C 
BRANCH   4   5
ATOM      5  N   UNL A   1      34.465  23.591  23.718  1.00  0.00    -0.343 N 
ATOM      6  C   UNL A   1      33.208  23.481  24.218  1.00  0.00     0.243 C 
ATOM      7  O   UNL A   1      32.295  23.274  23.412  1.00  0.00    -0.273 OA
ATOM      8  H   UNL A   1      34.564  23.347  22.769  1.00  0.00     0.164 HD
BRANCH   6   9
ATOM      9  C   UNL A   1      32.893  23.591  25.734  1.00  0.00     0.177 C 
BRANCH   9  10
ATOM     10  C   UNL A   1      33.143  22.328  26.590  1.00  0.00     0.015 C 
ATOM     11  C   UNL A   1      33.452  21.096  25.729  1.00  0.00     0.010 C 
ATOM     12  C   UNL A   1      34.316  22.558  27.554  1.00  0.00     0.010 C 
ENDBRANCH   9  10
BRANCH   9  13
ATOM     13  N   UNL A   1      31.620  24.308  25.892  1.00  0.00    -0.309 N 
ATOM     14  C   UNL A   1      31.304  25.612  26.113  1.00  0.00     0.408 C 
ATOM     15  H   UNL A   1      30.832  23.722  25.825  1.00  0.00     0.167 HD
ATOM     16  O   UNL A   1      30.170  25.910  26.466  1.00  0.00    -0.225 OA
BRANCH  14  17
ATOM     17  O   UNL A   1      32.331  26.473  25.954  1.00  0.00    -0.445 OA
BRANCH  17  18
ATOM     18  C   UNL A   1      31.973  27.851  25.762  1.00  0.00     0.270 C 
BRANCH  18  19
ATOM     19  C   UNL A   1      32.875  28.806  26.495  1.00  0.00    -0.011 A 
ATOM     20  C   UNL A   1      32.445  30.095  26.831  1.00  0.00     0.007 A 
ATOM     21  C   UNL A   1      34.190  28.423  26.798  1.00  0.00     0.007 A 
ATOM     22  C   UNL A   1      33.329  30.993  27.430  1.00  0.00     0.000 A 
ATOM     23  C   UNL A   1      35.071  29.320  27.398  1.00  0.00     0.000 A 
ATOM     24  C   UNL A   1      34.641  30.608  27.708  1.00  0.00     0.000 A 
ENDBRANCH  18  19
ENDBRANCH  17  18
ENDBRANCH  14  17
ENDBRANCH   9  13
ENDBRANCH   6   9
ENDBRANCH   4   5
ENDBRANCH   2   4
ENDBRANCH   1   2
BRANCH   1  25
ATOM     25  C   UNL A   1      38.347  21.981  25.905  1.00  0.00     0.274 C 
BRANCH  25  26
ATOM     26  C   UNL A   1      39.802  22.272  26.310  1.00  0.00     0.275 C 
BRANCH  26  27
ATOM     27  O   UNL A   1      39.917  23.211  27.401  1.00  0.00    -0.458 OA
BRANCH  27  28
ATOM     28  C   UNL A   1      40.912  24.119  27.272  1.00  0.00     0.338 C 
ATOM     29  O   UNL A   1      41.920  24.003  26.590  1.00  0.00    -0.246 OA
BRANCH  28  30
ATOM     30  C   UNL A   1      40.582  25.382  27.952  1.00  0.00     0.060 A 
ATOM     31  C   UNL A   1      41.574  26.364  28.040  1.00  0.00     0.016 A 
ATOM     32  C   UNL A   1      39.396  25.518  28.672  1.00  0.00     0.016 A 
ATOM     33  C   UNL A   1      41.428  27.445  28.895  1.00  0.00     0.010 A 
ATOM     34  C   UNL A   1      39.235  26.626  29.515  1.00  0.00     0.010 A 
ATOM     35  C   UNL A   1      40.268  27.569  29.663  1.00  0.00    -0.014 A 
BRANCH  35  36
ATOM     36  C   UNL A   1      40.220  28.614  30.712  1.00  0.00     0.031 A 
ATOM     37  C   UNL A   1      41.197  28.547  31.853  1.00  0.00     0.074 A 
ATOM     38  C   UNL A   1      39.370  29.651  30.599  1.00  0.00     0.049 A 
ATOM     39  N   UNL A   1      41.269  29.291  32.926  1.00  0.00    -0.248 NA
ATOM     40  C   UNL A   1      42.232  27.503  31.775  1.00  0.00     0.031 C 
ATOM     41  C   UNL A   1      38.442  29.867  29.487  1.00  0.00     0.029 A 
ATOM     42  N   UNL A   1      39.156  30.723  31.426  1.00  0.00    -0.354 N 
ATOM     43  C   UNL A   1      42.325  28.779  33.669  1.00  0.00     0.074 A 
ATOM     44  C   UNL A   1      42.863  27.659  32.929  1.00  0.00     0.031 C 
ATOM     45  C   UNL A   1      37.760  31.003  29.700  1.00  0.00     0.029 A 
ATOM     46  C   UNL A   1      38.159  31.562  30.988  1.00  0.00     0.049 A 
ATOM     47  H   UNL A   1      39.666  30.876  32.253  1.00  0.00     0.167 HD
ATOM     48  C   UNL A   1      42.799  29.208  34.863  1.00  0.00     0.037 A 
ATOM     49  C   UNL A   1      37.609  32.640  31.579  1.00  0.00     0.037 A 
ATOM     50  C   UNL A   1      42.274  30.346  35.571  1.00  0.00     0.049 A 
ATOM     51  C   UNL A   1      38.122  33.071  32.927  1.00  0.00     0.074 A 
ATOM     52  C   UNL A   1      42.667  30.858  36.795  1.00  0.00     0.029 A 
ATOM     53  N   UNL A   1      41.247  31.156  35.109  1.00  0.00    -0.354 N 
ATOM     54  N   UNL A   1      39.081  32.543  33.650  1.00  0.00    -0.248 NA
ATOM     55  C   UNL A   1      37.477  34.239  33.540  1.00  0.00     0.031 C 
ATOM     56  C   UNL A   1      41.856  31.961  37.086  1.00  0.00     0.029 A 
ATOM     57  C   UNL A   1      40.988  32.162  36.024  1.00  0.00     0.049 A 
ATOM     58  H   UNL A   1      40.772  31.034  34.255  1.00  0.00     0.167 HD
ATOM     59  C   UNL A   1      39.171  33.329  34.794  1.00  0.00     0.074 A 
ATOM     60  C   UNL A   1      38.176  34.373  34.659  1.00  0.00     0.031 C 
ATOM     61  C   UNL A   1      40.000  33.199  35.859  1.00  0.00     0.037 A 
BRANCH  48  62
ATOM     62  C   UNL A   1      43.910  28.414  35.494  1.00  0.00     0.058 A 
ATOM     63  C   UNL A   1      45.261  28.671  35.216  1.00  0.00     0.135 A 
ATOM     64  C   UNL A   1      43.613  27.384  36.401  1.00  0.00     0.135 A 
ATOM     65  F   UNL A   1      45.601  29.630  34.339  1.00  0.00    -0.206 F 
ATOM     66  C   UNL A   1      46.278  27.916  35.793  1.00  0.00     0.059 A 
ATOM     67  C   UNL A   1      44.614  26.632  37.009  1.00  0.00     0.059 A 
ATOM     68  F   UNL A   1      42.337  27.092  36.699  1.00  0.00    -0.206 F 
ATOM     69  C   UNL A   1      45.944  26.895  36.685  1.00  0.00     0.060 A 
BRANCH  69  70
ATOM     70  S   UNL A   1      47.272  25.917  37.421  1.00  0.00     0.124 S 
ATOM     71  O   UNL A   1      48.419  26.800  37.238  1.00  0.00    -0.237 OA
ATOM     72  O   UNL A   1      46.813  25.751  38.796  1.00  0.00    -0.237 OA
ATOM     73  O   UNL A   1      47.282  24.700  36.616  1.00  0.00    -0.744 OA
ENDBRANCH  69  70
ENDBRANCH  48  62
BRANCH  49  74
ATOM     74  C   UNL A   1      36.493  33.363  30.915  1.00  0.00     0.058 A 
ATOM     75  C   UNL A   1      36.718  34.172  29.793  1.00  0.00     0.135 A 
ATOM     76  C   UNL A   1      35.174  33.246  31.382  1.00  0.00     0.135 A 
ATOM     77  F   UNL A   1      37.962  34.321  29.312  1.00  0.00    -0.206 F 
ATOM     78  C   UNL A   1      35.679  34.851  29.164  1.00  0.00     0.059 A 
ATOM     79  C   UNL A   1      34.115  33.893  30.756  1.00  0.00     0.059 A 
ATOM     80  F   UNL A   1      34.903  32.473  32.446  1.00  0.00    -0.206 F 
ATOM     81  C   UNL A   1      34.379  34.703  29.652  1.00  0.00     0.060 A 
BRANCH  81  82
ATOM     82  S   UNL A   1      33.029  35.546  28.799  1.00  0.00     0.124 S 
ATOM     83  O   UNL A   1      32.428  34.453  28.046  1.00  0.00    -0.237 OA
ATOM     84  O   UNL A   1      32.240  36.067  29.911  1.00  0.00    -0.237 OA
ATOM     85  O   UNL A   1      33.718  36.558  28.003  1.00  0.00    -0.744 OA
ENDBRANCH  81  82
ENDBRANCH  49  74
BRANCH  61  86
ATOM     86  C   UNL A   1      39.899  34.241  36.936  1.00  0.00     0.058 A 
ATOM     87  C   UNL A   1      40.600  35.454  36.861  1.00  0.00     0.135 A 
ATOM     88  C   UNL A   1      39.057  34.034  38.041  1.00  0.00     0.135 A 
ATOM     89  F   UNL A   1      41.422  35.696  35.827  1.00  0.00    -0.206 F 
ATOM     90  C   UNL A   1      40.493  36.416  37.859  1.00  0.00     0.059 A 
ATOM     91  C   UNL A   1      38.915  34.993  39.038  1.00  0.00     0.059 A 
ATOM     92  F   UNL A   1      38.356  32.895  38.153  1.00  0.00    -0.206 F 
ATOM     93  C   UNL A   1      39.649  36.175  38.946  1.00  0.00     0.060 A 
BRANCH  93  94
ATOM     94  S   UNL A   1      39.502  37.437  40.227  1.00  0.00     0.124 S 
ATOM     95  O   UNL A   1      40.901  37.773  40.469  1.00  0.00    -0.237 OA
ATOM     96  O   UNL A   1      38.706  38.467  39.566  1.00  0.00    -0.237 OA
ATOM     97  O   UNL A   1      38.826  36.737  41.315  1.00  0.00    -0.744 OA
ENDBRANCH  93  94
ENDBRANCH  61  86
ENDBRANCH  35  36
ENDBRANCH  28  30
ENDBRANCH  27  28
ENDBRANCH  26  27
ENDBRANCH  25  26
ENDBRANCH   1  25
TORSDOF 21
ENDMDL
MODEL 2
REMARK VINA RESULT:     -10.3      1.791      8.587
REMARK SMILES CC(C)[C@H](NC(=O)OCc1ccccc1)C(=O)NCC(=O)OCCOC(=O)c1ccc(-c2c3nc(c(-c4c(F)cc(S(=O)(=O)[O-])cc4F)c4ccc([nH]4)c(-c4c(F)cc(S(=O)(=O)[O-])cc4F)c4nc(c(-c5c(F)cc(S(=O)(=O)[O-])cc5F)c5ccc2[nH]5)C=C4)C=C3)cc1
REMARK SMILES IDX 22 1 20 2 21 3 19 4 18 5 16 6 17 7 4 9 2 10 1 11 3 12 5 13
REMARK SMILES IDX 6 14 7 16 8 17 9 18 10 19 11 20 15 21 12 22 14 23 13 24
REMARK SMILES IDX 23 25 24 26 25 27 26 28 27 29 28 30 29 31 93 32 30 33 92 34
REMARK SMILES IDX 31 35 32 36 33 37 86 38 34 39 91 40 85 41 87 42 35 43 90 44
REMARK SMILES IDX 84 45 83 46 36 48 70 49 49 50 69 51 50 52 53 53 68 54 88 55
REMARK SMILES IDX 51 56 52 57 67 59 89 60 54 61 37 62 38 63 47 64 39 65 40 66
REMARK SMILES IDX 46 67 48 68 41 69 42 70 43 71 44 72 45 73 71 74 72 75 81 76
REMARK SMILES IDX 73 77 74 78 80 79 82 80 75 81 76 82 77 83 78 84 79 85 55 86
REMARK SMILES IDX 56 87 65 88 57 89 58 90 64 91 66 92 59 93 60 94 61 95 62 96
REMARK SMILES IDX 63 97
REMARK H PARENT 18 8 5 15 87 47 53 58
REMARK Flexibility Score: inf
ROOT
ATOM      1  O   UNL A   1      38.019  22.398  26.020  1.00  0.00    -0.461 OA
ENDROOT
BRANCH   1   2
ATOM      2  C   UNL A   1      37.282  21.504  25.314  1.00  0.00     0.325 C 
ATOM      3  O   UNL A   1      37.764  20.641  24.585  1.00  0.00    -0.250 OA
BRANCH   2   4
ATOM      4  C   UNL A   1      35.793  21.529  25.633  1.00  0.00     0.238 C 
BRANCH   4   5
ATOM      5  N   UNL A   1      35.361  22.006  26.925  1.00  0.00    -0.343 N 
ATOM      6  C   UNL A   1      34.103  22.206  27.392  1.00  0.00     0.243 C 
ATOM      7  O   UNL A   1      33.978  22.447  28.597  1.00  0.00    -0.273 OA
ATOM      8  H   UNL A   1      36.084  22.218  27.559  1.00  0.00     0.164 HD
BRANCH   6   9
ATOM      9  C   UNL A   1      32.849  22.155  26.478  1.00  0.00     0.177 C 
BRANCH   9  10
ATOM     10  C   UNL A   1      31.670  23.078  26.863  1.00  0.00     0.015 C 
ATOM     11  C   UNL A   1      31.921  24.537  26.460  1.00  0.00     0.010 C 
ATOM     12  C   UNL A   1      30.375  22.601  26.188  1.00  0.00     0.010 C 
ENDBRANCH   9  10
BRANCH   9  13
ATOM     13  N   UNL A   1      32.566  20.749  26.156  1.00  0.00    -0.309 N 
ATOM     14  C   UNL A   1      32.553  20.041  24.995  1.00  0.00     0.408 C 
ATOM     15  H   UNL A   1      32.339  20.207  26.946  1.00  0.00     0.167 HD
ATOM     16  O   UNL A   1      32.029  18.935  24.965  1.00  0.00    -0.225 OA
BRANCH  14  17
ATOM     17  O   UNL A   1      33.103  20.680  23.942  1.00  0.00    -0.445 OA
BRANCH  17  18
ATOM     18  C   UNL A   1      32.184  21.312  23.038  1.00  0.00     0.270 C 
BRANCH  18  19
ATOM     19  C   UNL A   1      32.369  22.802  22.948  1.00  0.00    -0.011 A 
ATOM     20  C   UNL A   1      33.644  23.377  22.989  1.00  0.00     0.007 A 
ATOM     21  C   UNL A   1      31.244  23.637  22.882  1.00  0.00     0.007 A 
ATOM     22  C   UNL A   1      33.786  24.766  22.994  1.00  0.00     0.000 A 
ATOM     23  C   UNL A   1      31.387  25.023  22.886  1.00  0.00     0.000 A 
ATOM     24  C   UNL A   1      32.659  25.586  22.948  1.00  0.00     0.000 A 
ENDBRANCH  18  19
ENDBRANCH  17  18
ENDBRANCH  14  17
ENDBRANCH   9  13
ENDBRANCH   6   9
ENDBRANCH   4   5
ENDBRANCH   2   4
ENDBRANCH   1   2
BRANCH   1  25
ATOM     25  C   UNL A   1      39.380  21.983  26.255  1.00  0.00     0.274 C 
BRANCH  25  26
ATOM     26  C   UNL A   1      40.312  23.169  26.558  1.00  0.00     0.275 C 
BRANCH  26  27
ATOM     27  O   UNL A   1      39.652  24.451  26.486  1.00  0.00    -0.458 OA
BRANCH  27  28
ATOM     28  C   UNL A   1      40.482  25.517  26.403  1.00  0.00     0.338 C 
ATOM     29  O   UNL A   1      40.905  26.034  25.380  1.00  0.00    -0.246 OA
BRANCH  28  30
ATOM     30  C   UNL A   1      40.727  26.114  27.727  1.00  0.00     0.060 A 
ATOM     31  C   UNL A   1      39.726  26.002  28.697  1.00  0.00     0.016 A 
ATOM     32  C   UNL A   1      41.823  26.947  27.945  1.00  0.00     0.016 A 
ATOM     33  C   UNL A   1      39.769  26.767  29.852  1.00  0.00     0.010 A 
ATOM     34  C   UNL A   1      41.882  27.699  29.125  1.00  0.00     0.010 A 
ATOM     35  C   UNL A   1      40.834  27.645  30.062  1.00  0.00    -0.014 A 
BRANCH  35  36
ATOM     36  C   UNL A   1      40.757  28.595  31.196  1.00  0.00     0.031 A 
ATOM     37  C   UNL A   1      39.704  29.667  31.180  1.00  0.00     0.074 A 
ATOM     38  C   UNL A   1      41.565  28.445  32.262  1.00  0.00     0.049 A 
ATOM     39  N   UNL A   1      39.520  30.660  32.011  1.00  0.00    -0.248 NA
ATOM     40  C   UNL A   1      38.726  29.616  30.080  1.00  0.00     0.031 C 
ATOM     41  C   UNL A   1      42.561  27.384  32.427  1.00  0.00     0.029 A 
ATOM     42  N   UNL A   1      41.668  29.183  33.412  1.00  0.00    -0.354 N 
ATOM     43  C   UNL A   1      38.436  31.373  31.512  1.00  0.00     0.074 A 
ATOM     44  C   UNL A   1      38.006  30.704  30.304  1.00  0.00     0.031 C 
ATOM     45  C   UNL A   1      43.173  27.539  33.612  1.00  0.00     0.029 A 
ATOM     46  C   UNL A   1      42.656  28.740  34.261  1.00  0.00     0.049 A 
ATOM     47  H   UNL A   1      41.093  29.956  33.612  1.00  0.00     0.167 HD
ATOM     48  C   UNL A   1      37.858  32.487  32.019  1.00  0.00     0.037 A 
ATOM     49  C   UNL A   1      43.111  29.265  35.414  1.00  0.00     0.037 A 
ATOM     50  C   UNL A   1      38.277  33.122  33.241  1.00  0.00     0.049 A 
ATOM     51  C   UNL A   1      42.482  30.529  35.935  1.00  0.00     0.074 A 
ATOM     52  C   UNL A   1      37.773  34.264  33.839  1.00  0.00     0.029 A 
ATOM     53  N   UNL A   1      39.297  32.659  34.061  1.00  0.00    -0.354 N 
ATOM     54  N   UNL A   1      41.498  31.231  35.424  1.00  0.00    -0.248 NA
ATOM     55  C   UNL A   1      43.026  31.076  37.184  1.00  0.00     0.031 C 
ATOM     56  C   UNL A   1      38.509  34.508  35.004  1.00  0.00     0.029 A 
ATOM     57  C   UNL A   1      39.443  33.494  35.155  1.00  0.00     0.049 A 
ATOM     58  H   UNL A   1      39.838  31.855  33.888  1.00  0.00     0.167 HD
ATOM     59  C   UNL A   1      41.289  32.289  36.302  1.00  0.00     0.074 A 
ATOM     60  C   UNL A   1      42.243  32.126  37.381  1.00  0.00     0.031 C 
ATOM     61  C   UNL A   1      40.391  33.302  36.224  1.00  0.00     0.037 A 
BRANCH  48  62
ATOM     62  C   UNL A   1      36.742  33.111  31.228  1.00  0.00     0.058 A 
ATOM     63  C   UNL A   1      36.982  33.873  30.074  1.00  0.00     0.135 A 
ATOM     64  C   UNL A   1      35.408  32.934  31.629  1.00  0.00     0.135 A 
ATOM     65  F   UNL A   1      38.239  34.093  29.658  1.00  0.00    -0.206 F 
ATOM     66  C   UNL A   1      35.940  34.461  29.361  1.00  0.00     0.059 A 
ATOM     67  C   UNL A   1      34.349  33.491  30.919  1.00  0.00     0.059 A 
ATOM     68  F   UNL A   1      35.122  32.219  32.729  1.00  0.00    -0.206 F 
ATOM     69  C   UNL A   1      34.627  34.268  29.795  1.00  0.00     0.060 A 
BRANCH  69  70
ATOM     70  S   UNL A   1      33.285  35.042  28.867  1.00  0.00     0.124 S 
ATOM     71  O   UNL A   1      32.362  35.403  29.938  1.00  0.00    -0.237 OA
ATOM     72  O   UNL A   1      33.960  36.156  28.210  1.00  0.00    -0.237 OA
ATOM     73  O   UNL A   1      32.829  33.977  27.978  1.00  0.00    -0.744 OA
ENDBRANCH  69  70
ENDBRANCH  48  62
BRANCH  49  74
ATOM     74  C   UNL A   1      44.238  28.615  36.132  1.00  0.00     0.058 A 
ATOM     75  C   UNL A   1      45.560  29.041  35.944  1.00  0.00     0.135 A 
ATOM     76  C   UNL A   1      44.014  27.562  37.033  1.00  0.00     0.135 A 
ATOM     77  F   UNL A   1      45.828  30.039  35.087  1.00  0.00    -0.206 F 
ATOM     78  C   UNL A   1      46.622  28.440  36.612  1.00  0.00     0.059 A 
ATOM     79  C   UNL A   1      45.055  26.962  37.733  1.00  0.00     0.059 A 
ATOM     80  F   UNL A   1      42.765  27.126  37.259  1.00  0.00    -0.206 F 
ATOM     81  C   UNL A   1      46.358  27.402  37.508  1.00  0.00     0.060 A 
BRANCH  81  82
ATOM     82  S   UNL A   1      47.736  26.661  38.409  1.00  0.00     0.124 S 
ATOM     83  O   UNL A   1      48.769  27.677  38.255  1.00  0.00    -0.237 OA
ATOM     84  O   UNL A   1      47.182  26.511  39.751  1.00  0.00    -0.237 OA
ATOM     85  O   UNL A   1      47.969  25.409  37.694  1.00  0.00    -0.744 OA
ENDBRANCH  81  82
ENDBRANCH  49  74
BRANCH  61  86
ATOM     86  C   UNL A   1      40.366  34.283  37.360  1.00  0.00     0.058 A 
ATOM     87  C   UNL A   1      41.108  35.474  37.326  1.00  0.00     0.135 A 
ATOM     88  C   UNL A   1      39.559  34.042  38.484  1.00  0.00     0.135 A 
ATOM     89  F   UNL A   1      41.899  35.747  36.276  1.00  0.00    -0.206 F 
ATOM     90  C   UNL A   1      41.072  36.381  38.380  1.00  0.00     0.059 A 
ATOM     91  C   UNL A   1      39.488  34.947  39.537  1.00  0.00     0.059 A 
ATOM     92  F   UNL A   1      38.822  32.922  38.560  1.00  0.00    -0.206 F 
ATOM     93  C   UNL A   1      40.260  36.106  39.483  1.00  0.00     0.060 A 
BRANCH  93  94
ATOM     94  S   UNL A   1      40.206  37.298  40.838  1.00  0.00     0.124 S 
ATOM     95  O   UNL A   1      38.990  36.893  41.536  1.00  0.00    -0.237 OA
ATOM     96  O   UNL A   1      41.459  37.035  41.539  1.00  0.00    -0.237 OA
ATOM     97  O   UNL A   1      40.139  38.585  40.152  1.00  0.00    -0.744 OA
ENDBRANCH  93  94
ENDBRANCH  61  86
ENDBRANCH  35  36
ENDBRANCH  28  30
ENDBRANCH  27  28
ENDBRANCH  26  27
ENDBRANCH  25  26
ENDBRANCH   1  25
TORSDOF 21
ENDMDL
MODEL 3
REMARK VINA RESULT:     -10.1      6.510     11.364
REMARK SMILES CC(C)[C@H](NC(=O)OCc1ccccc1)C(=O)NCC(=O)OCCOC(=O)c1ccc(-c2c3nc(c(-c4c(F)cc(S(=O)(=O)[O-])cc4F)c4ccc([nH]4)c(-c4c(F)cc(S(=O)(=O)[O-])cc4F)c4nc(c(-c5c(F)cc(S(=O)(=O)[O-])cc5F)c5ccc2[nH]5)C=C4)C=C3)cc1
REMARK SMILES IDX 22 1 20 2 21 3 19 4 18 5 16 6 17 7 4 9 2 10 1 11 3 12 5 13
REMARK SMILES IDX 6 14 7 16 8 17 9 18 10 19 11 20 15 21 12 22 14 23 13 24
REMARK SMILES IDX 23 25 24 26 25 27 26 28 27 29 28 30 29 31 93 32 30 33 92 34
REMARK SMILES IDX 31 35 32 36 33 37 86 38 34 39 91 40 85 41 87 42 35 43 90 44
REMARK SMILES IDX 84 45 83 46 36 48 70 49 49 50 69 51 50 52 53 53 68 54 88 55
REMARK SMILES IDX 51 56 52 57 67 59 89 60 54 61 37 62 38 63 47 64 39 65 40 66
REMARK SMILES IDX 46 67 48 68 41 69 42 70 43 71 44 72 45 73 71 74 72 75 81 76
REMARK SMILES IDX 73 77 74 78 80 79 82 80 75 81 76 82 77 83 78 84 79 85 55 86
REMARK SMILES IDX 56 87 65 88 57 89 58 90 64 91 66 92 59 93 60 94 61 95 62 96
REMARK SMILES IDX 63 97
REMARK H PARENT 18 8 5 15 87 47 53 58
REMARK Flexibility Score: inf
ROOT
ATOM      1  O   UNL A   1      37.355  22.481  25.093  1.00  0.00    -0.461 OA
ENDROOT
BRANCH   1   2
ATOM      2  C   UNL A   1      36.144  22.543  25.701  1.00  0.00     0.325 C 
ATOM      3  O   UNL A   1      35.652  21.623  26.347  1.00  0.00    -0.250 OA
BRANCH   2   4
ATOM      4  C   UNL A   1      35.502  23.925  25.677  1.00  0.00     0.238 C 
BRANCH   4   5
ATOM      5  N   UNL A   1      34.127  24.065  26.092  1.00  0.00    -0.343 N 
ATOM      6  C   UNL A   1      33.021  24.303  25.342  1.00  0.00     0.243 C 
ATOM      7  O   UNL A   1      31.925  24.200  25.901  1.00  0.00    -0.273 OA
ATOM      8  H   UNL A   1      33.968  23.976  27.059  1.00  0.00     0.164 HD
BRANCH   6   9
ATOM      9  C   UNL A   1      33.092  24.704  23.844  1.00  0.00     0.177 C 
BRANCH   9  10
ATOM     10  C   UNL A   1      32.848  26.193  23.509  1.00  0.00     0.015 C 
ATOM     11  C   UNL A   1      33.576  27.132  24.480  1.00  0.00     0.010 C 
ATOM     12  C   UNL A   1      33.321  26.505  22.081  1.00  0.00     0.010 C 
ENDBRANCH   9  10
BRANCH   9  13
ATOM     13  N   UNL A   1      32.388  23.681  23.056  1.00  0.00    -0.309 N 
ATOM     14  C   UNL A   1      32.525  22.333  22.941  1.00  0.00     0.408 C 
ATOM     15  H   UNL A   1      31.668  24.049  22.496  1.00  0.00     0.167 HD
ATOM     16  O   UNL A   1      31.980  21.745  22.016  1.00  0.00    -0.225 OA
BRANCH  14  17
ATOM     17  O   UNL A   1      33.318  21.767  23.875  1.00  0.00    -0.445 OA
BRANCH  17  18
ATOM     18  C   UNL A   1      32.748  20.669  24.603  1.00  0.00     0.270 C 
BRANCH  18  19
ATOM     19  C   UNL A   1      33.244  19.327  24.138  1.00  0.00    -0.011 A 
ATOM     20  C   UNL A   1      32.514  18.563  23.220  1.00  0.00     0.007 A 
ATOM     21  C   UNL A   1      34.428  18.802  24.676  1.00  0.00     0.007 A 
ATOM     22  C   UNL A   1      32.948  17.283  22.873  1.00  0.00     0.000 A 
ATOM     23  C   UNL A   1      34.862  17.525  24.327  1.00  0.00     0.000 A 
ATOM     24  C   UNL A   1      34.118  16.763  23.430  1.00  0.00     0.000 A 
ENDBRANCH  18  19
ENDBRANCH  17  18
ENDBRANCH  14  17
ENDBRANCH   9  13
ENDBRANCH   6   9
ENDBRANCH   4   5
ENDBRANCH   2   4
ENDBRANCH   1   2
BRANCH   1  25
ATOM     25  C   UNL A   1      38.108  21.291  25.405  1.00  0.00     0.274 C 
BRANCH  25  26
ATOM     26  C   UNL A   1      39.412  21.602  26.160  1.00  0.00     0.275 C 
BRANCH  26  27
ATOM     27  O   UNL A   1      39.972  20.455  26.836  1.00  0.00    -0.458 OA
BRANCH  27  28
ATOM     28  C   UNL A   1      41.192  20.069  26.391  1.00  0.00     0.338 C 
ATOM     29  O   UNL A   1      41.459  19.027  25.810  1.00  0.00    -0.246 OA
BRANCH  28  30
ATOM     30  C   UNL A   1      42.190  21.138  26.556  1.00  0.00     0.060 A 
ATOM     31  C   UNL A   1      42.502  21.556  27.854  1.00  0.00     0.016 A 
ATOM     32  C   UNL A   1      42.652  21.861  25.458  1.00  0.00     0.016 A 
ATOM     33  C   UNL A   1      43.210  22.727  28.071  1.00  0.00     0.010 A 
ATOM     34  C   UNL A   1      43.393  23.030  25.676  1.00  0.00     0.010 A 
ATOM     35  C   UNL A   1      43.636  23.491  26.982  1.00  0.00    -0.014 A 
BRANCH  35  36
ATOM     36  C   UNL A   1      44.208  24.833  27.238  1.00  0.00     0.031 A 
ATOM     37  C   UNL A   1      43.310  25.924  27.752  1.00  0.00     0.074 A 
ATOM     38  C   UNL A   1      45.529  25.047  27.091  1.00  0.00     0.049 A 
ATOM     39  N   UNL A   1      43.572  27.189  27.947  1.00  0.00    -0.248 NA
ATOM     40  C   UNL A   1      41.930  25.537  28.091  1.00  0.00     0.031 C 
ATOM     41  C   UNL A   1      46.510  24.037  26.687  1.00  0.00     0.029 A 
ATOM     42  N   UNL A   1      46.273  26.183  27.274  1.00  0.00    -0.354 N 
ATOM     43  C   UNL A   1      42.384  27.757  28.390  1.00  0.00     0.074 A 
ATOM     44  C   UNL A   1      41.397  26.701  28.430  1.00  0.00     0.031 C 
ATOM     45  C   UNL A   1      47.729  24.599  26.656  1.00  0.00     0.029 A 
ATOM     46  C   UNL A   1      47.606  26.018  26.978  1.00  0.00     0.049 A 
ATOM     47  H   UNL A   1      45.892  27.034  27.586  1.00  0.00     0.167 HD
ATOM     48  C   UNL A   1      42.142  29.046  28.729  1.00  0.00     0.037 A 
ATOM     49  C   UNL A   1      48.606  26.919  26.941  1.00  0.00     0.037 A 
ATOM     50  C   UNL A   1      43.145  30.079  28.715  1.00  0.00     0.049 A 
ATOM     51  C   UNL A   1      48.304  28.354  27.278  1.00  0.00     0.074 A 
ATOM     52  C   UNL A   1      43.006  31.421  29.024  1.00  0.00     0.029 A 
ATOM     53  N   UNL A   1      44.478  29.879  28.386  1.00  0.00    -0.354 N 
ATOM     54  N   UNL A   1      47.162  28.893  27.636  1.00  0.00    -0.248 NA
ATOM     55  C   UNL A   1      49.421  29.303  27.202  1.00  0.00     0.031 C 
ATOM     56  C   UNL A   1      44.251  32.038  28.851  1.00  0.00     0.029 A 
ATOM     57  C   UNL A   1      45.173  31.073  28.477  1.00  0.00     0.049 A 
ATOM     58  H   UNL A   1      44.872  29.016  28.125  1.00  0.00     0.167 HD
ATOM     59  C   UNL A   1      47.430  30.241  27.851  1.00  0.00     0.074 A 
ATOM     60  C   UNL A   1      48.843  30.430  27.593  1.00  0.00     0.031 C 
ATOM     61  C   UNL A   1      46.584  31.232  28.229  1.00  0.00     0.037 A 
BRANCH  48  62
ATOM     62  C   UNL A   1      40.732  29.414  29.098  1.00  0.00     0.058 A 
ATOM     63  C   UNL A   1      40.338  29.613  30.430  1.00  0.00     0.135 A 
ATOM     64  C   UNL A   1      39.761  29.578  28.097  1.00  0.00     0.135 A 
ATOM     65  F   UNL A   1      41.219  29.447  31.429  1.00  0.00    -0.206 F 
ATOM     66  C   UNL A   1      39.023  29.935  30.758  1.00  0.00     0.059 A 
ATOM     67  C   UNL A   1      38.447  29.923  28.399  1.00  0.00     0.059 A 
ATOM     68  F   UNL A   1      40.083  29.393  26.806  1.00  0.00    -0.206 F 
ATOM     69  C   UNL A   1      38.084  30.083  29.736  1.00  0.00     0.060 A 
BRANCH  69  70
ATOM     70  S   UNL A   1      36.381  30.492  30.174  1.00  0.00     0.124 S 
ATOM     71  O   UNL A   1      36.209  29.734  31.409  1.00  0.00    -0.237 OA
ATOM     72  O   UNL A   1      36.436  31.943  30.323  1.00  0.00    -0.237 OA
ATOM     73  O   UNL A   1      35.612  30.011  29.031  1.00  0.00    -0.744 OA
ENDBRANCH  69  70
ENDBRANCH  48  62
BRANCH  49  74
ATOM     74  C   UNL A   1      49.973  26.495  26.538  1.00  0.00     0.058 A 
ATOM     75  C   UNL A   1      50.408  26.613  25.211  1.00  0.00     0.135 A 
ATOM     76  C   UNL A   1      50.877  25.976  27.478  1.00  0.00     0.135 A 
ATOM     77  F   UNL A   1      49.578  27.096  24.274  1.00  0.00    -0.206 F 
ATOM     78  C   UNL A   1      51.685  26.220  24.825  1.00  0.00     0.059 A 
ATOM     79  C   UNL A   1      52.169  25.601  27.123  1.00  0.00     0.059 A 
ATOM     80  F   UNL A   1      50.515  25.855  28.765  1.00  0.00    -0.206 F 
ATOM     81  C   UNL A   1      52.560  25.717  25.790  1.00  0.00     0.060 A 
BRANCH  81  82
ATOM     82  S   UNL A   1      54.233  25.257  25.291  1.00  0.00     0.124 S 
ATOM     83  O   UNL A   1      54.039  23.883  24.843  1.00  0.00    -0.237 OA
ATOM     84  O   UNL A   1      54.523  26.235  24.247  1.00  0.00    -0.237 OA
ATOM     85  O   UNL A   1      55.005  25.418  26.520  1.00  0.00    -0.744 OA
ENDBRANCH  81  82
ENDBRANCH  49  74
BRANCH  61  86
ATOM     86  C   UNL A   1      47.177  32.596  28.432  1.00  0.00     0.058 A 
ATOM     87  C   UNL A   1      47.203  33.552  27.405  1.00  0.00     0.135 A 
ATOM     88  C   UNL A   1      47.694  32.962  29.685  1.00  0.00     0.135 A 
ATOM     89  F   UNL A   1      46.726  33.248  26.187  1.00  0.00    -0.206 F 
ATOM     90  C   UNL A   1      47.746  34.816  27.604  1.00  0.00     0.059 A 
ATOM     91  C   UNL A   1      48.219  34.229  29.914  1.00  0.00     0.059 A 
ATOM     92  F   UNL A   1      47.682  32.087  30.703  1.00  0.00    -0.206 F 
ATOM     93  C   UNL A   1      48.255  35.144  28.864  1.00  0.00     0.060 A 
BRANCH  93  94
ATOM     94  S   UNL A   1      48.942  36.794  29.119  1.00  0.00     0.124 S 
ATOM     95  O   UNL A   1      50.190  36.710  28.368  1.00  0.00    -0.237 OA
ATOM     96  O   UNL A   1      47.913  37.656  28.546  1.00  0.00    -0.237 OA
ATOM     97  O   UNL A   1      49.084  36.880  30.569  1.00  0.00    -0.744 OA
ENDBRANCH  93  94
ENDBRANCH  61  86
ENDBRANCH  35  36
ENDBRANCH  28  30
ENDBRANCH  27  28
ENDBRANCH  26  27
ENDBRANCH  25  26
ENDBRANCH   1  25
TORSDOF 21
ENDMDL
