MODEL 1
REMARK VINA RESULT:     -12.5      0.000      0.000
REMARK SMILES Cc1ccc(S(=O)(=O)n2cc(C(=O)C(=O)N[C@@H](Cc3c[nH]c4ccccc34)C(=O)NCC(=O)OCCOC(=O)c3ccc(-c4c5nc(c(-c6c(F)cc(S(=O)(=O)[O-])cc6F)c6ccc([nH]6)c(-c6c(F)cc(S(=O)(=O)[O-])cc6F)c6nc(c(-c7c(F)cc(S(=O)(=O)[O-])cc7F)c7ccc4[nH]7)C=C6)C=C5)cc3)c3ccccc32)cc1
REMARK SMILES IDX 32 1 33 2 31 3 30 4 28 5 29 6 17 8 16 9 14 10 15 11 12 13
REMARK SMILES IDX 13 14 11 15 9 16 10 17 111 18 106 19 110 20 107 21 109 22
REMARK SMILES IDX 108 23 6 24 7 25 8 26 5 27 1 28 2 29 3 30 113 31 4 32 112 33
REMARK SMILES IDX 18 34 19 35 20 36 27 37 21 38 22 39 26 40 23 42 25 43 24 44
REMARK SMILES IDX 34 45 35 46 36 47 37 48 38 49 39 50 40 51 41 52 105 53 42 54
REMARK SMILES IDX 104 55 43 56 44 57 45 58 98 59 46 60 103 61 97 62 99 63
REMARK SMILES IDX 47 64 102 65 96 66 95 67 48 69 82 70 61 71 81 72 62 73 65 74
REMARK SMILES IDX 80 75 100 76 63 77 64 78 79 80 101 81 66 82 49 83 50 84
REMARK SMILES IDX 59 85 51 86 52 87 58 88 60 89 53 90 54 91 55 92 56 93 57 94
REMARK SMILES IDX 83 95 84 96 93 97 85 98 86 99 92 100 94 101 87 102 88 103
REMARK SMILES IDX 89 104 90 105 91 106 67 107 68 108 77 109 69 110 70 111
REMARK SMILES IDX 76 112 78 113 71 114 72 115 73 116 74 117 75 118
REMARK H PARENT 30 7 16 12 21 41 99 68 65 79
REMARK Flexibility Score: inf
ROOT
ATOM      1  C   UNL A   1      36.481  30.345  28.260  1.00  0.00     0.325 C 
ATOM      2  O   UNL A   1      37.507  29.738  27.992  1.00  0.00    -0.250 OA
ENDROOT
BRANCH   1   3
ATOM      3  C   UNL A   1      35.057  29.870  27.913  1.00  0.00     0.238 C 
BRANCH   3   4
ATOM      4  N   UNL A   1      34.055  30.931  27.840  1.00  0.00    -0.343 N 
ATOM      5  C   UNL A   1      32.839  30.992  27.216  1.00  0.00     0.243 C 
ATOM      6  O   UNL A   1      32.228  32.065  27.306  1.00  0.00    -0.273 OA
ATOM      7  H   UNL A   1      34.299  31.750  28.329  1.00  0.00     0.164 HD
BRANCH   5   8
ATOM      8  C   UNL A   1      32.275  29.854  26.301  1.00  0.00     0.176 C 
BRANCH   8   9
ATOM      9  N   UNL A   1      31.588  28.761  26.979  1.00  0.00    -0.337 N 
ATOM     10  C   UNL A   1      31.723  27.396  26.951  1.00  0.00     0.293 C 
ATOM     11  O   UNL A   1      30.985  26.666  27.600  1.00  0.00    -0.265 OA
ATOM     12  H   UNL A   1      30.875  29.067  27.586  1.00  0.00     0.164 HD
BRANCH  10  13
ATOM     13  C   UNL A   1      32.894  26.793  26.206  1.00  0.00     0.252 C 
ATOM     14  O   UNL A   1      33.896  27.508  26.135  1.00  0.00    -0.283 OA
BRANCH  13  15
ATOM     15  C   UNL A   1      32.822  25.494  25.539  1.00  0.00     0.054 A 
ATOM     16  N   UNL A   1      32.204  23.504  24.674  1.00  0.00    -0.240 N 
ATOM     17  C   UNL A   1      31.722  24.713  25.183  1.00  0.00     0.117 A 
ATOM     18  C   UNL A   1      33.564  23.690  24.385  1.00  0.00     0.065 A 
ATOM     19  C   UNL A   1      33.984  24.746  25.187  1.00  0.00     0.012 A 
ATOM     20  C   UNL A   1      34.485  22.883  23.694  1.00  0.00     0.028 A 
ATOM     21  C   UNL A   1      35.360  24.891  25.457  1.00  0.00     0.011 A 
ATOM     22  C   UNL A   1      35.841  23.031  23.996  1.00  0.00     0.002 A 
ATOM     23  C   UNL A   1      36.271  23.995  24.900  1.00  0.00     0.001 A 
BRANCH  16  24
ATOM     24  S   UNL A   1      31.884  21.972  25.476  1.00  0.00     0.268 S 
ATOM     25  O   UNL A   1      30.443  21.966  25.660  1.00  0.00    -0.201 OA
ATOM     26  O   UNL A   1      32.774  21.985  26.630  1.00  0.00    -0.201 OA
BRANCH  24  27
ATOM     27  C   UNL A   1      32.288  20.453  24.686  1.00  0.00     0.088 A 
ATOM     28  C   UNL A   1      33.594  16.519  23.479  1.00  0.00     0.044 C 
ATOM     29  C   UNL A   1      33.101  17.879  23.881  1.00  0.00    -0.051 A 
ATOM     30  C   UNL A   1      33.223  18.252  25.214  1.00  0.00     0.005 A 
ATOM     31  C   UNL A   1      32.588  18.813  22.954  1.00  0.00     0.005 A 
ATOM     32  C   UNL A   1      32.811  19.515  25.607  1.00  0.00     0.022 A 
ATOM     33  C   UNL A   1      32.176  20.108  23.349  1.00  0.00     0.022 A 
ENDBRANCH  24  27
ENDBRANCH  16  24
ENDBRANCH  13  15
ENDBRANCH  10  13
ENDBRANCH   8   9
BRANCH   8  34
ATOM     34  C   UNL A   1      31.366  30.436  25.169  1.00  0.00     0.072 C 
BRANCH  34  35
ATOM     35  C   UNL A   1      30.990  29.513  24.021  1.00  0.00    -0.020 A 
ATOM     36  C   UNL A   1      29.657  29.273  23.641  1.00  0.00     0.087 A 
ATOM     37  C   UNL A   1      31.831  28.680  23.191  1.00  0.00     0.003 A 
ATOM     38  N   UNL A   1      29.451  28.228  22.745  1.00  0.00    -0.361 N 
ATOM     39  C   UNL A   1      30.628  27.581  22.470  1.00  0.00     0.046 A 
ATOM     40  C   UNL A   1      33.621  28.342  22.908  1.00  0.00     0.010 A 
ATOM     41  H   UNL A   1      28.578  27.986  22.360  1.00  0.00     0.166 HD
ATOM     42  C   UNL A   1      31.157  25.956  21.815  1.00  0.00     0.026 A 
ATOM     43  C   UNL A   1      34.183  26.880  21.956  1.00  0.00     0.001 A 
ATOM     44  C   UNL A   1      32.955  25.598  21.559  1.00  0.00     0.002 A 
ENDBRANCH  34  35
ENDBRANCH   8  34
ENDBRANCH   5   8
ENDBRANCH   3   4
ENDBRANCH   1   3
BRANCH   1  45
ATOM     45  O   UNL A   1      36.432  31.521  28.944  1.00  0.00    -0.461 OA
BRANCH  45  46
ATOM     46  C   UNL A   1      36.965  31.666  30.286  1.00  0.00     0.274 C 
BRANCH  46  47
ATOM     47  C   UNL A   1      36.501  30.692  31.396  1.00  0.00     0.275 C 
BRANCH  47  48
ATOM     48  O   UNL A   1      37.503  30.464  32.400  1.00  0.00    -0.458 OA
BRANCH  48  49
ATOM     49  C   UNL A   1      37.903  29.168  32.529  1.00  0.00     0.338 C 
ATOM     50  O   UNL A   1      37.344  28.318  33.199  1.00  0.00    -0.246 OA
BRANCH  49  51
ATOM     51  C   UNL A   1      38.974  28.922  31.536  1.00  0.00     0.060 A 
ATOM     52  C   UNL A   1      38.898  27.961  30.568  1.00  0.00     0.016 A 
ATOM     53  C   UNL A   1      39.950  29.875  31.378  1.00  0.00     0.016 A 
ATOM     54  C   UNL A   1      39.954  27.885  29.615  1.00  0.00     0.010 A 
ATOM     55  C   UNL A   1      40.721  29.948  30.219  1.00  0.00     0.010 A 
ATOM     56  C   UNL A   1      41.223  28.778  29.465  1.00  0.00    -0.014 A 
BRANCH  56  57
ATOM     57  C   UNL A   1      43.226  28.380  28.777  1.00  0.00     0.031 A 
ATOM     58  C   UNL A   1      44.391  29.479  28.110  1.00  0.00     0.074 A 
ATOM     59  C   UNL A   1      44.178  27.266  28.871  1.00  0.00     0.049 A 
ATOM     60  N   UNL A   1      45.273  30.201  28.774  1.00  0.00    -0.248 NA
ATOM     61  C   UNL A   1      44.472  29.691  26.649  1.00  0.00     0.031 C 
ATOM     62  C   UNL A   1      45.658  27.312  28.948  1.00  0.00     0.029 A 
ATOM     63  N   UNL A   1      44.018  25.878  29.124  1.00  0.00    -0.354 N 
ATOM     64  C   UNL A   1      45.990  30.962  27.852  1.00  0.00     0.074 A 
ATOM     65  C   UNL A   1      45.341  30.697  26.574  1.00  0.00     0.031 C 
ATOM     66  C   UNL A   1      46.170  26.066  28.943  1.00  0.00     0.029 A 
ATOM     67  C   UNL A   1      45.086  25.154  28.680  1.00  0.00     0.049 A 
ATOM     68  H   UNL A   1      43.231  25.486  29.566  1.00  0.00     0.167 HD
ATOM     69  C   UNL A   1      47.356  30.997  27.859  1.00  0.00     0.037 A 
ATOM     70  C   UNL A   1      44.975  24.204  27.708  1.00  0.00     0.037 A 
ATOM     71  C   UNL A   1      48.008  29.717  27.651  1.00  0.00     0.049 A 
ATOM     72  C   UNL A   1      45.939  24.550  26.612  1.00  0.00     0.074 A 
ATOM     73  C   UNL A   1      48.798  28.907  28.447  1.00  0.00     0.029 A 
ATOM     74  N   UNL A   1      47.794  29.008  26.472  1.00  0.00    -0.354 N 
ATOM     75  N   UNL A   1      46.356  25.772  26.420  1.00  0.00    -0.248 NA
ATOM     76  C   UNL A   1      46.581  23.593  25.719  1.00  0.00     0.031 C 
ATOM     77  C   UNL A   1      48.977  27.672  27.770  1.00  0.00     0.029 A 
ATOM     78  C   UNL A   1      48.324  27.741  26.549  1.00  0.00     0.049 A 
ATOM     79  H   UNL A   1      47.325  29.367  25.685  1.00  0.00     0.167 HD
ATOM     80  C   UNL A   1      47.420  25.746  25.578  1.00  0.00     0.074 A 
ATOM     81  C   UNL A   1      47.460  24.385  25.076  1.00  0.00     0.031 C 
ATOM     82  C   UNL A   1      48.249  26.815  25.428  1.00  0.00     0.037 A 
BRANCH  69  83
ATOM     83  C   UNL A   1      48.000  32.282  28.341  1.00  0.00     0.058 A 
ATOM     84  C   UNL A   1      47.738  32.846  29.608  1.00  0.00     0.135 A 
ATOM     85  C   UNL A   1      48.958  32.978  27.564  1.00  0.00     0.135 A 
ATOM     86  F   UNL A   1      46.885  32.265  30.464  1.00  0.00    -0.206 F 
ATOM     87  C   UNL A   1      48.351  34.026  30.056  1.00  0.00     0.059 A 
ATOM     88  C   UNL A   1      49.579  34.156  27.989  1.00  0.00     0.059 A 
ATOM     89  F   UNL A   1      49.345  32.517  26.363  1.00  0.00    -0.206 F 
ATOM     90  C   UNL A   1      49.265  34.681  29.236  1.00  0.00     0.060 A 
BRANCH  90  91
ATOM     91  S   UNL A   1      50.037  36.213  29.803  1.00  0.00     0.124 S 
ATOM     92  O   UNL A   1      48.967  36.828  30.581  1.00  0.00    -0.237 OA
ATOM     93  O   UNL A   1      51.179  35.721  30.566  1.00  0.00    -0.237 OA
ATOM     94  O   UNL A   1      50.371  36.907  28.559  1.00  0.00    -0.744 OA
ENDBRANCH  90  91
ENDBRANCH  69  83
BRANCH  70  95
ATOM     95  C   UNL A   1      43.616  23.582  27.579  1.00  0.00     0.058 A 
ATOM     96  C   UNL A   1      43.068  23.468  26.278  1.00  0.00     0.135 A 
ATOM     97  C   UNL A   1      43.043  22.776  28.576  1.00  0.00     0.135 A 
ATOM     98  F   UNL A   1      43.573  24.204  25.276  1.00  0.00    -0.206 F 
ATOM     99  C   UNL A   1      42.136  22.487  25.946  1.00  0.00     0.059 A 
ATOM    100  C   UNL A   1      42.077  21.806  28.269  1.00  0.00     0.059 A 
ATOM    101  F   UNL A   1      43.498  22.828  29.836  1.00  0.00    -0.206 F 
ATOM    102  C   UNL A   1      41.679  21.627  26.941  1.00  0.00     0.060 A 
BRANCH 102 103
ATOM    103  S   UNL A   1      40.807  20.113  26.435  1.00  0.00     0.124 S 
ATOM    104  O   UNL A   1      39.537  20.646  25.958  1.00  0.00    -0.237 OA
ATOM    105  O   UNL A   1      41.702  19.577  25.413  1.00  0.00    -0.237 OA
ATOM    106  O   UNL A   1      40.756  19.344  27.675  1.00  0.00    -0.744 OA
ENDBRANCH 102 103
ENDBRANCH  70  95
BRANCH  82 107
ATOM    107  C   UNL A   1      49.166  26.972  24.261  1.00  0.00     0.058 A 
ATOM    108  C   UNL A   1      48.725  27.515  23.041  1.00  0.00     0.135 A 
ATOM    109  C   UNL A   1      50.552  26.748  24.385  1.00  0.00     0.135 A 
ATOM    110  F   UNL A   1      47.443  27.875  22.864  1.00  0.00    -0.206 F 
ATOM    111  C   UNL A   1      49.588  27.742  21.979  1.00  0.00     0.059 A 
ATOM    112  C   UNL A   1      51.440  27.010  23.350  1.00  0.00     0.059 A 
ATOM    113  F   UNL A   1      51.088  26.285  25.524  1.00  0.00    -0.206 F 
ATOM    114  C   UNL A   1      50.944  27.480  22.140  1.00  0.00     0.060 A 
BRANCH 114 115
ATOM    115  S   UNL A   1      52.081  27.800  20.784  1.00  0.00     0.124 S 
ATOM    116  O   UNL A   1      52.898  28.871  21.343  1.00  0.00    -0.237 OA
ATOM    117  O   UNL A   1      52.756  26.516  20.614  1.00  0.00    -0.237 OA
ATOM    118  O   UNL A   1      51.189  28.180  19.694  1.00  0.00    -0.744 OA
ENDBRANCH 114 115
ENDBRANCH  82 107
ENDBRANCH  56  57
ENDBRANCH  49  51
ENDBRANCH  48  49
ENDBRANCH  47  48
ENDBRANCH  46  47
ENDBRANCH  45  46
ENDBRANCH   1  45
TORSDOF 23
ENDMDL
MODEL 2
REMARK VINA RESULT:     -12.2      5.071     10.757
REMARK SMILES Cc1ccc(S(=O)(=O)n2cc(C(=O)C(=O)N[C@@H](Cc3c[nH]c4ccccc34)C(=O)NCC(=O)OCCOC(=O)c3ccc(-c4c5nc(c(-c6c(F)cc(S(=O)(=O)[O-])cc6F)c6ccc([nH]6)c(-c6c(F)cc(S(=O)(=O)[O-])cc6F)c6nc(c(-c7c(F)cc(S(=O)(=O)[O-])cc7F)c7ccc4[nH]7)C=C6)C=C5)cc3)c3ccccc32)cc1
REMARK SMILES IDX 32 1 33 2 31 3 30 4 28 5 29 6 17 8 16 9 14 10 15 11 12 13
REMARK SMILES IDX 13 14 11 15 9 16 10 17 111 18 106 19 110 20 107 21 109 22
REMARK SMILES IDX 108 23 6 24 7 25 8 26 5 27 1 28 2 29 3 30 113 31 4 32 112 33
REMARK SMILES IDX 18 34 19 35 20 36 27 37 21 38 22 39 26 40 23 42 25 43 24 44
REMARK SMILES IDX 34 45 35 46 36 47 37 48 38 49 39 50 40 51 41 52 105 53 42 54
REMARK SMILES IDX 104 55 43 56 44 57 45 58 98 59 46 60 103 61 97 62 99 63
REMARK SMILES IDX 47 64 102 65 96 66 95 67 48 69 82 70 61 71 81 72 62 73 65 74
REMARK SMILES IDX 80 75 100 76 63 77 64 78 79 80 101 81 66 82 49 83 50 84
REMARK SMILES IDX 59 85 51 86 52 87 58 88 60 89 53 90 54 91 55 92 56 93 57 94
REMARK SMILES IDX 83 95 84 96 93 97 85 98 86 99 92 100 94 101 87 102 88 103
REMARK SMILES IDX 89 104 90 105 91 106 67 107 68 108 77 109 69 110 70 111
REMARK SMILES IDX 76 112 78 113 71 114 72 115 73 116 74 117 75 118
REMARK H PARENT 30 7 16 12 21 41 99 68 65 79
REMARK Flexibility Score: inf
ROOT
ATOM      1  C   UNL A   1      30.728  26.259  23.168  1.00  0.00     0.325 C 
ATOM      2  O   UNL A   1      31.201  26.617  22.100  1.00  0.00    -0.250 OA
ENDROOT
BRANCH   1   3
ATOM      3  C   UNL A   1      30.660  24.801  23.659  1.00  0.00     0.238 C 
BRANCH   3   4
ATOM      4  N   UNL A   1      31.271  23.821  22.764  1.00  0.00    -0.343 N 
ATOM      5  C   UNL A   1      31.929  22.647  23.013  1.00  0.00     0.243 C 
ATOM      6  O   UNL A   1      32.377  22.047  22.027  1.00  0.00    -0.273 OA
ATOM      7  H   UNL A   1      31.195  24.045  21.808  1.00  0.00     0.164 HD
BRANCH   5   8
ATOM      8  C   UNL A   1      32.257  22.125  24.452  1.00  0.00     0.176 C 
BRANCH   8   9
ATOM      9  N   UNL A   1      31.650  22.856  25.558  1.00  0.00    -0.337 N 
ATOM     10  C   UNL A   1      32.082  23.873  26.370  1.00  0.00     0.293 C 
ATOM     11  O   UNL A   1      31.383  24.308  27.278  1.00  0.00    -0.265 OA
ATOM     12  H   UNL A   1      30.735  22.555  25.767  1.00  0.00     0.164 HD
BRANCH  10  13
ATOM     13  C   UNL A   1      33.392  24.558  26.050  1.00  0.00     0.252 C 
ATOM     14  O   UNL A   1      33.303  25.752  25.756  1.00  0.00    -0.283 OA
BRANCH  13  15
ATOM     15  C   UNL A   1      34.666  23.844  26.006  1.00  0.00     0.054 A 
ATOM     16  N   UNL A   1      36.654  22.875  26.453  1.00  0.00    -0.240 N 
ATOM     17  C   UNL A   1      35.495  23.395  27.035  1.00  0.00     0.117 A 
ATOM     18  C   UNL A   1      36.380  22.675  25.092  1.00  0.00     0.065 A 
ATOM     19  C   UNL A   1      35.333  23.537  24.783  1.00  0.00     0.012 A 
ATOM     20  C   UNL A   1      37.107  22.013  24.086  1.00  0.00     0.028 A 
ATOM     21  C   UNL A   1      35.120  23.895  23.436  1.00  0.00     0.011 A 
ATOM     22  C   UNL A   1      36.892  22.402  22.761  1.00  0.00     0.002 A 
ATOM     23  C   UNL A   1      35.941  23.363  22.442  1.00  0.00     0.001 A 
BRANCH  16  24
ATOM     24  S   UNL A   1      38.232  23.602  26.728  1.00  0.00     0.268 S 
ATOM     25  O   UNL A   1      38.073  24.323  27.979  1.00  0.00    -0.201 OA
ATOM     26  O   UNL A   1      38.508  24.323  25.492  1.00  0.00    -0.201 OA
BRANCH  24  27
ATOM     27  C   UNL A   1      39.658  22.590  26.918  1.00  0.00     0.088 A 
ATOM     28  C   UNL A   1      42.723  19.550  26.960  1.00  0.00     0.044 C 
ATOM     29  C   UNL A   1      41.687  20.636  26.933  1.00  0.00    -0.051 A 
ATOM     30  C   UNL A   1      40.528  20.418  26.197  1.00  0.00     0.005 A 
ATOM     31  C   UNL A   1      41.810  21.831  27.675  1.00  0.00     0.005 A 
ATOM     32  C   UNL A   1      39.538  21.386  26.184  1.00  0.00     0.022 A 
ATOM     33  C   UNL A   1      40.796  22.819  27.673  1.00  0.00     0.022 A 
ENDBRANCH  24  27
ENDBRANCH  16  24
ENDBRANCH  13  15
ENDBRANCH  10  13
ENDBRANCH   8   9
BRANCH   8  34
ATOM     34  C   UNL A   1      31.945  20.598  24.585  1.00  0.00     0.072 C 
BRANCH  34  35
ATOM     35  C   UNL A   1      33.101  19.668  24.921  1.00  0.00    -0.020 A 
ATOM     36  C   UNL A   1      34.448  20.055  24.805  1.00  0.00     0.087 A 
ATOM     37  C   UNL A   1      33.083  18.278  25.315  1.00  0.00     0.003 A 
ATOM     38  N   UNL A   1      35.392  19.036  24.907  1.00  0.00    -0.361 N 
ATOM     39  C   UNL A   1      34.781  17.815  25.030  1.00  0.00     0.046 A 
ATOM     40  C   UNL A   1      31.868  16.961  25.747  1.00  0.00     0.010 A 
ATOM     41  H   UNL A   1      36.366  19.174  24.895  1.00  0.00     0.166 HD
ATOM     42  C   UNL A   1      35.215  16.055  24.779  1.00  0.00     0.026 A 
ATOM     43  C   UNL A   1      32.354  15.196  25.832  1.00  0.00     0.001 A 
ATOM     44  C   UNL A   1      33.987  14.729  25.180  1.00  0.00     0.002 A 
ENDBRANCH  34  35
ENDBRANCH   8  34
ENDBRANCH   5   8
ENDBRANCH   3   4
ENDBRANCH   1   3
BRANCH   1  45
ATOM     45  O   UNL A   1      30.219  27.098  24.111  1.00  0.00    -0.461 OA
BRANCH  45  46
ATOM     46  C   UNL A   1      29.536  28.332  23.770  1.00  0.00     0.274 C 
BRANCH  46  47
ATOM     47  C   UNL A   1      30.295  29.676  23.887  1.00  0.00     0.275 C 
BRANCH  47  48
ATOM     48  O   UNL A   1      31.289  29.673  24.925  1.00  0.00    -0.458 OA
BRANCH  48  49
ATOM     49  C   UNL A   1      32.562  29.434  24.502  1.00  0.00     0.338 C 
ATOM     50  O   UNL A   1      32.905  29.280  23.344  1.00  0.00    -0.246 OA
BRANCH  49  51
ATOM     51  C   UNL A   1      33.469  29.635  25.654  1.00  0.00     0.060 A 
ATOM     52  C   UNL A   1      33.518  30.790  26.382  1.00  0.00     0.016 A 
ATOM     53  C   UNL A   1      34.074  28.535  26.211  1.00  0.00     0.016 A 
ATOM     54  C   UNL A   1      34.369  30.827  27.525  1.00  0.00     0.010 A 
ATOM     55  C   UNL A   1      34.576  28.555  27.511  1.00  0.00     0.010 A 
ATOM     56  C   UNL A   1      35.267  29.707  28.131  1.00  0.00    -0.014 A 
BRANCH  56  57
ATOM     57  C   UNL A   1      37.148  29.740  29.183  1.00  0.00     0.031 A 
ATOM     58  C   UNL A   1      38.335  28.485  29.339  1.00  0.00     0.074 A 
ATOM     59  C   UNL A   1      38.000  30.764  29.801  1.00  0.00     0.049 A 
ATOM     60  N   UNL A   1      39.340  28.237  28.521  1.00  0.00    -0.248 NA
ATOM     61  C   UNL A   1      38.288  27.546  30.480  1.00  0.00     0.031 C 
ATOM     62  C   UNL A   1      39.478  30.803  29.908  1.00  0.00     0.029 A 
ATOM     63  N   UNL A   1      37.740  32.076  30.278  1.00  0.00    -0.354 N 
ATOM     64  C   UNL A   1      40.027  27.125  29.008  1.00  0.00     0.074 A 
ATOM     65  C   UNL A   1      39.233  26.669  30.142  1.00  0.00     0.031 C 
ATOM     66  C   UNL A   1      39.872  31.876  30.619  1.00  0.00     0.029 A 
ATOM     67  C   UNL A   1      38.689  32.491  31.167  1.00  0.00     0.049 A 
ATOM     68  H   UNL A   1      36.969  32.621  29.999  1.00  0.00     0.167 HD
ATOM     69  C   UNL A   1      41.385  27.134  29.165  1.00  0.00     0.037 A 
ATOM     70  C   UNL A   1      38.396  32.792  32.464  1.00  0.00     0.037 A 
ATOM     71  C   UNL A   1      41.894  28.135  30.084  1.00  0.00     0.049 A 
ATOM     72  C   UNL A   1      39.274  31.951  33.343  1.00  0.00     0.074 A 
ATOM     73  C   UNL A   1      42.683  29.261  29.929  1.00  0.00     0.029 A 
ATOM     74  N   UNL A   1      41.500  28.121  31.420  1.00  0.00    -0.354 N 
ATOM     75  N   UNL A   1      39.778  30.819  32.934  1.00  0.00    -0.248 NA
ATOM     76  C   UNL A   1      39.734  32.320  34.676  1.00  0.00     0.031 C 
ATOM     77  C   UNL A   1      42.682  29.968  31.160  1.00  0.00     0.029 A 
ATOM     78  C   UNL A   1      41.919  29.257  32.074  1.00  0.00     0.049 A 
ATOM     79  H   UNL A   1      40.990  27.393  31.841  1.00  0.00     0.167 HD
ATOM     80  C   UNL A   1      40.746  30.430  33.802  1.00  0.00     0.074 A 
ATOM     81  C   UNL A   1      40.613  31.332  34.932  1.00  0.00     0.031 C 
ATOM     82  C   UNL A   1      41.649  29.461  33.490  1.00  0.00     0.037 A 
BRANCH  69  83
ATOM     83  C   UNL A   1      42.187  26.304  28.182  1.00  0.00     0.058 A 
ATOM     84  C   UNL A   1      41.954  26.321  26.790  1.00  0.00     0.135 A 
ATOM     85  C   UNL A   1      43.271  25.491  28.596  1.00  0.00     0.135 A 
ATOM     86  F   UNL A   1      40.987  27.082  26.257  1.00  0.00    -0.206 F 
ATOM     87  C   UNL A   1      42.712  25.565  25.884  1.00  0.00     0.059 A 
ATOM     88  C   UNL A   1      44.037  24.729  27.710  1.00  0.00     0.059 A 
ATOM     89  F   UNL A   1      43.640  25.431  29.886  1.00  0.00    -0.206 F 
ATOM     90  C   UNL A   1      43.747  24.763  26.353  1.00  0.00     0.060 A 
BRANCH  90  91
ATOM     91  S   UNL A   1      44.709  23.771  25.188  1.00  0.00     0.124 S 
ATOM     92  O   UNL A   1      43.670  23.200  24.337  1.00  0.00    -0.237 OA
ATOM     93  O   UNL A   1      45.566  24.772  24.562  1.00  0.00    -0.237 OA
ATOM     94  O   UNL A   1      45.398  22.809  26.047  1.00  0.00    -0.744 OA
ENDBRANCH  90  91
ENDBRANCH  69  83
BRANCH  70  95
ATOM     95  C   UNL A   1      36.980  33.222  32.712  1.00  0.00     0.058 A 
ATOM     96  C   UNL A   1      36.752  34.591  32.994  1.00  0.00     0.135 A 
ATOM     97  C   UNL A   1      35.866  32.468  32.310  1.00  0.00     0.135 A 
ATOM     98  F   UNL A   1      37.774  35.372  33.377  1.00  0.00    -0.206 F 
ATOM     99  C   UNL A   1      35.537  35.215  32.718  1.00  0.00     0.059 A 
ATOM    100  C   UNL A   1      34.624  33.070  32.062  1.00  0.00     0.059 A 
ATOM    101  F   UNL A   1      35.995  31.163  32.031  1.00  0.00    -0.206 F 
ATOM    102  C   UNL A   1      34.489  34.454  32.208  1.00  0.00     0.060 A 
BRANCH 102 103
ATOM    103  S   UNL A   1      33.075  35.325  31.467  1.00  0.00     0.124 S 
ATOM    104  O   UNL A   1      33.000  34.706  30.150  1.00  0.00    -0.237 OA
ATOM    105  O   UNL A   1      31.996  34.993  32.394  1.00  0.00    -0.237 OA
ATOM    106  O   UNL A   1      33.506  36.720  31.497  1.00  0.00    -0.744 OA
ENDBRANCH 102 103
ENDBRANCH  70  95
BRANCH  82 107
ATOM    107  C   UNL A   1      42.456  28.743  34.520  1.00  0.00     0.058 A 
ATOM    108  C   UNL A   1      42.130  27.441  34.940  1.00  0.00     0.135 A 
ATOM    109  C   UNL A   1      43.677  29.268  34.988  1.00  0.00     0.135 A 
ATOM    110  F   UNL A   1      41.049  26.806  34.459  1.00  0.00    -0.206 F 
ATOM    111  C   UNL A   1      42.921  26.734  35.835  1.00  0.00     0.059 A 
ATOM    112  C   UNL A   1      44.506  28.559  35.849  1.00  0.00     0.059 A 
ATOM    113  F   UNL A   1      44.113  30.478  34.607  1.00  0.00    -0.206 F 
ATOM    114  C   UNL A   1      44.104  27.305  36.290  1.00  0.00     0.060 A 
BRANCH 114 115
ATOM    115  S   UNL A   1      45.157  26.388  37.424  1.00  0.00     0.124 S 
ATOM    116  O   UNL A   1      46.232  27.346  37.653  1.00  0.00    -0.237 OA
ATOM    117  O   UNL A   1      44.275  26.146  38.563  1.00  0.00    -0.237 OA
ATOM    118  O   UNL A   1      45.511  25.202  36.652  1.00  0.00    -0.744 OA
ENDBRANCH 114 115
ENDBRANCH  82 107
ENDBRANCH  56  57
ENDBRANCH  49  51
ENDBRANCH  48  49
ENDBRANCH  47  48
ENDBRANCH  46  47
ENDBRANCH  45  46
ENDBRANCH   1  45
TORSDOF 23
ENDMDL
MODEL 3
REMARK VINA RESULT:     -11.7      2.101      7.194
REMARK SMILES Cc1ccc(S(=O)(=O)n2cc(C(=O)C(=O)N[C@@H](Cc3c[nH]c4ccccc34)C(=O)NCC(=O)OCCOC(=O)c3ccc(-c4c5nc(c(-c6c(F)cc(S(=O)(=O)[O-])cc6F)c6ccc([nH]6)c(-c6c(F)cc(S(=O)(=O)[O-])cc6F)c6nc(c(-c7c(F)cc(S(=O)(=O)[O-])cc7F)c7ccc4[nH]7)C=C6)C=C5)cc3)c3ccccc32)cc1
REMARK SMILES IDX 32 1 33 2 31 3 30 4 28 5 29 6 17 8 16 9 14 10 15 11 12 13
REMARK SMILES IDX 13 14 11 15 9 16 10 17 111 18 106 19 110 20 107 21 109 22
REMARK SMILES IDX 108 23 6 24 7 25 8 26 5 27 1 28 2 29 3 30 113 31 4 32 112 33
REMARK SMILES IDX 18 34 19 35 20 36 27 37 21 38 22 39 26 40 23 42 25 43 24 44
REMARK SMILES IDX 34 45 35 46 36 47 37 48 38 49 39 50 40 51 41 52 105 53 42 54
REMARK SMILES IDX 104 55 43 56 44 57 45 58 98 59 46 60 103 61 97 62 99 63
REMARK SMILES IDX 47 64 102 65 96 66 95 67 48 69 82 70 61 71 81 72 62 73 65 74
REMARK SMILES IDX 80 75 100 76 63 77 64 78 79 80 101 81 66 82 49 83 50 84
REMARK SMILES IDX 59 85 51 86 52 87 58 88 60 89 53 90 54 91 55 92 56 93 57 94
REMARK SMILES IDX 83 95 84 96 93 97 85 98 86 99 92 100 94 101 87 102 88 103
REMARK SMILES IDX 89 104 90 105 91 106 67 107 68 108 77 109 69 110 70 111
REMARK SMILES IDX 76 112 78 113 71 114 72 115 73 116 74 117 75 118
REMARK H PARENT 30 7 16 12 21 41 99 68 65 79
REMARK Flexibility Score: inf
ROOT
ATOM      1  C   UNL A   1      36.822  30.117  28.462  1.00  0.00     0.325 C 
ATOM      2  O   UNL A   1      37.838  29.914  27.815  1.00  0.00    -0.250 OA
ENDROOT
BRANCH   1   3
ATOM      3  C   UNL A   1      35.399  29.735  28.013  1.00  0.00     0.238 C 
BRANCH   3   4
ATOM      4  N   UNL A   1      34.444  30.840  27.989  1.00  0.00    -0.343 N 
ATOM      5  C   UNL A   1      33.217  30.970  27.396  1.00  0.00     0.243 C 
ATOM      6  O   UNL A   1      32.657  32.067  27.525  1.00  0.00    -0.273 OA
ATOM      7  H   UNL A   1      34.735  31.636  28.491  1.00  0.00     0.164 HD
BRANCH   5   8
ATOM      8  C   UNL A   1      32.582  29.880  26.470  1.00  0.00     0.176 C 
BRANCH   8   9
ATOM      9  N   UNL A   1      31.886  28.788  27.140  1.00  0.00    -0.337 N 
ATOM     10  C   UNL A   1      31.958  27.421  27.047  1.00  0.00     0.293 C 
ATOM     11  O   UNL A   1      31.225  26.695  27.707  1.00  0.00    -0.265 OA
ATOM     12  H   UNL A   1      31.223  29.097  27.800  1.00  0.00     0.164 HD
BRANCH  10  13
ATOM     13  C   UNL A   1      33.056  26.803  26.209  1.00  0.00     0.252 C 
ATOM     14  O   UNL A   1      34.051  27.512  26.042  1.00  0.00    -0.283 OA
BRANCH  13  15
ATOM     15  C   UNL A   1      32.921  25.497  25.569  1.00  0.00     0.054 A 
ATOM     16  N   UNL A   1      32.214  23.509  24.768  1.00  0.00    -0.240 N 
ATOM     17  C   UNL A   1      31.786  24.737  25.280  1.00  0.00     0.117 A 
ATOM     18  C   UNL A   1      33.561  23.658  24.408  1.00  0.00     0.065 A 
ATOM     19  C   UNL A   1      34.046  24.715  25.172  1.00  0.00     0.012 A 
ATOM     20  C   UNL A   1      34.427  22.818  23.685  1.00  0.00     0.028 A 
ATOM     21  C   UNL A   1      35.437  24.831  25.370  1.00  0.00     0.011 A 
ATOM     22  C   UNL A   1      35.800  22.938  23.917  1.00  0.00     0.002 A 
ATOM     23  C   UNL A   1      36.297  23.905  24.783  1.00  0.00     0.001 A 
BRANCH  16  24
ATOM     24  S   UNL A   1      31.898  21.997  25.609  1.00  0.00     0.268 S 
ATOM     25  O   UNL A   1      30.454  21.854  25.544  1.00  0.00    -0.201 OA
ATOM     26  O   UNL A   1      32.566  22.162  26.893  1.00  0.00    -0.201 OA
BRANCH  24  27
ATOM     27  C   UNL A   1      32.572  20.487  25.008  1.00  0.00     0.088 A 
ATOM     28  C   UNL A   1      33.689  16.880  22.917  1.00  0.00     0.044 C 
ATOM     29  C   UNL A   1      33.343  18.145  23.648  1.00  0.00    -0.051 A 
ATOM     30  C   UNL A   1      32.432  19.013  23.058  1.00  0.00     0.005 A 
ATOM     31  C   UNL A   1      33.847  18.451  24.930  1.00  0.00     0.005 A 
ATOM     32  C   UNL A   1      32.064  20.169  23.727  1.00  0.00     0.022 A 
ATOM     33  C   UNL A   1      33.466  19.626  25.622  1.00  0.00     0.022 A 
ENDBRANCH  24  27
ENDBRANCH  16  24
ENDBRANCH  13  15
ENDBRANCH  10  13
ENDBRANCH   8   9
BRANCH   8  34
ATOM     34  C   UNL A   1      31.650  30.527  25.392  1.00  0.00     0.072 C 
BRANCH  34  35
ATOM     35  C   UNL A   1      31.191  29.649  24.238  1.00  0.00    -0.020 A 
ATOM     36  C   UNL A   1      29.835  29.470  23.911  1.00  0.00     0.087 A 
ATOM     37  C   UNL A   1      31.964  28.809  23.352  1.00  0.00     0.003 A 
ATOM     38  N   UNL A   1      29.551  28.457  22.998  1.00  0.00    -0.361 N 
ATOM     39  C   UNL A   1      30.690  27.775  22.656  1.00  0.00     0.046 A 
ATOM     40  C   UNL A   1      33.726  28.413  22.983  1.00  0.00     0.010 A 
ATOM     41  H   UNL A   1      28.654  28.258  22.646  1.00  0.00     0.166 HD
ATOM     42  C   UNL A   1      31.128  26.150  21.937  1.00  0.00     0.026 A 
ATOM     43  C   UNL A   1      34.191  26.957  21.971  1.00  0.00     0.001 A 
ATOM     44  C   UNL A   1      32.899  25.733  21.595  1.00  0.00     0.002 A 
ENDBRANCH  34  35
ENDBRANCH   8  34
ENDBRANCH   5   8
ENDBRANCH   3   4
ENDBRANCH   1   3
BRANCH   1  45
ATOM     45  O   UNL A   1      36.791  30.680  29.701  1.00  0.00    -0.461 OA
BRANCH  45  46
ATOM     46  C   UNL A   1      36.389  29.941  30.884  1.00  0.00     0.274 C 
BRANCH  46  47
ATOM     47  C   UNL A   1      36.349  30.664  32.252  1.00  0.00     0.275 C 
BRANCH  47  48
ATOM     48  O   UNL A   1      37.603  31.269  32.606  1.00  0.00    -0.458 OA
BRANCH  48  49
ATOM     49  C   UNL A   1      38.323  30.593  33.546  1.00  0.00     0.338 C 
ATOM     50  O   UNL A   1      37.895  30.200  34.615  1.00  0.00    -0.246 OA
BRANCH  49  51
ATOM     51  C   UNL A   1      39.620  30.217  32.940  1.00  0.00     0.060 A 
ATOM     52  C   UNL A   1      40.800  30.834  33.245  1.00  0.00     0.016 A 
ATOM     53  C   UNL A   1      39.710  29.020  32.275  1.00  0.00     0.016 A 
ATOM     54  C   UNL A   1      41.995  30.320  32.663  1.00  0.00     0.010 A 
ATOM     55  C   UNL A   1      40.935  28.392  32.057  1.00  0.00     0.010 A 
ATOM     56  C   UNL A   1      42.194  29.094  31.722  1.00  0.00    -0.014 A 
BRANCH  56  57
ATOM     57  C   UNL A   1      43.583  28.675  30.128  1.00  0.00     0.031 A 
ATOM     58  C   UNL A   1      44.250  27.153  29.632  1.00  0.00     0.074 A 
ATOM     59  C   UNL A   1      44.130  29.406  28.978  1.00  0.00     0.049 A 
ATOM     60  N   UNL A   1      43.735  26.305  28.763  1.00  0.00    -0.248 NA
ATOM     61  C   UNL A   1      45.532  26.676  30.195  1.00  0.00     0.031 C 
ATOM     62  C   UNL A   1      44.532  28.884  27.650  1.00  0.00     0.029 A 
ATOM     63  N   UNL A   1      44.248  30.790  28.681  1.00  0.00    -0.354 N 
ATOM     64  C   UNL A   1      44.582  25.201  28.682  1.00  0.00     0.074 A 
ATOM     65  C   UNL A   1      45.596  25.440  29.702  1.00  0.00     0.031 C 
ATOM     66  C   UNL A   1      45.061  29.867  26.897  1.00  0.00     0.029 A 
ATOM     67  C   UNL A   1      45.205  31.028  27.738  1.00  0.00     0.049 A 
ATOM     68  H   UNL A   1      43.704  31.493  29.105  1.00  0.00     0.167 HD
ATOM     69  C   UNL A   1      45.013  24.714  27.481  1.00  0.00     0.037 A 
ATOM     70  C   UNL A   1      46.316  31.776  27.993  1.00  0.00     0.037 A 
ATOM     71  C   UNL A   1      45.781  25.647  26.676  1.00  0.00     0.049 A 
ATOM     72  C   UNL A   1      47.519  30.944  27.662  1.00  0.00     0.074 A 
ATOM     73  C   UNL A   1      45.555  26.272  25.463  1.00  0.00     0.029 A 
ATOM     74  N   UNL A   1      46.976  26.170  27.163  1.00  0.00    -0.354 N 
ATOM     75  N   UNL A   1      47.478  29.639  27.668  1.00  0.00    -0.248 NA
ATOM     76  C   UNL A   1      48.807  31.462  27.219  1.00  0.00     0.031 C 
ATOM     77  C   UNL A   1      46.577  27.240  25.274  1.00  0.00     0.029 A 
ATOM     78  C   UNL A   1      47.442  27.181  26.355  1.00  0.00     0.049 A 
ATOM     79  H   UNL A   1      47.427  25.858  27.979  1.00  0.00     0.167 HD
ATOM     80  C   UNL A   1      48.592  29.163  27.057  1.00  0.00     0.074 A 
ATOM     81  C   UNL A   1      49.448  30.323  26.890  1.00  0.00     0.031 C 
ATOM     82  C   UNL A   1      48.693  27.869  26.644  1.00  0.00     0.037 A 
BRANCH  69  83
ATOM     83  C   UNL A   1      44.422  23.392  27.031  1.00  0.00     0.058 A 
ATOM     84  C   UNL A   1      44.996  22.599  26.014  1.00  0.00     0.135 A 
ATOM     85  C   UNL A   1      43.274  22.836  27.647  1.00  0.00     0.135 A 
ATOM     86  F   UNL A   1      46.111  22.985  25.377  1.00  0.00    -0.206 F 
ATOM     87  C   UNL A   1      44.454  21.368  25.615  1.00  0.00     0.059 A 
ATOM     88  C   UNL A   1      42.718  21.613  27.264  1.00  0.00     0.059 A 
ATOM     89  F   UNL A   1      42.665  23.458  28.670  1.00  0.00    -0.206 F 
ATOM     90  C   UNL A   1      43.308  20.885  26.239  1.00  0.00     0.060 A 
BRANCH  90  91
ATOM     91  S   UNL A   1      42.597  19.311  25.709  1.00  0.00     0.124 S 
ATOM     92  O   UNL A   1      43.438  18.960  24.570  1.00  0.00    -0.237 OA
ATOM     93  O   UNL A   1      42.757  18.481  26.899  1.00  0.00    -0.237 OA
ATOM     94  O   UNL A   1      41.217  19.657  25.371  1.00  0.00    -0.744 OA
ENDBRANCH  90  91
ENDBRANCH  69  83
BRANCH  70  95
ATOM     95  C   UNL A   1      46.164  32.784  29.094  1.00  0.00     0.058 A 
ATOM     96  C   UNL A   1      45.382  33.933  28.827  1.00  0.00     0.135 A 
ATOM     97  C   UNL A   1      46.406  32.488  30.445  1.00  0.00     0.135 A 
ATOM     98  F   UNL A   1      45.106  34.271  27.557  1.00  0.00    -0.206 F 
ATOM     99  C   UNL A   1      44.727  34.640  29.834  1.00  0.00     0.059 A 
ATOM    100  C   UNL A   1      45.785  33.209  31.477  1.00  0.00     0.059 A 
ATOM    101  F   UNL A   1      47.143  31.421  30.785  1.00  0.00    -0.206 F 
ATOM    102  C   UNL A   1      44.898  34.241  31.157  1.00  0.00     0.060 A 
BRANCH 102 103
ATOM    103  S   UNL A   1      43.739  34.880  32.404  1.00  0.00     0.124 S 
ATOM    104  O   UNL A   1      44.483  36.005  32.954  1.00  0.00    -0.237 OA
ATOM    105  O   UNL A   1      42.575  35.218  31.589  1.00  0.00    -0.237 OA
ATOM    106  O   UNL A   1      43.559  33.734  33.290  1.00  0.00    -0.744 OA
ENDBRANCH 102 103
ENDBRANCH  70  95
BRANCH  82 107
ATOM    107  C   UNL A   1      49.999  27.216  26.337  1.00  0.00     0.058 A 
ATOM    108  C   UNL A   1      50.663  26.412  27.281  1.00  0.00     0.135 A 
ATOM    109  C   UNL A   1      50.536  27.232  25.034  1.00  0.00     0.135 A 
ATOM    110  F   UNL A   1      50.167  26.235  28.516  1.00  0.00    -0.206 F 
ATOM    111  C   UNL A   1      51.835  25.733  26.977  1.00  0.00     0.059 A 
ATOM    112  C   UNL A   1      51.683  26.523  24.698  1.00  0.00     0.059 A 
ATOM    113  F   UNL A   1      49.951  27.920  24.043  1.00  0.00    -0.206 F 
ATOM    114  C   UNL A   1      52.341  25.800  25.684  1.00  0.00     0.060 A 
BRANCH 114 115
ATOM    115  S   UNL A   1      53.840  24.899  25.266  1.00  0.00     0.124 S 
ATOM    116  O   UNL A   1      53.369  23.520  25.319  1.00  0.00    -0.237 OA
ATOM    117  O   UNL A   1      54.163  25.404  23.933  1.00  0.00    -0.237 OA
ATOM    118  O   UNL A   1      54.765  25.300  26.320  1.00  0.00    -0.744 OA
ENDBRANCH 114 115
ENDBRANCH  82 107
ENDBRANCH  56  57
ENDBRANCH  49  51
ENDBRANCH  48  49
ENDBRANCH  47  48
ENDBRANCH  46  47
ENDBRANCH  45  46
ENDBRANCH   1  45
TORSDOF 23
ENDMDL
