MODEL 1
REMARK VINA RESULT:     -12.2      0.000      0.000
REMARK SMILES O=C(OCCOC(=O)c1ccn(-c2cc(-c3ccncc3)nc(-c3ccccc3F)n2)n1)c1ccc(-c2c3nc(c(-c4c(F)cc(S(=O)(=O)[O-])cc4F)c4ccc([nH]4)c(-c4c(F)cc(S(=O)(=O)[O-])cc4F)c4nc(c(-c5c(F)cc(S(=O)(=O)[O-])cc5F)c5ccc2[nH]5)C=C4)C=C3)cc1
REMARK SMILES IDX 4 1 3 2 2 3 1 4 33 5 34 6 98 7 35 8 97 9 36 10 37 11 38 12
REMARK SMILES IDX 91 13 39 14 96 15 90 16 92 17 40 18 95 19 89 20 88 21 41 23
REMARK SMILES IDX 75 24 54 25 74 26 55 27 58 28 73 29 93 30 56 31 57 32 72 34
REMARK SMILES IDX 94 35 59 36 42 37 43 38 52 39 44 40 45 41 51 42 53 43 46 44
REMARK SMILES IDX 47 45 48 46 49 47 50 48 76 49 77 50 86 51 78 52 79 53 85 54
REMARK SMILES IDX 87 55 80 56 81 57 82 58 83 59 84 60 60 61 61 62 70 63 62 64
REMARK SMILES IDX 63 65 69 66 71 67 64 68 65 69 66 70 67 71 68 72 5 73 6 74
REMARK SMILES IDX 7 75 8 76 9 77 10 78 32 79 11 80 12 81 13 82 14 83 31 84
REMARK SMILES IDX 15 85 23 86 22 87 16 88 17 89 21 90 18 91 20 92 19 93 24 94
REMARK SMILES IDX 25 95 29 96 26 97 28 98 30 99 27 100
REMARK H PARENT 92 22 58 33
REMARK Flexibility Score: inf
ROOT
ATOM      1  C   UNL A   1      40.450  20.320  26.456  1.00  0.00     0.275 C 
ENDROOT
BRANCH   1   2
ATOM      2  O   UNL A   1      40.219  21.490  27.262  1.00  0.00    -0.458 OA
BRANCH   2   3
ATOM      3  C   UNL A   1      39.626  22.594  26.761  1.00  0.00     0.338 C 
ATOM      4  O   UNL A   1      38.579  22.525  26.128  1.00  0.00    -0.246 OA
BRANCH   3   5
ATOM      5  C   UNL A   1      40.123  23.899  27.282  1.00  0.00     0.060 A 
ATOM      6  C   UNL A   1      41.351  24.112  27.918  1.00  0.00     0.016 A 
ATOM      7  C   UNL A   1      39.231  24.970  27.149  1.00  0.00     0.016 A 
ATOM      8  C   UNL A   1      41.603  25.323  28.559  1.00  0.00     0.010 A 
ATOM      9  C   UNL A   1      39.486  26.177  27.766  1.00  0.00     0.010 A 
ATOM     10  C   UNL A   1      40.630  26.328  28.540  1.00  0.00    -0.014 A 
BRANCH  10  11
ATOM     11  C   UNL A   1      40.866  27.624  29.174  1.00  0.00     0.031 A 
ATOM     12  C   UNL A   1      41.979  28.380  28.516  1.00  0.00     0.074 A 
ATOM     13  C   UNL A   1      40.019  28.106  30.124  1.00  0.00     0.049 A 
ATOM     14  N   UNL A   1      43.094  28.769  29.030  1.00  0.00    -0.248 NA
ATOM     15  C   UNL A   1      41.962  28.570  27.056  1.00  0.00     0.031 C 
ATOM     16  C   UNL A   1      38.800  27.471  30.652  1.00  0.00     0.029 A 
ATOM     17  N   UNL A   1      40.011  29.304  30.789  1.00  0.00    -0.354 N 
ATOM     18  C   UNL A   1      43.747  29.527  28.052  1.00  0.00     0.074 A 
ATOM     19  C   UNL A   1      43.086  29.242  26.816  1.00  0.00     0.031 C 
ATOM     20  C   UNL A   1      38.064  28.368  31.351  1.00  0.00     0.029 A 
ATOM     21  C   UNL A   1      38.812  29.604  31.469  1.00  0.00     0.049 A 
ATOM     22  H   UNL A   1      40.785  29.912  30.790  1.00  0.00     0.167 HD
ATOM     23  C   UNL A   1      44.608  30.511  28.427  1.00  0.00     0.037 A 
ATOM     24  C   UNL A   1      38.484  30.758  32.132  1.00  0.00     0.037 A 
ATOM     25  C   UNL A   1      45.016  30.280  29.791  1.00  0.00     0.049 A 
ATOM     26  C   UNL A   1      39.777  31.429  32.431  1.00  0.00     0.074 A 
ATOM     27  C   UNL A   1      45.701  29.270  30.433  1.00  0.00     0.029 A 
ATOM     28  N   UNL A   1      44.288  30.938  30.751  1.00  0.00    -0.354 N 
ATOM     29  N   UNL A   1      40.687  30.913  33.215  1.00  0.00    -0.248 NA
ATOM     30  C   UNL A   1      40.258  32.380  31.444  1.00  0.00     0.031 C 
ATOM     31  C   UNL A   1      45.020  29.097  31.672  1.00  0.00     0.029 A 
ATOM     32  C   UNL A   1      44.041  30.086  31.792  1.00  0.00     0.049 A 
ATOM     33  H   UNL A   1      43.991  31.876  30.698  1.00  0.00     0.167 HD
ATOM     34  C   UNL A   1      41.880  31.104  32.533  1.00  0.00     0.074 A 
ATOM     35  C   UNL A   1      41.552  32.048  31.460  1.00  0.00     0.031 C 
ATOM     36  C   UNL A   1      42.929  30.245  32.706  1.00  0.00     0.037 A 
BRANCH  23  37
ATOM     37  C   UNL A   1      44.711  31.885  27.790  1.00  0.00     0.058 A 
ATOM     38  C   UNL A   1      43.922  33.002  28.140  1.00  0.00     0.135 A 
ATOM     39  C   UNL A   1      45.870  32.179  27.039  1.00  0.00     0.135 A 
ATOM     40  F   UNL A   1      42.783  32.884  28.830  1.00  0.00    -0.206 F 
ATOM     41  C   UNL A   1      44.303  34.313  27.856  1.00  0.00     0.059 A 
ATOM     42  C   UNL A   1      46.286  33.483  26.771  1.00  0.00     0.059 A 
ATOM     43  F   UNL A   1      46.675  31.195  26.612  1.00  0.00    -0.206 F 
ATOM     44  C   UNL A   1      45.505  34.545  27.201  1.00  0.00     0.060 A 
BRANCH  44  45
ATOM     45  S   UNL A   1      46.034  36.249  26.949  1.00  0.00     0.124 S 
ATOM     46  O   UNL A   1      46.792  36.501  28.169  1.00  0.00    -0.237 OA
ATOM     47  O   UNL A   1      46.813  36.140  25.721  1.00  0.00    -0.237 OA
ATOM     48  O   UNL A   1      44.774  36.977  26.833  1.00  0.00    -0.744 OA
ENDBRANCH  44  45
ENDBRANCH  23  37
BRANCH  24  49
ATOM     49  C   UNL A   1      37.189  31.530  32.126  1.00  0.00     0.058 A 
ATOM     50  C   UNL A   1      36.643  32.041  30.937  1.00  0.00     0.135 A 
ATOM     51  C   UNL A   1      36.621  32.052  33.315  1.00  0.00     0.135 A 
ATOM     52  F   UNL A   1      37.067  31.606  29.743  1.00  0.00    -0.206 F 
ATOM     53  C   UNL A   1      35.704  33.079  30.915  1.00  0.00     0.059 A 
ATOM     54  C   UNL A   1      35.658  33.082  33.320  1.00  0.00     0.059 A 
ATOM     55  F   UNL A   1      37.039  31.610  34.512  1.00  0.00    -0.206 F 
ATOM     56  C   UNL A   1      35.242  33.624  32.108  1.00  0.00     0.060 A 
BRANCH  56  57
ATOM     57  S   UNL A   1      34.143  35.063  32.013  1.00  0.00     0.124 S 
ATOM     58  O   UNL A   1      34.887  36.063  32.772  1.00  0.00    -0.237 OA
ATOM     59  O   UNL A   1      34.070  35.297  30.573  1.00  0.00    -0.237 OA
ATOM     60  O   UNL A   1      32.905  34.597  32.629  1.00  0.00    -0.744 OA
ENDBRANCH  56  57
ENDBRANCH  24  49
BRANCH  36  61
ATOM     61  C   UNL A   1      42.897  29.289  33.874  1.00  0.00     0.058 A 
ATOM     62  C   UNL A   1      42.400  28.003  33.618  1.00  0.00     0.135 A 
ATOM     63  C   UNL A   1      43.155  29.621  35.219  1.00  0.00     0.135 A 
ATOM     64  F   UNL A   1      42.079  27.646  32.364  1.00  0.00    -0.206 F 
ATOM     65  C   UNL A   1      42.156  27.090  34.633  1.00  0.00     0.059 A 
ATOM     66  C   UNL A   1      42.950  28.702  36.256  1.00  0.00     0.059 A 
ATOM     67  F   UNL A   1      43.545  30.856  35.563  1.00  0.00    -0.206 F 
ATOM     68  C   UNL A   1      42.441  27.441  35.950  1.00  0.00     0.060 A 
BRANCH  68  69
ATOM     69  S   UNL A   1      42.116  26.209  37.229  1.00  0.00     0.124 S 
ATOM     70  O   UNL A   1      43.139  26.527  38.221  1.00  0.00    -0.237 OA
ATOM     71  O   UNL A   1      40.745  26.525  37.618  1.00  0.00    -0.237 OA
ATOM     72  O   UNL A   1      42.291  24.934  36.540  1.00  0.00    -0.744 OA
ENDBRANCH  68  69
ENDBRANCH  36  61
ENDBRANCH  10  11
ENDBRANCH   3   5
ENDBRANCH   2   3
ENDBRANCH   1   2
BRANCH   1  73
ATOM     73  C   UNL A   1      41.836  19.684  26.549  1.00  0.00     0.275 C 
BRANCH  73  74
ATOM     74  O   UNL A   1      42.457  19.612  25.253  1.00  0.00    -0.457 OA
BRANCH  74  75
ATOM     75  C   UNL A   1      43.802  19.842  25.211  1.00  0.00     0.358 C 
ATOM     76  O   UNL A   1      44.660  18.954  25.114  1.00  0.00    -0.244 OA
BRANCH  75  77
ATOM     77  C   UNL A   1      44.133  21.255  25.366  1.00  0.00     0.170 A 
ATOM     78  C   UNL A   1      43.395  22.338  24.832  1.00  0.00     0.058 A 
ATOM     79  N   UNL A   1      45.202  21.697  26.062  1.00  0.00    -0.159 NA
ATOM     80  C   UNL A   1      43.951  23.459  25.396  1.00  0.00     0.118 A 
ATOM     81  N   UNL A   1      45.023  23.038  26.149  1.00  0.00    -0.222 N 
BRANCH  81  82
ATOM     82  C   UNL A   1      45.869  23.881  26.920  1.00  0.00     0.158 A 
ATOM     83  C   UNL A   1      45.392  24.385  28.113  1.00  0.00     0.078 A 
ATOM     84  N   UNL A   1      47.134  24.066  26.498  1.00  0.00    -0.209 NA
ATOM     85  C   UNL A   1      46.321  24.983  28.942  1.00  0.00     0.077 A 
ATOM     86  C   UNL A   1      47.905  24.819  27.301  1.00  0.00     0.165 A 
ATOM     87  N   UNL A   1      47.566  25.256  28.521  1.00  0.00    -0.228 NA
BRANCH  85  88
ATOM     88  C   UNL A   1      46.069  25.283  30.355  1.00  0.00     0.003 A 
ATOM     89  C   UNL A   1      47.079  25.816  31.168  1.00  0.00     0.030 A 
ATOM     90  C   UNL A   1      44.807  25.128  30.918  1.00  0.00     0.030 A 
ATOM     91  C   UNL A   1      46.816  26.088  32.502  1.00  0.00     0.111 A 
ATOM     92  C   UNL A   1      44.627  25.471  32.250  1.00  0.00     0.111 A 
ATOM     93  N   UNL A   1      45.607  25.918  33.062  1.00  0.00    -0.265 NA
ENDBRANCH  85  88
BRANCH  86  94
ATOM     94  C   UNL A   1      49.140  25.337  26.746  1.00  0.00     0.055 A 
ATOM     95  C   UNL A   1      50.377  25.046  27.350  1.00  0.00     0.015 A 
ATOM     96  C   UNL A   1      49.136  26.100  25.578  1.00  0.00     0.134 A 
ATOM     97  C   UNL A   1      51.570  25.514  26.796  1.00  0.00     0.001 A 
ATOM     98  C   UNL A   1      50.321  26.573  25.022  1.00  0.00     0.040 A 
ATOM     99  F   UNL A   1      47.978  26.411  24.976  1.00  0.00    -0.206 F 
ATOM    100  C   UNL A   1      51.540  26.281  25.632  1.00  0.00     0.003 A 
ENDBRANCH  86  94
ENDBRANCH  81  82
ENDBRANCH  75  77
ENDBRANCH  74  75
ENDBRANCH  73  74
ENDBRANCH   1  73
TORSDOF 17
ENDMDL
MODEL 2
REMARK VINA RESULT:     -12.1      3.796      7.341
REMARK SMILES O=C(OCCOC(=O)c1ccn(-c2cc(-c3ccncc3)nc(-c3ccccc3F)n2)n1)c1ccc(-c2c3nc(c(-c4c(F)cc(S(=O)(=O)[O-])cc4F)c4ccc([nH]4)c(-c4c(F)cc(S(=O)(=O)[O-])cc4F)c4nc(c(-c5c(F)cc(S(=O)(=O)[O-])cc5F)c5ccc2[nH]5)C=C4)C=C3)cc1
REMARK SMILES IDX 4 1 3 2 2 3 1 4 33 5 34 6 98 7 35 8 97 9 36 10 37 11 38 12
REMARK SMILES IDX 91 13 39 14 96 15 90 16 92 17 40 18 95 19 89 20 88 21 41 23
REMARK SMILES IDX 75 24 54 25 74 26 55 27 58 28 73 29 93 30 56 31 57 32 72 34
REMARK SMILES IDX 94 35 59 36 42 37 43 38 52 39 44 40 45 41 51 42 53 43 46 44
REMARK SMILES IDX 47 45 48 46 49 47 50 48 76 49 77 50 86 51 78 52 79 53 85 54
REMARK SMILES IDX 87 55 80 56 81 57 82 58 83 59 84 60 60 61 61 62 70 63 62 64
REMARK SMILES IDX 63 65 69 66 71 67 64 68 65 69 66 70 67 71 68 72 5 73 6 74
REMARK SMILES IDX 7 75 8 76 9 77 10 78 32 79 11 80 12 81 13 82 14 83 31 84
REMARK SMILES IDX 15 85 23 86 22 87 16 88 17 89 21 90 18 91 20 92 19 93 24 94
REMARK SMILES IDX 25 95 29 96 26 97 28 98 30 99 27 100
REMARK H PARENT 92 22 58 33
REMARK Flexibility Score: inf
ROOT
ATOM      1  C   UNL A   1      43.600  22.607  24.614  1.00  0.00     0.275 C 
ENDROOT
BRANCH   1   2
ATOM      2  O   UNL A   1      43.194  23.987  24.621  1.00  0.00    -0.458 OA
BRANCH   2   3
ATOM      3  C   UNL A   1      44.008  24.968  25.067  1.00  0.00     0.338 C 
ATOM      4  O   UNL A   1      45.146  25.098  24.633  1.00  0.00    -0.246 OA
BRANCH   3   5
ATOM      5  C   UNL A   1      43.357  26.053  25.853  1.00  0.00     0.060 A 
ATOM      6  C   UNL A   1      42.593  27.101  25.326  1.00  0.00     0.016 A 
ATOM      7  C   UNL A   1      43.597  26.013  27.232  1.00  0.00     0.016 A 
ATOM      8  C   UNL A   1      42.230  28.175  26.137  1.00  0.00     0.010 A 
ATOM      9  C   UNL A   1      43.221  27.065  28.042  1.00  0.00     0.010 A 
ATOM     10  C   UNL A   1      42.613  28.182  27.482  1.00  0.00    -0.014 A 
BRANCH  10  11
ATOM     11  C   UNL A   1      42.227  29.274  28.374  1.00  0.00     0.031 A 
ATOM     12  C   UNL A   1      43.260  30.358  28.420  1.00  0.00     0.074 A 
ATOM     13  C   UNL A   1      40.982  29.328  28.921  1.00  0.00     0.049 A 
ATOM     14  N   UNL A   1      43.939  30.772  29.434  1.00  0.00    -0.248 NA
ATOM     15  C   UNL A   1      43.761  30.936  27.163  1.00  0.00     0.031 C 
ATOM     16  C   UNL A   1      39.872  28.378  28.735  1.00  0.00     0.029 A 
ATOM     17  N   UNL A   1      40.394  30.278  29.715  1.00  0.00    -0.354 N 
ATOM     18  C   UNL A   1      44.691  31.867  28.996  1.00  0.00     0.074 A 
ATOM     19  C   UNL A   1      44.664  31.827  27.567  1.00  0.00     0.031 C 
ATOM     20  C   UNL A   1      38.711  28.911  29.185  1.00  0.00     0.029 A 
ATOM     21  C   UNL A   1      38.992  30.174  29.837  1.00  0.00     0.049 A 
ATOM     22  H   UNL A   1      40.913  30.983  30.165  1.00  0.00     0.167 HD
ATOM     23  C   UNL A   1      45.040  32.840  29.881  1.00  0.00     0.037 A 
ATOM     24  C   UNL A   1      38.137  31.030  30.480  1.00  0.00     0.037 A 
ATOM     25  C   UNL A   1      44.932  32.315  31.219  1.00  0.00     0.049 A 
ATOM     26  C   UNL A   1      38.980  31.799  31.433  1.00  0.00     0.074 A 
ATOM     27  C   UNL A   1      45.558  31.297  31.908  1.00  0.00     0.029 A 
ATOM     28  N   UNL A   1      43.741  32.552  31.859  1.00  0.00    -0.354 N 
ATOM     29  N   UNL A   1      39.616  31.248  32.433  1.00  0.00    -0.248 NA
ATOM     30  C   UNL A   1      39.532  33.051  30.946  1.00  0.00     0.031 C 
ATOM     31  C   UNL A   1      44.523  30.678  32.666  1.00  0.00     0.029 A 
ATOM     32  C   UNL A   1      43.348  31.418  32.515  1.00  0.00     0.049 A 
ATOM     33  H   UNL A   1      43.247  33.404  31.848  1.00  0.00     0.167 HD
ATOM     34  C   UNL A   1      40.882  31.815  32.393  1.00  0.00     0.074 A 
ATOM     35  C   UNL A   1      40.755  32.949  31.472  1.00  0.00     0.031 C 
ATOM     36  C   UNL A   1      41.970  31.130  32.856  1.00  0.00     0.037 A 
BRANCH  23  37
ATOM     37  C   UNL A   1      45.008  34.333  29.609  1.00  0.00     0.058 A 
ATOM     38  C   UNL A   1      46.145  35.153  29.446  1.00  0.00     0.135 A 
ATOM     39  C   UNL A   1      43.792  34.896  29.162  1.00  0.00     0.135 A 
ATOM     40  F   UNL A   1      47.363  34.771  29.841  1.00  0.00    -0.206 F 
ATOM     41  C   UNL A   1      46.098  36.389  28.801  1.00  0.00     0.059 A 
ATOM     42  C   UNL A   1      43.726  36.115  28.487  1.00  0.00     0.059 A 
ATOM     43  F   UNL A   1      42.637  34.228  29.304  1.00  0.00    -0.206 F 
ATOM     44  C   UNL A   1      44.889  36.846  28.294  1.00  0.00     0.060 A 
BRANCH  44  45
ATOM     45  S   UNL A   1      44.873  38.387  27.362  1.00  0.00     0.124 S 
ATOM     46  O   UNL A   1      46.052  38.229  26.519  1.00  0.00    -0.237 OA
ATOM     47  O   UNL A   1      43.585  38.312  26.684  1.00  0.00    -0.237 OA
ATOM     48  O   UNL A   1      44.978  39.407  28.401  1.00  0.00    -0.744 OA
ENDBRANCH  44  45
ENDBRANCH  23  37
BRANCH  24  49
ATOM     49  C   UNL A   1      36.790  31.545  30.041  1.00  0.00     0.058 A 
ATOM     50  C   UNL A   1      36.526  31.862  28.697  1.00  0.00     0.135 A 
ATOM     51  C   UNL A   1      35.834  32.034  30.966  1.00  0.00     0.135 A 
ATOM     52  F   UNL A   1      37.334  31.432  27.719  1.00  0.00    -0.206 F 
ATOM     53  C   UNL A   1      35.479  32.703  28.305  1.00  0.00     0.059 A 
ATOM     54  C   UNL A   1      34.757  32.864  30.594  1.00  0.00     0.059 A 
ATOM     55  F   UNL A   1      35.963  31.761  32.274  1.00  0.00    -0.206 F 
ATOM     56  C   UNL A   1      34.618  33.234  29.259  1.00  0.00     0.060 A 
BRANCH  56  57
ATOM     57  S   UNL A   1      33.376  34.433  28.708  1.00  0.00     0.124 S 
ATOM     58  O   UNL A   1      32.699  34.765  29.958  1.00  0.00    -0.237 OA
ATOM     59  O   UNL A   1      34.206  35.495  28.145  1.00  0.00    -0.237 OA
ATOM     60  O   UNL A   1      32.579  33.688  27.739  1.00  0.00    -0.744 OA
ENDBRANCH  56  57
ENDBRANCH  24  49
BRANCH  36  61
ATOM     61  C   UNL A   1      41.745  29.899  33.700  1.00  0.00     0.058 A 
ATOM     62  C   UNL A   1      41.774  30.078  35.090  1.00  0.00     0.135 A 
ATOM     63  C   UNL A   1      41.681  28.574  33.225  1.00  0.00     0.135 A 
ATOM     64  F   UNL A   1      41.894  31.313  35.604  1.00  0.00    -0.206 F 
ATOM     65  C   UNL A   1      41.754  29.009  35.973  1.00  0.00     0.059 A 
ATOM     66  C   UNL A   1      41.623  27.481  34.099  1.00  0.00     0.059 A 
ATOM     67  F   UNL A   1      41.740  28.307  31.913  1.00  0.00    -0.206 F 
ATOM     68  C   UNL A   1      41.669  27.712  35.473  1.00  0.00     0.060 A 
BRANCH  68  69
ATOM     69  S   UNL A   1      41.634  26.360  36.668  1.00  0.00     0.124 S 
ATOM     70  O   UNL A   1      40.610  26.812  37.606  1.00  0.00    -0.237 OA
ATOM     71  O   UNL A   1      41.260  25.222  35.833  1.00  0.00    -0.237 OA
ATOM     72  O   UNL A   1      42.993  26.325  37.199  1.00  0.00    -0.744 OA
ENDBRANCH  68  69
ENDBRANCH  36  61
ENDBRANCH  10  11
ENDBRANCH   3   5
ENDBRANCH   2   3
ENDBRANCH   1   2
BRANCH   1  73
ATOM     73  C   UNL A   1      43.787  21.939  25.976  1.00  0.00     0.275 C 
BRANCH  73  74
ATOM     74  O   UNL A   1      42.604  22.077  26.783  1.00  0.00    -0.457 OA
BRANCH  74  75
ATOM     75  C   UNL A   1      41.528  21.321  26.417  1.00  0.00     0.358 C 
ATOM     76  O   UNL A   1      41.600  20.148  26.026  1.00  0.00    -0.244 OA
BRANCH  75  77
ATOM     77  C   UNL A   1      40.275  22.068  26.468  1.00  0.00     0.170 A 
ATOM     78  C   UNL A   1      40.138  23.421  26.861  1.00  0.00     0.058 A 
ATOM     79  N   UNL A   1      39.081  21.540  26.128  1.00  0.00    -0.159 NA
ATOM     80  C   UNL A   1      38.839  23.748  26.559  1.00  0.00     0.118 A 
ATOM     81  N   UNL A   1      38.235  22.600  26.098  1.00  0.00    -0.222 N 
BRANCH  81  82
ATOM     82  C   UNL A   1      36.888  22.501  25.655  1.00  0.00     0.158 A 
ATOM     83  C   UNL A   1      36.454  21.309  25.113  1.00  0.00     0.078 A 
ATOM     84  N   UNL A   1      36.069  23.546  25.881  1.00  0.00    -0.209 NA
ATOM     85  C   UNL A   1      35.092  21.175  24.934  1.00  0.00     0.077 A 
ATOM     86  C   UNL A   1      34.792  23.369  25.500  1.00  0.00     0.165 A 
ATOM     87  N   UNL A   1      34.259  22.218  25.070  1.00  0.00    -0.228 NA
BRANCH  85  88
ATOM     88  C   UNL A   1      34.432  19.891  24.675  1.00  0.00     0.003 A 
ATOM     89  C   UNL A   1      33.055  19.828  24.419  1.00  0.00     0.030 A 
ATOM     90  C   UNL A   1      35.155  18.705  24.595  1.00  0.00     0.030 A 
ATOM     91  C   UNL A   1      32.456  18.600  24.182  1.00  0.00     0.111 A 
ATOM     92  C   UNL A   1      34.475  17.532  24.306  1.00  0.00     0.111 A 
ATOM     93  N   UNL A   1      33.140  17.446  24.127  1.00  0.00    -0.265 NA
ENDBRANCH  85  88
BRANCH  86  94
ATOM     94  C   UNL A   1      33.959  24.551  25.393  1.00  0.00     0.055 A 
ATOM     95  C   UNL A   1      34.206  25.517  24.401  1.00  0.00     0.015 A 
ATOM     96  C   UNL A   1      32.867  24.737  26.242  1.00  0.00     0.134 A 
ATOM     97  C   UNL A   1      33.382  26.637  24.273  1.00  0.00     0.001 A 
ATOM     98  C   UNL A   1      32.044  25.853  26.123  1.00  0.00     0.040 A 
ATOM     99  F   UNL A   1      32.602  23.846  27.209  1.00  0.00    -0.206 F 
ATOM    100  C   UNL A   1      32.302  26.805  25.138  1.00  0.00     0.003 A 
ENDBRANCH  86  94
ENDBRANCH  81  82
ENDBRANCH  75  77
ENDBRANCH  74  75
ENDBRANCH  73  74
ENDBRANCH   1  73
TORSDOF 17
ENDMDL
MODEL 3
REMARK VINA RESULT:     -12.1      1.135      2.844
REMARK SMILES O=C(OCCOC(=O)c1ccn(-c2cc(-c3ccncc3)nc(-c3ccccc3F)n2)n1)c1ccc(-c2c3nc(c(-c4c(F)cc(S(=O)(=O)[O-])cc4F)c4ccc([nH]4)c(-c4c(F)cc(S(=O)(=O)[O-])cc4F)c4nc(c(-c5c(F)cc(S(=O)(=O)[O-])cc5F)c5ccc2[nH]5)C=C4)C=C3)cc1
REMARK SMILES IDX 4 1 3 2 2 3 1 4 33 5 34 6 98 7 35 8 97 9 36 10 37 11 38 12
REMARK SMILES IDX 91 13 39 14 96 15 90 16 92 17 40 18 95 19 89 20 88 21 41 23
REMARK SMILES IDX 75 24 54 25 74 26 55 27 58 28 73 29 93 30 56 31 57 32 72 34
REMARK SMILES IDX 94 35 59 36 42 37 43 38 52 39 44 40 45 41 51 42 53 43 46 44
REMARK SMILES IDX 47 45 48 46 49 47 50 48 76 49 77 50 86 51 78 52 79 53 85 54
REMARK SMILES IDX 87 55 80 56 81 57 82 58 83 59 84 60 60 61 61 62 70 63 62 64
REMARK SMILES IDX 63 65 69 66 71 67 64 68 65 69 66 70 67 71 68 72 5 73 6 74
REMARK SMILES IDX 7 75 8 76 9 77 10 78 32 79 11 80 12 81 13 82 14 83 31 84
REMARK SMILES IDX 15 85 23 86 22 87 16 88 17 89 21 90 18 91 20 92 19 93 24 94
REMARK SMILES IDX 25 95 29 96 26 97 28 98 30 99 27 100
REMARK H PARENT 92 22 58 33
REMARK Flexibility Score: inf
ROOT
ATOM      1  C   UNL A   1      40.740  20.406  26.308  1.00  0.00     0.275 C 
ENDROOT
BRANCH   1   2
ATOM      2  O   UNL A   1      40.959  21.828  26.259  1.00  0.00    -0.458 OA
BRANCH   2   3
ATOM      3  C   UNL A   1      39.973  22.711  26.525  1.00  0.00     0.338 C 
ATOM      4  O   UNL A   1      38.798  22.365  26.550  1.00  0.00    -0.246 OA
BRANCH   3   5
ATOM      5  C   UNL A   1      40.401  24.020  27.092  1.00  0.00     0.060 A 
ATOM      6  C   UNL A   1      41.625  24.280  27.719  1.00  0.00     0.016 A 
ATOM      7  C   UNL A   1      39.445  25.040  27.015  1.00  0.00     0.016 A 
ATOM      8  C   UNL A   1      41.814  25.478  28.406  1.00  0.00     0.010 A 
ATOM      9  C   UNL A   1      39.638  26.235  27.678  1.00  0.00     0.010 A 
ATOM     10  C   UNL A   1      40.784  26.422  28.442  1.00  0.00    -0.014 A 
BRANCH  10  11
ATOM     11  C   UNL A   1      40.954  27.704  29.126  1.00  0.00     0.031 A 
ATOM     12  C   UNL A   1      42.047  28.527  28.518  1.00  0.00     0.074 A 
ATOM     13  C   UNL A   1      40.068  28.117  30.073  1.00  0.00     0.049 A 
ATOM     14  N   UNL A   1      43.135  28.943  29.070  1.00  0.00    -0.248 NA
ATOM     15  C   UNL A   1      42.052  28.768  27.066  1.00  0.00     0.031 C 
ATOM     16  C   UNL A   1      38.866  27.415  30.552  1.00  0.00     0.029 A 
ATOM     17  N   UNL A   1      39.997  29.290  30.779  1.00  0.00    -0.354 N 
ATOM     18  C   UNL A   1      43.775  29.760  28.132  1.00  0.00     0.074 A 
ATOM     19  C   UNL A   1      43.152  29.494  26.874  1.00  0.00     0.031 C 
ATOM     20  C   UNL A   1      38.080  28.256  31.266  1.00  0.00     0.029 A 
ATOM     21  C   UNL A   1      38.773  29.516  31.443  1.00  0.00     0.049 A 
ATOM     22  H   UNL A   1      40.745  29.928  30.818  1.00  0.00     0.167 HD
ATOM     23  C   UNL A   1      44.588  30.764  28.560  1.00  0.00     0.037 A 
ATOM     24  C   UNL A   1      38.385  30.632  32.138  1.00  0.00     0.037 A 
ATOM     25  C   UNL A   1      44.977  30.502  29.924  1.00  0.00     0.049 A 
ATOM     26  C   UNL A   1      39.643  31.343  32.488  1.00  0.00     0.074 A 
ATOM     27  C   UNL A   1      45.690  29.498  30.546  1.00  0.00     0.029 A 
ATOM     28  N   UNL A   1      44.203  31.095  30.890  1.00  0.00    -0.354 N 
ATOM     29  N   UNL A   1      40.557  30.838  33.274  1.00  0.00    -0.248 NA
ATOM     30  C   UNL A   1      40.104  32.347  31.545  1.00  0.00     0.031 C 
ATOM     31  C   UNL A   1      44.992  29.254  31.763  1.00  0.00     0.029 A 
ATOM     32  C   UNL A   1      43.971  30.198  31.896  1.00  0.00     0.049 A 
ATOM     33  H   UNL A   1      43.869  32.022  30.864  1.00  0.00     0.167 HD
ATOM     34  C   UNL A   1      41.755  31.100  32.624  1.00  0.00     0.074 A 
ATOM     35  C   UNL A   1      41.409  32.068  31.578  1.00  0.00     0.031 C 
ATOM     36  C   UNL A   1      42.835  30.279  32.790  1.00  0.00     0.037 A 
BRANCH  23  37
ATOM     37  C   UNL A   1      44.646  32.163  27.974  1.00  0.00     0.058 A 
ATOM     38  C   UNL A   1      43.847  33.250  28.388  1.00  0.00     0.135 A 
ATOM     39  C   UNL A   1      45.779  32.509  27.203  1.00  0.00     0.135 A 
ATOM     40  F   UNL A   1      42.730  33.084  29.103  1.00  0.00    -0.206 F 
ATOM     41  C   UNL A   1      44.194  34.579  28.143  1.00  0.00     0.059 A 
ATOM     42  C   UNL A   1      46.162  33.830  26.974  1.00  0.00     0.059 A 
ATOM     43  F   UNL A   1      46.590  31.557  26.718  1.00  0.00    -0.206 F 
ATOM     44  C   UNL A   1      45.374  34.859  27.465  1.00  0.00     0.060 A 
BRANCH  44  45
ATOM     45  S   UNL A   1      45.863  36.581  27.264  1.00  0.00     0.124 S 
ATOM     46  O   UNL A   1      46.889  36.473  26.232  1.00  0.00    -0.237 OA
ATOM     47  O   UNL A   1      44.608  37.201  26.857  1.00  0.00    -0.237 OA
ATOM     48  O   UNL A   1      46.345  36.950  28.591  1.00  0.00    -0.744 OA
ENDBRANCH  44  45
ENDBRANCH  23  37
BRANCH  24  49
ATOM     49  C   UNL A   1      37.059  31.350  32.131  1.00  0.00     0.058 A 
ATOM     50  C   UNL A   1      36.434  31.729  30.931  1.00  0.00     0.135 A 
ATOM     51  C   UNL A   1      36.529  31.958  33.296  1.00  0.00     0.135 A 
ATOM     52  F   UNL A   1      36.818  31.203  29.760  1.00  0.00    -0.206 F 
ATOM     53  C   UNL A   1      35.453  32.724  30.865  1.00  0.00     0.059 A 
ATOM     54  C   UNL A   1      35.523  32.946  33.259  1.00  0.00     0.059 A 
ATOM     55  F   UNL A   1      37.022  31.643  34.504  1.00  0.00    -0.206 F 
ATOM     56  C   UNL A   1      35.026  33.358  32.027  1.00  0.00     0.060 A 
BRANCH  56  57
ATOM     57  S   UNL A   1      33.864  34.740  31.861  1.00  0.00     0.124 S 
ATOM     58  O   UNL A   1      34.700  35.883  32.215  1.00  0.00    -0.237 OA
ATOM     59  O   UNL A   1      33.486  34.654  30.453  1.00  0.00    -0.237 OA
ATOM     60  O   UNL A   1      32.803  34.417  32.809  1.00  0.00    -0.744 OA
ENDBRANCH  56  57
ENDBRANCH  24  49
BRANCH  36  61
ATOM     61  C   UNL A   1      42.818  29.282  33.924  1.00  0.00     0.058 A 
ATOM     62  C   UNL A   1      42.381  27.986  33.612  1.00  0.00     0.135 A 
ATOM     63  C   UNL A   1      43.033  29.576  35.285  1.00  0.00     0.135 A 
ATOM     64  F   UNL A   1      42.102  27.661  32.339  1.00  0.00    -0.206 F 
ATOM     65  C   UNL A   1      42.156  27.028  34.589  1.00  0.00     0.059 A 
ATOM     66  C   UNL A   1      42.846  28.613  36.285  1.00  0.00     0.059 A 
ATOM     67  F   UNL A   1      43.364  30.814  35.679  1.00  0.00    -0.206 F 
ATOM     68  C   UNL A   1      42.397  27.344  35.924  1.00  0.00     0.060 A 
BRANCH  68  69
ATOM     69  S   UNL A   1      42.098  26.055  37.151  1.00  0.00     0.124 S 
ATOM     70  O   UNL A   1      40.694  26.277  37.487  1.00  0.00    -0.237 OA
ATOM     71  O   UNL A   1      42.377  24.838  36.393  1.00  0.00    -0.237 OA
ATOM     72  O   UNL A   1      43.048  26.358  38.216  1.00  0.00    -0.744 OA
ENDBRANCH  68  69
ENDBRANCH  36  61
ENDBRANCH  10  11
ENDBRANCH   3   5
ENDBRANCH   2   3
ENDBRANCH   1   2
BRANCH   1  73
ATOM     73  C   UNL A   1      41.983  19.521  26.390  1.00  0.00     0.275 C 
BRANCH  73  74
ATOM     74  O   UNL A   1      42.577  19.348  25.091  1.00  0.00    -0.457 OA
BRANCH  74  75
ATOM     75  C   UNL A   1      43.940  19.277  25.052  1.00  0.00     0.358 C 
ATOM     76  O   UNL A   1      44.585  18.219  25.084  1.00  0.00    -0.244 OA
BRANCH  75  77
ATOM     77  C   UNL A   1      44.570  20.594  25.041  1.00  0.00     0.170 A 
ATOM     78  C   UNL A   1      44.712  21.430  23.908  1.00  0.00     0.058 A 
ATOM     79  N   UNL A   1      45.091  21.178  26.141  1.00  0.00    -0.159 NA
ATOM     80  C   UNL A   1      45.166  22.626  24.404  1.00  0.00     0.118 A 
ATOM     81  N   UNL A   1      45.363  22.449  25.755  1.00  0.00    -0.222 N 
BRANCH  81  82
ATOM     82  C   UNL A   1      45.812  23.450  26.659  1.00  0.00     0.158 A 
ATOM     83  C   UNL A   1      46.821  24.302  26.257  1.00  0.00     0.078 A 
ATOM     84  N   UNL A   1      45.160  23.586  27.829  1.00  0.00    -0.209 NA
ATOM     85  C   UNL A   1      47.049  25.405  27.055  1.00  0.00     0.077 A 
ATOM     86  C   UNL A   1      45.587  24.590  28.613  1.00  0.00     0.165 A 
ATOM     87  N   UNL A   1      46.477  25.528  28.263  1.00  0.00    -0.228 NA
BRANCH  85  88
ATOM     88  C   UNL A   1      47.842  26.562  26.629  1.00  0.00     0.003 A 
ATOM     89  C   UNL A   1      48.084  27.630  27.504  1.00  0.00     0.030 A 
ATOM     90  C   UNL A   1      48.449  26.607  25.377  1.00  0.00     0.030 A 
ATOM     91  C   UNL A   1      48.835  28.714  27.074  1.00  0.00     0.111 A 
ATOM     92  C   UNL A   1      49.221  27.712  25.054  1.00  0.00     0.111 A 
ATOM     93  N   UNL A   1      49.404  28.779  25.859  1.00  0.00    -0.265 NA
ENDBRANCH  85  88
BRANCH  86  94
ATOM     94  C   UNL A   1      45.175  24.573  30.003  1.00  0.00     0.055 A 
ATOM     95  C   UNL A   1      45.605  25.575  30.892  1.00  0.00     0.015 A 
ATOM     96  C   UNL A   1      44.311  23.588  30.482  1.00  0.00     0.134 A 
ATOM     97  C   UNL A   1      45.179  25.580  32.223  1.00  0.00     0.001 A 
ATOM     98  C   UNL A   1      43.886  23.584  31.807  1.00  0.00     0.040 A 
ATOM     99  F   UNL A   1      43.887  22.607  29.672  1.00  0.00    -0.206 F 
ATOM    100  C   UNL A   1      44.322  24.581  32.680  1.00  0.00     0.003 A 
ENDBRANCH  86  94
ENDBRANCH  81  82
ENDBRANCH  75  77
ENDBRANCH  74  75
ENDBRANCH  73  74
ENDBRANCH   1  73
TORSDOF 17
ENDMDL
