MODEL 1
REMARK VINA RESULT:     -12.2      0.000      0.000
REMARK SMILES Cn1c(=O)c2c(-c3ccc(Cl)cc3)n(CC(=O)OCCOC(=O)c3ccc(-c4c5nc(c(-c6c(F)cc(S(=O)(=O)[O-])cc6F)c6ccc([nH]6)c(-c6c(F)cc(S(=O)(=O)[O-])cc6F)c6nc(c(-c7c(F)cc(S(=O)(=O)[O-])cc7F)c7ccc4[nH]7)C=C6)C=C5)cc3)cc2n(C)c1=O
REMARK SMILES IDX 20 1 19 2 18 3 16 4 17 5 15 6 14 7 1 8 2 9 3 10 94 11 4 12
REMARK SMILES IDX 5 13 92 14 95 15 6 16 91 17 93 18 90 19 7 20 8 21 13 22 9 23
REMARK SMILES IDX 12 24 10 25 11 26 21 27 22 28 23 29 24 30 25 31 89 32 26 33
REMARK SMILES IDX 88 34 27 35 28 36 29 37 82 38 30 39 87 40 81 41 83 42 31 43
REMARK SMILES IDX 86 44 80 45 79 46 32 48 66 49 45 50 65 51 46 52 49 53 64 54
REMARK SMILES IDX 84 55 47 56 48 57 63 59 85 60 50 61 33 62 34 63 43 64 35 65
REMARK SMILES IDX 36 66 42 67 44 68 37 69 38 70 39 71 40 72 41 73 67 74 68 75
REMARK SMILES IDX 77 76 69 77 70 78 76 79 78 80 71 81 72 82 73 83 74 84 75 85
REMARK SMILES IDX 51 86 52 87 61 88 53 89 54 90 60 91 62 92 55 93 56 94 57 95
REMARK SMILES IDX 58 96 59 97
REMARK H PARENT 83 47 49 58
REMARK Flexibility Score: inf
ROOT
ATOM      1  C   UNL A   1      39.290  21.539  25.942  1.00  0.00     0.275 C 
ENDROOT
BRANCH   1   2
ATOM      2  C   UNL A   1      37.943  22.244  25.748  1.00  0.00     0.274 C 
BRANCH   2   3
ATOM      3  O   UNL A   1      37.436  22.152  24.393  1.00  0.00    -0.461 OA
BRANCH   3   4
ATOM      4  C   UNL A   1      36.439  23.018  24.072  1.00  0.00     0.326 C 
ATOM      5  O   UNL A   1      36.136  23.306  22.913  1.00  0.00    -0.250 OA
BRANCH   4   6
ATOM      6  C   UNL A   1      35.710  23.652  25.228  1.00  0.00     0.244 C 
BRANCH   6   7
ATOM      7  N   UNL A   1      34.505  24.433  24.953  1.00  0.00    -0.333 N 
ATOM      8  C   UNL A   1      29.168  26.692  23.780  1.00  0.00     0.158 C 
ATOM      9  N   UNL A   1      30.566  26.495  24.096  1.00  0.00    -0.263 N 
ATOM     10  C   UNL A   1      31.028  25.171  24.114  1.00  0.00     0.265 A 
ATOM     11  C   UNL A   1      31.344  27.658  24.267  1.00  0.00     0.330 A 
ATOM     12  O   UNL A   1      30.327  24.199  23.830  1.00  0.00    -0.268 OA
ATOM     13  C   UNL A   1      32.418  25.053  24.478  1.00  0.00     0.090 A 
ATOM     14  N   UNL A   1      32.666  27.481  24.678  1.00  0.00    -0.295 N 
ATOM     15  O   UNL A   1      30.873  28.775  24.037  1.00  0.00    -0.248 OA
ATOM     16  C   UNL A   1      33.244  23.940  24.639  1.00  0.00     0.064 A 
ATOM     17  C   UNL A   1      33.167  26.196  24.773  1.00  0.00     0.076 A 
ATOM     18  C   UNL A   1      33.502  28.651  24.937  1.00  0.00     0.155 C 
ATOM     19  C   UNL A   1      34.413  25.789  25.150  1.00  0.00     0.114 A 
BRANCH  16  20
ATOM     20  C   UNL A   1      32.956  22.516  24.499  1.00  0.00    -0.001 A 
ATOM     21  C   UNL A   1      32.915  21.690  25.631  1.00  0.00     0.012 A 
ATOM     22  C   UNL A   1      32.759  21.958  23.234  1.00  0.00     0.012 A 
ATOM     23  C   UNL A   1      32.734  20.314  25.495  1.00  0.00     0.021 A 
ATOM     24  C   UNL A   1      32.554  20.584  23.098  1.00  0.00     0.021 A 
ATOM     25  C   UNL A   1      32.555  19.767  24.227  1.00  0.00     0.041 A 
ATOM     26  Cl  UNL A   1      32.339  18.068  24.055  1.00  0.00    -0.084 Cl
ENDBRANCH  16  20
ENDBRANCH   6   7
ENDBRANCH   4   6
ENDBRANCH   3   4
ENDBRANCH   2   3
ENDBRANCH   1   2
BRANCH   1  27
ATOM     27  O   UNL A   1      40.302  22.455  26.372  1.00  0.00    -0.458 OA
BRANCH  27  28
ATOM     28  C   UNL A   1      41.540  21.994  26.099  1.00  0.00     0.338 C 
ATOM     29  O   UNL A   1      41.847  20.837  25.865  1.00  0.00    -0.246 OA
BRANCH  28  30
ATOM     30  C   UNL A   1      42.560  23.035  26.222  1.00  0.00     0.060 A 
ATOM     31  C   UNL A   1      43.295  23.021  27.416  1.00  0.00     0.016 A 
ATOM     32  C   UNL A   1      42.243  24.216  25.559  1.00  0.00     0.016 A 
ATOM     33  C   UNL A   1      43.393  24.185  28.139  1.00  0.00     0.010 A 
ATOM     34  C   UNL A   1      42.364  25.384  26.270  1.00  0.00     0.010 A 
ATOM     35  C   UNL A   1      42.830  25.332  27.590  1.00  0.00    -0.014 A 
BRANCH  35  36
ATOM     36  C   UNL A   1      42.730  26.517  28.419  1.00  0.00     0.031 A 
ATOM     37  C   UNL A   1      43.845  27.478  28.227  1.00  0.00     0.074 A 
ATOM     38  C   UNL A   1      41.588  26.766  29.087  1.00  0.00     0.049 A 
ATOM     39  N   UNL A   1      44.644  28.007  29.097  1.00  0.00    -0.248 NA
ATOM     40  C   UNL A   1      44.196  27.783  26.826  1.00  0.00     0.031 C 
ATOM     41  C   UNL A   1      40.331  26.008  29.028  1.00  0.00     0.029 A 
ATOM     42  N   UNL A   1      41.252  27.846  29.835  1.00  0.00    -0.354 N 
ATOM     43  C   UNL A   1      45.475  28.848  28.361  1.00  0.00     0.074 A 
ATOM     44  C   UNL A   1      45.294  28.515  26.974  1.00  0.00     0.031 C 
ATOM     45  C   UNL A   1      39.325  26.786  29.490  1.00  0.00     0.029 A 
ATOM     46  C   UNL A   1      39.884  28.039  29.968  1.00  0.00     0.049 A 
ATOM     47  H   UNL A   1      41.919  28.440  30.247  1.00  0.00     0.167 HD
ATOM     48  C   UNL A   1      46.093  29.939  28.886  1.00  0.00     0.037 A 
ATOM     49  C   UNL A   1      39.281  29.203  30.318  1.00  0.00     0.037 A 
ATOM     50  C   UNL A   1      46.129  29.918  30.318  1.00  0.00     0.049 A 
ATOM     51  C   UNL A   1      40.336  30.085  30.893  1.00  0.00     0.074 A 
ATOM     52  C   UNL A   1      46.732  29.104  31.255  1.00  0.00     0.029 A 
ATOM     53  N   UNL A   1      45.157  30.616  30.992  1.00  0.00    -0.354 N 
ATOM     54  N   UNL A   1      40.974  29.849  32.007  1.00  0.00    -0.248 NA
ATOM     55  C   UNL A   1      40.987  31.032  29.998  1.00  0.00     0.031 C 
ATOM     56  C   UNL A   1      45.806  29.025  32.335  1.00  0.00     0.029 A 
ATOM     57  C   UNL A   1      44.702  29.814  32.010  1.00  0.00     0.049 A 
ATOM     58  H   UNL A   1      44.844  31.527  30.783  1.00  0.00     0.167 HD
ATOM     59  C   UNL A   1      42.267  30.308  31.793  1.00  0.00     0.074 A 
ATOM     60  C   UNL A   1      42.188  31.108  30.576  1.00  0.00     0.031 C 
ATOM     61  C   UNL A   1      43.329  29.777  32.468  1.00  0.00     0.037 A 
BRANCH  48  62
ATOM     62  C   UNL A   1      46.392  31.152  28.052  1.00  0.00     0.058 A 
ATOM     63  C   UNL A   1      47.713  31.552  27.800  1.00  0.00     0.135 A 
ATOM     64  C   UNL A   1      45.381  32.048  27.631  1.00  0.00     0.135 A 
ATOM     65  F   UNL A   1      48.743  30.799  28.215  1.00  0.00    -0.206 F 
ATOM     66  C   UNL A   1      48.007  32.754  27.151  1.00  0.00     0.059 A 
ATOM     67  C   UNL A   1      45.645  33.211  26.924  1.00  0.00     0.059 A 
ATOM     68  F   UNL A   1      44.094  31.858  27.956  1.00  0.00    -0.206 F 
ATOM     69  C   UNL A   1      46.965  33.572  26.713  1.00  0.00     0.060 A 
BRANCH  69  70
ATOM     70  S   UNL A   1      47.338  35.143  25.915  1.00  0.00     0.124 S 
ATOM     71  O   UNL A   1      48.247  34.721  24.855  1.00  0.00    -0.237 OA
ATOM     72  O   UNL A   1      46.017  35.590  25.485  1.00  0.00    -0.237 OA
ATOM     73  O   UNL A   1      47.939  35.931  26.987  1.00  0.00    -0.744 OA
ENDBRANCH  69  70
ENDBRANCH  48  62
BRANCH  49  74
ATOM     74  C   UNL A   1      37.986  29.747  29.822  1.00  0.00     0.058 A 
ATOM     75  C   UNL A   1      37.037  30.266  30.719  1.00  0.00     0.135 A 
ATOM     76  C   UNL A   1      37.768  30.030  28.457  1.00  0.00     0.135 A 
ATOM     77  F   UNL A   1      37.176  30.065  32.039  1.00  0.00    -0.206 F 
ATOM     78  C   UNL A   1      35.971  31.068  30.298  1.00  0.00     0.059 A 
ATOM     79  C   UNL A   1      36.704  30.811  28.012  1.00  0.00     0.059 A 
ATOM     80  F   UNL A   1      38.641  29.639  27.517  1.00  0.00    -0.206 F 
ATOM     81  C   UNL A   1      35.828  31.356  28.941  1.00  0.00     0.060 A 
BRANCH  81  82
ATOM     82  S   UNL A   1      34.577  32.551  28.415  1.00  0.00     0.124 S 
ATOM     83  O   UNL A   1      34.101  33.072  29.691  1.00  0.00    -0.237 OA
ATOM     84  O   UNL A   1      35.361  33.473  27.600  1.00  0.00    -0.237 OA
ATOM     85  O   UNL A   1      33.617  31.733  27.678  1.00  0.00    -0.744 OA
ENDBRANCH  81  82
ENDBRANCH  49  74
BRANCH  61  86
ATOM     86  C   UNL A   1      43.028  28.868  33.635  1.00  0.00     0.058 A 
ATOM     87  C   UNL A   1      42.742  29.331  34.933  1.00  0.00     0.135 A 
ATOM     88  C   UNL A   1      42.868  27.496  33.399  1.00  0.00     0.135 A 
ATOM     89  F   UNL A   1      42.763  30.640  35.214  1.00  0.00    -0.206 F 
ATOM     90  C   UNL A   1      42.358  28.467  35.958  1.00  0.00     0.059 A 
ATOM     91  C   UNL A   1      42.452  26.619  34.398  1.00  0.00     0.059 A 
ATOM     92  F   UNL A   1      43.060  27.000  32.165  1.00  0.00    -0.206 F 
ATOM     93  C   UNL A   1      42.207  27.110  35.679  1.00  0.00     0.060 A 
BRANCH  93  94
ATOM     94  S   UNL A   1      41.605  26.011  36.979  1.00  0.00     0.124 S 
ATOM     95  O   UNL A   1      40.386  26.685  37.411  1.00  0.00    -0.237 OA
ATOM     96  O   UNL A   1      41.420  24.751  36.266  1.00  0.00    -0.237 OA
ATOM     97  O   UNL A   1      42.694  26.009  37.954  1.00  0.00    -0.744 OA
ENDBRANCH  93  94
ENDBRANCH  61  86
ENDBRANCH  35  36
ENDBRANCH  28  30
ENDBRANCH  27  28
ENDBRANCH   1  27
TORSDOF 16
ENDMDL
MODEL 2
REMARK VINA RESULT:     -12.0      2.726      8.936
REMARK SMILES Cn1c(=O)c2c(-c3ccc(Cl)cc3)n(CC(=O)OCCOC(=O)c3ccc(-c4c5nc(c(-c6c(F)cc(S(=O)(=O)[O-])cc6F)c6ccc([nH]6)c(-c6c(F)cc(S(=O)(=O)[O-])cc6F)c6nc(c(-c7c(F)cc(S(=O)(=O)[O-])cc7F)c7ccc4[nH]7)C=C6)C=C5)cc3)cc2n(C)c1=O
REMARK SMILES IDX 20 1 19 2 18 3 16 4 17 5 15 6 14 7 1 8 2 9 3 10 94 11 4 12
REMARK SMILES IDX 5 13 92 14 95 15 6 16 91 17 93 18 90 19 7 20 8 21 13 22 9 23
REMARK SMILES IDX 12 24 10 25 11 26 21 27 22 28 23 29 24 30 25 31 89 32 26 33
REMARK SMILES IDX 88 34 27 35 28 36 29 37 82 38 30 39 87 40 81 41 83 42 31 43
REMARK SMILES IDX 86 44 80 45 79 46 32 48 66 49 45 50 65 51 46 52 49 53 64 54
REMARK SMILES IDX 84 55 47 56 48 57 63 59 85 60 50 61 33 62 34 63 43 64 35 65
REMARK SMILES IDX 36 66 42 67 44 68 37 69 38 70 39 71 40 72 41 73 67 74 68 75
REMARK SMILES IDX 77 76 69 77 70 78 76 79 78 80 71 81 72 82 73 83 74 84 75 85
REMARK SMILES IDX 51 86 52 87 61 88 53 89 54 90 60 91 62 92 55 93 56 94 57 95
REMARK SMILES IDX 58 96 59 97
REMARK H PARENT 83 47 49 58
REMARK Flexibility Score: inf
ROOT
ATOM      1  C   UNL A   1      33.954  31.989  28.290  1.00  0.00     0.275 C 
ENDROOT
BRANCH   1   2
ATOM      2  C   UNL A   1      34.097  30.865  27.259  1.00  0.00     0.274 C 
BRANCH   2   3
ATOM      3  O   UNL A   1      33.211  29.743  27.503  1.00  0.00    -0.461 OA
BRANCH   3   4
ATOM      4  C   UNL A   1      32.174  29.605  26.637  1.00  0.00     0.326 C 
ATOM      5  O   UNL A   1      31.820  30.489  25.855  1.00  0.00    -0.250 OA
BRANCH   4   6
ATOM      6  C   UNL A   1      31.436  28.292  26.686  1.00  0.00     0.244 C 
BRANCH   6   7
ATOM      7  N   UNL A   1      31.899  27.196  25.838  1.00  0.00    -0.333 N 
ATOM      8  C   UNL A   1      33.292  23.248  21.661  1.00  0.00     0.158 C 
ATOM      9  N   UNL A   1      33.163  23.997  22.892  1.00  0.00    -0.263 N 
ATOM     10  C   UNL A   1      32.320  25.118  22.864  1.00  0.00     0.265 A 
ATOM     11  C   UNL A   1      33.827  23.474  24.021  1.00  0.00     0.330 A 
ATOM     12  O   UNL A   1      31.664  25.454  21.878  1.00  0.00    -0.268 OA
ATOM     13  C   UNL A   1      32.277  25.836  24.114  1.00  0.00     0.090 A 
ATOM     14  N   UNL A   1      33.800  24.244  25.185  1.00  0.00    -0.295 N 
ATOM     15  O   UNL A   1      34.383  22.374  23.976  1.00  0.00    -0.248 OA
ATOM     16  C   UNL A   1      31.603  26.996  24.495  1.00  0.00     0.064 A 
ATOM     17  C   UNL A   1      33.033  25.395  25.204  1.00  0.00     0.076 A 
ATOM     18  C   UNL A   1      34.526  23.787  26.367  1.00  0.00     0.155 C 
ATOM     19  C   UNL A   1      32.860  26.290  26.218  1.00  0.00     0.114 A 
BRANCH  16  20
ATOM     20  C   UNL A   1      30.719  27.873  23.735  1.00  0.00    -0.001 A 
ATOM     21  C   UNL A   1      29.330  27.678  23.768  1.00  0.00     0.012 A 
ATOM     22  C   UNL A   1      31.250  28.890  22.937  1.00  0.00     0.012 A 
ATOM     23  C   UNL A   1      28.489  28.453  22.971  1.00  0.00     0.021 A 
ATOM     24  C   UNL A   1      30.406  29.682  22.157  1.00  0.00     0.021 A 
ATOM     25  C   UNL A   1      29.032  29.451  22.167  1.00  0.00     0.041 A 
ATOM     26  Cl  UNL A   1      27.996  30.405  21.177  1.00  0.00    -0.084 Cl
ENDBRANCH  16  20
ENDBRANCH   6   7
ENDBRANCH   4   6
ENDBRANCH   3   4
ENDBRANCH   2   3
ENDBRANCH   1   2
BRANCH   1  27
ATOM     27  O   UNL A   1      35.125  32.102  29.106  1.00  0.00    -0.458 OA
BRANCH  27  28
ATOM     28  C   UNL A   1      34.847  32.659  30.302  1.00  0.00     0.338 C 
ATOM     29  O   UNL A   1      33.950  33.451  30.541  1.00  0.00    -0.246 OA
BRANCH  28  30
ATOM     30  C   UNL A   1      35.831  32.304  31.323  1.00  0.00     0.060 A 
ATOM     31  C   UNL A   1      36.925  33.173  31.435  1.00  0.00     0.016 A 
ATOM     32  C   UNL A   1      35.944  30.935  31.544  1.00  0.00     0.016 A 
ATOM     33  C   UNL A   1      38.192  32.641  31.401  1.00  0.00     0.010 A 
ATOM     34  C   UNL A   1      37.209  30.403  31.536  1.00  0.00     0.010 A 
ATOM     35  C   UNL A   1      38.305  31.255  31.350  1.00  0.00    -0.014 A 
BRANCH  35  36
ATOM     36  C   UNL A   1      39.611  30.678  31.098  1.00  0.00     0.031 A 
ATOM     37  C   UNL A   1      40.440  30.518  32.319  1.00  0.00     0.074 A 
ATOM     38  C   UNL A   1      39.878  30.141  29.893  1.00  0.00     0.049 A 
ATOM     39  N   UNL A   1      41.641  30.931  32.566  1.00  0.00    -0.248 NA
ATOM     40  C   UNL A   1      39.759  29.918  33.483  1.00  0.00     0.031 C 
ATOM     41  C   UNL A   1      38.957  29.972  28.760  1.00  0.00     0.029 A 
ATOM     42  N   UNL A   1      40.985  29.476  29.479  1.00  0.00    -0.354 N 
ATOM     43  C   UNL A   1      41.922  30.479  33.853  1.00  0.00     0.074 A 
ATOM     44  C   UNL A   1      40.677  30.053  34.433  1.00  0.00     0.031 C 
ATOM     45  C   UNL A   1      39.459  29.040  27.918  1.00  0.00     0.029 A 
ATOM     46  C   UNL A   1      40.770  28.635  28.396  1.00  0.00     0.049 A 
ATOM     47  H   UNL A   1      41.864  29.581  29.908  1.00  0.00     0.167 HD
ATOM     48  C   UNL A   1      43.180  30.242  34.307  1.00  0.00     0.037 A 
ATOM     49  C   UNL A   1      41.566  27.599  28.030  1.00  0.00     0.037 A 
ATOM     50  C   UNL A   1      44.186  30.863  33.498  1.00  0.00     0.049 A 
ATOM     51  C   UNL A   1      42.866  27.777  28.737  1.00  0.00     0.074 A 
ATOM     52  C   UNL A   1      44.518  32.171  33.207  1.00  0.00     0.029 A 
ATOM     53  N   UNL A   1      44.797  30.095  32.537  1.00  0.00    -0.354 N 
ATOM     54  N   UNL A   1      43.701  28.756  28.522  1.00  0.00    -0.248 NA
ATOM     55  C   UNL A   1      43.044  27.083  30.006  1.00  0.00     0.031 C 
ATOM     56  C   UNL A   1      44.934  32.159  31.844  1.00  0.00     0.029 A 
ATOM     57  C   UNL A   1      44.859  30.842  31.386  1.00  0.00     0.049 A 
ATOM     58  H   UNL A   1      45.131  29.175  32.653  1.00  0.00     0.167 HD
ATOM     59  C   UNL A   1      44.251  29.050  29.763  1.00  0.00     0.074 A 
ATOM     60  C   UNL A   1      43.879  27.927  30.616  1.00  0.00     0.031 C 
ATOM     61  C   UNL A   1      44.724  30.298  30.051  1.00  0.00     0.037 A 
BRANCH  48  62
ATOM     62  C   UNL A   1      43.461  29.185  35.337  1.00  0.00     0.058 A 
ATOM     63  C   UNL A   1      43.965  29.520  36.603  1.00  0.00     0.135 A 
ATOM     64  C   UNL A   1      43.406  27.804  35.037  1.00  0.00     0.135 A 
ATOM     65  F   UNL A   1      44.111  30.805  36.958  1.00  0.00    -0.206 F 
ATOM     66  C   UNL A   1      44.366  28.543  37.517  1.00  0.00     0.059 A 
ATOM     67  C   UNL A   1      43.733  26.815  35.952  1.00  0.00     0.059 A 
ATOM     68  F   UNL A   1      43.098  27.363  33.808  1.00  0.00    -0.206 F 
ATOM     69  C   UNL A   1      44.240  27.195  37.184  1.00  0.00     0.060 A 
BRANCH  69  70
ATOM     70  S   UNL A   1      44.796  25.931  38.341  1.00  0.00     0.124 S 
ATOM     71  O   UNL A   1      44.240  26.424  39.596  1.00  0.00    -0.237 OA
ATOM     72  O   UNL A   1      44.181  24.726  37.798  1.00  0.00    -0.237 OA
ATOM     73  O   UNL A   1      46.251  25.989  38.228  1.00  0.00    -0.744 OA
ENDBRANCH  69  70
ENDBRANCH  48  62
BRANCH  49  74
ATOM     74  C   UNL A   1      41.154  26.286  27.460  1.00  0.00     0.058 A 
ATOM     75  C   UNL A   1      41.937  25.654  26.479  1.00  0.00     0.135 A 
ATOM     76  C   UNL A   1      40.152  25.494  28.059  1.00  0.00     0.135 A 
ATOM     77  F   UNL A   1      42.928  26.326  25.872  1.00  0.00    -0.206 F 
ATOM     78  C   UNL A   1      41.778  24.303  26.152  1.00  0.00     0.059 A 
ATOM     79  C   UNL A   1      39.963  24.151  27.737  1.00  0.00     0.059 A 
ATOM     80  F   UNL A   1      39.386  25.971  29.050  1.00  0.00    -0.206 F 
ATOM     81  C   UNL A   1      40.803  23.553  26.807  1.00  0.00     0.060 A 
BRANCH  81  82
ATOM     82  S   UNL A   1      40.728  21.767  26.536  1.00  0.00     0.124 S 
ATOM     83  O   UNL A   1      39.447  21.617  25.854  1.00  0.00    -0.237 OA
ATOM     84  O   UNL A   1      41.916  21.532  25.724  1.00  0.00    -0.237 OA
ATOM     85  O   UNL A   1      40.780  21.216  27.889  1.00  0.00    -0.744 OA
ENDBRANCH  81  82
ENDBRANCH  49  74
BRANCH  61  86
ATOM     86  C   UNL A   1      44.870  31.269  28.905  1.00  0.00     0.058 A 
ATOM     87  C   UNL A   1      45.962  31.270  28.016  1.00  0.00     0.135 A 
ATOM     88  C   UNL A   1      43.801  32.122  28.600  1.00  0.00     0.135 A 
ATOM     89  F   UNL A   1      46.974  30.407  28.173  1.00  0.00    -0.206 F 
ATOM     90  C   UNL A   1      46.007  32.108  26.902  1.00  0.00     0.059 A 
ATOM     91  C   UNL A   1      43.809  32.943  27.475  1.00  0.00     0.059 A 
ATOM     92  F   UNL A   1      42.701  32.121  29.371  1.00  0.00    -0.206 F 
ATOM     93  C   UNL A   1      44.920  32.938  26.634  1.00  0.00     0.060 A 
BRANCH  93  94
ATOM     94  S   UNL A   1      44.935  33.941  25.133  1.00  0.00     0.124 S 
ATOM     95  O   UNL A   1      46.343  34.306  25.021  1.00  0.00    -0.237 OA
ATOM     96  O   UNL A   1      44.435  33.009  24.126  1.00  0.00    -0.237 OA
ATOM     97  O   UNL A   1      44.029  35.043  25.451  1.00  0.00    -0.744 OA
ENDBRANCH  93  94
ENDBRANCH  61  86
ENDBRANCH  35  36
ENDBRANCH  28  30
ENDBRANCH  27  28
ENDBRANCH   1  27
TORSDOF 16
ENDMDL
MODEL 3
REMARK VINA RESULT:     -12.0      0.809      1.039
REMARK SMILES Cn1c(=O)c2c(-c3ccc(Cl)cc3)n(CC(=O)OCCOC(=O)c3ccc(-c4c5nc(c(-c6c(F)cc(S(=O)(=O)[O-])cc6F)c6ccc([nH]6)c(-c6c(F)cc(S(=O)(=O)[O-])cc6F)c6nc(c(-c7c(F)cc(S(=O)(=O)[O-])cc7F)c7ccc4[nH]7)C=C6)C=C5)cc3)cc2n(C)c1=O
REMARK SMILES IDX 20 1 19 2 18 3 16 4 17 5 15 6 14 7 1 8 2 9 3 10 94 11 4 12
REMARK SMILES IDX 5 13 92 14 95 15 6 16 91 17 93 18 90 19 7 20 8 21 13 22 9 23
REMARK SMILES IDX 12 24 10 25 11 26 21 27 22 28 23 29 24 30 25 31 89 32 26 33
REMARK SMILES IDX 88 34 27 35 28 36 29 37 82 38 30 39 87 40 81 41 83 42 31 43
REMARK SMILES IDX 86 44 80 45 79 46 32 48 66 49 45 50 65 51 46 52 49 53 64 54
REMARK SMILES IDX 84 55 47 56 48 57 63 59 85 60 50 61 33 62 34 63 43 64 35 65
REMARK SMILES IDX 36 66 42 67 44 68 37 69 38 70 39 71 40 72 41 73 67 74 68 75
REMARK SMILES IDX 77 76 69 77 70 78 76 79 78 80 71 81 72 82 73 83 74 84 75 85
REMARK SMILES IDX 51 86 52 87 61 88 53 89 54 90 60 91 62 92 55 93 56 94 57 95
REMARK SMILES IDX 58 96 59 97
REMARK H PARENT 83 47 49 58
REMARK Flexibility Score: inf
ROOT
ATOM      1  C   UNL A   1      38.129  21.404  25.804  1.00  0.00     0.275 C 
ENDROOT
BRANCH   1   2
ATOM      2  C   UNL A   1      37.474  21.524  24.424  1.00  0.00     0.274 C 
BRANCH   2   3
ATOM      3  O   UNL A   1      36.086  21.941  24.479  1.00  0.00    -0.461 OA
BRANCH   3   4
ATOM      4  C   UNL A   1      35.817  23.175  23.981  1.00  0.00     0.326 C 
ATOM      5  O   UNL A   1      35.926  23.465  22.789  1.00  0.00    -0.250 OA
BRANCH   4   6
ATOM      6  C   UNL A   1      35.387  24.217  24.981  1.00  0.00     0.244 C 
BRANCH   6   7
ATOM      7  N   UNL A   1      34.161  24.972  24.724  1.00  0.00    -0.333 N 
ATOM      8  C   UNL A   1      28.766  27.113  23.594  1.00  0.00     0.158 C 
ATOM      9  N   UNL A   1      30.168  26.946  23.910  1.00  0.00    -0.263 N 
ATOM     10  C   UNL A   1      30.668  25.636  23.891  1.00  0.00     0.265 A 
ATOM     11  C   UNL A   1      30.912  28.125  24.118  1.00  0.00     0.330 A 
ATOM     12  O   UNL A   1      29.995  24.653  23.576  1.00  0.00    -0.268 OA
ATOM     13  C   UNL A   1      32.059  25.546  24.258  1.00  0.00     0.090 A 
ATOM     14  N   UNL A   1      32.238  27.974  24.530  1.00  0.00    -0.295 N 
ATOM     15  O   UNL A   1      30.410  29.234  23.919  1.00  0.00    -0.248 OA
ATOM     16  C   UNL A   1      32.916  24.453  24.390  1.00  0.00     0.064 A 
ATOM     17  C   UNL A   1      32.775  26.700  24.589  1.00  0.00     0.076 A 
ATOM     18  C   UNL A   1      33.038  29.158  24.826  1.00  0.00     0.155 C 
ATOM     19  C   UNL A   1      34.030  26.319  24.959  1.00  0.00     0.114 A 
BRANCH  16  20
ATOM     20  C   UNL A   1      32.669  23.026  24.207  1.00  0.00    -0.001 A 
ATOM     21  C   UNL A   1      32.543  22.183  25.321  1.00  0.00     0.012 A 
ATOM     22  C   UNL A   1      32.596  22.482  22.923  1.00  0.00     0.012 A 
ATOM     23  C   UNL A   1      32.401  20.806  25.152  1.00  0.00     0.021 A 
ATOM     24  C   UNL A   1      32.431  21.106  22.752  1.00  0.00     0.021 A 
ATOM     25  C   UNL A   1      32.347  20.274  23.867  1.00  0.00     0.041 A 
ATOM     26  Cl  UNL A   1      32.179  18.574  23.656  1.00  0.00    -0.084 Cl
ENDBRANCH  16  20
ENDBRANCH   6   7
ENDBRANCH   4   6
ENDBRANCH   3   4
ENDBRANCH   2   3
ENDBRANCH   1   2
BRANCH   1  27
ATOM     27  O   UNL A   1      38.964  22.531  26.086  1.00  0.00    -0.458 OA
BRANCH  27  28
ATOM     28  C   UNL A   1      40.132  22.159  26.647  1.00  0.00     0.338 C 
ATOM     29  O   UNL A   1      40.337  21.139  27.284  1.00  0.00    -0.246 OA
BRANCH  28  30
ATOM     30  C   UNL A   1      41.163  23.188  26.519  1.00  0.00     0.060 A 
ATOM     31  C   UNL A   1      42.170  23.158  27.494  1.00  0.00     0.016 A 
ATOM     32  C   UNL A   1      40.706  24.377  25.959  1.00  0.00     0.016 A 
ATOM     33  C   UNL A   1      42.458  24.316  28.175  1.00  0.00     0.010 A 
ATOM     34  C   UNL A   1      41.012  25.538  26.623  1.00  0.00     0.010 A 
ATOM     35  C   UNL A   1      41.790  25.473  27.786  1.00  0.00    -0.014 A 
BRANCH  35  36
ATOM     36  C   UNL A   1      41.912  26.654  28.619  1.00  0.00     0.031 A 
ATOM     37  C   UNL A   1      43.108  27.479  28.316  1.00  0.00     0.074 A 
ATOM     38  C   UNL A   1      40.878  27.028  29.396  1.00  0.00     0.049 A 
ATOM     39  N   UNL A   1      44.044  27.901  29.102  1.00  0.00    -0.248 NA
ATOM     40  C   UNL A   1      43.353  27.754  26.886  1.00  0.00     0.031 C 
ATOM     41  C   UNL A   1      39.540  26.423  29.463  1.00  0.00     0.029 A 
ATOM     42  N   UNL A   1      40.746  28.133  30.171  1.00  0.00    -0.354 N 
ATOM     43  C   UNL A   1      44.893  28.647  28.286  1.00  0.00     0.074 A 
ATOM     44  C   UNL A   1      44.539  28.351  26.924  1.00  0.00     0.031 C 
ATOM     45  C   UNL A   1      38.683  27.310  30.020  1.00  0.00     0.029 A 
ATOM     46  C   UNL A   1      39.430  28.484  30.439  1.00  0.00     0.049 A 
ATOM     47  H   UNL A   1      41.515  28.640  30.514  1.00  0.00     0.167 HD
ATOM     48  C   UNL A   1      45.683  29.652  28.745  1.00  0.00     0.037 A 
ATOM     49  C   UNL A   1      39.005  29.706  30.844  1.00  0.00     0.037 A 
ATOM     50  C   UNL A   1      45.857  29.613  30.167  1.00  0.00     0.049 A 
ATOM     51  C   UNL A   1      40.208  30.453  31.311  1.00  0.00     0.074 A 
ATOM     52  C   UNL A   1      46.449  28.725  31.042  1.00  0.00     0.029 A 
ATOM     53  N   UNL A   1      45.045  30.414  30.932  1.00  0.00    -0.354 N 
ATOM     54  N   UNL A   1      40.921  30.133  32.356  1.00  0.00    -0.248 NA
ATOM     55  C   UNL A   1      40.875  31.326  30.353  1.00  0.00     0.031 C 
ATOM     56  C   UNL A   1      45.631  28.744  32.208  1.00  0.00     0.029 A 
ATOM     57  C   UNL A   1      44.601  29.661  31.992  1.00  0.00     0.049 A 
ATOM     58  H   UNL A   1      44.822  31.357  30.754  1.00  0.00     0.167 HD
ATOM     59  C   UNL A   1      42.232  30.439  32.015  1.00  0.00     0.074 A 
ATOM     60  C   UNL A   1      42.128  31.255  30.810  1.00  0.00     0.031 C 
ATOM     61  C   UNL A   1      43.284  29.781  32.583  1.00  0.00     0.037 A 
BRANCH  48  62
ATOM     62  C   UNL A   1      46.040  30.830  27.884  1.00  0.00     0.058 A 
ATOM     63  C   UNL A   1      47.372  31.096  27.533  1.00  0.00     0.135 A 
ATOM     64  C   UNL A   1      45.095  31.823  27.532  1.00  0.00     0.135 A 
ATOM     65  F   UNL A   1      48.349  30.243  27.876  1.00  0.00    -0.206 F 
ATOM     66  C   UNL A   1      47.735  32.263  26.856  1.00  0.00     0.059 A 
ATOM     67  C   UNL A   1      45.421  32.954  26.800  1.00  0.00     0.059 A 
ATOM     68  F   UNL A   1      43.822  31.763  27.952  1.00  0.00    -0.206 F 
ATOM     69  C   UNL A   1      46.751  33.182  26.490  1.00  0.00     0.060 A 
BRANCH  69  70
ATOM     70  S   UNL A   1      47.219  34.708  25.656  1.00  0.00     0.124 S 
ATOM     71  O   UNL A   1      48.562  34.383  25.189  1.00  0.00    -0.237 OA
ATOM     72  O   UNL A   1      46.193  34.822  24.626  1.00  0.00    -0.237 OA
ATOM     73  O   UNL A   1      47.144  35.708  26.718  1.00  0.00    -0.744 OA
ENDBRANCH  69  70
ENDBRANCH  48  62
BRANCH  49  74
ATOM     74  C   UNL A   1      37.741  30.403  30.477  1.00  0.00     0.058 A 
ATOM     75  C   UNL A   1      36.920  30.967  31.469  1.00  0.00     0.135 A 
ATOM     76  C   UNL A   1      37.454  30.779  29.147  1.00  0.00     0.135 A 
ATOM     77  F   UNL A   1      37.135  30.682  32.763  1.00  0.00    -0.206 F 
ATOM     78  C   UNL A   1      35.916  31.893  31.170  1.00  0.00     0.059 A 
ATOM     79  C   UNL A   1      36.447  31.686  28.824  1.00  0.00     0.059 A 
ATOM     80  F   UNL A   1      38.209  30.354  28.125  1.00  0.00    -0.206 F 
ATOM     81  C   UNL A   1      35.704  32.266  29.843  1.00  0.00     0.060 A 
BRANCH  81  82
ATOM     82  S   UNL A   1      34.549  33.606  29.472  1.00  0.00     0.124 S 
ATOM     83  O   UNL A   1      35.436  34.630  28.932  1.00  0.00    -0.237 OA
ATOM     84  O   UNL A   1      33.646  32.975  28.517  1.00  0.00    -0.237 OA
ATOM     85  O   UNL A   1      33.960  33.916  30.773  1.00  0.00    -0.744 OA
ENDBRANCH  81  82
ENDBRANCH  49  74
BRANCH  61  86
ATOM     86  C   UNL A   1      42.994  28.902  33.776  1.00  0.00     0.058 A 
ATOM     87  C   UNL A   1      42.787  29.395  35.078  1.00  0.00     0.135 A 
ATOM     88  C   UNL A   1      42.762  27.536  33.568  1.00  0.00     0.135 A 
ATOM     89  F   UNL A   1      42.880  30.705  35.337  1.00  0.00    -0.206 F 
ATOM     90  C   UNL A   1      42.410  28.563  36.131  1.00  0.00     0.059 A 
ATOM     91  C   UNL A   1      42.352  26.692  34.597  1.00  0.00     0.059 A 
ATOM     92  F   UNL A   1      42.878  27.015  32.335  1.00  0.00    -0.206 F 
ATOM     93  C   UNL A   1      42.186  27.211  35.880  1.00  0.00     0.060 A 
BRANCH  93  94
ATOM     94  S   UNL A   1      41.593  26.158  37.222  1.00  0.00     0.124 S 
ATOM     95  O   UNL A   1      41.407  24.878  36.548  1.00  0.00    -0.237 OA
ATOM     96  O   UNL A   1      42.693  26.221  38.181  1.00  0.00    -0.237 OA
ATOM     97  O   UNL A   1      40.364  26.819  37.655  1.00  0.00    -0.744 OA
ENDBRANCH  93  94
ENDBRANCH  61  86
ENDBRANCH  35  36
ENDBRANCH  28  30
ENDBRANCH  27  28
ENDBRANCH   1  27
TORSDOF 16
ENDMDL
