MODEL 1
REMARK VINA RESULT:     -10.6      0.000      0.000
REMARK SMILES O=C(OCCOC(=O)[C@H]1CC[C@@H](CNC(=O)[C@@H]2C[C@H]3CC[C@@H]2[NH2+]3)O1)c1ccc(-c2c3nc(c(-c4c(F)cc(S(=O)(=O)[O-])cc4F)c4ccc([nH]4)c(-c4c(F)cc(S(=O)(=O)[O-])cc4F)c4nc(c(-c5c(F)cc(S(=O)(=O)[O-])cc5F)c5ccc2[nH]5)C=C4)C=C3)cc1
REMARK SMILES IDX 4 1 3 2 2 3 1 4 25 5 26 6 90 7 27 8 89 9 28 10 29 11 30 12
REMARK SMILES IDX 83 13 31 14 88 15 82 16 84 17 32 18 87 19 81 20 80 21 33 23
REMARK SMILES IDX 67 24 46 25 66 26 47 27 50 28 65 29 85 30 48 31 49 32 64 34
REMARK SMILES IDX 86 35 51 36 34 37 35 38 44 39 36 40 37 41 43 42 45 43 38 44
REMARK SMILES IDX 39 45 40 46 41 47 42 48 68 49 69 50 78 51 70 52 71 53 77 54
REMARK SMILES IDX 79 55 72 56 73 57 74 58 75 59 76 60 52 61 53 62 62 63 54 64
REMARK SMILES IDX 55 65 61 66 63 67 56 68 57 69 58 70 59 71 60 72 5 73 6 74
REMARK SMILES IDX 7 75 8 76 9 77 10 78 24 79 11 80 12 81 13 82 14 83 15 84
REMARK SMILES IDX 16 86 17 87 18 88 22 89 19 90 21 91 23 92 20 93
REMARK H PARENT 84 22 50 33 14 85 23 94 23 95
REMARK Flexibility Score: inf
ROOT
ATOM      1  C   UNL A   1      32.124  29.865  27.094  1.00  0.00     0.275 C 
ENDROOT
BRANCH   1   2
ATOM      2  O   UNL A   1      33.541  29.722  27.372  1.00  0.00    -0.458 OA
BRANCH   2   3
ATOM      3  C   UNL A   1      34.405  30.515  28.057  1.00  0.00     0.338 C 
ATOM      4  O   UNL A   1      34.042  31.645  28.385  1.00  0.00    -0.246 OA
BRANCH   3   5
ATOM      5  C   UNL A   1      35.803  30.101  28.371  1.00  0.00     0.060 A 
ATOM      6  C   UNL A   1      36.227  29.704  29.642  1.00  0.00     0.016 A 
ATOM      7  C   UNL A   1      36.739  30.110  27.320  1.00  0.00     0.016 A 
ATOM      8  C   UNL A   1      37.508  29.199  29.844  1.00  0.00     0.010 A 
ATOM      9  C   UNL A   1      38.049  29.670  27.530  1.00  0.00     0.010 A 
ATOM     10  C   UNL A   1      38.430  29.207  28.796  1.00  0.00    -0.014 A 
BRANCH  10  11
ATOM     11  C   UNL A   1      39.854  29.041  29.132  1.00  0.00     0.031 A 
ATOM     12  C   UNL A   1      40.450  27.705  28.807  1.00  0.00     0.074 A 
ATOM     13  C   UNL A   1      40.587  30.042  29.650  1.00  0.00     0.049 A 
ATOM     14  N   UNL A   1      41.671  27.279  28.968  1.00  0.00    -0.248 NA
ATOM     15  C   UNL A   1      39.539  26.718  28.198  1.00  0.00     0.031 C 
ATOM     16  C   UNL A   1      40.105  31.394  29.914  1.00  0.00     0.029 A 
ATOM     17  N   UNL A   1      41.894  30.071  30.058  1.00  0.00    -0.354 N 
ATOM     18  C   UNL A   1      41.675  25.983  28.471  1.00  0.00     0.074 A 
ATOM     19  C   UNL A   1      40.333  25.675  28.039  1.00  0.00     0.031 C 
ATOM     20  C   UNL A   1      41.081  32.108  30.500  1.00  0.00     0.029 A 
ATOM     21  C   UNL A   1      42.261  31.260  30.647  1.00  0.00     0.049 A 
ATOM     22  H   UNL A   1      42.513  29.315  29.940  1.00  0.00     0.167 HD
ATOM     23  C   UNL A   1      42.716  25.126  28.383  1.00  0.00     0.037 A 
ATOM     24  C   UNL A   1      43.415  31.606  31.249  1.00  0.00     0.037 A 
ATOM     25  C   UNL A   1      44.021  25.445  28.883  1.00  0.00     0.049 A 
ATOM     26  C   UNL A   1      44.541  30.606  31.235  1.00  0.00     0.074 A 
ATOM     27  C   UNL A   1      45.156  24.660  28.896  1.00  0.00     0.029 A 
ATOM     28  N   UNL A   1      44.350  26.651  29.491  1.00  0.00    -0.354 N 
ATOM     29  N   UNL A   1      44.549  29.390  30.735  1.00  0.00    -0.248 NA
ATOM     30  C   UNL A   1      45.814  31.017  31.837  1.00  0.00     0.031 C 
ATOM     31  C   UNL A   1      46.155  25.370  29.570  1.00  0.00     0.029 A 
ATOM     32  C   UNL A   1      45.665  26.625  29.912  1.00  0.00     0.049 A 
ATOM     33  H   UNL A   1      43.736  27.411  29.608  1.00  0.00     0.167 HD
ATOM     34  C   UNL A   1      45.835  28.904  30.925  1.00  0.00     0.074 A 
ATOM     35  C   UNL A   1      46.575  29.956  31.598  1.00  0.00     0.031 C 
ATOM     36  C   UNL A   1      46.364  27.708  30.565  1.00  0.00     0.037 A 
BRANCH  23  37
ATOM     37  C   UNL A   1      42.424  23.770  27.805  1.00  0.00     0.058 A 
ATOM     38  C   UNL A   1      42.273  22.634  28.619  1.00  0.00     0.135 A 
ATOM     39  C   UNL A   1      42.399  23.586  26.415  1.00  0.00     0.135 A 
ATOM     40  F   UNL A   1      42.324  22.746  29.957  1.00  0.00    -0.206 F 
ATOM     41  C   UNL A   1      42.168  21.358  28.075  1.00  0.00     0.059 A 
ATOM     42  C   UNL A   1      42.261  22.322  25.848  1.00  0.00     0.059 A 
ATOM     43  F   UNL A   1      42.552  24.634  25.591  1.00  0.00    -0.206 F 
ATOM     44  C   UNL A   1      42.177  21.212  26.686  1.00  0.00     0.060 A 
BRANCH  44  45
ATOM     45  S   UNL A   1      42.108  19.548  25.993  1.00  0.00     0.124 S 
ATOM     46  O   UNL A   1      43.022  19.667  24.861  1.00  0.00    -0.237 OA
ATOM     47  O   UNL A   1      42.580  18.726  27.103  1.00  0.00    -0.237 OA
ATOM     48  O   UNL A   1      40.699  19.381  25.648  1.00  0.00    -0.744 OA
ENDBRANCH  44  45
ENDBRANCH  23  37
BRANCH  24  49
ATOM     49  C   UNL A   1      43.539  32.940  31.898  1.00  0.00     0.058 A 
ATOM     50  C   UNL A   1      43.997  34.063  31.194  1.00  0.00     0.135 A 
ATOM     51  C   UNL A   1      43.137  33.131  33.231  1.00  0.00     0.135 A 
ATOM     52  F   UNL A   1      44.399  33.938  29.921  1.00  0.00    -0.206 F 
ATOM     53  C   UNL A   1      44.044  35.326  31.783  1.00  0.00     0.059 A 
ATOM     54  C   UNL A   1      43.157  34.386  33.835  1.00  0.00     0.059 A 
ATOM     55  F   UNL A   1      42.679  32.093  33.949  1.00  0.00    -0.206 F 
ATOM     56  C   UNL A   1      43.611  35.479  33.102  1.00  0.00     0.060 A 
BRANCH  56  57
ATOM     57  S   UNL A   1      43.596  37.136  33.824  1.00  0.00     0.124 S 
ATOM     58  O   UNL A   1      43.628  37.978  32.633  1.00  0.00    -0.237 OA
ATOM     59  O   UNL A   1      42.341  37.130  34.570  1.00  0.00    -0.237 OA
ATOM     60  O   UNL A   1      44.805  37.157  34.644  1.00  0.00    -0.744 OA
ENDBRANCH  56  57
ENDBRANCH  24  49
BRANCH  36  61
ATOM     61  C   UNL A   1      47.821  27.477  30.839  1.00  0.00     0.058 A 
ATOM     62  C   UNL A   1      48.264  26.896  32.034  1.00  0.00     0.135 A 
ATOM     63  C   UNL A   1      48.761  27.702  29.820  1.00  0.00     0.135 A 
ATOM     64  F   UNL A   1      47.402  26.670  33.038  1.00  0.00    -0.206 F 
ATOM     65  C   UNL A   1      49.594  26.530  32.206  1.00  0.00     0.059 A 
ATOM     66  C   UNL A   1      50.088  27.318  29.960  1.00  0.00     0.059 A 
ATOM     67  F   UNL A   1      48.378  28.247  28.654  1.00  0.00    -0.206 F 
ATOM     68  C   UNL A   1      50.493  26.729  31.156  1.00  0.00     0.060 A 
BRANCH  68  69
ATOM     69  S   UNL A   1      52.190  26.147  31.352  1.00  0.00     0.124 S 
ATOM     70  O   UNL A   1      52.727  27.122  32.297  1.00  0.00    -0.237 OA
ATOM     71  O   UNL A   1      51.997  24.798  31.873  1.00  0.00    -0.237 OA
ATOM     72  O   UNL A   1      52.733  26.219  29.999  1.00  0.00    -0.744 OA
ENDBRANCH  68  69
ENDBRANCH  36  61
ENDBRANCH  10  11
ENDBRANCH   3   5
ENDBRANCH   2   3
ENDBRANCH   1   2
BRANCH   1  73
ATOM     73  C   UNL A   1      31.701  29.964  25.616  1.00  0.00     0.274 C 
BRANCH  73  74
ATOM     74  O   UNL A   1      31.698  28.679  24.995  1.00  0.00    -0.460 OA
BRANCH  74  75
ATOM     75  C   UNL A   1      32.288  28.553  23.767  1.00  0.00     0.335 C 
ATOM     76  O   UNL A   1      31.841  29.024  22.736  1.00  0.00    -0.249 OA
BRANCH  75  77
ATOM     77  C   UNL A   1      33.523  27.644  23.916  1.00  0.00     0.228 C 
ATOM     78  C   UNL A   1      33.686  26.959  25.263  1.00  0.00     0.047 C 
ATOM     79  O   UNL A   1      33.608  26.626  22.907  1.00  0.00    -0.361 OA
ATOM     80  C   UNL A   1      33.410  25.509  24.946  1.00  0.00     0.037 C 
ATOM     81  C   UNL A   1      33.965  25.386  23.537  1.00  0.00     0.138 C 
BRANCH  81  82
ATOM     82  C   UNL A   1      33.515  24.148  22.729  1.00  0.00     0.147 C 
BRANCH  82  83
ATOM     83  N   UNL A   1      33.610  22.885  23.452  1.00  0.00    -0.353 N 
ATOM     84  C   UNL A   1      34.600  22.177  24.038  1.00  0.00     0.229 C 
ATOM     85  H   UNL A   1      32.737  22.438  23.533  1.00  0.00     0.163 HD
ATOM     86  O   UNL A   1      34.245  21.073  24.483  1.00  0.00    -0.275 OA
BRANCH  84  87
ATOM     87  C   UNL A   1      36.021  22.662  24.319  1.00  0.00     0.142 C 
ATOM     88  C   UNL A   1      37.222  21.732  24.205  1.00  0.00     0.084 C 
ATOM     89  C   UNL A   1      36.108  23.096  25.803  1.00  0.00     0.195 C 
ATOM     90  C   UNL A   1      37.762  21.681  25.626  1.00  0.00     0.183 C 
ATOM     91  C   UNL A   1      37.350  23.965  26.067  1.00  0.00     0.072 C 
ATOM     92  N   UNL A   1      36.529  21.819  26.408  1.00  0.00    -0.341 N 
ATOM     93  C   UNL A   1      38.501  22.961  25.974  1.00  0.00     0.071 C 
ATOM     94  H   UNL A   1      36.703  21.897  27.410  1.00  0.00     0.346 HD
ATOM     95  H   UNL A   1      35.866  21.045  26.374  1.00  0.00     0.346 HD
ENDBRANCH  84  87
ENDBRANCH  82  83
ENDBRANCH  81  82
ENDBRANCH  75  77
ENDBRANCH  74  75
ENDBRANCH  73  74
ENDBRANCH   1  73
TORSDOF 17
ENDMDL
MODEL 2
REMARK VINA RESULT:     -10.6      3.984     10.330
REMARK SMILES O=C(OCCOC(=O)[C@H]1CC[C@@H](CNC(=O)[C@@H]2C[C@H]3CC[C@@H]2[NH2+]3)O1)c1ccc(-c2c3nc(c(-c4c(F)cc(S(=O)(=O)[O-])cc4F)c4ccc([nH]4)c(-c4c(F)cc(S(=O)(=O)[O-])cc4F)c4nc(c(-c5c(F)cc(S(=O)(=O)[O-])cc5F)c5ccc2[nH]5)C=C4)C=C3)cc1
REMARK SMILES IDX 4 1 3 2 2 3 1 4 25 5 26 6 90 7 27 8 89 9 28 10 29 11 30 12
REMARK SMILES IDX 83 13 31 14 88 15 82 16 84 17 32 18 87 19 81 20 80 21 33 23
REMARK SMILES IDX 67 24 46 25 66 26 47 27 50 28 65 29 85 30 48 31 49 32 64 34
REMARK SMILES IDX 86 35 51 36 34 37 35 38 44 39 36 40 37 41 43 42 45 43 38 44
REMARK SMILES IDX 39 45 40 46 41 47 42 48 68 49 69 50 78 51 70 52 71 53 77 54
REMARK SMILES IDX 79 55 72 56 73 57 74 58 75 59 76 60 52 61 53 62 62 63 54 64
REMARK SMILES IDX 55 65 61 66 63 67 56 68 57 69 58 70 59 71 60 72 5 73 6 74
REMARK SMILES IDX 7 75 8 76 9 77 10 78 24 79 11 80 12 81 13 82 14 83 15 84
REMARK SMILES IDX 16 86 17 87 18 88 22 89 19 90 21 91 23 92 20 93
REMARK H PARENT 84 22 50 33 14 85 23 94 23 95
REMARK Flexibility Score: inf
ROOT
ATOM      1  C   UNL A   1      33.501  33.981  27.987  1.00  0.00     0.275 C 
ENDROOT
BRANCH   1   2
ATOM      2  O   UNL A   1      34.612  33.052  27.902  1.00  0.00    -0.458 OA
BRANCH   2   3
ATOM      3  C   UNL A   1      34.672  31.707  28.086  1.00  0.00     0.338 C 
ATOM      4  O   UNL A   1      33.653  31.038  27.920  1.00  0.00    -0.246 OA
BRANCH   3   5
ATOM      5  C   UNL A   1      35.909  31.012  28.546  1.00  0.00     0.060 A 
ATOM      6  C   UNL A   1      35.914  29.741  29.126  1.00  0.00     0.016 A 
ATOM      7  C   UNL A   1      37.135  31.680  28.376  1.00  0.00     0.016 A 
ATOM      8  C   UNL A   1      37.109  29.087  29.409  1.00  0.00     0.010 A 
ATOM      9  C   UNL A   1      38.339  31.059  28.723  1.00  0.00     0.010 A 
ATOM     10  C   UNL A   1      38.323  29.755  29.235  1.00  0.00    -0.014 A 
BRANCH  10  11
ATOM     11  C   UNL A   1      39.515  29.199  29.898  1.00  0.00     0.031 A 
ATOM     12  C   UNL A   1      39.919  29.865  31.179  1.00  0.00     0.074 A 
ATOM     13  C   UNL A   1      40.167  28.129  29.413  1.00  0.00     0.049 A 
ATOM     14  N   UNL A   1      40.902  29.583  31.986  1.00  0.00    -0.248 NA
ATOM     15  C   UNL A   1      39.081  30.998  31.615  1.00  0.00     0.031 C 
ATOM     16  C   UNL A   1      39.787  27.373  28.224  1.00  0.00     0.029 A 
ATOM     17  N   UNL A   1      41.299  27.497  29.858  1.00  0.00    -0.354 N 
ATOM     18  C   UNL A   1      40.793  30.496  33.027  1.00  0.00     0.074 A 
ATOM     19  C   UNL A   1      39.678  31.362  32.735  1.00  0.00     0.031 C 
ATOM     20  C   UNL A   1      40.703  26.418  27.992  1.00  0.00     0.029 A 
ATOM     21  C   UNL A   1      41.734  26.494  29.024  1.00  0.00     0.049 A 
ATOM     22  H   UNL A   1      41.757  27.738  30.696  1.00  0.00     0.167 HD
ATOM     23  C   UNL A   1      41.562  30.594  34.133  1.00  0.00     0.037 A 
ATOM     24  C   UNL A   1      42.849  25.741  29.086  1.00  0.00     0.037 A 
ATOM     25  C   UNL A   1      42.703  29.755  34.357  1.00  0.00     0.049 A 
ATOM     26  C   UNL A   1      43.755  25.926  30.274  1.00  0.00     0.074 A 
ATOM     27  C   UNL A   1      43.593  29.771  35.412  1.00  0.00     0.029 A 
ATOM     28  N   UNL A   1      43.125  28.762  33.480  1.00  0.00    -0.354 N 
ATOM     29  N   UNL A   1      43.631  26.771  31.274  1.00  0.00    -0.248 NA
ATOM     30  C   UNL A   1      44.933  25.056  30.365  1.00  0.00     0.031 C 
ATOM     31  C   UNL A   1      44.590  28.828  35.140  1.00  0.00     0.029 A 
ATOM     32  C   UNL A   1      44.282  28.174  33.953  1.00  0.00     0.049 A 
ATOM     33  H   UNL A   1      42.668  28.516  32.644  1.00  0.00     0.167 HD
ATOM     34  C   UNL A   1      44.689  26.510  32.132  1.00  0.00     0.074 A 
ATOM     35  C   UNL A   1      45.453  25.434  31.527  1.00  0.00     0.031 C 
ATOM     36  C   UNL A   1      44.997  27.091  33.319  1.00  0.00     0.037 A 
BRANCH  23  37
ATOM     37  C   UNL A   1      41.217  31.695  35.097  1.00  0.00     0.058 A 
ATOM     38  C   UNL A   1      40.207  31.544  36.063  1.00  0.00     0.135 A 
ATOM     39  C   UNL A   1      41.831  32.950  34.984  1.00  0.00     0.135 A 
ATOM     40  F   UNL A   1      39.559  30.375  36.192  1.00  0.00    -0.206 F 
ATOM     41  C   UNL A   1      39.778  32.616  36.840  1.00  0.00     0.059 A 
ATOM     42  C   UNL A   1      41.442  34.028  35.774  1.00  0.00     0.059 A 
ATOM     43  F   UNL A   1      42.792  33.153  34.069  1.00  0.00    -0.206 F 
ATOM     44  C   UNL A   1      40.394  33.858  36.678  1.00  0.00     0.060 A 
BRANCH  44  45
ATOM     45  S   UNL A   1      39.786  35.256  37.643  1.00  0.00     0.124 S 
ATOM     46  O   UNL A   1      38.528  34.725  38.160  1.00  0.00    -0.237 OA
ATOM     47  O   UNL A   1      40.846  35.441  38.628  1.00  0.00    -0.237 OA
ATOM     48  O   UNL A   1      39.658  36.322  36.654  1.00  0.00    -0.744 OA
ENDBRANCH  44  45
ENDBRANCH  23  37
BRANCH  24  49
ATOM     49  C   UNL A   1      43.145  24.766  28.000  1.00  0.00     0.058 A 
ATOM     50  C   UNL A   1      43.805  25.151  26.824  1.00  0.00     0.135 A 
ATOM     51  C   UNL A   1      42.828  23.405  28.149  1.00  0.00     0.135 A 
ATOM     52  F   UNL A   1      44.126  26.438  26.626  1.00  0.00    -0.206 F 
ATOM     53  C   UNL A   1      44.146  24.224  25.840  1.00  0.00     0.059 A 
ATOM     54  C   UNL A   1      43.175  22.457  27.189  1.00  0.00     0.059 A 
ATOM     55  F   UNL A   1      42.208  22.978  29.261  1.00  0.00    -0.206 F 
ATOM     56  C   UNL A   1      43.836  22.877  26.037  1.00  0.00     0.060 A 
BRANCH  56  57
ATOM     57  S   UNL A   1      44.361  21.674  24.794  1.00  0.00     0.124 S 
ATOM     58  O   UNL A   1      44.170  22.424  23.557  1.00  0.00    -0.237 OA
ATOM     59  O   UNL A   1      45.745  21.422  25.182  1.00  0.00    -0.237 OA
ATOM     60  O   UNL A   1      43.446  20.555  25.001  1.00  0.00    -0.744 OA
ENDBRANCH  56  57
ENDBRANCH  24  49
BRANCH  36  61
ATOM     61  C   UNL A   1      46.176  26.553  34.076  1.00  0.00     0.058 A 
ATOM     62  C   UNL A   1      46.046  25.497  34.987  1.00  0.00     0.135 A 
ATOM     63  C   UNL A   1      47.467  27.004  33.759  1.00  0.00     0.135 A 
ATOM     64  F   UNL A   1      44.831  25.038  35.325  1.00  0.00    -0.206 F 
ATOM     65  C   UNL A   1      47.164  24.894  35.552  1.00  0.00     0.059 A 
ATOM     66  C   UNL A   1      48.598  26.397  34.289  1.00  0.00     0.059 A 
ATOM     67  F   UNL A   1      47.638  28.007  32.882  1.00  0.00    -0.206 F 
ATOM     68  C   UNL A   1      48.435  25.340  35.182  1.00  0.00     0.060 A 
BRANCH  68  69
ATOM     69  S   UNL A   1      49.877  24.474  35.836  1.00  0.00     0.124 S 
ATOM     70  O   UNL A   1      49.702  23.141  35.268  1.00  0.00    -0.237 OA
ATOM     71  O   UNL A   1      50.983  25.256  35.291  1.00  0.00    -0.237 OA
ATOM     72  O   UNL A   1      49.704  24.567  37.282  1.00  0.00    -0.744 OA
ENDBRANCH  68  69
ENDBRANCH  36  61
ENDBRANCH  10  11
ENDBRANCH   3   5
ENDBRANCH   2   3
ENDBRANCH   1   2
BRANCH   1  73
ATOM     73  C   UNL A   1      33.597  35.102  29.038  1.00  0.00     0.274 C 
BRANCH  73  74
ATOM     74  O   UNL A   1      33.192  34.636  30.326  1.00  0.00    -0.460 OA
BRANCH  74  75
ATOM     75  C   UNL A   1      33.497  35.402  31.416  1.00  0.00     0.335 C 
ATOM     76  O   UNL A   1      33.249  36.591  31.515  1.00  0.00    -0.249 OA
BRANCH  75  77
ATOM     77  C   UNL A   1      34.282  34.529  32.415  1.00  0.00     0.228 C 
ATOM     78  C   UNL A   1      34.533  33.093  31.987  1.00  0.00     0.047 C 
ATOM     79  O   UNL A   1      35.550  35.090  32.789  1.00  0.00    -0.361 OA
ATOM     80  C   UNL A   1      36.020  33.066  31.727  1.00  0.00     0.037 C 
ATOM     81  C   UNL A   1      36.536  34.046  32.766  1.00  0.00     0.138 C 
BRANCH  81  82
ATOM     82  C   UNL A   1      37.971  34.579  32.553  1.00  0.00     0.147 C 
BRANCH  82  83
ATOM     83  N   UNL A   1      38.376  34.688  31.156  1.00  0.00    -0.353 N 
ATOM     84  C   UNL A   1      39.535  34.575  30.472  1.00  0.00     0.229 C 
ATOM     85  H   UNL A   1      37.616  34.896  30.566  1.00  0.00     0.163 HD
ATOM     86  O   UNL A   1      39.443  34.837  29.262  1.00  0.00    -0.275 OA
BRANCH  84  87
ATOM     87  C   UNL A   1      40.858  34.032  31.010  1.00  0.00     0.142 C 
ATOM     88  C   UNL A   1      41.975  34.957  31.474  1.00  0.00     0.084 C 
ATOM     89  C   UNL A   1      41.562  33.244  29.876  1.00  0.00     0.195 C 
ATOM     90  C   UNL A   1      43.107  34.655  30.504  1.00  0.00     0.183 C 
ATOM     91  C   UNL A   1      42.674  32.334  30.427  1.00  0.00     0.072 C 
ATOM     92  N   UNL A   1      42.363  34.331  29.283  1.00  0.00    -0.341 N 
ATOM     93  C   UNL A   1      43.766  33.327  30.833  1.00  0.00     0.071 C 
ATOM     94  H   UNL A   1      42.966  34.008  28.526  1.00  0.00     0.346 HD
ATOM     95  H   UNL A   1      41.855  35.092  28.831  1.00  0.00     0.346 HD
ENDBRANCH  84  87
ENDBRANCH  82  83
ENDBRANCH  81  82
ENDBRANCH  75  77
ENDBRANCH  74  75
ENDBRANCH  73  74
ENDBRANCH   1  73
TORSDOF 17
ENDMDL
MODEL 3
REMARK VINA RESULT:     -10.5      4.917      9.798
REMARK SMILES O=C(OCCOC(=O)[C@H]1CC[C@@H](CNC(=O)[C@@H]2C[C@H]3CC[C@@H]2[NH2+]3)O1)c1ccc(-c2c3nc(c(-c4c(F)cc(S(=O)(=O)[O-])cc4F)c4ccc([nH]4)c(-c4c(F)cc(S(=O)(=O)[O-])cc4F)c4nc(c(-c5c(F)cc(S(=O)(=O)[O-])cc5F)c5ccc2[nH]5)C=C4)C=C3)cc1
REMARK SMILES IDX 4 1 3 2 2 3 1 4 25 5 26 6 90 7 27 8 89 9 28 10 29 11 30 12
REMARK SMILES IDX 83 13 31 14 88 15 82 16 84 17 32 18 87 19 81 20 80 21 33 23
REMARK SMILES IDX 67 24 46 25 66 26 47 27 50 28 65 29 85 30 48 31 49 32 64 34
REMARK SMILES IDX 86 35 51 36 34 37 35 38 44 39 36 40 37 41 43 42 45 43 38 44
REMARK SMILES IDX 39 45 40 46 41 47 42 48 68 49 69 50 78 51 70 52 71 53 77 54
REMARK SMILES IDX 79 55 72 56 73 57 74 58 75 59 76 60 52 61 53 62 62 63 54 64
REMARK SMILES IDX 55 65 61 66 63 67 56 68 57 69 58 70 59 71 60 72 5 73 6 74
REMARK SMILES IDX 7 75 8 76 9 77 10 78 24 79 11 80 12 81 13 82 14 83 15 84
REMARK SMILES IDX 16 86 17 87 18 88 22 89 19 90 21 91 23 92 20 93
REMARK H PARENT 84 22 50 33 14 85 23 94 23 95
REMARK Flexibility Score: inf
ROOT
ATOM      1  C   UNL A   1      40.165  22.673  26.704  1.00  0.00     0.275 C 
ENDROOT
BRANCH   1   2
ATOM      2  O   UNL A   1      39.846  24.061  26.430  1.00  0.00    -0.458 OA
BRANCH   2   3
ATOM      3  C   UNL A   1      40.593  25.190  26.535  1.00  0.00     0.338 C 
ATOM      4  O   UNL A   1      41.404  25.452  25.646  1.00  0.00    -0.246 OA
BRANCH   3   5
ATOM      5  C   UNL A   1      40.523  26.097  27.717  1.00  0.00     0.060 A 
ATOM      6  C   UNL A   1      39.530  26.018  28.697  1.00  0.00     0.016 A 
ATOM      7  C   UNL A   1      41.520  27.081  27.845  1.00  0.00     0.016 A 
ATOM      8  C   UNL A   1      39.594  26.801  29.846  1.00  0.00     0.010 A 
ATOM      9  C   UNL A   1      41.553  27.921  28.963  1.00  0.00     0.010 A 
ATOM     10  C   UNL A   1      40.589  27.773  29.968  1.00  0.00    -0.014 A 
BRANCH  10  11
ATOM     11  C   UNL A   1      40.401  28.825  30.983  1.00  0.00     0.031 A 
ATOM     12  C   UNL A   1      41.258  28.711  32.207  1.00  0.00     0.074 A 
ATOM     13  C   UNL A   1      39.553  29.850  30.799  1.00  0.00     0.049 A 
ATOM     14  N   UNL A   1      41.328  29.493  33.247  1.00  0.00    -0.248 NA
ATOM     15  C   UNL A   1      42.178  27.558  32.251  1.00  0.00     0.031 C 
ATOM     16  C   UNL A   1      38.750  30.081  29.601  1.00  0.00     0.029 A 
ATOM     17  N   UNL A   1      39.217  30.889  31.626  1.00  0.00    -0.354 N 
ATOM     18  C   UNL A   1      42.304  28.932  34.060  1.00  0.00     0.074 A 
ATOM     19  C   UNL A   1      42.772  27.729  33.418  1.00  0.00     0.031 C 
ATOM     20  C   UNL A   1      37.964  31.153  29.792  1.00  0.00     0.029 A 
ATOM     21  C   UNL A   1      38.214  31.689  31.127  1.00  0.00     0.049 A 
ATOM     22  H   UNL A   1      39.652  31.050  32.495  1.00  0.00     0.167 HD
ATOM     23  C   UNL A   1      42.768  29.391  35.243  1.00  0.00     0.037 A 
ATOM     24  C   UNL A   1      37.568  32.722  31.700  1.00  0.00     0.037 A 
ATOM     25  C   UNL A   1      42.231  30.558  35.882  1.00  0.00     0.049 A 
ATOM     26  C   UNL A   1      38.025  33.167  33.064  1.00  0.00     0.074 A 
ATOM     27  C   UNL A   1      42.577  31.113  37.097  1.00  0.00     0.029 A 
ATOM     28  N   UNL A   1      41.202  31.331  35.356  1.00  0.00    -0.354 N 
ATOM     29  N   UNL A   1      38.971  32.651  33.818  1.00  0.00    -0.248 NA
ATOM     30  C   UNL A   1      37.356  34.333  33.652  1.00  0.00     0.031 C 
ATOM     31  C   UNL A   1      41.712  32.187  37.334  1.00  0.00     0.029 A 
ATOM     32  C   UNL A   1      40.877  32.346  36.235  1.00  0.00     0.049 A 
ATOM     33  H   UNL A   1      40.767  31.177  34.487  1.00  0.00     0.167 HD
ATOM     34  C   UNL A   1      39.040  33.452  34.950  1.00  0.00     0.074 A 
ATOM     35  C   UNL A   1      38.030  34.481  34.787  1.00  0.00     0.031 C 
ATOM     36  C   UNL A   1      39.870  33.359  36.019  1.00  0.00     0.037 A 
BRANCH  23  37
ATOM     37  C   UNL A   1      43.830  28.568  35.914  1.00  0.00     0.058 A 
ATOM     38  C   UNL A   1      45.199  28.788  35.679  1.00  0.00     0.135 A 
ATOM     39  C   UNL A   1      43.474  27.478  36.722  1.00  0.00     0.135 A 
ATOM     40  F   UNL A   1      45.597  29.795  34.884  1.00  0.00    -0.206 F 
ATOM     41  C   UNL A   1      46.170  27.922  36.170  1.00  0.00     0.059 A 
ATOM     42  C   UNL A   1      44.431  26.618  37.253  1.00  0.00     0.059 A 
ATOM     43  F   UNL A   1      42.181  27.214  36.969  1.00  0.00    -0.206 F 
ATOM     44  C   UNL A   1      45.774  26.831  36.946  1.00  0.00     0.060 A 
BRANCH  44  45
ATOM     45  S   UNL A   1      47.036  25.677  37.522  1.00  0.00     0.124 S 
ATOM     46  O   UNL A   1      47.265  26.154  38.883  1.00  0.00    -0.237 OA
ATOM     47  O   UNL A   1      46.358  24.390  37.409  1.00  0.00    -0.237 OA
ATOM     48  O   UNL A   1      48.139  25.887  36.589  1.00  0.00    -0.744 OA
ENDBRANCH  44  45
ENDBRANCH  23  37
BRANCH  24  49
ATOM     49  C   UNL A   1      36.442  33.381  30.981  1.00  0.00     0.058 A 
ATOM     50  C   UNL A   1      35.118  33.281  31.434  1.00  0.00     0.135 A 
ATOM     51  C   UNL A   1      36.682  34.184  29.853  1.00  0.00     0.135 A 
ATOM     52  F   UNL A   1      34.831  32.523  32.502  1.00  0.00    -0.206 F 
ATOM     53  C   UNL A   1      34.076  33.957  30.801  1.00  0.00     0.059 A 
ATOM     54  C   UNL A   1      35.661  34.885  29.216  1.00  0.00     0.059 A 
ATOM     55  F   UNL A   1      37.932  34.326  29.384  1.00  0.00    -0.206 F 
ATOM     56  C   UNL A   1      34.360  34.766  29.699  1.00  0.00     0.060 A 
BRANCH  56  57
ATOM     57  S   UNL A   1      33.013  35.705  28.942  1.00  0.00     0.124 S 
ATOM     58  O   UNL A   1      33.744  36.728  28.203  1.00  0.00    -0.237 OA
ATOM     59  O   UNL A   1      32.350  34.685  28.135  1.00  0.00    -0.237 OA
ATOM     60  O   UNL A   1      32.248  36.181  30.091  1.00  0.00    -0.744 OA
ENDBRANCH  56  57
ENDBRANCH  24  49
BRANCH  36  61
ATOM     61  C   UNL A   1      39.767  34.417  37.077  1.00  0.00     0.058 A 
ATOM     62  C   UNL A   1      38.989  34.236  38.228  1.00  0.00     0.135 A 
ATOM     63  C   UNL A   1      40.586  35.556  37.000  1.00  0.00     0.135 A 
ATOM     64  F   UNL A   1      38.187  33.166  38.341  1.00  0.00    -0.206 F 
ATOM     65  C   UNL A   1      39.036  35.145  39.279  1.00  0.00     0.059 A 
ATOM     66  C   UNL A   1      40.670  36.461  38.050  1.00  0.00     0.059 A 
ATOM     67  F   UNL A   1      41.356  35.763  35.920  1.00  0.00    -0.206 F 
ATOM     68  C   UNL A   1      39.893  36.244  39.186  1.00  0.00     0.060 A 
BRANCH  68  69
ATOM     69  S   UNL A   1      40.027  37.354  40.603  1.00  0.00     0.124 S 
ATOM     70  O   UNL A   1      41.406  37.126  41.024  1.00  0.00    -0.237 OA
ATOM     71  O   UNL A   1      39.753  38.656  40.004  1.00  0.00    -0.237 OA
ATOM     72  O   UNL A   1      39.002  36.863  41.519  1.00  0.00    -0.744 OA
ENDBRANCH  68  69
ENDBRANCH  36  61
ENDBRANCH  10  11
ENDBRANCH   3   5
ENDBRANCH   2   3
ENDBRANCH   1   2
BRANCH   1  73
ATOM     73  C   UNL A   1      39.235  21.603  26.101  1.00  0.00     0.274 C 
BRANCH  73  74
ATOM     74  O   UNL A   1      38.195  22.202  25.328  1.00  0.00    -0.460 OA
BRANCH  74  75
ATOM     75  C   UNL A   1      36.973  21.589  25.305  1.00  0.00     0.335 C 
ATOM     76  O   UNL A   1      36.719  20.581  24.669  1.00  0.00    -0.249 OA
BRANCH  75  77
ATOM     77  C   UNL A   1      35.987  22.447  26.122  1.00  0.00     0.228 C 
ATOM     78  C   UNL A   1      35.541  23.746  25.473  1.00  0.00     0.047 C 
ATOM     79  O   UNL A   1      34.801  21.737  26.512  1.00  0.00    -0.361 OA
ATOM     80  C   UNL A   1      34.093  23.485  25.137  1.00  0.00     0.037 C 
ATOM     81  C   UNL A   1      33.665  22.585  26.284  1.00  0.00     0.138 C 
BRANCH  81  82
ATOM     82  C   UNL A   1      32.353  21.793  26.082  1.00  0.00     0.147 C 
BRANCH  82  83
ATOM     83  N   UNL A   1      32.209  21.185  24.764  1.00  0.00    -0.353 N 
ATOM     84  C   UNL A   1      32.638  20.050  24.170  1.00  0.00     0.229 C 
ATOM     85  H   UNL A   1      31.665  21.738  24.159  1.00  0.00     0.163 HD
ATOM     86  O   UNL A   1      32.345  19.961  22.966  1.00  0.00    -0.275 OA
BRANCH  84  87
ATOM     87  C   UNL A   1      33.293  18.855  24.859  1.00  0.00     0.142 C 
ATOM     88  C   UNL A   1      34.550  18.199  24.303  1.00  0.00     0.084 C 
ATOM     89  C   UNL A   1      32.294  17.670  24.842  1.00  0.00     0.195 C 
ATOM     90  C   UNL A   1      34.087  16.791  23.957  1.00  0.00     0.183 C 
ATOM     91  C   UNL A   1      32.693  16.580  25.852  1.00  0.00     0.072 C 
ATOM     92  N   UNL A   1      32.692  17.032  23.574  1.00  0.00    -0.341 N 
ATOM     93  C   UNL A   1      33.929  15.947  25.209  1.00  0.00     0.071 C 
ATOM     94  H   UNL A   1      32.179  16.170  23.389  1.00  0.00     0.346 HD
ATOM     95  H   UNL A   1      32.528  17.557  22.715  1.00  0.00     0.346 HD
ENDBRANCH  84  87
ENDBRANCH  82  83
ENDBRANCH  81  82
ENDBRANCH  75  77
ENDBRANCH  74  75
ENDBRANCH  73  74
ENDBRANCH   1  73
TORSDOF 17
ENDMDL
