MODEL 1
REMARK VINA RESULT:     -14.8      0.000      0.000
REMARK SMILES Cc1cccc(N2C(=O)/C(=C/c3ccc(C(=O)OCCOC(=O)c4ccc(-c5c6nc(c(-c7c(F)cc(S(=O)(=O)[O-])cc7F)c7ccc([nH]7)c(-c7c(F)cc(S(=O)(=O)[O-])cc7F)c7nc(c(-c8c(F)cc(S(=O)(=O)[O-])cc8F)c8ccc5[nH]8)C=C7)C=C6)cc4)cc3)c3ccccc3C2=O)c1
REMARK SMILES IDX 20 1 19 2 18 3 16 4 17 5 15 6 12 7 13 8 91 9 14 10 90 11
REMARK SMILES IDX 11 12 7 13 8 14 98 15 9 16 10 17 97 18 99 19 92 20 96 21
REMARK SMILES IDX 93 22 95 23 94 24 6 25 1 26 2 27 3 28 100 29 4 30 5 31 21 32
REMARK SMILES IDX 22 33 23 34 24 35 25 36 89 37 26 38 88 39 27 40 28 41 29 42
REMARK SMILES IDX 82 43 30 44 87 45 81 46 83 47 31 48 86 49 80 50 79 51 32 53
REMARK SMILES IDX 66 54 45 55 65 56 46 57 49 58 64 59 84 60 47 61 48 62 63 64
REMARK SMILES IDX 85 65 50 66 33 67 34 68 43 69 35 70 36 71 42 72 44 73 37 74
REMARK SMILES IDX 38 75 39 76 40 77 41 78 67 79 68 80 77 81 69 82 70 83 76 84
REMARK SMILES IDX 78 85 71 86 72 87 73 88 74 89 75 90 51 91 52 92 61 93 53 94
REMARK SMILES IDX 54 95 60 96 62 97 55 98 56 99 57 100 58 101 59 102
REMARK H PARENT 83 52 49 63
REMARK Flexibility Score: inf
ROOT
ATOM      1  C   UNL A   1      33.700  29.834  26.937  1.00  0.00     0.275 C 
ENDROOT
BRANCH   1   2
ATOM      2  C   UNL A   1      33.283  29.062  25.669  1.00  0.00     0.275 C 
BRANCH   2   3
ATOM      3  O   UNL A   1      31.972  28.493  25.797  1.00  0.00    -0.458 OA
BRANCH   3   4
ATOM      4  C   UNL A   1      31.267  28.477  24.632  1.00  0.00     0.338 C 
ATOM      5  O   UNL A   1      30.884  29.461  24.042  1.00  0.00    -0.246 OA
BRANCH   4   6
ATOM      6  C   UNL A   1      30.951  27.085  24.192  1.00  0.00     0.060 A 
ATOM      7  C   UNL A   1      30.818  24.355  23.617  1.00  0.00    -0.025 A 
ATOM      8  C   UNL A   1      31.074  25.267  22.591  1.00  0.00     0.009 A 
ATOM      9  C   UNL A   1      30.417  24.822  24.875  1.00  0.00     0.009 A 
ATOM     10  C   UNL A   1      31.152  26.633  22.881  1.00  0.00     0.016 A 
ATOM     11  C   UNL A   1      30.508  26.183  25.168  1.00  0.00     0.016 A 
BRANCH   7  12
ATOM     12  C   UNL A   1      31.217  22.951  23.448  1.00  0.00     0.022 C 
ATOM     13  N   UNL A   1      33.360  20.409  24.786  1.00  0.00    -0.242 N 
ATOM     14  C   UNL A   1      32.605  20.983  23.738  1.00  0.00     0.265 C 
ATOM     15  C   UNL A   1      33.837  21.193  25.865  1.00  0.00     0.265 C 
ATOM     16  O   UNL A   1      32.043  20.391  22.817  1.00  0.00    -0.268 OA
ATOM     17  C   UNL A   1      32.424  22.468  23.833  1.00  0.00     0.049 C 
ATOM     18  C   UNL A   1      34.065  22.636  25.609  1.00  0.00     0.048 A 
ATOM     19  O   UNL A   1      34.137  20.808  26.993  1.00  0.00    -0.268 OA
ATOM     20  C   UNL A   1      33.475  23.238  24.507  1.00  0.00    -0.000 A 
ATOM     21  C   UNL A   1      34.899  23.381  26.460  1.00  0.00     0.014 A 
ATOM     22  C   UNL A   1      33.858  24.544  24.166  1.00  0.00     0.010 A 
ATOM     23  C   UNL A   1      35.184  24.715  26.174  1.00  0.00     0.001 A 
ATOM     24  C   UNL A   1      34.685  25.289  25.010  1.00  0.00     0.001 A 
BRANCH  13  25
ATOM     25  C   UNL A   1      33.565  18.958  24.800  1.00  0.00     0.053 A 
ATOM     26  C   UNL A   1      31.737  15.798  25.997  1.00  0.00     0.044 C 
ATOM     27  C   UNL A   1      32.776  16.684  25.376  1.00  0.00    -0.049 A 
ATOM     28  C   UNL A   1      33.922  16.127  24.815  1.00  0.00     0.003 A 
ATOM     29  C   UNL A   1      32.601  18.081  25.340  1.00  0.00     0.030 A 
ATOM     30  C   UNL A   1      34.880  16.955  24.250  1.00  0.00     0.002 A 
ATOM     31  C   UNL A   1      34.705  18.345  24.251  1.00  0.00     0.027 A 
ENDBRANCH  13  25
ENDBRANCH   7  12
ENDBRANCH   4   6
ENDBRANCH   3   4
ENDBRANCH   2   3
ENDBRANCH   1   2
BRANCH   1  32
ATOM     32  O   UNL A   1      34.977  29.520  27.535  1.00  0.00    -0.458 OA
BRANCH  32  33
ATOM     33  C   UNL A   1      35.804  30.571  27.808  1.00  0.00     0.338 C 
ATOM     34  O   UNL A   1      35.429  31.726  27.893  1.00  0.00    -0.246 OA
BRANCH  33  35
ATOM     35  C   UNL A   1      37.095  30.012  28.309  1.00  0.00     0.060 A 
ATOM     36  C   UNL A   1      37.118  29.189  29.446  1.00  0.00     0.016 A 
ATOM     37  C   UNL A   1      38.191  30.047  27.444  1.00  0.00     0.016 A 
ATOM     38  C   UNL A   1      38.187  28.314  29.651  1.00  0.00     0.010 A 
ATOM     39  C   UNL A   1      39.163  29.090  27.561  1.00  0.00     0.010 A 
ATOM     40  C   UNL A   1      39.185  28.244  28.677  1.00  0.00    -0.014 A 
BRANCH  40  41
ATOM     41  C   UNL A   1      40.457  27.554  28.824  1.00  0.00     0.031 A 
ATOM     42  C   UNL A   1      40.694  26.159  28.392  1.00  0.00     0.074 A 
ATOM     43  C   UNL A   1      41.447  28.391  29.210  1.00  0.00     0.049 A 
ATOM     44  N   UNL A   1      41.634  25.410  28.860  1.00  0.00    -0.248 NA
ATOM     45  C   UNL A   1      39.888  25.471  27.389  1.00  0.00     0.031 C 
ATOM     46  C   UNL A   1      42.882  28.203  29.178  1.00  0.00     0.029 A 
ATOM     47  N   UNL A   1      41.302  29.637  29.842  1.00  0.00    -0.354 N 
ATOM     48  C   UNL A   1      41.764  24.317  28.018  1.00  0.00     0.074 A 
ATOM     49  C   UNL A   1      40.570  24.331  27.209  1.00  0.00     0.031 C 
ATOM     50  C   UNL A   1      43.438  29.077  30.039  1.00  0.00     0.029 A 
ATOM     51  C   UNL A   1      42.341  29.719  30.759  1.00  0.00     0.049 A 
ATOM     52  H   UNL A   1      40.607  30.313  29.670  1.00  0.00     0.167 HD
ATOM     53  C   UNL A   1      42.959  23.652  27.972  1.00  0.00     0.037 A 
ATOM     54  C   UNL A   1      42.121  29.642  32.108  1.00  0.00     0.037 A 
ATOM     55  C   UNL A   1      43.903  24.303  28.877  1.00  0.00     0.049 A 
ATOM     56  C   UNL A   1      42.877  28.470  32.686  1.00  0.00     0.074 A 
ATOM     57  C   UNL A   1      44.857  25.276  28.635  1.00  0.00     0.029 A 
ATOM     58  N   UNL A   1      43.711  24.254  30.250  1.00  0.00    -0.354 N 
ATOM     59  N   UNL A   1      43.063  27.341  32.056  1.00  0.00    -0.248 NA
ATOM     60  C   UNL A   1      43.562  28.523  33.972  1.00  0.00     0.031 C 
ATOM     61  C   UNL A   1      45.193  25.870  29.872  1.00  0.00     0.029 A 
ATOM     62  C   UNL A   1      44.449  25.247  30.861  1.00  0.00     0.049 A 
ATOM     63  H   UNL A   1      43.135  23.607  30.718  1.00  0.00     0.167 HD
ATOM     64  C   UNL A   1      43.946  26.573  32.772  1.00  0.00     0.074 A 
ATOM     65  C   UNL A   1      44.200  27.341  33.979  1.00  0.00     0.031 C 
ATOM     66  C   UNL A   1      44.461  25.397  32.304  1.00  0.00     0.037 A 
BRANCH  53  67
ATOM     67  C   UNL A   1      43.428  22.667  26.906  1.00  0.00     0.058 A 
ATOM     68  C   UNL A   1      42.867  21.365  26.845  1.00  0.00     0.135 A 
ATOM     69  C   UNL A   1      44.421  22.912  25.938  1.00  0.00     0.135 A 
ATOM     70  F   UNL A   1      41.841  20.999  27.625  1.00  0.00    -0.206 F 
ATOM     71  C   UNL A   1      43.322  20.365  25.985  1.00  0.00     0.059 A 
ATOM     72  C   UNL A   1      44.910  21.916  25.073  1.00  0.00     0.059 A 
ATOM     73  F   UNL A   1      44.930  24.138  25.760  1.00  0.00    -0.206 F 
ATOM     74  C   UNL A   1      44.366  20.637  25.119  1.00  0.00     0.060 A 
BRANCH  74  75
ATOM     75  S   UNL A   1      44.960  19.306  24.056  1.00  0.00     0.124 S 
ATOM     76  O   UNL A   1      44.360  18.129  24.679  1.00  0.00    -0.237 OA
ATOM     77  O   UNL A   1      44.415  19.681  22.755  1.00  0.00    -0.237 OA
ATOM     78  O   UNL A   1      46.413  19.397  24.175  1.00  0.00    -0.744 OA
ENDBRANCH  74  75
ENDBRANCH  53  67
BRANCH  54  79
ATOM     79  C   UNL A   1      40.776  30.112  32.569  1.00  0.00     0.058 A 
ATOM     80  C   UNL A   1      40.498  31.494  32.517  1.00  0.00     0.135 A 
ATOM     81  C   UNL A   1      39.680  29.250  32.731  1.00  0.00     0.135 A 
ATOM     82  F   UNL A   1      41.502  32.375  32.378  1.00  0.00    -0.206 F 
ATOM     83  C   UNL A   1      39.195  31.987  32.488  1.00  0.00     0.059 A 
ATOM     84  C   UNL A   1      38.362  29.725  32.717  1.00  0.00     0.059 A 
ATOM     85  F   UNL A   1      39.864  27.924  32.803  1.00  0.00    -0.206 F 
ATOM     86  C   UNL A   1      38.131  31.091  32.546  1.00  0.00     0.060 A 
BRANCH  86  87
ATOM     87  S   UNL A   1      36.467  31.729  32.217  1.00  0.00     0.124 S 
ATOM     88  O   UNL A   1      36.668  32.470  30.978  1.00  0.00    -0.237 OA
ATOM     89  O   UNL A   1      35.699  30.492  32.101  1.00  0.00    -0.237 OA
ATOM     90  O   UNL A   1      36.178  32.535  33.399  1.00  0.00    -0.744 OA
ENDBRANCH  86  87
ENDBRANCH  54  79
BRANCH  66  91
ATOM     91  C   UNL A   1      45.178  24.354  33.123  1.00  0.00     0.058 A 
ATOM     92  C   UNL A   1      46.472  24.531  33.637  1.00  0.00     0.135 A 
ATOM     93  C   UNL A   1      44.505  23.182  33.557  1.00  0.00     0.135 A 
ATOM     94  F   UNL A   1      47.166  25.657  33.415  1.00  0.00    -0.206 F 
ATOM     95  C   UNL A   1      47.090  23.579  34.443  1.00  0.00     0.059 A 
ATOM     96  C   UNL A   1      45.080  22.251  34.413  1.00  0.00     0.059 A 
ATOM     97  F   UNL A   1      43.249  22.904  33.180  1.00  0.00    -0.206 F 
ATOM     98  C   UNL A   1      46.389  22.439  34.821  1.00  0.00     0.060 A 
BRANCH  98  99
ATOM     99  S   UNL A   1      47.178  21.223  35.885  1.00  0.00     0.124 S 
ATOM    100  O   UNL A   1      46.945  19.993  35.135  1.00  0.00    -0.237 OA
ATOM    101  O   UNL A   1      48.562  21.684  35.927  1.00  0.00    -0.237 OA
ATOM    102  O   UNL A   1      46.445  21.348  37.141  1.00  0.00    -0.744 OA
ENDBRANCH  98  99
ENDBRANCH  66  91
ENDBRANCH  40  41
ENDBRANCH  33  35
ENDBRANCH  32  33
ENDBRANCH   1  32
TORSDOF 16
ENDMDL
MODEL 2
REMARK VINA RESULT:     -14.7      4.445     11.248
REMARK SMILES Cc1cccc(N2C(=O)/C(=C/c3ccc(C(=O)OCCOC(=O)c4ccc(-c5c6nc(c(-c7c(F)cc(S(=O)(=O)[O-])cc7F)c7ccc([nH]7)c(-c7c(F)cc(S(=O)(=O)[O-])cc7F)c7nc(c(-c8c(F)cc(S(=O)(=O)[O-])cc8F)c8ccc5[nH]8)C=C7)C=C6)cc4)cc3)c3ccccc3C2=O)c1
REMARK SMILES IDX 20 1 19 2 18 3 16 4 17 5 15 6 12 7 13 8 91 9 14 10 90 11
REMARK SMILES IDX 11 12 7 13 8 14 98 15 9 16 10 17 97 18 99 19 92 20 96 21
REMARK SMILES IDX 93 22 95 23 94 24 6 25 1 26 2 27 3 28 100 29 4 30 5 31 21 32
REMARK SMILES IDX 22 33 23 34 24 35 25 36 89 37 26 38 88 39 27 40 28 41 29 42
REMARK SMILES IDX 82 43 30 44 87 45 81 46 83 47 31 48 86 49 80 50 79 51 32 53
REMARK SMILES IDX 66 54 45 55 65 56 46 57 49 58 64 59 84 60 47 61 48 62 63 64
REMARK SMILES IDX 85 65 50 66 33 67 34 68 43 69 35 70 36 71 42 72 44 73 37 74
REMARK SMILES IDX 38 75 39 76 40 77 41 78 67 79 68 80 77 81 69 82 70 83 76 84
REMARK SMILES IDX 78 85 71 86 72 87 73 88 74 89 75 90 51 91 52 92 61 93 53 94
REMARK SMILES IDX 54 95 60 96 62 97 55 98 56 99 57 100 58 101 59 102
REMARK H PARENT 83 52 49 63
REMARK Flexibility Score: inf
ROOT
ATOM      1  C   UNL A   1      37.528  22.935  25.783  1.00  0.00     0.275 C 
ENDROOT
BRANCH   1   2
ATOM      2  C   UNL A   1      36.015  23.152  25.582  1.00  0.00     0.275 C 
BRANCH   2   3
ATOM      3  O   UNL A   1      35.499  22.360  24.503  1.00  0.00    -0.458 OA
BRANCH   3   4
ATOM      4  C   UNL A   1      34.410  21.617  24.842  1.00  0.00     0.338 C 
ATOM      5  O   UNL A   1      34.450  20.541  25.391  1.00  0.00    -0.246 OA
BRANCH   4   6
ATOM      6  C   UNL A   1      33.137  22.257  24.389  1.00  0.00     0.060 A 
ATOM      7  C   UNL A   1      31.011  23.912  23.656  1.00  0.00    -0.025 A 
ATOM      8  C   UNL A   1      30.914  23.128  24.808  1.00  0.00     0.009 A 
ATOM      9  C   UNL A   1      32.071  23.705  22.765  1.00  0.00     0.009 A 
ATOM     10  C   UNL A   1      31.983  22.308  25.181  1.00  0.00     0.016 A 
ATOM     11  C   UNL A   1      33.144  22.898  23.143  1.00  0.00     0.016 A 
BRANCH   7  12
ATOM     12  C   UNL A   1      30.161  25.103  23.523  1.00  0.00     0.022 C 
ATOM     13  N   UNL A   1      30.264  28.682  23.361  1.00  0.00    -0.242 N 
ATOM     14  C   UNL A   1      29.604  27.461  23.632  1.00  0.00     0.265 C 
ATOM     15  C   UNL A   1      31.678  28.774  23.374  1.00  0.00     0.265 C 
ATOM     16  O   UNL A   1      28.399  27.231  23.536  1.00  0.00    -0.268 OA
ATOM     17  C   UNL A   1      30.510  26.324  23.997  1.00  0.00     0.049 C 
ATOM     18  C   UNL A   1      32.414  27.807  24.224  1.00  0.00     0.048 A 
ATOM     19  O   UNL A   1      32.378  29.603  22.797  1.00  0.00    -0.268 OA
ATOM     20  C   UNL A   1      31.779  26.652  24.657  1.00  0.00    -0.000 A 
ATOM     21  C   UNL A   1      33.737  28.075  24.614  1.00  0.00     0.014 A 
ATOM     22  C   UNL A   1      32.416  25.851  25.617  1.00  0.00     0.010 A 
ATOM     23  C   UNL A   1      34.403  27.211  25.482  1.00  0.00     0.001 A 
ATOM     24  C   UNL A   1      33.731  26.112  26.006  1.00  0.00     0.001 A 
BRANCH  13  25
ATOM     25  C   UNL A   1      29.468  29.845  22.963  1.00  0.00     0.053 A 
ATOM     26  C   UNL A   1      27.876  31.301  19.783  1.00  0.00     0.044 C 
ATOM     27  C   UNL A   1      28.278  31.138  21.220  1.00  0.00    -0.049 A 
ATOM     28  C   UNL A   1      27.890  32.085  22.163  1.00  0.00     0.003 A 
ATOM     29  C   UNL A   1      29.035  30.024  21.632  1.00  0.00     0.030 A 
ATOM     30  C   UNL A   1      28.273  31.929  23.487  1.00  0.00     0.002 A 
ATOM     31  C   UNL A   1      29.053  30.832  23.875  1.00  0.00     0.027 A 
ENDBRANCH  13  25
ENDBRANCH   7  12
ENDBRANCH   4   6
ENDBRANCH   3   4
ENDBRANCH   2   3
ENDBRANCH   1   2
BRANCH   1  32
ATOM     32  O   UNL A   1      38.344  24.083  26.101  1.00  0.00    -0.458 OA
BRANCH  32  33
ATOM     33  C   UNL A   1      39.431  23.865  26.897  1.00  0.00     0.338 C 
ATOM     34  O   UNL A   1      40.080  22.834  26.893  1.00  0.00    -0.246 OA
BRANCH  33  35
ATOM     35  C   UNL A   1      39.852  25.182  27.460  1.00  0.00     0.060 A 
ATOM     36  C   UNL A   1      40.281  26.212  26.608  1.00  0.00     0.016 A 
ATOM     37  C   UNL A   1      39.489  25.465  28.779  1.00  0.00     0.016 A 
ATOM     38  C   UNL A   1      40.233  27.540  27.042  1.00  0.00     0.010 A 
ATOM     39  C   UNL A   1      39.300  26.768  29.152  1.00  0.00     0.010 A 
ATOM     40  C   UNL A   1      39.699  27.808  28.304  1.00  0.00    -0.014 A 
BRANCH  40  41
ATOM     41  C   UNL A   1      39.764  29.089  28.989  1.00  0.00     0.031 A 
ATOM     42  C   UNL A   1      38.695  30.111  28.934  1.00  0.00     0.074 A 
ATOM     43  C   UNL A   1      40.813  29.157  29.841  1.00  0.00     0.049 A 
ATOM     44  N   UNL A   1      38.883  31.364  29.171  1.00  0.00    -0.248 NA
ATOM     45  C   UNL A   1      37.306  29.815  28.600  1.00  0.00     0.031 C 
ATOM     46  C   UNL A   1      41.072  30.090  30.917  1.00  0.00     0.029 A 
ATOM     47  N   UNL A   1      41.976  28.370  29.813  1.00  0.00    -0.354 N 
ATOM     48  C   UNL A   1      37.641  31.953  29.349  1.00  0.00     0.074 A 
ATOM     49  C   UNL A   1      36.699  30.985  28.846  1.00  0.00     0.031 C 
ATOM     50  C   UNL A   1      42.391  30.056  31.192  1.00  0.00     0.029 A 
ATOM     51  C   UNL A   1      43.015  29.218  30.171  1.00  0.00     0.049 A 
ATOM     52  H   UNL A   1      42.041  27.414  29.587  1.00  0.00     0.167 HD
ATOM     53  C   UNL A   1      37.551  33.104  30.084  1.00  0.00     0.037 A 
ATOM     54  C   UNL A   1      43.952  29.634  29.264  1.00  0.00     0.037 A 
ATOM     55  C   UNL A   1      38.881  33.470  30.564  1.00  0.00     0.049 A 
ATOM     56  C   UNL A   1      43.933  31.140  29.158  1.00  0.00     0.074 A 
ATOM     57  C   UNL A   1      39.513  33.190  31.764  1.00  0.00     0.029 A 
ATOM     58  N   UNL A   1      39.860  33.888  29.676  1.00  0.00    -0.354 N 
ATOM     59  N   UNL A   1      42.849  31.863  29.255  1.00  0.00    -0.248 NA
ATOM     60  C   UNL A   1      45.144  31.943  29.035  1.00  0.00     0.031 C 
ATOM     61  C   UNL A   1      40.900  33.377  31.575  1.00  0.00     0.029 A 
ATOM     62  C   UNL A   1      41.104  33.778  30.266  1.00  0.00     0.049 A 
ATOM     63  H   UNL A   1      39.694  34.216  28.763  1.00  0.00     0.167 HD
ATOM     64  C   UNL A   1      43.203  33.187  29.311  1.00  0.00     0.074 A 
ATOM     65  C   UNL A   1      44.645  33.187  29.134  1.00  0.00     0.031 C 
ATOM     66  C   UNL A   1      42.307  34.187  29.566  1.00  0.00     0.037 A 
BRANCH  53  67
ATOM     67  C   UNL A   1      36.291  33.722  30.681  1.00  0.00     0.058 A 
ATOM     68  C   UNL A   1      35.266  34.210  29.829  1.00  0.00     0.135 A 
ATOM     69  C   UNL A   1      36.026  33.889  32.053  1.00  0.00     0.135 A 
ATOM     70  F   UNL A   1      35.310  34.041  28.500  1.00  0.00    -0.206 F 
ATOM     71  C   UNL A   1      34.142  34.898  30.285  1.00  0.00     0.059 A 
ATOM     72  C   UNL A   1      34.909  34.596  32.538  1.00  0.00     0.059 A 
ATOM     73  F   UNL A   1      36.815  33.338  32.985  1.00  0.00    -0.206 F 
ATOM     74  C   UNL A   1      33.982  35.114  31.642  1.00  0.00     0.060 A 
BRANCH  74  75
ATOM     75  S   UNL A   1      32.541  36.050  32.191  1.00  0.00     0.124 S 
ATOM     76  O   UNL A   1      32.200  36.814  30.994  1.00  0.00    -0.237 OA
ATOM     77  O   UNL A   1      31.603  34.991  32.554  1.00  0.00    -0.237 OA
ATOM     78  O   UNL A   1      33.052  36.841  33.307  1.00  0.00    -0.744 OA
ENDBRANCH  74  75
ENDBRANCH  53  67
BRANCH  54  79
ATOM     79  C   UNL A   1      44.211  28.694  28.128  1.00  0.00     0.058 A 
ATOM     80  C   UNL A   1      44.871  27.478  28.404  1.00  0.00     0.135 A 
ATOM     81  C   UNL A   1      43.555  28.791  26.891  1.00  0.00     0.135 A 
ATOM     82  F   UNL A   1      45.530  27.322  29.564  1.00  0.00    -0.206 F 
ATOM     83  C   UNL A   1      44.771  26.372  27.563  1.00  0.00     0.059 A 
ATOM     84  C   UNL A   1      43.452  27.696  26.023  1.00  0.00     0.059 A 
ATOM     85  F   UNL A   1      42.916  29.920  26.549  1.00  0.00    -0.206 F 
ATOM     86  C   UNL A   1      44.023  26.478  26.393  1.00  0.00     0.060 A 
BRANCH  86  87
ATOM     87  S   UNL A   1      43.672  24.956  25.472  1.00  0.00     0.124 S 
ATOM     88  O   UNL A   1      42.551  25.364  24.634  1.00  0.00    -0.237 OA
ATOM     89  O   UNL A   1      44.939  24.738  24.777  1.00  0.00    -0.237 OA
ATOM     90  O   UNL A   1      43.363  23.992  26.523  1.00  0.00    -0.744 OA
ENDBRANCH  86  87
ENDBRANCH  54  79
BRANCH  66  91
ATOM     91  C   UNL A   1      42.537  35.661  29.346  1.00  0.00     0.058 A 
ATOM     92  C   UNL A   1      43.403  36.434  30.136  1.00  0.00     0.135 A 
ATOM     93  C   UNL A   1      42.000  36.319  28.208  1.00  0.00     0.135 A 
ATOM     94  F   UNL A   1      44.081  35.899  31.161  1.00  0.00    -0.206 F 
ATOM     95  C   UNL A   1      43.646  37.780  29.875  1.00  0.00     0.059 A 
ATOM     96  C   UNL A   1      42.283  37.642  27.894  1.00  0.00     0.059 A 
ATOM     97  F   UNL A   1      41.192  35.691  27.342  1.00  0.00    -0.206 F 
ATOM     98  C   UNL A   1      43.077  38.378  28.756  1.00  0.00     0.060 A 
BRANCH  98  99
ATOM     99  S   UNL A   1      43.415  40.108  28.404  1.00  0.00     0.124 S 
ATOM    100  O   UNL A   1      44.677  40.302  29.109  1.00  0.00    -0.237 OA
ATOM    101  O   UNL A   1      43.498  40.129  26.946  1.00  0.00    -0.237 OA
ATOM    102  O   UNL A   1      42.260  40.799  28.968  1.00  0.00    -0.744 OA
ENDBRANCH  98  99
ENDBRANCH  66  91
ENDBRANCH  40  41
ENDBRANCH  33  35
ENDBRANCH  32  33
ENDBRANCH   1  32
TORSDOF 16
ENDMDL
MODEL 3
REMARK VINA RESULT:     -14.3      4.760     11.512
REMARK SMILES Cc1cccc(N2C(=O)/C(=C/c3ccc(C(=O)OCCOC(=O)c4ccc(-c5c6nc(c(-c7c(F)cc(S(=O)(=O)[O-])cc7F)c7ccc([nH]7)c(-c7c(F)cc(S(=O)(=O)[O-])cc7F)c7nc(c(-c8c(F)cc(S(=O)(=O)[O-])cc8F)c8ccc5[nH]8)C=C7)C=C6)cc4)cc3)c3ccccc3C2=O)c1
REMARK SMILES IDX 20 1 19 2 18 3 16 4 17 5 15 6 12 7 13 8 91 9 14 10 90 11
REMARK SMILES IDX 11 12 7 13 8 14 98 15 9 16 10 17 97 18 99 19 92 20 96 21
REMARK SMILES IDX 93 22 95 23 94 24 6 25 1 26 2 27 3 28 100 29 4 30 5 31 21 32
REMARK SMILES IDX 22 33 23 34 24 35 25 36 89 37 26 38 88 39 27 40 28 41 29 42
REMARK SMILES IDX 82 43 30 44 87 45 81 46 83 47 31 48 86 49 80 50 79 51 32 53
REMARK SMILES IDX 66 54 45 55 65 56 46 57 49 58 64 59 84 60 47 61 48 62 63 64
REMARK SMILES IDX 85 65 50 66 33 67 34 68 43 69 35 70 36 71 42 72 44 73 37 74
REMARK SMILES IDX 38 75 39 76 40 77 41 78 67 79 68 80 77 81 69 82 70 83 76 84
REMARK SMILES IDX 78 85 71 86 72 87 73 88 74 89 75 90 51 91 52 92 61 93 53 94
REMARK SMILES IDX 54 95 60 96 62 97 55 98 56 99 57 100 58 101 59 102
REMARK H PARENT 83 52 49 63
REMARK Flexibility Score: inf
ROOT
ATOM      1  C   UNL A   1      40.539  22.071  27.649  1.00  0.00     0.275 C 
ENDROOT
BRANCH   1   2
ATOM      2  C   UNL A   1      40.108  21.132  26.504  1.00  0.00     0.275 C 
BRANCH   2   3
ATOM      3  O   UNL A   1      39.245  21.792  25.567  1.00  0.00    -0.458 OA
BRANCH   3   4
ATOM      4  C   UNL A   1      38.160  21.052  25.208  1.00  0.00     0.338 C 
ATOM      5  O   UNL A   1      38.176  19.864  24.981  1.00  0.00    -0.246 OA
BRANCH   4   6
ATOM      6  C   UNL A   1      36.937  21.897  25.056  1.00  0.00     0.060 A 
ATOM      7  C   UNL A   1      34.982  23.822  24.531  1.00  0.00    -0.025 A 
ATOM      8  C   UNL A   1      35.398  23.597  25.845  1.00  0.00     0.009 A 
ATOM      9  C   UNL A   1      35.383  22.942  23.517  1.00  0.00     0.009 A 
ATOM     10  C   UNL A   1      36.384  22.641  26.106  1.00  0.00     0.016 A 
ATOM     11  C   UNL A   1      36.377  21.998  23.775  1.00  0.00     0.016 A 
BRANCH   7  12
ATOM     12  C   UNL A   1      34.356  25.105  24.185  1.00  0.00     0.022 C 
ATOM     13  N   UNL A   1      31.566  27.222  24.950  1.00  0.00    -0.242 N 
ATOM     14  C   UNL A   1      32.587  26.762  24.086  1.00  0.00     0.265 C 
ATOM     15  C   UNL A   1      31.070  26.411  26.001  1.00  0.00     0.265 C 
ATOM     16  O   UNL A   1      33.175  27.410  23.221  1.00  0.00    -0.268 OA
ATOM     17  C   UNL A   1      33.031  25.352  24.332  1.00  0.00     0.049 C 
ATOM     18  C   UNL A   1      31.171  24.941  25.832  1.00  0.00     0.048 A 
ATOM     19  O   UNL A   1      30.511  26.782  27.031  1.00  0.00    -0.268 OA
ATOM     20  C   UNL A   1      32.047  24.417  24.891  1.00  0.00    -0.000 A 
ATOM     21  C   UNL A   1      30.362  24.085  26.598  1.00  0.00     0.014 A 
ATOM     22  C   UNL A   1      31.986  23.046  24.603  1.00  0.00     0.010 A 
ATOM     23  C   UNL A   1      30.392  22.708  26.382  1.00  0.00     0.001 A 
ATOM     24  C   UNL A   1      31.186  22.191  25.363  1.00  0.00     0.001 A 
BRANCH  13  25
ATOM     25  C   UNL A   1      31.087  28.599  24.812  1.00  0.00     0.053 A 
ATOM     26  C   UNL A   1      31.520  31.994  26.558  1.00  0.00     0.044 C 
ATOM     27  C   UNL A   1      31.063  30.951  25.580  1.00  0.00    -0.049 A 
ATOM     28  C   UNL A   1      30.194  31.297  24.549  1.00  0.00     0.003 A 
ATOM     29  C   UNL A   1      31.516  29.621  25.684  1.00  0.00     0.030 A 
ATOM     30  C   UNL A   1      29.772  30.324  23.655  1.00  0.00     0.002 A 
ATOM     31  C   UNL A   1      30.206  28.999  23.791  1.00  0.00     0.027 A 
ENDBRANCH  13  25
ENDBRANCH   7  12
ENDBRANCH   4   6
ENDBRANCH   3   4
ENDBRANCH   2   3
ENDBRANCH   1   2
BRANCH   1  32
ATOM     32  O   UNL A   1      40.046  23.429  27.637  1.00  0.00    -0.458 OA
BRANCH  32  33
ATOM     33  C   UNL A   1      40.857  24.374  27.080  1.00  0.00     0.338 C 
ATOM     34  O   UNL A   1      41.588  24.165  26.128  1.00  0.00    -0.246 OA
BRANCH  33  35
ATOM     35  C   UNL A   1      40.421  25.706  27.595  1.00  0.00     0.060 A 
ATOM     36  C   UNL A   1      39.728  25.804  28.811  1.00  0.00     0.016 A 
ATOM     37  C   UNL A   1      41.008  26.839  27.025  1.00  0.00     0.016 A 
ATOM     38  C   UNL A   1      39.724  27.011  29.515  1.00  0.00     0.010 A 
ATOM     39  C   UNL A   1      41.131  27.975  27.780  1.00  0.00     0.010 A 
ATOM     40  C   UNL A   1      40.466  28.079  29.008  1.00  0.00    -0.014 A 
BRANCH  40  41
ATOM     41  C   UNL A   1      40.407  29.449  29.491  1.00  0.00     0.031 A 
ATOM     42  C   UNL A   1      39.233  30.334  29.326  1.00  0.00     0.074 A 
ATOM     43  C   UNL A   1      41.461  29.754  30.283  1.00  0.00     0.049 A 
ATOM     44  N   UNL A   1      39.289  31.621  29.366  1.00  0.00    -0.248 NA
ATOM     45  C   UNL A   1      37.877  29.848  29.094  1.00  0.00     0.031 C 
ATOM     46  C   UNL A   1      41.643  30.862  31.196  1.00  0.00     0.029 A 
ATOM     47  N   UNL A   1      42.702  29.096  30.328  1.00  0.00    -0.354 N 
ATOM     48  C   UNL A   1      37.996  32.099  29.503  1.00  0.00     0.074 A 
ATOM     49  C   UNL A   1      37.152  30.973  29.186  1.00  0.00     0.031 C 
ATOM     50  C   UNL A   1      42.963  31.007  31.422  1.00  0.00     0.029 A 
ATOM     51  C   UNL A   1      43.651  30.093  30.514  1.00  0.00     0.049 A 
ATOM     52  H   UNL A   1      42.866  28.129  30.244  1.00  0.00     0.167 HD
ATOM     53  C   UNL A   1      37.798  33.333  30.061  1.00  0.00     0.037 A 
ATOM     54  C   UNL A   1      44.517  30.461  29.520  1.00  0.00     0.037 A 
ATOM     55  C   UNL A   1      39.091  33.903  30.430  1.00  0.00     0.049 A 
ATOM     56  C   UNL A   1      44.332  31.922  29.192  1.00  0.00     0.074 A 
ATOM     57  C   UNL A   1      39.776  33.877  31.632  1.00  0.00     0.029 A 
ATOM     58  N   UNL A   1      39.999  34.281  29.452  1.00  0.00    -0.354 N 
ATOM     59  N   UNL A   1      43.179  32.536  29.222  1.00  0.00    -0.248 NA
ATOM     60  C   UNL A   1      45.446  32.818  28.903  1.00  0.00     0.031 C 
ATOM     61  C   UNL A   1      41.131  34.175  31.364  1.00  0.00     0.029 A 
ATOM     62  C   UNL A   1      41.261  34.391  30.002  1.00  0.00     0.049 A 
ATOM     63  H   UNL A   1      39.778  34.446  28.507  1.00  0.00     0.167 HD
ATOM     64  C   UNL A   1      43.389  33.882  29.066  1.00  0.00     0.074 A 
ATOM     65  C   UNL A   1      44.818  34.004  28.835  1.00  0.00     0.031 C 
ATOM     66  C   UNL A   1      42.396  34.811  29.204  1.00  0.00     0.037 A 
BRANCH  53  67
ATOM     67  C   UNL A   1      36.492  33.900  30.607  1.00  0.00     0.058 A 
ATOM     68  C   UNL A   1      35.465  34.307  29.716  1.00  0.00     0.135 A 
ATOM     69  C   UNL A   1      36.184  34.096  31.967  1.00  0.00     0.135 A 
ATOM     70  F   UNL A   1      35.552  34.099  28.395  1.00  0.00    -0.206 F 
ATOM     71  C   UNL A   1      34.295  34.947  30.123  1.00  0.00     0.059 A 
ATOM     72  C   UNL A   1      35.020  34.756  32.402  1.00  0.00     0.059 A 
ATOM     73  F   UNL A   1      36.977  33.617  32.935  1.00  0.00    -0.206 F 
ATOM     74  C   UNL A   1      34.089  35.196  31.468  1.00  0.00     0.060 A 
BRANCH  74  75
ATOM     75  S   UNL A   1      32.587  36.070  31.953  1.00  0.00     0.124 S 
ATOM     76  O   UNL A   1      33.093  37.017  32.943  1.00  0.00    -0.237 OA
ATOM     77  O   UNL A   1      32.145  36.651  30.689  1.00  0.00    -0.237 OA
ATOM     78  O   UNL A   1      31.735  35.012  32.487  1.00  0.00    -0.744 OA
ENDBRANCH  74  75
ENDBRANCH  53  67
BRANCH  54  79
ATOM     79  C   UNL A   1      44.850  29.390  28.527  1.00  0.00     0.058 A 
ATOM     80  C   UNL A   1      44.296  29.482  27.233  1.00  0.00     0.135 A 
ATOM     81  C   UNL A   1      45.924  28.501  28.694  1.00  0.00     0.135 A 
ATOM     82  F   UNL A   1      43.258  30.303  27.007  1.00  0.00    -0.206 F 
ATOM     83  C   UNL A   1      44.861  28.835  26.137  1.00  0.00     0.059 A 
ATOM     84  C   UNL A   1      46.500  27.830  27.608  1.00  0.00     0.059 A 
ATOM     85  F   UNL A   1      46.497  28.347  29.897  1.00  0.00    -0.206 F 
ATOM     86  C   UNL A   1      45.989  28.043  26.327  1.00  0.00     0.060 A 
BRANCH  86  87
ATOM     87  S   UNL A   1      46.867  27.452  24.854  1.00  0.00     0.124 S 
ATOM     88  O   UNL A   1      46.120  26.245  24.523  1.00  0.00    -0.237 OA
ATOM     89  O   UNL A   1      46.693  28.578  23.940  1.00  0.00    -0.237 OA
ATOM     90  O   UNL A   1      48.229  27.244  25.337  1.00  0.00    -0.744 OA
ENDBRANCH  86  87
ENDBRANCH  54  79
BRANCH  66  91
ATOM     91  C   UNL A   1      42.460  36.250  28.758  1.00  0.00     0.058 A 
ATOM     92  C   UNL A   1      43.059  37.268  29.516  1.00  0.00     0.135 A 
ATOM     93  C   UNL A   1      42.050  36.626  27.451  1.00  0.00     0.135 A 
ATOM     94  F   UNL A   1      43.611  37.017  30.713  1.00  0.00    -0.206 F 
ATOM     95  C   UNL A   1      43.161  38.578  29.056  1.00  0.00     0.059 A 
ATOM     96  C   UNL A   1      42.202  37.912  26.949  1.00  0.00     0.059 A 
ATOM     97  F   UNL A   1      41.501  35.746  26.601  1.00  0.00    -0.206 F 
ATOM     98  C   UNL A   1      42.725  38.892  27.774  1.00  0.00     0.060 A 
BRANCH  98  99
ATOM     99  S   UNL A   1      42.883  40.579  27.170  1.00  0.00     0.124 S 
ATOM    100  O   UNL A   1      43.803  40.397  26.053  1.00  0.00    -0.237 OA
ATOM    101  O   UNL A   1      41.510  40.919  26.807  1.00  0.00    -0.237 OA
ATOM    102  O   UNL A   1      43.416  41.300  28.321  1.00  0.00    -0.744 OA
ENDBRANCH  98  99
ENDBRANCH  66  91
ENDBRANCH  40  41
ENDBRANCH  33  35
ENDBRANCH  32  33
ENDBRANCH   1  32
TORSDOF 16
ENDMDL
