MODEL 1
REMARK VINA RESULT:      -9.8      0.000      0.000
REMARK SMILES Cc1ncnc(OCCC(=O)OCCOC(=O)c2ccc(-c3c4nc(c(-c5c(F)cc(S(=O)(=O)[O-])cc5F)c5ccc([nH]5)c(-c5c(F)cc(S(=O)(=O)[O-])cc5F)c5nc(c(-c6c(F)cc(S(=O)(=O)[O-])cc6F)c6ccc3[nH]6)C=C5)C=C4)cc2)c1C
REMARK SMILES IDX 13 1 12 2 10 3 11 4 9 5 8 6 7 7 6 8 1 9 2 10 3 11 84 12 4 13
REMARK SMILES IDX 85 14 5 15 14 16 15 17 16 18 17 19 18 20 19 21 83 22 20 23
REMARK SMILES IDX 82 24 21 25 22 26 23 27 76 28 24 29 81 30 75 31 77 32 25 33
REMARK SMILES IDX 80 34 74 35 73 36 26 38 60 39 39 40 59 41 40 42 43 43 58 44
REMARK SMILES IDX 78 45 41 46 42 47 57 49 79 50 44 51 27 52 28 53 37 54 29 55
REMARK SMILES IDX 30 56 36 57 38 58 31 59 32 60 33 61 34 62 35 63 61 64 62 65
REMARK SMILES IDX 71 66 63 67 64 68 70 69 72 70 65 71 66 72 67 73 68 74 69 75
REMARK SMILES IDX 45 76 46 77 55 78 47 79 48 80 54 81 56 82 49 83 50 84 51 85
REMARK SMILES IDX 52 86 53 87
REMARK H PARENT 77 37 43 48
REMARK Flexibility Score: inf
ROOT
ATOM      1  C   UNL A   1      33.766  34.220  28.351  1.00  0.00     0.274 C 
ENDROOT
BRANCH   1   2
ATOM      2  O   UNL A   1      33.404  34.555  29.703  1.00  0.00    -0.462 OA
BRANCH   2   3
ATOM      3  C   UNL A   1      32.962  35.814  29.930  1.00  0.00     0.309 C 
ATOM      4  O   UNL A   1      32.881  36.693  29.081  1.00  0.00    -0.252 OA
BRANCH   3   5
ATOM      5  C   UNL A   1      32.654  36.055  31.386  1.00  0.00     0.164 C 
BRANCH   5   6
ATOM      6  C   UNL A   1      33.800  35.735  32.334  1.00  0.00     0.243 C 
BRANCH   6   7
ATOM      7  O   UNL A   1      33.653  34.525  33.084  1.00  0.00    -0.477 OA
BRANCH   7   8
ATOM      8  C   UNL A   1      34.784  33.887  33.507  1.00  0.00     0.219 A 
ATOM      9  C   UNL A   1      37.312  31.161  32.891  1.00  0.00     0.067 C 
ATOM     10  C   UNL A   1      36.493  32.271  33.489  1.00  0.00     0.047 A 
ATOM     11  N   UNL A   1      36.957  32.741  34.668  1.00  0.00    -0.241 NA
ATOM     12  C   UNL A   1      35.361  32.795  32.863  1.00  0.00     0.032 A 
ATOM     13  C   UNL A   1      36.271  33.745  35.224  1.00  0.00     0.226 A 
ATOM     14  C   UNL A   1      34.817  32.219  31.595  1.00  0.00     0.052 C 
ATOM     15  N   UNL A   1      35.205  34.351  34.699  1.00  0.00    -0.202 NA
ENDBRANCH   7   8
ENDBRANCH   6   7
ENDBRANCH   5   6
ENDBRANCH   3   5
ENDBRANCH   2   3
ENDBRANCH   1   2
BRANCH   1  16
ATOM     16  C   UNL A   1      33.377  32.784  28.029  1.00  0.00     0.275 C 
BRANCH  16  17
ATOM     17  O   UNL A   1      34.542  32.052  27.624  1.00  0.00    -0.458 OA
BRANCH  17  18
ATOM     18  C   UNL A   1      34.472  30.710  27.742  1.00  0.00     0.338 C 
ATOM     19  O   UNL A   1      33.467  30.013  27.693  1.00  0.00    -0.246 OA
BRANCH  18  20
ATOM     20  C   UNL A   1      35.813  30.180  28.038  1.00  0.00     0.060 A 
ATOM     21  C   UNL A   1      36.824  30.163  27.071  1.00  0.00     0.016 A 
ATOM     22  C   UNL A   1      36.054  29.706  29.330  1.00  0.00     0.016 A 
ATOM     23  C   UNL A   1      38.090  29.688  27.409  1.00  0.00     0.010 A 
ATOM     24  C   UNL A   1      37.332  29.278  29.678  1.00  0.00     0.010 A 
ATOM     25  C   UNL A   1      38.358  29.277  28.723  1.00  0.00    -0.014 A 
BRANCH  25  26
ATOM     26  C   UNL A   1      39.736  28.938  29.143  1.00  0.00     0.031 A 
ATOM     27  C   UNL A   1      40.572  29.939  29.882  1.00  0.00     0.074 A 
ATOM     28  C   UNL A   1      40.228  27.735  28.788  1.00  0.00     0.049 A 
ATOM     29  N   UNL A   1      41.818  29.850  30.264  1.00  0.00    -0.248 NA
ATOM     30  C   UNL A   1      39.927  31.217  30.225  1.00  0.00     0.031 C 
ATOM     31  C   UNL A   1      39.483  26.711  28.048  1.00  0.00     0.029 A 
ATOM     32  N   UNL A   1      41.457  27.166  28.992  1.00  0.00    -0.354 N 
ATOM     33  C   UNL A   1      42.111  31.055  30.891  1.00  0.00     0.074 A 
ATOM     34  C   UNL A   1      40.921  31.874  30.809  1.00  0.00     0.031 C 
ATOM     35  C   UNL A   1      40.262  25.632  27.882  1.00  0.00     0.029 A 
ATOM     36  C   UNL A   1      41.572  25.901  28.462  1.00  0.00     0.049 A 
ATOM     37  H   UNL A   1      42.189  27.619  29.470  1.00  0.00     0.167 HD
ATOM     38  C   UNL A   1      43.268  31.429  31.486  1.00  0.00     0.037 A 
ATOM     39  C   UNL A   1      42.622  25.059  28.441  1.00  0.00     0.037 A 
ATOM     40  C   UNL A   1      44.438  30.588  31.540  1.00  0.00     0.049 A 
ATOM     41  C   UNL A   1      43.904  25.509  29.083  1.00  0.00     0.074 A 
ATOM     42  C   UNL A   1      45.664  30.851  32.121  1.00  0.00     0.029 A 
ATOM     43  N   UNL A   1      44.522  29.317  30.983  1.00  0.00    -0.354 N 
ATOM     44  N   UNL A   1      44.158  26.643  29.694  1.00  0.00    -0.248 NA
ATOM     45  C   UNL A   1      45.041  24.584  29.024  1.00  0.00     0.031 C 
ATOM     46  C   UNL A   1      46.501  29.755  31.884  1.00  0.00     0.029 A 
ATOM     47  C   UNL A   1      45.785  28.791  31.189  1.00  0.00     0.049 A 
ATOM     48  H   UNL A   1      43.789  28.858  30.512  1.00  0.00     0.167 HD
ATOM     49  C   UNL A   1      45.484  26.569  30.096  1.00  0.00     0.074 A 
ATOM     50  C   UNL A   1      45.972  25.269  29.676  1.00  0.00     0.031 C 
ATOM     51  C   UNL A   1      46.235  27.494  30.745  1.00  0.00     0.037 A 
BRANCH  38  52
ATOM     52  C   UNL A   1      43.326  32.794  32.116  1.00  0.00     0.058 A 
ATOM     53  C   UNL A   1      42.935  33.004  33.449  1.00  0.00     0.135 A 
ATOM     54  C   UNL A   1      43.804  33.902  31.398  1.00  0.00     0.135 A 
ATOM     55  F   UNL A   1      42.456  31.985  34.180  1.00  0.00    -0.206 F 
ATOM     56  C   UNL A   1      42.992  34.264  34.038  1.00  0.00     0.059 A 
ATOM     57  C   UNL A   1      43.891  35.168  31.973  1.00  0.00     0.059 A 
ATOM     58  F   UNL A   1      44.190  33.762  30.119  1.00  0.00    -0.206 F 
ATOM     59  C   UNL A   1      43.471  35.341  33.290  1.00  0.00     0.060 A 
BRANCH  59  60
ATOM     60  S   UNL A   1      43.529  36.970  34.069  1.00  0.00     0.124 S 
ATOM     61  O   UNL A   1      43.619  37.847  32.906  1.00  0.00    -0.237 OA
ATOM     62  O   UNL A   1      42.266  37.012  34.799  1.00  0.00    -0.237 OA
ATOM     63  O   UNL A   1      44.728  36.909  34.901  1.00  0.00    -0.744 OA
ENDBRANCH  59  60
ENDBRANCH  38  52
BRANCH  39  64
ATOM     64  C   UNL A   1      42.481  23.719  27.814  1.00  0.00     0.058 A 
ATOM     65  C   UNL A   1      42.561  23.565  26.422  1.00  0.00     0.135 A 
ATOM     66  C   UNL A   1      42.342  22.556  28.590  1.00  0.00     0.135 A 
ATOM     67  F   UNL A   1      42.689  24.645  25.636  1.00  0.00    -0.206 F 
ATOM     68  C   UNL A   1      42.519  22.311  25.822  1.00  0.00     0.059 A 
ATOM     69  C   UNL A   1      42.319  21.288  28.015  1.00  0.00     0.059 A 
ATOM     70  F   UNL A   1      42.277  22.645  29.928  1.00  0.00    -0.206 F 
ATOM     71  C   UNL A   1      42.407  21.176  26.628  1.00  0.00     0.060 A 
BRANCH  71  72
ATOM     72  S   UNL A   1      42.438  19.549  25.842  1.00  0.00     0.124 S 
ATOM     73  O   UNL A   1      43.424  19.750  24.787  1.00  0.00    -0.237 OA
ATOM     74  O   UNL A   1      42.850  18.684  26.945  1.00  0.00    -0.237 OA
ATOM     75  O   UNL A   1      41.061  19.365  25.394  1.00  0.00    -0.744 OA
ENDBRANCH  71  72
ENDBRANCH  39  64
BRANCH  51  76
ATOM     76  C   UNL A   1      47.665  27.137  31.024  1.00  0.00     0.058 A 
ATOM     77  C   UNL A   1      48.020  26.421  32.176  1.00  0.00     0.135 A 
ATOM     78  C   UNL A   1      48.669  27.430  30.088  1.00  0.00     0.135 A 
ATOM     79  F   UNL A   1      47.093  26.129  33.103  1.00  0.00    -0.206 F 
ATOM     80  C   UNL A   1      49.327  26.004  32.392  1.00  0.00     0.059 A 
ATOM     81  C   UNL A   1      49.979  27.004  30.275  1.00  0.00     0.059 A 
ATOM     82  F   UNL A   1      48.373  28.108  28.968  1.00  0.00    -0.206 F 
ATOM     83  C   UNL A   1      50.298  26.292  31.430  1.00  0.00     0.060 A 
BRANCH  83  84
ATOM     84  S   UNL A   1      51.975  25.677  31.691  1.00  0.00     0.124 S 
ATOM     85  O   UNL A   1      51.747  24.241  31.806  1.00  0.00    -0.237 OA
ATOM     86  O   UNL A   1      52.658  26.116  30.477  1.00  0.00    -0.237 OA
ATOM     87  O   UNL A   1      52.396  26.348  32.918  1.00  0.00    -0.744 OA
ENDBRANCH  83  84
ENDBRANCH  51  76
ENDBRANCH  25  26
ENDBRANCH  18  20
ENDBRANCH  17  18
ENDBRANCH  16  17
ENDBRANCH   1  16
TORSDOF 17
ENDMDL
MODEL 2
REMARK VINA RESULT:      -9.7      3.133      4.061
REMARK SMILES Cc1ncnc(OCCC(=O)OCCOC(=O)c2ccc(-c3c4nc(c(-c5c(F)cc(S(=O)(=O)[O-])cc5F)c5ccc([nH]5)c(-c5c(F)cc(S(=O)(=O)[O-])cc5F)c5nc(c(-c6c(F)cc(S(=O)(=O)[O-])cc6F)c6ccc3[nH]6)C=C5)C=C4)cc2)c1C
REMARK SMILES IDX 13 1 12 2 10 3 11 4 9 5 8 6 7 7 6 8 1 9 2 10 3 11 84 12 4 13
REMARK SMILES IDX 85 14 5 15 14 16 15 17 16 18 17 19 18 20 19 21 83 22 20 23
REMARK SMILES IDX 82 24 21 25 22 26 23 27 76 28 24 29 81 30 75 31 77 32 25 33
REMARK SMILES IDX 80 34 74 35 73 36 26 38 60 39 39 40 59 41 40 42 43 43 58 44
REMARK SMILES IDX 78 45 41 46 42 47 57 49 79 50 44 51 27 52 28 53 37 54 29 55
REMARK SMILES IDX 30 56 36 57 38 58 31 59 32 60 33 61 34 62 35 63 61 64 62 65
REMARK SMILES IDX 71 66 63 67 64 68 70 69 72 70 65 71 66 72 67 73 68 74 69 75
REMARK SMILES IDX 45 76 46 77 55 78 47 79 48 80 54 81 56 82 49 83 50 84 51 85
REMARK SMILES IDX 52 86 53 87
REMARK H PARENT 77 37 43 48
REMARK Flexibility Score: inf
ROOT
ATOM      1  C   UNL A   1      33.586  31.431  27.709  1.00  0.00     0.274 C 
ENDROOT
BRANCH   1   2
ATOM      2  O   UNL A   1      34.253  32.701  27.839  1.00  0.00    -0.462 OA
BRANCH   2   3
ATOM      3  C   UNL A   1      33.471  33.794  27.996  1.00  0.00     0.309 C 
ATOM      4  O   UNL A   1      32.268  33.837  27.767  1.00  0.00    -0.252 OA
BRANCH   3   5
ATOM      5  C   UNL A   1      34.266  35.007  28.408  1.00  0.00     0.164 C 
BRANCH   5   6
ATOM      6  C   UNL A   1      33.867  35.596  29.753  1.00  0.00     0.243 C 
BRANCH   6   7
ATOM      7  O   UNL A   1      33.228  34.685  30.653  1.00  0.00    -0.477 OA
BRANCH   7   8
ATOM      8  C   UNL A   1      33.996  34.070  31.602  1.00  0.00     0.219 A 
ATOM      9  C   UNL A   1      35.657  34.295  34.977  1.00  0.00     0.067 C 
ATOM     10  C   UNL A   1      35.211  33.869  33.606  1.00  0.00     0.047 A 
ATOM     11  N   UNL A   1      35.641  32.644  33.229  1.00  0.00    -0.241 NA
ATOM     12  C   UNL A   1      34.395  34.663  32.797  1.00  0.00     0.032 A 
ATOM     13  C   UNL A   1      35.248  32.218  32.023  1.00  0.00     0.226 A 
ATOM     14  C   UNL A   1      33.986  36.045  33.196  1.00  0.00     0.052 C 
ATOM     15  N   UNL A   1      34.438  32.868  31.187  1.00  0.00    -0.202 NA
ENDBRANCH   7   8
ENDBRANCH   6   7
ENDBRANCH   5   6
ENDBRANCH   3   5
ENDBRANCH   2   3
ENDBRANCH   1   2
BRANCH   1  16
ATOM     16  C   UNL A   1      34.597  30.312  27.501  1.00  0.00     0.275 C 
BRANCH  16  17
ATOM     17  O   UNL A   1      35.864  30.703  28.048  1.00  0.00    -0.458 OA
BRANCH  17  18
ATOM     18  C   UNL A   1      36.319  29.966  29.081  1.00  0.00     0.338 C 
ATOM     19  O   UNL A   1      35.681  29.568  30.046  1.00  0.00    -0.246 OA
BRANCH  18  20
ATOM     20  C   UNL A   1      37.770  29.767  28.930  1.00  0.00     0.060 A 
ATOM     21  C   UNL A   1      38.611  29.629  30.039  1.00  0.00     0.016 A 
ATOM     22  C   UNL A   1      38.285  29.702  27.632  1.00  0.00     0.016 A 
ATOM     23  C   UNL A   1      39.973  29.401  29.846  1.00  0.00     0.010 A 
ATOM     24  C   UNL A   1      39.636  29.427  27.442  1.00  0.00     0.010 A 
ATOM     25  C   UNL A   1      40.484  29.265  28.546  1.00  0.00    -0.014 A 
BRANCH  25  26
ATOM     26  C   UNL A   1      41.887  28.850  28.327  1.00  0.00     0.031 A 
ATOM     27  C   UNL A   1      42.997  29.856  28.404  1.00  0.00     0.074 A 
ATOM     28  C   UNL A   1      42.123  27.565  27.999  1.00  0.00     0.049 A 
ATOM     29  N   UNL A   1      44.271  29.695  28.170  1.00  0.00    -0.248 NA
ATOM     30  C   UNL A   1      42.622  31.229  28.781  1.00  0.00     0.031 C 
ATOM     31  C   UNL A   1      41.093  26.528  27.882  1.00  0.00     0.029 A 
ATOM     32  N   UNL A   1      43.288  26.908  27.701  1.00  0.00    -0.354 N 
ATOM     33  C   UNL A   1      44.855  30.940  28.368  1.00  0.00     0.074 A 
ATOM     34  C   UNL A   1      43.788  31.857  28.709  1.00  0.00     0.031 C 
ATOM     35  C   UNL A   1      41.675  25.363  27.562  1.00  0.00     0.029 A 
ATOM     36  C   UNL A   1      43.108  25.576  27.408  1.00  0.00     0.049 A 
ATOM     37  H   UNL A   1      44.169  27.347  27.695  1.00  0.00     0.167 HD
ATOM     38  C   UNL A   1      46.164  31.275  28.280  1.00  0.00     0.037 A 
ATOM     39  C   UNL A   1      44.002  24.637  27.045  1.00  0.00     0.037 A 
ATOM     40  C   UNL A   1      47.198  30.336  27.927  1.00  0.00     0.049 A 
ATOM     41  C   UNL A   1      45.444  25.040  26.926  1.00  0.00     0.074 A 
ATOM     42  C   UNL A   1      48.559  30.551  27.813  1.00  0.00     0.029 A 
ATOM     43  N   UNL A   1      46.979  28.996  27.626  1.00  0.00    -0.354 N 
ATOM     44  N   UNL A   1      45.984  26.217  27.142  1.00  0.00    -0.248 NA
ATOM     45  C   UNL A   1      46.395  24.005  26.505  1.00  0.00     0.031 C 
ATOM     46  C   UNL A   1      49.157  29.353  27.408  1.00  0.00     0.029 A 
ATOM     47  C   UNL A   1      48.175  28.378  27.307  1.00  0.00     0.049 A 
ATOM     48  H   UNL A   1      46.100  28.553  27.638  1.00  0.00     0.167 HD
ATOM     49  C   UNL A   1      47.340  26.067  26.884  1.00  0.00     0.074 A 
ATOM     50  C   UNL A   1      47.540  24.677  26.518  1.00  0.00     0.031 C 
ATOM     51  C   UNL A   1      48.330  26.992  26.937  1.00  0.00     0.037 A 
BRANCH  38  52
ATOM     52  C   UNL A   1      46.545  32.703  28.563  1.00  0.00     0.058 A 
ATOM     53  C   UNL A   1      46.652  33.652  27.532  1.00  0.00     0.135 A 
ATOM     54  C   UNL A   1      46.777  33.142  29.876  1.00  0.00     0.135 A 
ATOM     55  F   UNL A   1      46.455  33.286  26.255  1.00  0.00    -0.206 F 
ATOM     56  C   UNL A   1      46.998  34.975  27.790  1.00  0.00     0.059 A 
ATOM     57  C   UNL A   1      47.104  34.467  30.161  1.00  0.00     0.059 A 
ATOM     58  F   UNL A   1      46.692  32.280  30.902  1.00  0.00    -0.206 F 
ATOM     59  C   UNL A   1      47.225  35.373  29.109  1.00  0.00     0.060 A 
BRANCH  59  60
ATOM     60  S   UNL A   1      47.681  37.092  29.421  1.00  0.00     0.124 S 
ATOM     61  O   UNL A   1      48.464  36.968  30.648  1.00  0.00    -0.237 OA
ATOM     62  O   UNL A   1      48.436  37.438  28.221  1.00  0.00    -0.237 OA
ATOM     63  O   UNL A   1      46.395  37.767  29.565  1.00  0.00    -0.744 OA
ENDBRANCH  59  60
ENDBRANCH  38  52
BRANCH  39  64
ATOM     64  C   UNL A   1      43.549  23.242  26.800  1.00  0.00     0.058 A 
ATOM     65  C   UNL A   1      43.537  22.709  25.503  1.00  0.00     0.135 A 
ATOM     66  C   UNL A   1      43.195  22.389  27.859  1.00  0.00     0.135 A 
ATOM     67  F   UNL A   1      43.862  23.485  24.458  1.00  0.00    -0.206 F 
ATOM     68  C   UNL A   1      43.200  21.381  25.263  1.00  0.00     0.059 A 
ATOM     69  C   UNL A   1      42.875  21.050  27.646  1.00  0.00     0.059 A 
ATOM     70  F   UNL A   1      43.205  22.844  29.122  1.00  0.00    -0.206 F 
ATOM     71  C   UNL A   1      42.880  20.556  26.343  1.00  0.00     0.060 A 
BRANCH  71  72
ATOM     72  S   UNL A   1      42.526  18.812  26.025  1.00  0.00     0.124 S 
ATOM     73  O   UNL A   1      43.463  18.512  24.949  1.00  0.00    -0.237 OA
ATOM     74  O   UNL A   1      42.821  18.200  27.318  1.00  0.00    -0.237 OA
ATOM     75  O   UNL A   1      41.115  18.817  25.652  1.00  0.00    -0.744 OA
ENDBRANCH  71  72
ENDBRANCH  39  64
BRANCH  51  76
ATOM     76  C   UNL A   1      49.711  26.535  26.574  1.00  0.00     0.058 A 
ATOM     77  C   UNL A   1      50.598  26.065  27.553  1.00  0.00     0.135 A 
ATOM     78  C   UNL A   1      50.114  26.477  25.230  1.00  0.00     0.135 A 
ATOM     79  F   UNL A   1      50.258  26.112  28.852  1.00  0.00    -0.206 F 
ATOM     80  C   UNL A   1      51.842  25.550  27.213  1.00  0.00     0.059 A 
ATOM     81  C   UNL A   1      51.346  25.947  24.866  1.00  0.00     0.059 A 
ATOM     82  F   UNL A   1      49.295  26.910  24.259  1.00  0.00    -0.206 F 
ATOM     83  C   UNL A   1      52.203  25.485  25.865  1.00  0.00     0.060 A 
BRANCH  83  84
ATOM     84  S   UNL A   1      53.792  24.744  25.435  1.00  0.00     0.124 S 
ATOM     85  O   UNL A   1      54.517  24.851  26.696  1.00  0.00    -0.237 OA
ATOM     86  O   UNL A   1      53.406  23.393  25.038  1.00  0.00    -0.237 OA
ATOM     87  O   UNL A   1      54.282  25.594  24.354  1.00  0.00    -0.744 OA
ENDBRANCH  83  84
ENDBRANCH  51  76
ENDBRANCH  25  26
ENDBRANCH  18  20
ENDBRANCH  17  18
ENDBRANCH  16  17
ENDBRANCH   1  16
TORSDOF 17
ENDMDL
MODEL 3
REMARK VINA RESULT:      -9.6      5.083     11.998
REMARK SMILES Cc1ncnc(OCCC(=O)OCCOC(=O)c2ccc(-c3c4nc(c(-c5c(F)cc(S(=O)(=O)[O-])cc5F)c5ccc([nH]5)c(-c5c(F)cc(S(=O)(=O)[O-])cc5F)c5nc(c(-c6c(F)cc(S(=O)(=O)[O-])cc6F)c6ccc3[nH]6)C=C5)C=C4)cc2)c1C
REMARK SMILES IDX 13 1 12 2 10 3 11 4 9 5 8 6 7 7 6 8 1 9 2 10 3 11 84 12 4 13
REMARK SMILES IDX 85 14 5 15 14 16 15 17 16 18 17 19 18 20 19 21 83 22 20 23
REMARK SMILES IDX 82 24 21 25 22 26 23 27 76 28 24 29 81 30 75 31 77 32 25 33
REMARK SMILES IDX 80 34 74 35 73 36 26 38 60 39 39 40 59 41 40 42 43 43 58 44
REMARK SMILES IDX 78 45 41 46 42 47 57 49 79 50 44 51 27 52 28 53 37 54 29 55
REMARK SMILES IDX 30 56 36 57 38 58 31 59 32 60 33 61 34 62 35 63 61 64 62 65
REMARK SMILES IDX 71 66 63 67 64 68 70 69 72 70 65 71 66 72 67 73 68 74 69 75
REMARK SMILES IDX 45 76 46 77 55 78 47 79 48 80 54 81 56 82 49 83 50 84 51 85
REMARK SMILES IDX 52 86 53 87
REMARK H PARENT 77 37 43 48
REMARK Flexibility Score: inf
ROOT
ATOM      1  C   UNL A   1      40.037  21.905  26.810  1.00  0.00     0.274 C 
ENDROOT
BRANCH   1   2
ATOM      2  O   UNL A   1      38.985  21.970  25.829  1.00  0.00    -0.462 OA
BRANCH   2   3
ATOM      3  C   UNL A   1      38.161  23.042  25.878  1.00  0.00     0.309 C 
ATOM      4  O   UNL A   1      38.149  23.878  26.774  1.00  0.00    -0.252 OA
BRANCH   3   5
ATOM      5  C   UNL A   1      37.177  23.055  24.736  1.00  0.00     0.164 C 
BRANCH   5   6
ATOM      6  C   UNL A   1      36.517  21.713  24.457  1.00  0.00     0.243 C 
BRANCH   6   7
ATOM      7  O   UNL A   1      35.763  21.165  25.542  1.00  0.00    -0.477 OA
BRANCH   7   8
ATOM      8  C   UNL A   1      34.414  21.022  25.382  1.00  0.00     0.219 A 
ATOM      9  C   UNL A   1      30.983  22.501  25.877  1.00  0.00     0.067 C 
ATOM     10  C   UNL A   1      32.139  21.586  25.580  1.00  0.00     0.047 A 
ATOM     11  N   UNL A   1      31.791  20.393  25.049  1.00  0.00    -0.241 NA
ATOM     12  C   UNL A   1      33.467  21.950  25.808  1.00  0.00     0.032 A 
ATOM     13  C   UNL A   1      32.792  19.557  24.750  1.00  0.00     0.226 A 
ATOM     14  C   UNL A   1      33.835  23.243  26.463  1.00  0.00     0.052 C 
ATOM     15  N   UNL A   1      34.094  19.812  24.883  1.00  0.00    -0.202 NA
ENDBRANCH   7   8
ENDBRANCH   6   7
ENDBRANCH   5   6
ENDBRANCH   3   5
ENDBRANCH   2   3
ENDBRANCH   1   2
BRANCH   1  16
ATOM     16  C   UNL A   1      41.339  22.452  26.240  1.00  0.00     0.275 C 
BRANCH  16  17
ATOM     17  O   UNL A   1      41.821  23.511  27.078  1.00  0.00    -0.458 OA
BRANCH  17  18
ATOM     18  C   UNL A   1      41.891  24.733  26.511  1.00  0.00     0.338 C 
ATOM     19  O   UNL A   1      42.250  25.003  25.373  1.00  0.00    -0.246 OA
BRANCH  18  20
ATOM     20  C   UNL A   1      41.545  25.751  27.515  1.00  0.00     0.060 A 
ATOM     21  C   UNL A   1      40.486  25.569  28.411  1.00  0.00     0.016 A 
ATOM     22  C   UNL A   1      42.322  26.912  27.559  1.00  0.00     0.016 A 
ATOM     23  C   UNL A   1      40.220  26.543  29.371  1.00  0.00     0.010 A 
ATOM     24  C   UNL A   1      42.086  27.861  28.548  1.00  0.00     0.010 A 
ATOM     25  C   UNL A   1      41.042  27.678  29.466  1.00  0.00    -0.014 A 
BRANCH  25  26
ATOM     26  C   UNL A   1      40.885  28.633  30.585  1.00  0.00     0.031 A 
ATOM     27  C   UNL A   1      41.753  28.523  31.803  1.00  0.00     0.074 A 
ATOM     28  C   UNL A   1      39.907  29.555  30.497  1.00  0.00     0.049 A 
ATOM     29  N   UNL A   1      41.712  29.219  32.907  1.00  0.00    -0.248 NA
ATOM     30  C   UNL A   1      42.795  27.484  31.783  1.00  0.00     0.031 C 
ATOM     31  C   UNL A   1      39.005  29.713  29.351  1.00  0.00     0.029 A 
ATOM     32  N   UNL A   1      39.501  30.526  31.373  1.00  0.00    -0.354 N 
ATOM     33  C   UNL A   1      42.718  28.706  33.717  1.00  0.00     0.074 A 
ATOM     34  C   UNL A   1      43.332  27.616  32.989  1.00  0.00     0.031 C 
ATOM     35  C   UNL A   1      38.170  30.735  29.586  1.00  0.00     0.029 A 
ATOM     36  C   UNL A   1      38.444  31.277  30.911  1.00  0.00     0.049 A 
ATOM     37  H   UNL A   1      39.923  30.673  32.251  1.00  0.00     0.167 HD
ATOM     38  C   UNL A   1      43.093  29.121  34.950  1.00  0.00     0.037 A 
ATOM     39  C   UNL A   1      37.768  32.282  31.498  1.00  0.00     0.037 A 
ATOM     40  C   UNL A   1      42.451  30.205  35.649  1.00  0.00     0.049 A 
ATOM     41  C   UNL A   1      38.185  32.704  32.878  1.00  0.00     0.074 A 
ATOM     42  C   UNL A   1      42.745  30.723  36.897  1.00  0.00     0.029 A 
ATOM     43  N   UNL A   1      41.376  30.936  35.155  1.00  0.00    -0.354 N 
ATOM     44  N   UNL A   1      39.156  32.226  33.621  1.00  0.00    -0.248 NA
ATOM     45  C   UNL A   1      37.417  33.785  33.507  1.00  0.00     0.031 C 
ATOM     46  C   UNL A   1      41.826  31.742  37.172  1.00  0.00     0.029 A 
ATOM     47  C   UNL A   1      40.982  31.886  36.080  1.00  0.00     0.049 A 
ATOM     48  H   UNL A   1      40.957  30.797  34.275  1.00  0.00     0.167 HD
ATOM     49  C   UNL A   1      39.119  32.947  34.806  1.00  0.00     0.074 A 
ATOM     50  C   UNL A   1      38.042  33.910  34.671  1.00  0.00     0.031 C 
ATOM     51  C   UNL A   1      39.897  32.821  35.910  1.00  0.00     0.037 A 
BRANCH  38  52
ATOM     52  C   UNL A   1      44.237  28.403  35.616  1.00  0.00     0.058 A 
ATOM     53  C   UNL A   1      45.557  28.869  35.507  1.00  0.00     0.135 A 
ATOM     54  C   UNL A   1      44.014  27.258  36.397  1.00  0.00     0.135 A 
ATOM     55  F   UNL A   1      45.832  29.951  34.761  1.00  0.00    -0.206 F 
ATOM     56  C   UNL A   1      46.617  28.212  36.127  1.00  0.00     0.059 A 
ATOM     57  C   UNL A   1      45.056  26.596  37.044  1.00  0.00     0.059 A 
ATOM     58  F   UNL A   1      42.772  26.766  36.536  1.00  0.00    -0.206 F 
ATOM     59  C   UNL A   1      46.356  27.074  36.892  1.00  0.00     0.060 A 
BRANCH  59  60
ATOM     60  S   UNL A   1      47.746  26.232  37.681  1.00  0.00     0.124 S 
ATOM     61  O   UNL A   1      48.642  26.024  36.547  1.00  0.00    -0.237 OA
ATOM     62  O   UNL A   1      48.187  27.214  38.666  1.00  0.00    -0.237 OA
ATOM     63  O   UNL A   1      47.144  25.022  38.232  1.00  0.00    -0.744 OA
ENDBRANCH  59  60
ENDBRANCH  38  52
BRANCH  39  64
ATOM     64  C   UNL A   1      36.661  32.953  30.767  1.00  0.00     0.058 A 
ATOM     65  C   UNL A   1      35.325  32.743  31.139  1.00  0.00     0.135 A 
ATOM     66  C   UNL A   1      36.914  33.875  29.739  1.00  0.00     0.135 A 
ATOM     67  F   UNL A   1      35.031  31.867  32.113  1.00  0.00    -0.206 F 
ATOM     68  C   UNL A   1      34.280  33.427  30.526  1.00  0.00     0.059 A 
ATOM     69  C   UNL A   1      35.887  34.588  29.125  1.00  0.00     0.059 A 
ATOM     70  F   UNL A   1      38.176  34.126  29.355  1.00  0.00    -0.206 F 
ATOM     71  C   UNL A   1      34.573  34.356  29.525  1.00  0.00     0.060 A 
BRANCH  71  72
ATOM     72  S   UNL A   1      33.214  35.299  28.796  1.00  0.00     0.124 S 
ATOM     73  O   UNL A   1      32.523  35.787  29.983  1.00  0.00    -0.237 OA
ATOM     74  O   UNL A   1      33.926  36.304  28.012  1.00  0.00    -0.237 OA
ATOM     75  O   UNL A   1      32.493  34.300  28.012  1.00  0.00    -0.744 OA
ENDBRANCH  71  72
ENDBRANCH  39  64
BRANCH  51  76
ATOM     76  C   UNL A   1      39.598  33.734  37.062  1.00  0.00     0.058 A 
ATOM     77  C   UNL A   1      38.763  33.324  38.112  1.00  0.00     0.135 A 
ATOM     78  C   UNL A   1      40.225  34.986  37.163  1.00  0.00     0.135 A 
ATOM     79  F   UNL A   1      38.134  32.139  38.052  1.00  0.00    -0.206 F 
ATOM     80  C   UNL A   1      38.559  34.126  39.227  1.00  0.00     0.059 A 
ATOM     81  C   UNL A   1      40.051  35.795  38.279  1.00  0.00     0.059 A 
ATOM     82  F   UNL A   1      41.037  35.416  36.185  1.00  0.00    -0.206 F 
ATOM     83  C   UNL A   1      39.216  35.356  39.307  1.00  0.00     0.060 A 
BRANCH  83  84
ATOM     84  S   UNL A   1      38.999  36.352  40.796  1.00  0.00     0.124 S 
ATOM     85  O   UNL A   1      38.632  37.646  40.234  1.00  0.00    -0.237 OA
ATOM     86  O   UNL A   1      37.934  35.638  41.495  1.00  0.00    -0.237 OA
ATOM     87  O   UNL A   1      40.310  36.293  41.438  1.00  0.00    -0.744 OA
ENDBRANCH  83  84
ENDBRANCH  51  76
ENDBRANCH  25  26
ENDBRANCH  18  20
ENDBRANCH  17  18
ENDBRANCH  16  17
ENDBRANCH   1  16
TORSDOF 17
ENDMDL
