MODEL 1
REMARK VINA RESULT:     -12.2      0.000      0.000
REMARK SMILES COc1ccc([C@H]2CC(c3ccc(S(C)(=O)=O)cc3)=NN2c2ccc(C(=O)OCCOC(=O)c3ccc(-c4c5nc(c(-c6c(F)cc(S(=O)(=O)[O-])cc6F)c6ccc([nH]6)c(-c6c(F)cc(S(=O)(=O)[O-])cc6F)c6nc(c(-c7c(F)cc(S(=O)(=O)[O-])cc7F)c7ccc4[nH]7)C=C6)C=C5)cc3)cc2)cc1OC
REMARK SMILES IDX 29 1 28 2 26 3 27 4 25 5 22 6 23 7 101 8 24 9 100 10 21 11
REMARK SMILES IDX 7 12 8 13 9 14 20 15 6 16 3 17 4 18 103 19 5 20 102 21 2 22
REMARK SMILES IDX 1 23 104 24 105 25 10 26 11 27 19 28 12 29 18 30 13 31 14 32
REMARK SMILES IDX 15 33 16 34 17 35 30 36 31 37 32 38 33 39 34 40 35 41 99 42
REMARK SMILES IDX 36 43 98 44 37 45 38 46 39 47 92 48 40 49 97 50 91 51 93 52
REMARK SMILES IDX 41 53 96 54 90 55 89 56 42 58 76 59 55 60 75 61 56 62 59 63
REMARK SMILES IDX 74 64 94 65 57 66 58 67 73 69 95 70 60 71 43 72 44 73 53 74
REMARK SMILES IDX 45 75 46 76 52 77 54 78 47 79 48 80 49 81 50 82 51 83 77 84
REMARK SMILES IDX 78 85 87 86 79 87 80 88 86 89 88 90 81 91 82 92 83 93 84 94
REMARK SMILES IDX 85 95 61 96 62 97 71 98 63 99 64 100 70 101 72 102 65 103
REMARK SMILES IDX 66 104 67 105 68 106 69 107
REMARK H PARENT 93 57 59 68
REMARK Flexibility Score: inf
ROOT
ATOM      1  C   UNL A   1      35.779  31.323  29.306  1.00  0.00     0.275 C 
ENDROOT
BRANCH   1   2
ATOM      2  O   UNL A   1      35.445  30.317  28.327  1.00  0.00    -0.458 OA
BRANCH   2   3
ATOM      3  C   UNL A   1      34.298  30.544  27.642  1.00  0.00     0.338 C 
ATOM      4  O   UNL A   1      33.883  31.628  27.259  1.00  0.00    -0.246 OA
BRANCH   3   5
ATOM      5  C   UNL A   1      33.595  29.279  27.341  1.00  0.00     0.060 A 
ATOM      6  C   UNL A   1      32.263  26.942  26.503  1.00  0.00     0.060 A 
ATOM      7  C   UNL A   1      33.611  27.146  26.200  1.00  0.00     0.029 A 
ATOM      8  C   UNL A   1      31.600  27.916  27.265  1.00  0.00     0.029 A 
ATOM      9  C   UNL A   1      34.256  28.317  26.576  1.00  0.00     0.018 A 
ATOM     10  C   UNL A   1      32.265  29.071  27.707  1.00  0.00     0.018 A 
BRANCH   6  11
ATOM     11  N   UNL A   1      31.618  25.811  26.019  1.00  0.00    -0.257 N 
ATOM     12  C   UNL A   1      30.325  25.849  25.334  1.00  0.00     0.144 C 
ATOM     13  C   UNL A   1      30.221  24.440  24.732  1.00  0.00     0.091 C 
ATOM     14  C   UNL A   1      31.582  23.900  25.072  1.00  0.00     0.071 C 
ATOM     15  N   UNL A   1      32.334  24.675  25.786  1.00  0.00    -0.176 NA
BRANCH  12  16
ATOM     16  C   UNL A   1      30.212  26.938  24.272  1.00  0.00    -0.019 A 
ATOM     17  C   UNL A   1      29.978  28.880  22.234  1.00  0.00     0.160 A 
ATOM     18  C   UNL A   1      28.835  28.304  22.804  1.00  0.00     0.051 A 
ATOM     19  C   UNL A   1      31.247  28.528  22.704  1.00  0.00     0.161 A 
ATOM     20  C   UNL A   1      28.951  27.335  23.806  1.00  0.00     0.010 A 
ATOM     21  C   UNL A   1      31.346  27.567  23.725  1.00  0.00     0.056 A 
BRANCH  17  22
ATOM     22  O   UNL A   1      29.805  29.856  21.289  1.00  0.00    -0.493 OA
ATOM     23  C   UNL A   1      28.512  30.455  21.376  1.00  0.00     0.278 C 
ENDBRANCH  17  22
BRANCH  19  24
ATOM     24  O   UNL A   1      32.467  28.997  22.301  1.00  0.00    -0.493 OA
ATOM     25  C   UNL A   1      33.593  28.136  22.381  1.00  0.00     0.278 C 
ENDBRANCH  19  24
ENDBRANCH  12  16
BRANCH  14  26
ATOM     26  C   UNL A   1      31.972  22.536  24.693  1.00  0.00    -0.002 A 
ATOM     27  C   UNL A   1      32.396  21.664  25.702  1.00  0.00     0.011 A 
ATOM     28  C   UNL A   1      31.875  22.103  23.368  1.00  0.00     0.011 A 
ATOM     29  C   UNL A   1      32.675  20.332  25.395  1.00  0.00     0.021 A 
ATOM     30  C   UNL A   1      32.179  20.776  23.053  1.00  0.00     0.021 A 
ATOM     31  C   UNL A   1      32.562  19.895  24.071  1.00  0.00     0.067 A 
BRANCH  31  32
ATOM     32  S   UNL A   1      32.821  18.172  23.709  1.00  0.00     0.175 S 
ATOM     33  C   UNL A   1      34.499  17.859  24.191  1.00  0.00     0.163 C 
ATOM     34  O   UNL A   1      31.941  17.430  24.593  1.00  0.00    -0.224 OA
ATOM     35  O   UNL A   1      32.728  18.007  22.271  1.00  0.00    -0.224 OA
ENDBRANCH  31  32
ENDBRANCH  14  26
ENDBRANCH   6  11
ENDBRANCH   3   5
ENDBRANCH   2   3
ENDBRANCH   1   2
BRANCH   1  36
ATOM     36  C   UNL A   1      36.119  30.707  30.663  1.00  0.00     0.275 C 
BRANCH  36  37
ATOM     37  O   UNL A   1      36.764  31.675  31.511  1.00  0.00    -0.458 OA
BRANCH  37  38
ATOM     38  C   UNL A   1      37.800  31.206  32.242  1.00  0.00     0.338 C 
ATOM     39  O   UNL A   1      37.922  31.236  33.455  1.00  0.00    -0.246 OA
BRANCH  38  40
ATOM     40  C   UNL A   1      38.818  30.602  31.364  1.00  0.00     0.060 A 
ATOM     41  C   UNL A   1      39.655  29.617  31.874  1.00  0.00     0.016 A 
ATOM     42  C   UNL A   1      39.069  31.141  30.105  1.00  0.00     0.016 A 
ATOM     43  C   UNL A   1      40.835  29.289  31.209  1.00  0.00     0.010 A 
ATOM     44  C   UNL A   1      40.177  30.698  29.372  1.00  0.00     0.010 A 
ATOM     45  C   UNL A   1      41.112  29.811  29.936  1.00  0.00    -0.014 A 
BRANCH  45  46
ATOM     46  C   UNL A   1      42.378  29.460  29.217  1.00  0.00     0.031 A 
ATOM     47  C   UNL A   1      42.555  28.087  28.608  1.00  0.00     0.074 A 
ATOM     48  C   UNL A   1      43.375  30.364  29.096  1.00  0.00     0.049 A 
ATOM     49  N   UNL A   1      43.641  27.520  28.140  1.00  0.00    -0.248 NA
ATOM     50  C   UNL A   1      41.361  27.230  28.531  1.00  0.00     0.031 C 
ATOM     51  C   UNL A   1      43.342  31.742  29.591  1.00  0.00     0.029 A 
ATOM     52  N   UNL A   1      44.617  30.260  28.512  1.00  0.00    -0.354 N 
ATOM     53  C   UNL A   1      43.275  26.227  27.780  1.00  0.00     0.074 A 
ATOM     54  C   UNL A   1      41.868  26.089  28.085  1.00  0.00     0.031 C 
ATOM     55  C   UNL A   1      44.479  32.365  29.250  1.00  0.00     0.029 A 
ATOM     56  C   UNL A   1      45.370  31.407  28.608  1.00  0.00     0.049 A 
ATOM     57  H   UNL A   1      44.935  29.441  28.067  1.00  0.00     0.167 HD
ATOM     58  C   UNL A   1      44.041  25.246  27.243  1.00  0.00     0.037 A 
ATOM     59  C   UNL A   1      46.650  31.658  28.270  1.00  0.00     0.037 A 
ATOM     60  C   UNL A   1      45.424  25.411  26.872  1.00  0.00     0.049 A 
ATOM     61  C   UNL A   1      47.486  30.551  27.693  1.00  0.00     0.074 A 
ATOM     62  C   UNL A   1      46.283  24.480  26.311  1.00  0.00     0.029 A 
ATOM     63  N   UNL A   1      46.146  26.588  27.003  1.00  0.00    -0.354 N 
ATOM     64  N   UNL A   1      47.143  29.313  27.427  1.00  0.00    -0.248 NA
ATOM     65  C   UNL A   1      48.888  30.866  27.390  1.00  0.00     0.031 C 
ATOM     66  C   UNL A   1      47.530  25.087  26.128  1.00  0.00     0.029 A 
ATOM     67  C   UNL A   1      47.438  26.407  26.536  1.00  0.00     0.049 A 
ATOM     68  H   UNL A   1      45.791  27.430  27.371  1.00  0.00     0.167 HD
ATOM     69  C   UNL A   1      48.282  28.707  26.912  1.00  0.00     0.074 A 
ATOM     70  C   UNL A   1      49.319  29.718  26.886  1.00  0.00     0.031 C 
ATOM     71  C   UNL A   1      48.455  27.427  26.503  1.00  0.00     0.037 A 
BRANCH  58  72
ATOM     72  C   UNL A   1      43.417  23.890  27.041  1.00  0.00     0.058 A 
ATOM     73  C   UNL A   1      43.313  22.954  28.081  1.00  0.00     0.135 A 
ATOM     74  C   UNL A   1      42.865  23.545  25.795  1.00  0.00     0.135 A 
ATOM     75  F   UNL A   1      43.833  23.223  29.288  1.00  0.00    -0.206 F 
ATOM     76  C   UNL A   1      42.702  21.717  27.889  1.00  0.00     0.059 A 
ATOM     77  C   UNL A   1      42.227  22.324  25.588  1.00  0.00     0.059 A 
ATOM     78  F   UNL A   1      42.934  24.402  24.765  1.00  0.00    -0.206 F 
ATOM     79  C   UNL A   1      42.162  21.412  26.638  1.00  0.00     0.060 A 
BRANCH  79  80
ATOM     80  S   UNL A   1      41.357  19.811  26.410  1.00  0.00     0.124 S 
ATOM     81  O   UNL A   1      41.519  19.213  27.731  1.00  0.00    -0.237 OA
ATOM     82  O   UNL A   1      39.993  20.194  26.053  1.00  0.00    -0.237 OA
ATOM     83  O   UNL A   1      42.130  19.190  25.339  1.00  0.00    -0.744 OA
ENDBRANCH  79  80
ENDBRANCH  58  72
BRANCH  59  84
ATOM     84  C   UNL A   1      47.236  33.003  28.521  1.00  0.00     0.058 A 
ATOM     85  C   UNL A   1      47.186  34.008  27.544  1.00  0.00     0.135 A 
ATOM     86  C   UNL A   1      47.848  33.314  29.746  1.00  0.00     0.135 A 
ATOM     87  F   UNL A   1      46.624  33.757  26.351  1.00  0.00    -0.206 F 
ATOM     88  C   UNL A   1      47.734  35.268  27.765  1.00  0.00     0.059 A 
ATOM     89  C   UNL A   1      48.374  34.576  30.002  1.00  0.00     0.059 A 
ATOM     90  F   UNL A   1      47.912  32.392  30.720  1.00  0.00    -0.206 F 
ATOM     91  C   UNL A   1      48.324  35.542  29.001  1.00  0.00     0.060 A 
BRANCH  91  92
ATOM     92  S   UNL A   1      48.992  37.193  29.299  1.00  0.00     0.124 S 
ATOM     93  O   UNL A   1      50.132  37.215  28.389  1.00  0.00    -0.237 OA
ATOM     94  O   UNL A   1      47.870  38.053  28.937  1.00  0.00    -0.237 OA
ATOM     95  O   UNL A   1      49.320  37.170  30.721  1.00  0.00    -0.744 OA
ENDBRANCH  91  92
ENDBRANCH  59  84
BRANCH  71  96
ATOM     96  C   UNL A   1      49.803  27.058  25.953  1.00  0.00     0.058 A 
ATOM     97  C   UNL A   1      50.112  27.216  24.593  1.00  0.00     0.135 A 
ATOM     98  C   UNL A   1      50.810  26.575  26.804  1.00  0.00     0.135 A 
ATOM     99  F   UNL A   1      49.182  27.666  23.736  1.00  0.00    -0.206 F 
ATOM    100  C   UNL A   1      51.367  26.884  24.092  1.00  0.00     0.059 A 
ATOM    101  C   UNL A   1      52.078  26.260  26.328  1.00  0.00     0.059 A 
ATOM    102  F   UNL A   1      50.566  26.414  28.115  1.00  0.00    -0.206 F 
ATOM    103  C   UNL A   1      52.343  26.407  24.967  1.00  0.00     0.060 A 
BRANCH 103 104
ATOM    104  S   UNL A   1      53.976  26.005  24.311  1.00  0.00     0.124 S 
ATOM    105  O   UNL A   1      54.190  24.668  24.852  1.00  0.00    -0.237 OA
ATOM    106  O   UNL A   1      53.762  26.080  22.869  1.00  0.00    -0.237 OA
ATOM    107  O   UNL A   1      54.831  27.052  24.865  1.00  0.00    -0.744 OA
ENDBRANCH 103 104
ENDBRANCH  71  96
ENDBRANCH  45  46
ENDBRANCH  38  40
ENDBRANCH  37  38
ENDBRANCH  36  37
ENDBRANCH   1  36
TORSDOF 20
ENDMDL
MODEL 2
REMARK VINA RESULT:     -12.0      1.130      7.804
REMARK SMILES COc1ccc([C@H]2CC(c3ccc(S(C)(=O)=O)cc3)=NN2c2ccc(C(=O)OCCOC(=O)c3ccc(-c4c5nc(c(-c6c(F)cc(S(=O)(=O)[O-])cc6F)c6ccc([nH]6)c(-c6c(F)cc(S(=O)(=O)[O-])cc6F)c6nc(c(-c7c(F)cc(S(=O)(=O)[O-])cc7F)c7ccc4[nH]7)C=C6)C=C5)cc3)cc2)cc1OC
REMARK SMILES IDX 29 1 28 2 26 3 27 4 25 5 22 6 23 7 101 8 24 9 100 10 21 11
REMARK SMILES IDX 7 12 8 13 9 14 20 15 6 16 3 17 4 18 103 19 5 20 102 21 2 22
REMARK SMILES IDX 1 23 104 24 105 25 10 26 11 27 19 28 12 29 18 30 13 31 14 32
REMARK SMILES IDX 15 33 16 34 17 35 30 36 31 37 32 38 33 39 34 40 35 41 99 42
REMARK SMILES IDX 36 43 98 44 37 45 38 46 39 47 92 48 40 49 97 50 91 51 93 52
REMARK SMILES IDX 41 53 96 54 90 55 89 56 42 58 76 59 55 60 75 61 56 62 59 63
REMARK SMILES IDX 74 64 94 65 57 66 58 67 73 69 95 70 60 71 43 72 44 73 53 74
REMARK SMILES IDX 45 75 46 76 52 77 54 78 47 79 48 80 49 81 50 82 51 83 77 84
REMARK SMILES IDX 78 85 87 86 79 87 80 88 86 89 88 90 81 91 82 92 83 93 84 94
REMARK SMILES IDX 85 95 61 96 62 97 71 98 63 99 64 100 70 101 72 102 65 103
REMARK SMILES IDX 66 104 67 105 68 106 69 107
REMARK H PARENT 93 57 59 68
REMARK Flexibility Score: inf
ROOT
ATOM      1  C   UNL A   1      36.275  31.594  28.696  1.00  0.00     0.275 C 
ENDROOT
BRANCH   1   2
ATOM      2  O   UNL A   1      35.657  30.516  27.963  1.00  0.00    -0.458 OA
BRANCH   2   3
ATOM      3  C   UNL A   1      34.385  30.753  27.560  1.00  0.00     0.338 C 
ATOM      4  O   UNL A   1      33.872  31.848  27.382  1.00  0.00    -0.246 OA
BRANCH   3   5
ATOM      5  C   UNL A   1      33.665  29.491  27.287  1.00  0.00     0.060 A 
ATOM      6  C   UNL A   1      32.311  27.149  26.500  1.00  0.00     0.060 A 
ATOM      7  C   UNL A   1      33.671  27.314  26.232  1.00  0.00     0.029 A 
ATOM      8  C   UNL A   1      31.645  28.166  27.201  1.00  0.00     0.029 A 
ATOM      9  C   UNL A   1      34.329  28.486  26.582  1.00  0.00     0.018 A 
ATOM     10  C   UNL A   1      32.321  29.324  27.618  1.00  0.00     0.018 A 
BRANCH   6  11
ATOM     11  N   UNL A   1      31.657  26.013  26.041  1.00  0.00    -0.257 N 
ATOM     12  C   UNL A   1      30.366  26.046  25.353  1.00  0.00     0.144 C 
ATOM     13  C   UNL A   1      30.252  24.624  24.783  1.00  0.00     0.091 C 
ATOM     14  C   UNL A   1      31.607  24.081  25.138  1.00  0.00     0.071 C 
ATOM     15  N   UNL A   1      32.364  24.866  25.835  1.00  0.00    -0.176 NA
BRANCH  12  16
ATOM     16  C   UNL A   1      30.264  27.111  24.266  1.00  0.00    -0.019 A 
ATOM     17  C   UNL A   1      30.048  29.007  22.184  1.00  0.00     0.160 A 
ATOM     18  C   UNL A   1      28.900  28.465  22.775  1.00  0.00     0.051 A 
ATOM     19  C   UNL A   1      31.314  28.645  22.653  1.00  0.00     0.161 A 
ATOM     20  C   UNL A   1      29.006  27.519  23.799  1.00  0.00     0.010 A 
ATOM     21  C   UNL A   1      31.404  27.707  23.696  1.00  0.00     0.056 A 
BRANCH  17  22
ATOM     22  O   UNL A   1      29.884  29.963  21.217  1.00  0.00    -0.493 OA
ATOM     23  C   UNL A   1      28.892  30.923  21.582  1.00  0.00     0.278 C 
ENDBRANCH  17  22
BRANCH  19  24
ATOM     24  O   UNL A   1      32.539  29.083  22.230  1.00  0.00    -0.493 OA
ATOM     25  C   UNL A   1      33.655  28.212  22.343  1.00  0.00     0.278 C 
ENDBRANCH  19  24
ENDBRANCH  12  16
BRANCH  14  26
ATOM     26  C   UNL A   1      31.986  22.705  24.791  1.00  0.00    -0.002 A 
ATOM     27  C   UNL A   1      32.427  21.861  25.817  1.00  0.00     0.011 A 
ATOM     28  C   UNL A   1      31.864  22.235  23.481  1.00  0.00     0.011 A 
ATOM     29  C   UNL A   1      32.696  20.520  25.544  1.00  0.00     0.021 A 
ATOM     30  C   UNL A   1      32.159  20.898  23.199  1.00  0.00     0.021 A 
ATOM     31  C   UNL A   1      32.559  20.045  24.235  1.00  0.00     0.067 A 
BRANCH  31  32
ATOM     32  S   UNL A   1      32.806  18.312  23.918  1.00  0.00     0.175 S 
ATOM     33  C   UNL A   1      34.507  18.019  24.326  1.00  0.00     0.163 C 
ATOM     34  O   UNL A   1      31.974  17.598  24.868  1.00  0.00    -0.224 OA
ATOM     35  O   UNL A   1      32.643  18.099  22.492  1.00  0.00    -0.224 OA
ENDBRANCH  31  32
ENDBRANCH  14  26
ENDBRANCH   6  11
ENDBRANCH   3   5
ENDBRANCH   2   3
ENDBRANCH   1   2
BRANCH   1  36
ATOM     36  C   UNL A   1      35.739  31.694  30.124  1.00  0.00     0.275 C 
BRANCH  36  37
ATOM     37  O   UNL A   1      36.672  31.117  31.056  1.00  0.00    -0.458 OA
BRANCH  37  38
ATOM     38  C   UNL A   1      37.473  31.999  31.695  1.00  0.00     0.338 C 
ATOM     39  O   UNL A   1      37.129  32.940  32.390  1.00  0.00    -0.246 OA
BRANCH  38  40
ATOM     40  C   UNL A   1      38.891  31.670  31.464  1.00  0.00     0.060 A 
ATOM     41  C   UNL A   1      39.494  32.064  30.277  1.00  0.00     0.016 A 
ATOM     42  C   UNL A   1      39.562  30.812  32.332  1.00  0.00     0.016 A 
ATOM     43  C   UNL A   1      40.690  31.473  29.871  1.00  0.00     0.010 A 
ATOM     44  C   UNL A   1      40.834  30.338  31.988  1.00  0.00     0.010 A 
ATOM     45  C   UNL A   1      41.392  30.612  30.725  1.00  0.00    -0.014 A 
BRANCH  45  46
ATOM     46  C   UNL A   1      42.678  29.976  30.294  1.00  0.00     0.031 A 
ATOM     47  C   UNL A   1      43.984  30.729  30.426  1.00  0.00     0.074 A 
ATOM     48  C   UNL A   1      42.693  28.723  29.788  1.00  0.00     0.049 A 
ATOM     49  N   UNL A   1      45.159  30.447  29.919  1.00  0.00    -0.248 NA
ATOM     50  C   UNL A   1      43.963  31.972  31.214  1.00  0.00     0.031 C 
ATOM     51  C   UNL A   1      41.526  27.851  29.635  1.00  0.00     0.029 A 
ATOM     52  N   UNL A   1      43.733  27.959  29.310  1.00  0.00    -0.354 N 
ATOM     53  C   UNL A   1      45.993  31.504  30.268  1.00  0.00     0.074 A 
ATOM     54  C   UNL A   1      45.190  32.437  31.028  1.00  0.00     0.031 C 
ATOM     55  C   UNL A   1      41.917  26.665  29.151  1.00  0.00     0.029 A 
ATOM     56  C   UNL A   1      43.343  26.720  28.854  1.00  0.00     0.049 A 
ATOM     57  H   UNL A   1      44.666  28.269  29.295  1.00  0.00     0.167 HD
ATOM     58  C   UNL A   1      47.307  31.681  29.983  1.00  0.00     0.037 A 
ATOM     59  C   UNL A   1      44.033  25.752  28.221  1.00  0.00     0.037 A 
ATOM     60  C   UNL A   1      48.121  30.715  29.289  1.00  0.00     0.049 A 
ATOM     61  C   UNL A   1      45.483  25.977  27.899  1.00  0.00     0.074 A 
ATOM     62  C   UNL A   1      49.465  30.795  28.962  1.00  0.00     0.029 A 
ATOM     63  N   UNL A   1      47.676  29.481  28.835  1.00  0.00    -0.354 N 
ATOM     64  N   UNL A   1      46.236  27.014  28.174  1.00  0.00    -0.248 NA
ATOM     65  C   UNL A   1      46.173  24.908  27.163  1.00  0.00     0.031 C 
ATOM     66  C   UNL A   1      49.824  29.624  28.288  1.00  0.00     0.029 A 
ATOM     67  C   UNL A   1      48.717  28.796  28.230  1.00  0.00     0.049 A 
ATOM     68  H   UNL A   1      46.756  29.143  28.931  1.00  0.00     0.167 HD
ATOM     69  C   UNL A   1      47.492  26.718  27.657  1.00  0.00     0.074 A 
ATOM     70  C   UNL A   1      47.402  25.397  27.070  1.00  0.00     0.031 C 
ATOM     71  C   UNL A   1      48.616  27.475  27.663  1.00  0.00     0.037 A 
BRANCH  58  72
ATOM     72  C   UNL A   1      47.954  32.977  30.396  1.00  0.00     0.058 A 
ATOM     73  C   UNL A   1      48.602  33.127  31.631  1.00  0.00     0.135 A 
ATOM     74  C   UNL A   1      47.972  34.070  29.513  1.00  0.00     0.135 A 
ATOM     75  F   UNL A   1      48.606  32.121  32.520  1.00  0.00    -0.206 F 
ATOM     76  C   UNL A   1      49.226  34.321  31.986  1.00  0.00     0.059 A 
ATOM     77  C   UNL A   1      48.612  35.264  29.836  1.00  0.00     0.059 A 
ATOM     78  F   UNL A   1      47.370  33.982  28.317  1.00  0.00    -0.206 F 
ATOM     79  C   UNL A   1      49.226  35.384  31.080  1.00  0.00     0.060 A 
BRANCH  79  80
ATOM     80  S   UNL A   1      50.056  36.919  31.547  1.00  0.00     0.124 S 
ATOM     81  O   UNL A   1      50.341  36.678  32.957  1.00  0.00    -0.237 OA
ATOM     82  O   UNL A   1      51.216  36.930  30.660  1.00  0.00    -0.237 OA
ATOM     83  O   UNL A   1      49.054  37.944  31.275  1.00  0.00    -0.744 OA
ENDBRANCH  79  80
ENDBRANCH  58  72
BRANCH  59  84
ATOM     84  C   UNL A   1      43.343  24.502  27.799  1.00  0.00     0.058 A 
ATOM     85  C   UNL A   1      43.317  23.374  28.631  1.00  0.00     0.135 A 
ATOM     86  C   UNL A   1      42.690  24.413  26.559  1.00  0.00     0.135 A 
ATOM     87  F   UNL A   1      43.938  23.403  29.821  1.00  0.00    -0.206 F 
ATOM     88  C   UNL A   1      42.679  22.198  28.247  1.00  0.00     0.059 A 
ATOM     89  C   UNL A   1      42.019  23.260  26.166  1.00  0.00     0.059 A 
ATOM     90  F   UNL A   1      42.675  25.468  25.729  1.00  0.00    -0.206 F 
ATOM     91  C   UNL A   1      42.030  22.153  27.011  1.00  0.00     0.060 A 
BRANCH  91  92
ATOM     92  S   UNL A   1      41.165  20.640  26.537  1.00  0.00     0.124 S 
ATOM     93  O   UNL A   1      42.129  20.026  25.631  1.00  0.00    -0.237 OA
ATOM     94  O   UNL A   1      40.981  19.972  27.821  1.00  0.00    -0.237 OA
ATOM     95  O   UNL A   1      39.941  21.136  25.916  1.00  0.00    -0.744 OA
ENDBRANCH  91  92
ENDBRANCH  59  84
BRANCH  71  96
ATOM     96  C   UNL A   1      49.851  26.875  27.054  1.00  0.00     0.058 A 
ATOM     97  C   UNL A   1      50.777  26.154  27.823  1.00  0.00     0.135 A 
ATOM     98  C   UNL A   1      50.091  26.992  25.675  1.00  0.00     0.135 A 
ATOM     99  F   UNL A   1      50.597  26.021  29.147  1.00  0.00    -0.206 F 
ATOM    100  C   UNL A   1      51.912  25.590  27.250  1.00  0.00     0.059 A 
ATOM    101  C   UNL A   1      51.207  26.417  25.078  1.00  0.00     0.059 A 
ATOM    102  F   UNL A   1      49.231  27.666  24.894  1.00  0.00    -0.206 F 
ATOM    103  C   UNL A   1      52.119  25.727  25.877  1.00  0.00     0.060 A 
BRANCH 103 104
ATOM    104  S   UNL A   1      53.582  24.969  25.139  1.00  0.00     0.124 S 
ATOM    105  O   UNL A   1      54.620  25.344  26.092  1.00  0.00    -0.237 OA
ATOM    106  O   UNL A   1      53.223  23.554  25.116  1.00  0.00    -0.237 OA
ATOM    107  O   UNL A   1      53.671  25.606  23.829  1.00  0.00    -0.744 OA
ENDBRANCH 103 104
ENDBRANCH  71  96
ENDBRANCH  45  46
ENDBRANCH  38  40
ENDBRANCH  37  38
ENDBRANCH  36  37
ENDBRANCH   1  36
TORSDOF 20
ENDMDL
MODEL 3
REMARK VINA RESULT:     -11.6      5.139      9.082
REMARK SMILES COc1ccc([C@H]2CC(c3ccc(S(C)(=O)=O)cc3)=NN2c2ccc(C(=O)OCCOC(=O)c3ccc(-c4c5nc(c(-c6c(F)cc(S(=O)(=O)[O-])cc6F)c6ccc([nH]6)c(-c6c(F)cc(S(=O)(=O)[O-])cc6F)c6nc(c(-c7c(F)cc(S(=O)(=O)[O-])cc7F)c7ccc4[nH]7)C=C6)C=C5)cc3)cc2)cc1OC
REMARK SMILES IDX 29 1 28 2 26 3 27 4 25 5 22 6 23 7 101 8 24 9 100 10 21 11
REMARK SMILES IDX 7 12 8 13 9 14 20 15 6 16 3 17 4 18 103 19 5 20 102 21 2 22
REMARK SMILES IDX 1 23 104 24 105 25 10 26 11 27 19 28 12 29 18 30 13 31 14 32
REMARK SMILES IDX 15 33 16 34 17 35 30 36 31 37 32 38 33 39 34 40 35 41 99 42
REMARK SMILES IDX 36 43 98 44 37 45 38 46 39 47 92 48 40 49 97 50 91 51 93 52
REMARK SMILES IDX 41 53 96 54 90 55 89 56 42 58 76 59 55 60 75 61 56 62 59 63
REMARK SMILES IDX 74 64 94 65 57 66 58 67 73 69 95 70 60 71 43 72 44 73 53 74
REMARK SMILES IDX 45 75 46 76 52 77 54 78 47 79 48 80 49 81 50 82 51 83 77 84
REMARK SMILES IDX 78 85 87 86 79 87 80 88 86 89 88 90 81 91 82 92 83 93 84 94
REMARK SMILES IDX 85 95 61 96 62 97 71 98 63 99 64 100 70 101 72 102 65 103
REMARK SMILES IDX 66 104 67 105 68 106 69 107
REMARK H PARENT 93 57 59 68
REMARK Flexibility Score: inf
ROOT
ATOM      1  C   UNL A   1      34.067  34.033  29.834  1.00  0.00     0.275 C 
ENDROOT
BRANCH   1   2
ATOM      2  O   UNL A   1      34.143  33.496  31.171  1.00  0.00    -0.458 OA
BRANCH   2   3
ATOM      3  C   UNL A   1      34.832  34.257  32.055  1.00  0.00     0.338 C 
ATOM      4  O   UNL A   1      34.430  35.271  32.608  1.00  0.00    -0.246 OA
BRANCH   3   5
ATOM      5  C   UNL A   1      36.160  33.676  32.342  1.00  0.00     0.060 A 
ATOM      6  C   UNL A   1      38.615  32.556  33.152  1.00  0.00     0.060 A 
ATOM      7  C   UNL A   1      37.442  31.800  33.171  1.00  0.00     0.029 A 
ATOM      8  C   UNL A   1      38.545  33.878  32.686  1.00  0.00     0.029 A 
ATOM      9  C   UNL A   1      36.225  32.365  32.813  1.00  0.00     0.018 A 
ATOM     10  C   UNL A   1      37.328  34.434  32.256  1.00  0.00     0.018 A 
BRANCH   6  11
ATOM     11  N   UNL A   1      39.798  31.996  33.619  1.00  0.00    -0.257 N 
ATOM     12  C   UNL A   1      40.507  32.479  34.805  1.00  0.00     0.144 C 
ATOM     13  C   UNL A   1      41.522  31.357  35.070  1.00  0.00     0.091 C 
ATOM     14  C   UNL A   1      41.085  30.350  34.044  1.00  0.00     0.071 C 
ATOM     15  N   UNL A   1      40.132  30.727  33.253  1.00  0.00    -0.176 NA
BRANCH  12  16
ATOM     16  C   UNL A   1      39.608  32.737  36.009  1.00  0.00    -0.019 A 
ATOM     17  C   UNL A   1      38.027  33.208  38.302  1.00  0.00     0.160 A 
ATOM     18  C   UNL A   1      38.858  34.213  37.791  1.00  0.00     0.051 A 
ATOM     19  C   UNL A   1      37.941  31.974  37.652  1.00  0.00     0.161 A 
ATOM     20  C   UNL A   1      39.648  33.978  36.662  1.00  0.00     0.010 A 
ATOM     21  C   UNL A   1      38.727  31.759  36.506  1.00  0.00     0.056 A 
BRANCH  17  22
ATOM     22  O   UNL A   1      37.242  33.509  39.383  1.00  0.00    -0.493 OA
ATOM     23  C   UNL A   1      38.021  33.928  40.504  1.00  0.00     0.278 C 
ENDBRANCH  17  22
BRANCH  19  24
ATOM     24  O   UNL A   1      37.173  30.889  37.975  1.00  0.00    -0.493 OA
ATOM     25  C   UNL A   1      36.835  30.670  39.337  1.00  0.00     0.278 C 
ENDBRANCH  19  24
ENDBRANCH  12  16
BRANCH  14  26
ATOM     26  C   UNL A   1      41.778  29.063  33.902  1.00  0.00    -0.002 A 
ATOM     27  C   UNL A   1      42.855  28.986  33.013  1.00  0.00     0.011 A 
ATOM     28  C   UNL A   1      41.406  27.958  34.672  1.00  0.00     0.011 A 
ATOM     29  C   UNL A   1      43.603  27.811  32.928  1.00  0.00     0.021 A 
ATOM     30  C   UNL A   1      42.136  26.771  34.570  1.00  0.00     0.021 A 
ATOM     31  C   UNL A   1      43.239  26.709  33.711  1.00  0.00     0.067 A 
BRANCH  31  32
ATOM     32  S   UNL A   1      44.260  25.252  33.671  1.00  0.00     0.175 S 
ATOM     33  C   UNL A   1      45.554  25.577  34.839  1.00  0.00     0.163 C 
ATOM     34  O   UNL A   1      43.443  24.165  34.178  1.00  0.00    -0.224 OA
ATOM     35  O   UNL A   1      44.855  25.169  32.351  1.00  0.00    -0.224 OA
ENDBRANCH  31  32
ENDBRANCH  14  26
ENDBRANCH   6  11
ENDBRANCH   3   5
ENDBRANCH   2   3
ENDBRANCH   1   2
BRANCH   1  36
ATOM     36  C   UNL A   1      34.424  32.986  28.778  1.00  0.00     0.275 C 
BRANCH  36  37
ATOM     37  O   UNL A   1      34.747  31.729  29.401  1.00  0.00    -0.458 OA
BRANCH  37  38
ATOM     38  C   UNL A   1      34.836  30.673  28.561  1.00  0.00     0.338 C 
ATOM     39  O   UNL A   1      33.967  30.240  27.823  1.00  0.00    -0.246 OA
BRANCH  38  40
ATOM     40  C   UNL A   1      36.183  30.078  28.622  1.00  0.00     0.060 A 
ATOM     41  C   UNL A   1      36.711  29.721  29.857  1.00  0.00     0.016 A 
ATOM     42  C   UNL A   1      36.991  30.051  27.489  1.00  0.00     0.016 A 
ATOM     43  C   UNL A   1      38.081  29.503  29.994  1.00  0.00     0.010 A 
ATOM     44  C   UNL A   1      38.337  29.683  27.608  1.00  0.00     0.010 A 
ATOM     45  C   UNL A   1      38.919  29.463  28.870  1.00  0.00    -0.014 A 
BRANCH  45  46
ATOM     46  C   UNL A   1      40.391  29.227  29.013  1.00  0.00     0.031 A 
ATOM     47  C   UNL A   1      40.994  27.898  28.615  1.00  0.00     0.074 A 
ATOM     48  C   UNL A   1      41.202  30.197  29.490  1.00  0.00     0.049 A 
ATOM     49  N   UNL A   1      42.191  27.423  28.859  1.00  0.00    -0.248 NA
ATOM     50  C   UNL A   1      40.133  26.971  27.863  1.00  0.00     0.031 C 
ATOM     51  C   UNL A   1      40.782  31.545  29.878  1.00  0.00     0.029 A 
ATOM     52  N   UNL A   1      42.557  30.199  29.729  1.00  0.00    -0.354 N 
ATOM     53  C   UNL A   1      42.203  26.127  28.352  1.00  0.00     0.074 A 
ATOM     54  C   UNL A   1      40.892  25.887  27.789  1.00  0.00     0.031 C 
ATOM     55  C   UNL A   1      41.854  32.254  30.256  1.00  0.00     0.029 A 
ATOM     56  C   UNL A   1      43.025  31.386  30.244  1.00  0.00     0.049 A 
ATOM     57  H   UNL A   1      43.136  29.424  29.549  1.00  0.00     0.167 HD
ATOM     58  C   UNL A   1      43.212  25.223  28.354  1.00  0.00     0.037 A 
ATOM     59  C   UNL A   1      44.242  31.732  30.707  1.00  0.00     0.037 A 
ATOM     60  C   UNL A   1      44.538  25.492  28.849  1.00  0.00     0.049 A 
ATOM     61  C   UNL A   1      45.341  30.709  30.716  1.00  0.00     0.074 A 
ATOM     62  C   UNL A   1      45.634  24.645  28.885  1.00  0.00     0.029 A 
ATOM     63  N   UNL A   1      44.959  26.706  29.374  1.00  0.00    -0.354 N 
ATOM     64  N   UNL A   1      45.312  29.466  30.299  1.00  0.00    -0.248 NA
ATOM     65  C   UNL A   1      46.633  31.126  31.278  1.00  0.00     0.031 C 
ATOM     66  C   UNL A   1      46.707  25.337  29.455  1.00  0.00     0.029 A 
ATOM     67  C   UNL A   1      46.294  26.628  29.737  1.00  0.00     0.049 A 
ATOM     68  H   UNL A   1      44.392  27.505  29.471  1.00  0.00     0.167 HD
ATOM     69  C   UNL A   1      46.584  28.957  30.535  1.00  0.00     0.074 A 
ATOM     70  C   UNL A   1      47.364  30.032  31.113  1.00  0.00     0.031 C 
ATOM     71  C   UNL A   1      47.061  27.711  30.299  1.00  0.00     0.037 A 
BRANCH  58  72
ATOM     72  C   UNL A   1      42.927  23.841  27.827  1.00  0.00     0.058 A 
ATOM     73  C   UNL A   1      42.614  22.769  28.675  1.00  0.00     0.135 A 
ATOM     74  C   UNL A   1      42.913  23.602  26.442  1.00  0.00     0.135 A 
ATOM     75  F   UNL A   1      42.624  22.934  30.007  1.00  0.00    -0.206 F 
ATOM     76  C   UNL A   1      42.318  21.504  28.173  1.00  0.00     0.059 A 
ATOM     77  C   UNL A   1      42.595  22.352  25.916  1.00  0.00     0.059 A 
ATOM     78  F   UNL A   1      43.202  24.592  25.583  1.00  0.00    -0.206 F 
ATOM     79  C   UNL A   1      42.311  21.306  26.790  1.00  0.00     0.060 A 
BRANCH  79  80
ATOM     80  S   UNL A   1      41.907  19.665  26.152  1.00  0.00     0.124 S 
ATOM     81  O   UNL A   1      42.327  18.812  27.259  1.00  0.00    -0.237 OA
ATOM     82  O   UNL A   1      40.466  19.758  25.938  1.00  0.00    -0.237 OA
ATOM     83  O   UNL A   1      42.712  19.563  24.940  1.00  0.00    -0.744 OA
ENDBRANCH  79  80
ENDBRANCH  58  72
BRANCH  59  84
ATOM     84  C   UNL A   1      44.469  33.099  31.251  1.00  0.00     0.058 A 
ATOM     85  C   UNL A   1      44.771  34.175  30.405  1.00  0.00     0.135 A 
ATOM     86  C   UNL A   1      44.380  33.358  32.629  1.00  0.00     0.135 A 
ATOM     87  F   UNL A   1      44.880  33.978  29.082  1.00  0.00    -0.206 F 
ATOM     88  C   UNL A   1      44.989  35.456  30.902  1.00  0.00     0.059 A 
ATOM     89  C   UNL A   1      44.562  34.636  33.147  1.00  0.00     0.059 A 
ATOM     90  F   UNL A   1      44.082  32.366  33.483  1.00  0.00    -0.206 F 
ATOM     91  C   UNL A   1      44.879  35.676  32.277  1.00  0.00     0.060 A 
BRANCH  91  92
ATOM     92  S   UNL A   1      45.119  37.350  32.913  1.00  0.00     0.124 S 
ATOM     93  O   UNL A   1      44.984  37.138  34.349  1.00  0.00    -0.237 OA
ATOM     94  O   UNL A   1      46.460  37.673  32.439  1.00  0.00    -0.237 OA
ATOM     95  O   UNL A   1      44.041  38.104  32.281  1.00  0.00    -0.744 OA
ENDBRANCH  91  92
ENDBRANCH  59  84
BRANCH  71  96
ATOM     96  C   UNL A   1      48.504  27.455  30.626  1.00  0.00     0.058 A 
ATOM     97  C   UNL A   1      48.902  26.986  31.887  1.00  0.00     0.135 A 
ATOM     98  C   UNL A   1      49.497  27.646  29.652  1.00  0.00     0.135 A 
ATOM     99  F   UNL A   1      47.992  26.794  32.856  1.00  0.00    -0.206 F 
ATOM    100  C   UNL A   1      50.239  26.738  32.180  1.00  0.00     0.059 A 
ATOM    101  C   UNL A   1      50.837  27.383  29.916  1.00  0.00     0.059 A 
ATOM    102  F   UNL A   1      49.167  28.087  28.427  1.00  0.00    -0.206 F 
ATOM    103  C   UNL A   1      51.200  26.940  31.187  1.00  0.00     0.060 A 
BRANCH 103 104
ATOM    104  S   UNL A   1      52.929  26.590  31.569  1.00  0.00     0.124 S 
ATOM    105  O   UNL A   1      52.837  25.257  32.155  1.00  0.00    -0.237 OA
ATOM    106  O   UNL A   1      53.561  26.663  30.256  1.00  0.00    -0.237 OA
ATOM    107  O   UNL A   1      53.296  27.659  32.493  1.00  0.00    -0.744 OA
ENDBRANCH 103 104
ENDBRANCH  71  96
ENDBRANCH  45  46
ENDBRANCH  38  40
ENDBRANCH  37  38
ENDBRANCH  36  37
ENDBRANCH   1  36
TORSDOF 20
ENDMDL
