MODEL 1
REMARK VINA RESULT:      -9.8      0.000      0.000
REMARK SMILES CCCCCC(=O)N[C@H](C)C(=O)OCCOC(=O)c1ccc(-c2c3nc(c(-c4c(F)cc(S(=O)(=O)[O-])cc4F)c4ccc([nH]4)c(-c4c(F)cc(S(=O)(=O)[O-])cc4F)c4nc(c(-c5c(F)cc(S(=O)(=O)[O-])cc5F)c5ccc2[nH]5)C=C4)C=C3)cc1
REMARK SMILES IDX 14 1 13 2 11 3 12 4 9 5 10 6 8 7 6 8 7 9 5 11 4 12 3 13 2 14
REMARK SMILES IDX 1 15 15 16 16 17 17 18 18 19 19 20 20 21 84 22 21 23 83 24
REMARK SMILES IDX 22 25 23 26 24 27 77 28 25 29 82 30 76 31 78 32 26 33 81 34
REMARK SMILES IDX 75 35 74 36 27 38 61 39 40 40 60 41 41 42 44 43 59 44 79 45
REMARK SMILES IDX 42 46 43 47 58 49 80 50 45 51 28 52 29 53 38 54 30 55 31 56
REMARK SMILES IDX 37 57 39 58 32 59 33 60 34 61 35 62 36 63 62 64 63 65 72 66
REMARK SMILES IDX 64 67 65 68 71 69 73 70 66 71 67 72 68 73 69 74 70 75 46 76
REMARK SMILES IDX 47 77 56 78 48 79 49 80 55 81 57 82 50 83 51 84 52 85 53 86
REMARK SMILES IDX 54 87
REMARK H PARENT 8 10 78 37 44 48
REMARK Flexibility Score: inf
ROOT
ATOM      1  C   UNL A   1      40.646  21.581  26.049  1.00  0.00     0.274 C 
ENDROOT
BRANCH   1   2
ATOM      2  O   UNL A   1      41.903  20.888  25.902  1.00  0.00    -0.461 OA
BRANCH   2   3
ATOM      3  C   UNL A   1      41.840  19.532  25.832  1.00  0.00     0.328 C 
ATOM      4  O   UNL A   1      40.806  18.905  25.628  1.00  0.00    -0.250 OA
BRANCH   3   5
ATOM      5  C   UNL A   1      43.178  18.847  26.193  1.00  0.00     0.189 C 
ATOM      6  C   UNL A   1      43.191  17.697  27.199  1.00  0.00     0.043 C 
BRANCH   5   7
ATOM      7  N   UNL A   1      44.001  18.513  25.023  1.00  0.00    -0.343 N 
ATOM      8  C   UNL A   1      44.727  19.331  24.208  1.00  0.00     0.220 C 
ATOM      9  O   UNL A   1      45.000  18.934  23.074  1.00  0.00    -0.275 OA
ATOM     10  H   UNL A   1      44.034  17.556  24.793  1.00  0.00     0.164 HD
BRANCH   8  11
ATOM     11  C   UNL A   1      45.274  20.650  24.726  1.00  0.00     0.100 C 
BRANCH  11  12
ATOM     12  C   UNL A   1      45.059  21.847  23.804  1.00  0.00     0.010 C 
BRANCH  12  13
ATOM     13  C   UNL A   1      44.279  23.020  24.409  1.00  0.00     0.000 C 
BRANCH  13  14
ATOM     14  C   UNL A   1      44.946  23.754  25.575  1.00  0.00    -0.003 C 
ATOM     15  C   UNL A   1      44.474  23.327  26.953  1.00  0.00     0.004 C 
ENDBRANCH  13  14
ENDBRANCH  12  13
ENDBRANCH  11  12
ENDBRANCH   8  11
ENDBRANCH   5   7
ENDBRANCH   3   5
ENDBRANCH   2   3
ENDBRANCH   1   2
BRANCH   1  16
ATOM     16  C   UNL A   1      40.651  22.437  27.315  1.00  0.00     0.275 C 
BRANCH  16  17
ATOM     17  O   UNL A   1      40.012  23.694  27.046  1.00  0.00    -0.458 OA
BRANCH  17  18
ATOM     18  C   UNL A   1      40.876  24.704  26.779  1.00  0.00     0.338 C 
ATOM     19  O   UNL A   1      41.559  24.858  25.783  1.00  0.00    -0.246 OA
BRANCH  18  20
ATOM     20  C   UNL A   1      40.698  25.739  27.802  1.00  0.00     0.060 A 
ATOM     21  C   UNL A   1      41.703  26.700  27.926  1.00  0.00     0.016 A 
ATOM     22  C   UNL A   1      39.590  25.753  28.644  1.00  0.00     0.016 A 
ATOM     23  C   UNL A   1      41.630  27.669  28.914  1.00  0.00     0.010 A 
ATOM     24  C   UNL A   1      39.501  26.741  29.626  1.00  0.00     0.010 A 
ATOM     25  C   UNL A   1      40.525  27.694  29.769  1.00  0.00    -0.014 A 
BRANCH  25  26
ATOM     26  C   UNL A   1      40.463  28.721  30.829  1.00  0.00     0.031 A 
ATOM     27  C   UNL A   1      41.395  28.634  31.999  1.00  0.00     0.074 A 
ATOM     28  C   UNL A   1      39.584  29.732  30.708  1.00  0.00     0.049 A 
ATOM     29  N   UNL A   1      41.436  29.376  33.073  1.00  0.00    -0.248 NA
ATOM     30  C   UNL A   1      42.410  27.569  31.960  1.00  0.00     0.031 C 
ATOM     31  C   UNL A   1      38.666  29.920  29.581  1.00  0.00     0.029 A 
ATOM     32  N   UNL A   1      39.313  30.786  31.539  1.00  0.00    -0.354 N 
ATOM     33  C   UNL A   1      42.460  28.852  33.854  1.00  0.00     0.074 A 
ATOM     34  C   UNL A   1      43.010  27.724  33.131  1.00  0.00     0.031 C 
ATOM     35  C   UNL A   1      37.932  31.024  29.793  1.00  0.00     0.029 A 
ATOM     36  C   UNL A   1      38.292  31.588  31.090  1.00  0.00     0.049 A 
ATOM     37  H   UNL A   1      39.803  30.952  32.376  1.00  0.00     0.167 HD
ATOM     38  C   UNL A   1      42.891  29.277  35.064  1.00  0.00     0.037 A 
ATOM     39  C   UNL A   1      37.694  32.640  31.678  1.00  0.00     0.037 A 
ATOM     40  C   UNL A   1      42.337  30.412  35.755  1.00  0.00     0.049 A 
ATOM     41  C   UNL A   1      38.178  33.078  33.032  1.00  0.00     0.074 A 
ATOM     42  C   UNL A   1      42.701  30.938  36.982  1.00  0.00     0.029 A 
ATOM     43  N   UNL A   1      41.299  31.201  35.275  1.00  0.00    -0.354 N 
ATOM     44  N   UNL A   1      39.135  32.563  33.768  1.00  0.00    -0.248 NA
ATOM     45  C   UNL A   1      37.503  34.231  33.637  1.00  0.00     0.031 C 
ATOM     46  C   UNL A   1      41.860  32.023  37.257  1.00  0.00     0.029 A 
ATOM     47  C   UNL A   1      41.000  32.199  36.185  1.00  0.00     0.049 A 
ATOM     48  H   UNL A   1      40.844  31.068  34.412  1.00  0.00     0.167 HD
ATOM     49  C   UNL A   1      39.183  33.336  34.922  1.00  0.00     0.074 A 
ATOM     50  C   UNL A   1      38.173  34.365  34.773  1.00  0.00     0.031 C 
ATOM     51  C   UNL A   1      39.985  33.206  36.009  1.00  0.00     0.037 A 
BRANCH  38  52
ATOM     52  C   UNL A   1      43.984  28.490  35.729  1.00  0.00     0.058 A 
ATOM     53  C   UNL A   1      45.341  28.784  35.522  1.00  0.00     0.135 A 
ATOM     54  C   UNL A   1      43.669  27.439  36.605  1.00  0.00     0.135 A 
ATOM     55  F   UNL A   1      45.699  29.763  34.676  1.00  0.00    -0.206 F 
ATOM     56  C   UNL A   1      46.347  28.051  36.143  1.00  0.00     0.059 A 
ATOM     57  C   UNL A   1      44.658  26.707  37.255  1.00  0.00     0.059 A 
ATOM     58  F   UNL A   1      42.388  27.112  36.834  1.00  0.00    -0.206 F 
ATOM     59  C   UNL A   1      45.995  27.012  37.008  1.00  0.00     0.060 A 
BRANCH  59  60
ATOM     60  S   UNL A   1      47.309  26.071  37.813  1.00  0.00     0.124 S 
ATOM     61  O   UNL A   1      47.229  26.573  39.182  1.00  0.00    -0.237 OA
ATOM     62  O   UNL A   1      46.873  24.692  37.618  1.00  0.00    -0.237 OA
ATOM     63  O   UNL A   1      48.506  26.457  37.072  1.00  0.00    -0.744 OA
ENDBRANCH  59  60
ENDBRANCH  38  52
BRANCH  39  64
ATOM     64  C   UNL A   1      36.562  33.324  31.000  1.00  0.00     0.058 A 
ATOM     65  C   UNL A   1      35.249  33.198  31.475  1.00  0.00     0.135 A 
ATOM     66  C   UNL A   1      36.778  34.139  29.877  1.00  0.00     0.135 A 
ATOM     67  F   UNL A   1      34.993  32.426  32.542  1.00  0.00    -0.206 F 
ATOM     68  C   UNL A   1      34.186  33.847  30.856  1.00  0.00     0.059 A 
ATOM     69  C   UNL A   1      35.735  34.818  29.256  1.00  0.00     0.059 A 
ATOM     70  F   UNL A   1      38.018  34.304  29.394  1.00  0.00    -0.206 F 
ATOM     71  C   UNL A   1      34.440  34.658  29.747  1.00  0.00     0.060 A 
BRANCH  71  72
ATOM     72  S   UNL A   1      33.064  35.543  28.981  1.00  0.00     0.124 S 
ATOM     73  O   UNL A   1      32.446  34.489  28.185  1.00  0.00    -0.237 OA
ATOM     74  O   UNL A   1      32.304  35.995  30.142  1.00  0.00    -0.237 OA
ATOM     75  O   UNL A   1      33.727  36.600  28.225  1.00  0.00    -0.744 OA
ENDBRANCH  71  72
ENDBRANCH  39  64
BRANCH  51  76
ATOM     76  C   UNL A   1      39.802  34.214  37.105  1.00  0.00     0.058 A 
ATOM     77  C   UNL A   1      40.424  35.471  37.054  1.00  0.00     0.135 A 
ATOM     78  C   UNL A   1      38.979  33.928  38.205  1.00  0.00     0.135 A 
ATOM     79  F   UNL A   1      41.225  35.788  36.025  1.00  0.00    -0.206 F 
ATOM     80  C   UNL A   1      40.259  36.401  38.075  1.00  0.00     0.059 A 
ATOM     81  C   UNL A   1      38.782  34.852  39.225  1.00  0.00     0.059 A 
ATOM     82  F   UNL A   1      38.355  32.742  38.292  1.00  0.00    -0.206 F 
ATOM     83  C   UNL A   1      39.440  36.080  39.158  1.00  0.00     0.060 A 
BRANCH  83  84
ATOM     84  S   UNL A   1      39.223  37.297  40.474  1.00  0.00     0.124 S 
ATOM     85  O   UNL A   1      40.572  37.840  40.594  1.00  0.00    -0.237 OA
ATOM     86  O   UNL A   1      38.224  38.199  39.908  1.00  0.00    -0.237 OA
ATOM     87  O   UNL A   1      38.765  36.494  41.604  1.00  0.00    -0.744 OA
ENDBRANCH  83  84
ENDBRANCH  51  76
ENDBRANCH  25  26
ENDBRANCH  18  20
ENDBRANCH  17  18
ENDBRANCH  16  17
ENDBRANCH   1  16
TORSDOF 19
ENDMDL
MODEL 2
REMARK VINA RESULT:      -9.8      4.997     12.907
REMARK SMILES CCCCCC(=O)N[C@H](C)C(=O)OCCOC(=O)c1ccc(-c2c3nc(c(-c4c(F)cc(S(=O)(=O)[O-])cc4F)c4ccc([nH]4)c(-c4c(F)cc(S(=O)(=O)[O-])cc4F)c4nc(c(-c5c(F)cc(S(=O)(=O)[O-])cc5F)c5ccc2[nH]5)C=C4)C=C3)cc1
REMARK SMILES IDX 14 1 13 2 11 3 12 4 9 5 10 6 8 7 6 8 7 9 5 11 4 12 3 13 2 14
REMARK SMILES IDX 1 15 15 16 16 17 17 18 18 19 19 20 20 21 84 22 21 23 83 24
REMARK SMILES IDX 22 25 23 26 24 27 77 28 25 29 82 30 76 31 78 32 26 33 81 34
REMARK SMILES IDX 75 35 74 36 27 38 61 39 40 40 60 41 41 42 44 43 59 44 79 45
REMARK SMILES IDX 42 46 43 47 58 49 80 50 45 51 28 52 29 53 38 54 30 55 31 56
REMARK SMILES IDX 37 57 39 58 32 59 33 60 34 61 35 62 36 63 62 64 63 65 72 66
REMARK SMILES IDX 64 67 65 68 71 69 73 70 66 71 67 72 68 73 69 74 70 75 46 76
REMARK SMILES IDX 47 77 56 78 48 79 49 80 55 81 57 82 50 83 51 84 52 85 53 86
REMARK SMILES IDX 54 87
REMARK H PARENT 8 10 78 37 44 48
REMARK Flexibility Score: inf
ROOT
ATOM      1  C   UNL A   1      33.988  33.623  27.982  1.00  0.00     0.274 C 
ENDROOT
BRANCH   1   2
ATOM      2  O   UNL A   1      33.764  33.895  29.382  1.00  0.00    -0.461 OA
BRANCH   2   3
ATOM      3  C   UNL A   1      33.213  35.101  29.680  1.00  0.00     0.328 C 
ATOM      4  O   UNL A   1      32.557  35.769  28.888  1.00  0.00    -0.250 OA
BRANCH   3   5
ATOM      5  C   UNL A   1      33.628  35.624  31.074  1.00  0.00     0.189 C 
ATOM      6  C   UNL A   1      33.226  37.035  31.503  1.00  0.00     0.043 C 
BRANCH   5   7
ATOM      7  N   UNL A   1      33.375  34.668  32.160  1.00  0.00    -0.343 N 
ATOM      8  C   UNL A   1      34.234  34.157  33.088  1.00  0.00     0.220 C 
ATOM      9  O   UNL A   1      33.943  33.091  33.631  1.00  0.00    -0.275 OA
ATOM     10  H   UNL A   1      32.446  34.347  32.228  1.00  0.00     0.164 HD
BRANCH   8  11
ATOM     11  C   UNL A   1      35.463  34.940  33.516  1.00  0.00     0.100 C 
BRANCH  11  12
ATOM     12  C   UNL A   1      36.772  34.158  33.486  1.00  0.00     0.010 C 
BRANCH  12  13
ATOM     13  C   UNL A   1      37.730  34.508  32.341  1.00  0.00     0.000 C 
BRANCH  13  14
ATOM     14  C   UNL A   1      37.270  34.138  30.929  1.00  0.00    -0.003 C 
ATOM     15  C   UNL A   1      36.797  32.705  30.766  1.00  0.00     0.004 C 
ENDBRANCH  13  14
ENDBRANCH  12  13
ENDBRANCH  11  12
ENDBRANCH   8  11
ENDBRANCH   5   7
ENDBRANCH   3   5
ENDBRANCH   2   3
ENDBRANCH   1   2
BRANCH   1  16
ATOM     16  C   UNL A   1      33.511  32.214  27.628  1.00  0.00     0.275 C 
BRANCH  16  17
ATOM     17  O   UNL A   1      34.050  31.274  28.570  1.00  0.00    -0.458 OA
BRANCH  17  18
ATOM     18  C   UNL A   1      34.428  30.098  28.016  1.00  0.00     0.338 C 
ATOM     19  O   UNL A   1      33.811  29.417  27.216  1.00  0.00    -0.246 OA
BRANCH  18  20
ATOM     20  C   UNL A   1      35.835  29.863  28.357  1.00  0.00     0.060 A 
ATOM     21  C   UNL A   1      36.785  30.083  27.358  1.00  0.00     0.016 A 
ATOM     22  C   UNL A   1      36.215  29.406  29.616  1.00  0.00     0.016 A 
ATOM     23  C   UNL A   1      38.124  29.818  27.593  1.00  0.00     0.010 A 
ATOM     24  C   UNL A   1      37.567  29.161  29.863  1.00  0.00     0.010 A 
ATOM     25  C   UNL A   1      38.522  29.357  28.850  1.00  0.00    -0.014 A 
BRANCH  25  26
ATOM     26  C   UNL A   1      39.950  29.064  29.086  1.00  0.00     0.031 A 
ATOM     27  C   UNL A   1      40.839  30.126  29.657  1.00  0.00     0.074 A 
ATOM     28  C   UNL A   1      40.420  27.834  28.805  1.00  0.00     0.049 A 
ATOM     29  N   UNL A   1      42.131  30.101  29.850  1.00  0.00    -0.248 NA
ATOM     30  C   UNL A   1      40.192  31.386  30.058  1.00  0.00     0.031 C 
ATOM     31  C   UNL A   1      39.617  26.724  28.285  1.00  0.00     0.029 A 
ATOM     32  N   UNL A   1      41.682  27.314  28.911  1.00  0.00    -0.354 N 
ATOM     33  C   UNL A   1      42.459  31.348  30.366  1.00  0.00     0.074 A 
ATOM     34  C   UNL A   1      41.230  32.109  30.452  1.00  0.00     0.031 C 
ATOM     35  C   UNL A   1      40.409  25.652  28.117  1.00  0.00     0.029 A 
ATOM     36  C   UNL A   1      41.777  26.017  28.468  1.00  0.00     0.049 A 
ATOM     37  H   UNL A   1      42.446  27.820  29.270  1.00  0.00     0.167 HD
ATOM     38  C   UNL A   1      43.678  31.809  30.730  1.00  0.00     0.037 A 
ATOM     39  C   UNL A   1      42.857  25.225  28.329  1.00  0.00     0.037 A 
ATOM     40  C   UNL A   1      44.884  31.025  30.651  1.00  0.00     0.049 A 
ATOM     41  C   UNL A   1      44.202  25.770  28.719  1.00  0.00     0.074 A 
ATOM     42  C   UNL A   1      46.173  31.388  30.999  1.00  0.00     0.029 A 
ATOM     43  N   UNL A   1      44.947  29.716  30.191  1.00  0.00    -0.354 N 
ATOM     44  N   UNL A   1      44.502  26.958  29.190  1.00  0.00    -0.248 NA
ATOM     45  C   UNL A   1      45.353  24.874  28.557  1.00  0.00     0.031 C 
ATOM     46  C   UNL A   1      47.019  30.308  30.718  1.00  0.00     0.029 A 
ATOM     47  C   UNL A   1      46.252  29.260  30.234  1.00  0.00     0.049 A 
ATOM     48  H   UNL A   1      44.174  29.190  29.881  1.00  0.00     0.167 HD
ATOM     49  C   UNL A   1      45.877  26.950  29.389  1.00  0.00     0.074 A 
ATOM     50  C   UNL A   1      46.344  25.631  29.008  1.00  0.00     0.031 C 
ATOM     51  C   UNL A   1      46.684  27.943  29.842  1.00  0.00     0.037 A 
BRANCH  38  52
ATOM     52  C   UNL A   1      43.771  33.231  31.207  1.00  0.00     0.058 A 
ATOM     53  C   UNL A   1      43.910  34.306  30.315  1.00  0.00     0.135 A 
ATOM     54  C   UNL A   1      43.700  33.524  32.578  1.00  0.00     0.135 A 
ATOM     55  F   UNL A   1      44.007  34.080  28.995  1.00  0.00    -0.206 F 
ATOM     56  C   UNL A   1      43.993  35.619  30.766  1.00  0.00     0.059 A 
ATOM     57  C   UNL A   1      43.759  34.831  33.051  1.00  0.00     0.059 A 
ATOM     58  F   UNL A   1      43.575  32.533  33.475  1.00  0.00    -0.206 F 
ATOM     59  C   UNL A   1      43.919  35.872  32.138  1.00  0.00     0.060 A 
BRANCH  59  60
ATOM     60  S   UNL A   1      44.023  37.581  32.712  1.00  0.00     0.124 S 
ATOM     61  O   UNL A   1      43.721  38.317  31.487  1.00  0.00    -0.237 OA
ATOM     62  O   UNL A   1      42.996  37.628  33.748  1.00  0.00    -0.237 OA
ATOM     63  O   UNL A   1      45.397  37.696  33.190  1.00  0.00    -0.744 OA
ENDBRANCH  59  60
ENDBRANCH  38  52
BRANCH  39  64
ATOM     64  C   UNL A   1      42.705  23.856  27.773  1.00  0.00     0.058 A 
ATOM     65  C   UNL A   1      42.561  22.743  28.614  1.00  0.00     0.135 A 
ATOM     66  C   UNL A   1      42.677  23.637  26.386  1.00  0.00     0.135 A 
ATOM     67  F   UNL A   1      42.586  22.902  29.946  1.00  0.00    -0.206 F 
ATOM     68  C   UNL A   1      42.403  21.460  28.102  1.00  0.00     0.059 A 
ATOM     69  C   UNL A   1      42.496  22.366  25.850  1.00  0.00     0.059 A 
ATOM     70  F   UNL A   1      42.796  24.671  25.539  1.00  0.00    -0.206 F 
ATOM     71  C   UNL A   1      42.370  21.281  26.717  1.00  0.00     0.060 A 
BRANCH  71  72
ATOM     72  S   UNL A   1      42.109  19.620  26.058  1.00  0.00     0.124 S 
ATOM     73  O   UNL A   1      43.042  19.600  24.939  1.00  0.00    -0.237 OA
ATOM     74  O   UNL A   1      42.460  18.778  27.198  1.00  0.00    -0.237 OA
ATOM     75  O   UNL A   1      40.694  19.621  25.703  1.00  0.00    -0.744 OA
ENDBRANCH  71  72
ENDBRANCH  39  64
BRANCH  51  76
ATOM     76  C   UNL A   1      48.146  27.623  29.958  1.00  0.00     0.058 A 
ATOM     77  C   UNL A   1      49.001  27.690  28.847  1.00  0.00     0.135 A 
ATOM     78  C   UNL A   1      48.700  27.268  31.198  1.00  0.00     0.135 A 
ATOM     79  F   UNL A   1      48.516  28.018  27.640  1.00  0.00    -0.206 F 
ATOM     80  C   UNL A   1      50.353  27.386  28.956  1.00  0.00     0.059 A 
ATOM     81  C   UNL A   1      50.053  26.982  31.333  1.00  0.00     0.059 A 
ATOM     82  F   UNL A   1      47.923  27.200  32.291  1.00  0.00    -0.206 F 
ATOM     83  C   UNL A   1      50.869  27.029  30.203  1.00  0.00     0.060 A 
BRANCH  83  84
ATOM     84  S   UNL A   1      52.628  26.645  30.338  1.00  0.00     0.124 S 
ATOM     85  O   UNL A   1      52.965  26.331  28.954  1.00  0.00    -0.237 OA
ATOM     86  O   UNL A   1      53.183  27.891  30.860  1.00  0.00    -0.237 OA
ATOM     87  O   UNL A   1      52.657  25.518  31.265  1.00  0.00    -0.744 OA
ENDBRANCH  83  84
ENDBRANCH  51  76
ENDBRANCH  25  26
ENDBRANCH  18  20
ENDBRANCH  17  18
ENDBRANCH  16  17
ENDBRANCH   1  16
TORSDOF 19
ENDMDL
MODEL 3
REMARK VINA RESULT:      -9.6      6.035     11.829
REMARK SMILES CCCCCC(=O)N[C@H](C)C(=O)OCCOC(=O)c1ccc(-c2c3nc(c(-c4c(F)cc(S(=O)(=O)[O-])cc4F)c4ccc([nH]4)c(-c4c(F)cc(S(=O)(=O)[O-])cc4F)c4nc(c(-c5c(F)cc(S(=O)(=O)[O-])cc5F)c5ccc2[nH]5)C=C4)C=C3)cc1
REMARK SMILES IDX 14 1 13 2 11 3 12 4 9 5 10 6 8 7 6 8 7 9 5 11 4 12 3 13 2 14
REMARK SMILES IDX 1 15 15 16 16 17 17 18 18 19 19 20 20 21 84 22 21 23 83 24
REMARK SMILES IDX 22 25 23 26 24 27 77 28 25 29 82 30 76 31 78 32 26 33 81 34
REMARK SMILES IDX 75 35 74 36 27 38 61 39 40 40 60 41 41 42 44 43 59 44 79 45
REMARK SMILES IDX 42 46 43 47 58 49 80 50 45 51 28 52 29 53 38 54 30 55 31 56
REMARK SMILES IDX 37 57 39 58 32 59 33 60 34 61 35 62 36 63 62 64 63 65 72 66
REMARK SMILES IDX 64 67 65 68 71 69 73 70 66 71 67 72 68 73 69 74 70 75 46 76
REMARK SMILES IDX 47 77 56 78 48 79 49 80 55 81 57 82 50 83 51 84 52 85 53 86
REMARK SMILES IDX 54 87
REMARK H PARENT 8 10 78 37 44 48
REMARK Flexibility Score: inf
ROOT
ATOM      1  C   UNL A   1      32.408  28.637  25.696  1.00  0.00     0.274 C 
ENDROOT
BRANCH   1   2
ATOM      2  O   UNL A   1      32.337  29.360  24.449  1.00  0.00    -0.461 OA
BRANCH   2   3
ATOM      3  C   UNL A   1      32.664  28.664  23.328  1.00  0.00     0.328 C 
ATOM      4  O   UNL A   1      33.692  28.849  22.684  1.00  0.00    -0.250 OA
BRANCH   3   5
ATOM      5  C   UNL A   1      31.536  27.720  22.855  1.00  0.00     0.189 C 
ATOM      6  C   UNL A   1      30.103  28.243  22.762  1.00  0.00     0.043 C 
BRANCH   5   7
ATOM      7  N   UNL A   1      31.879  26.952  21.651  1.00  0.00    -0.343 N 
ATOM      8  C   UNL A   1      32.595  25.796  21.531  1.00  0.00     0.220 C 
ATOM      9  O   UNL A   1      33.114  25.541  20.444  1.00  0.00    -0.275 OA
ATOM     10  H   UNL A   1      31.542  27.326  20.805  1.00  0.00     0.164 HD
BRANCH   8  11
ATOM     11  C   UNL A   1      32.656  24.803  22.678  1.00  0.00     0.100 C 
BRANCH  11  12
ATOM     12  C   UNL A   1      33.950  24.826  23.486  1.00  0.00     0.010 C 
BRANCH  12  13
ATOM     13  C   UNL A   1      34.925  23.676  23.213  1.00  0.00     0.000 C 
BRANCH  13  14
ATOM     14  C   UNL A   1      35.652  23.094  24.428  1.00  0.00    -0.003 C 
ATOM     15  C   UNL A   1      36.810  22.169  24.099  1.00  0.00     0.004 C 
ENDBRANCH  13  14
ENDBRANCH  12  13
ENDBRANCH  11  12
ENDBRANCH   8  11
ENDBRANCH   5   7
ENDBRANCH   3   5
ENDBRANCH   2   3
ENDBRANCH   1   2
BRANCH   1  16
ATOM     16  C   UNL A   1      33.850  28.583  26.202  1.00  0.00     0.275 C 
BRANCH  16  17
ATOM     17  O   UNL A   1      33.881  28.921  27.597  1.00  0.00    -0.458 OA
BRANCH  17  18
ATOM     18  C   UNL A   1      34.464  30.115  27.860  1.00  0.00     0.338 C 
ATOM     19  O   UNL A   1      33.924  31.201  27.975  1.00  0.00    -0.246 OA
BRANCH  18  20
ATOM     20  C   UNL A   1      35.864  29.870  28.222  1.00  0.00     0.060 A 
ATOM     21  C   UNL A   1      36.829  30.073  27.234  1.00  0.00     0.016 A 
ATOM     22  C   UNL A   1      36.223  29.418  29.489  1.00  0.00     0.016 A 
ATOM     23  C   UNL A   1      38.163  29.798  27.489  1.00  0.00     0.010 A 
ATOM     24  C   UNL A   1      37.569  29.162  29.756  1.00  0.00     0.010 A 
ATOM     25  C   UNL A   1      38.540  29.342  28.754  1.00  0.00    -0.014 A 
BRANCH  25  26
ATOM     26  C   UNL A   1      39.961  29.038  29.012  1.00  0.00     0.031 A 
ATOM     27  C   UNL A   1      40.848  30.089  29.608  1.00  0.00     0.074 A 
ATOM     28  C   UNL A   1      40.428  27.808  28.727  1.00  0.00     0.049 A 
ATOM     29  N   UNL A   1      42.135  30.053  29.822  1.00  0.00    -0.248 NA
ATOM     30  C   UNL A   1      40.201  31.349  30.010  1.00  0.00     0.031 C 
ATOM     31  C   UNL A   1      39.627  26.708  28.183  1.00  0.00     0.029 A 
ATOM     32  N   UNL A   1      41.685  27.278  28.849  1.00  0.00    -0.354 N 
ATOM     33  C   UNL A   1      42.462  31.294  30.356  1.00  0.00     0.074 A 
ATOM     34  C   UNL A   1      41.237  32.062  30.428  1.00  0.00     0.031 C 
ATOM     35  C   UNL A   1      40.415  25.633  28.017  1.00  0.00     0.029 A 
ATOM     36  C   UNL A   1      41.779  25.985  28.395  1.00  0.00     0.049 A 
ATOM     37  H   UNL A   1      42.445  27.776  29.226  1.00  0.00     0.167 HD
ATOM     38  C   UNL A   1      43.679  31.743  30.744  1.00  0.00     0.037 A 
ATOM     39  C   UNL A   1      42.856  25.188  28.266  1.00  0.00     0.037 A 
ATOM     40  C   UNL A   1      44.880  30.952  30.678  1.00  0.00     0.049 A 
ATOM     41  C   UNL A   1      44.198  25.720  28.685  1.00  0.00     0.074 A 
ATOM     42  C   UNL A   1      46.166  31.303  31.051  1.00  0.00     0.029 A 
ATOM     43  N   UNL A   1      44.943  29.647  30.207  1.00  0.00    -0.354 N 
ATOM     44  N   UNL A   1      44.498  26.901  29.172  1.00  0.00    -0.248 NA
ATOM     45  C   UNL A   1      45.345  24.818  28.534  1.00  0.00     0.031 C 
ATOM     46  C   UNL A   1      47.010  30.220  30.775  1.00  0.00     0.029 A 
ATOM     47  C   UNL A   1      46.244  29.182  30.267  1.00  0.00     0.049 A 
ATOM     48  H   UNL A   1      44.172  29.129  29.879  1.00  0.00     0.167 HD
ATOM     49  C   UNL A   1      45.869  26.882  29.394  1.00  0.00     0.074 A 
ATOM     50  C   UNL A   1      46.334  25.564  29.008  1.00  0.00     0.031 C 
ATOM     51  C   UNL A   1      46.675  27.866  29.869  1.00  0.00     0.037 A 
BRANCH  38  52
ATOM     52  C   UNL A   1      43.773  33.159  31.236  1.00  0.00     0.058 A 
ATOM     53  C   UNL A   1      44.049  34.229  30.371  1.00  0.00     0.135 A 
ATOM     54  C   UNL A   1      43.562  33.453  32.593  1.00  0.00     0.135 A 
ATOM     55  F   UNL A   1      44.282  34.002  29.068  1.00  0.00    -0.206 F 
ATOM     56  C   UNL A   1      44.132  35.538  30.836  1.00  0.00     0.059 A 
ATOM     57  C   UNL A   1      43.618  34.757  33.077  1.00  0.00     0.059 A 
ATOM     58  F   UNL A   1      43.302  32.467  33.465  1.00  0.00    -0.206 F 
ATOM     59  C   UNL A   1      43.917  35.791  32.193  1.00  0.00     0.060 A 
BRANCH  59  60
ATOM     60  S   UNL A   1      44.023  37.495  32.783  1.00  0.00     0.124 S 
ATOM     61  O   UNL A   1      45.389  37.540  33.297  1.00  0.00    -0.237 OA
ATOM     62  O   UNL A   1      43.778  38.265  31.568  1.00  0.00    -0.237 OA
ATOM     63  O   UNL A   1      42.970  37.571  33.792  1.00  0.00    -0.744 OA
ENDBRANCH  59  60
ENDBRANCH  38  52
BRANCH  39  64
ATOM     64  C   UNL A   1      42.705  23.825  27.695  1.00  0.00     0.058 A 
ATOM     65  C   UNL A   1      42.714  23.613  26.310  1.00  0.00     0.135 A 
ATOM     66  C   UNL A   1      42.576  22.702  28.529  1.00  0.00     0.135 A 
ATOM     67  F   UNL A   1      42.830  24.656  25.473  1.00  0.00    -0.206 F 
ATOM     68  C   UNL A   1      42.589  22.339  25.767  1.00  0.00     0.059 A 
ATOM     69  C   UNL A   1      42.475  21.415  28.011  1.00  0.00     0.059 A 
ATOM     70  F   UNL A   1      42.579  22.849  29.862  1.00  0.00    -0.206 F 
ATOM     71  C   UNL A   1      42.472  21.244  26.627  1.00  0.00     0.060 A 
BRANCH  71  72
ATOM     72  S   UNL A   1      42.367  19.586  25.918  1.00  0.00     0.124 S 
ATOM     73  O   UNL A   1      40.997  19.568  25.420  1.00  0.00    -0.237 OA
ATOM     74  O   UNL A   1      43.416  19.618  24.903  1.00  0.00    -0.237 OA
ATOM     75  O   UNL A   1      42.638  18.718  27.060  1.00  0.00    -0.744 OA
ENDBRANCH  71  72
ENDBRANCH  39  64
BRANCH  51  76
ATOM     76  C   UNL A   1      48.132  27.535  30.008  1.00  0.00     0.058 A 
ATOM     77  C   UNL A   1      49.046  27.811  28.979  1.00  0.00     0.135 A 
ATOM     78  C   UNL A   1      48.622  26.958  31.189  1.00  0.00     0.135 A 
ATOM     79  F   UNL A   1      48.624  28.357  27.828  1.00  0.00    -0.206 F 
ATOM     80  C   UNL A   1      50.394  27.497  29.106  1.00  0.00     0.059 A 
ATOM     81  C   UNL A   1      49.969  26.657  31.346  1.00  0.00     0.059 A 
ATOM     82  F   UNL A   1      47.787  26.685  32.205  1.00  0.00    -0.206 F 
ATOM     83  C   UNL A   1      50.845  26.916  30.293  1.00  0.00     0.060 A 
BRANCH  83  84
ATOM     84  S   UNL A   1      52.599  26.521  30.454  1.00  0.00     0.124 S 
ATOM     85  O   UNL A   1      52.564  25.420  31.409  1.00  0.00    -0.237 OA
ATOM     86  O   UNL A   1      52.969  26.164  29.087  1.00  0.00    -0.237 OA
ATOM     87  O   UNL A   1      53.182  27.765  30.948  1.00  0.00    -0.744 OA
ENDBRANCH  83  84
ENDBRANCH  51  76
ENDBRANCH  25  26
ENDBRANCH  18  20
ENDBRANCH  17  18
ENDBRANCH  16  17
ENDBRANCH   1  16
TORSDOF 19
ENDMDL
