MODEL 1
REMARK VINA RESULT:     -12.6      0.000      0.000
REMARK SMILES O=C(OCCOC(=O)c1ccccc1-c1ccc(/C=C2/SC(=S)N(Cc3ccccc3)C2=O)o1)c1ccc(-c2c3nc(c(-c4c(F)cc(S(=O)(=O)[O-])cc4F)c4ccc([nH]4)c(-c4c(F)cc(S(=O)(=O)[O-])cc4F)c4nc(c(-c5c(F)cc(S(=O)(=O)[O-])cc5F)c5ccc2[nH]5)C=C4)C=C3)cc1
REMARK SMILES IDX 5 1 4 2 3 3 2 4 1 5 35 6 36 7 100 8 37 9 99 10 38 11 39 12
REMARK SMILES IDX 40 13 93 14 41 15 98 16 92 17 94 18 42 19 97 20 91 21 90 22
REMARK SMILES IDX 43 24 77 25 56 26 76 27 57 28 60 29 75 30 95 31 58 32 59 33
REMARK SMILES IDX 74 35 96 36 61 37 44 38 45 39 54 40 46 41 47 42 53 43 55 44
REMARK SMILES IDX 48 45 49 46 50 47 51 48 52 49 78 50 79 51 88 52 80 53 81 54
REMARK SMILES IDX 87 55 89 56 82 57 83 58 84 59 85 60 86 61 62 62 63 63 72 64
REMARK SMILES IDX 64 65 65 66 71 67 73 68 66 69 67 70 68 71 69 72 70 73 6 74
REMARK SMILES IDX 7 75 8 76 9 77 10 78 14 79 11 80 13 81 12 82 15 83 16 84
REMARK SMILES IDX 34 85 17 86 18 87 19 88 20 89 21 90 32 91 22 92 24 93 33 94
REMARK SMILES IDX 23 95 25 96 26 97 27 98 31 99 28 100 30 101 29 102
REMARK H PARENT 94 23 60 34
REMARK Flexibility Score: inf
ROOT
ATOM      1  C   UNL A   1      33.418  29.371  25.327  1.00  0.00     0.275 C 
ENDROOT
BRANCH   1   2
ATOM      2  C   UNL A   1      33.679  28.624  26.633  1.00  0.00     0.275 C 
BRANCH   2   3
ATOM      3  O   UNL A   1      33.725  29.487  27.785  1.00  0.00    -0.458 OA
BRANCH   3   4
ATOM      4  C   UNL A   1      34.693  30.311  28.252  1.00  0.00     0.338 C 
ATOM      5  O   UNL A   1      34.394  31.496  28.414  1.00  0.00    -0.246 OA
BRANCH   4   6
ATOM      6  C   UNL A   1      36.116  29.917  28.552  1.00  0.00     0.060 A 
ATOM      7  C   UNL A   1      36.601  29.404  29.755  1.00  0.00     0.016 A 
ATOM      8  C   UNL A   1      37.047  30.071  27.499  1.00  0.00     0.016 A 
ATOM      9  C   UNL A   1      37.941  29.042  29.903  1.00  0.00     0.010 A 
ATOM     10  C   UNL A   1      38.395  29.708  27.639  1.00  0.00     0.010 A 
ATOM     11  C   UNL A   1      38.851  29.200  28.854  1.00  0.00    -0.014 A 
BRANCH  11  12
ATOM     12  C   UNL A   1      40.279  28.915  29.135  1.00  0.00     0.031 A 
ATOM     13  C   UNL A   1      40.833  27.597  28.724  1.00  0.00     0.074 A 
ATOM     14  C   UNL A   1      41.089  29.889  29.586  1.00  0.00     0.049 A 
ATOM     15  N   UNL A   1      42.078  27.216  28.687  1.00  0.00    -0.248 NA
ATOM     16  C   UNL A   1      39.864  26.575  28.298  1.00  0.00     0.031 C 
ATOM     17  C   UNL A   1      40.602  31.182  30.017  1.00  0.00     0.029 A 
ATOM     18  N   UNL A   1      42.448  30.000  29.716  1.00  0.00    -0.354 N 
ATOM     19  C   UNL A   1      42.048  25.907  28.235  1.00  0.00     0.074 A 
ATOM     20  C   UNL A   1      40.661  25.552  28.030  1.00  0.00     0.031 C 
ATOM     21  C   UNL A   1      41.628  32.004  30.275  1.00  0.00     0.029 A 
ATOM     22  C   UNL A   1      42.864  31.266  30.082  1.00  0.00     0.049 A 
ATOM     23  H   UNL A   1      43.068  29.251  29.563  1.00  0.00     0.167 HD
ATOM     24  C   UNL A   1      43.098  25.086  28.019  1.00  0.00     0.037 A 
ATOM     25  C   UNL A   1      44.105  31.771  30.234  1.00  0.00     0.037 A 
ATOM     26  C   UNL A   1      44.463  25.465  28.278  1.00  0.00     0.049 A 
ATOM     27  C   UNL A   1      45.251  30.830  29.979  1.00  0.00     0.074 A 
ATOM     28  C   UNL A   1      45.604  24.693  28.188  1.00  0.00     0.029 A 
ATOM     29  N   UNL A   1      44.866  26.733  28.685  1.00  0.00    -0.354 N 
ATOM     30  N   UNL A   1      45.208  29.584  29.564  1.00  0.00    -0.248 NA
ATOM     31  C   UNL A   1      46.604  31.338  30.227  1.00  0.00     0.031 C 
ATOM     32  C   UNL A   1      46.693  25.482  28.576  1.00  0.00     0.029 A 
ATOM     33  C   UNL A   1      46.239  26.762  28.856  1.00  0.00     0.049 A 
ATOM     34  H   UNL A   1      44.263  27.496  28.831  1.00  0.00     0.167 HD
ATOM     35  C   UNL A   1      46.524  29.152  29.521  1.00  0.00     0.074 A 
ATOM     36  C   UNL A   1      47.345  30.291  29.889  1.00  0.00     0.031 C 
ATOM     37  C   UNL A   1      47.014  27.920  29.234  1.00  0.00     0.037 A 
BRANCH  24  38
ATOM     38  C   UNL A   1      42.782  23.703  27.540  1.00  0.00     0.058 A 
ATOM     39  C   UNL A   1      42.521  22.655  28.438  1.00  0.00     0.135 A 
ATOM     40  C   UNL A   1      42.781  23.408  26.168  1.00  0.00     0.135 A 
ATOM     41  F   UNL A   1      42.552  22.875  29.762  1.00  0.00    -0.206 F 
ATOM     42  C   UNL A   1      42.289  21.359  27.992  1.00  0.00     0.059 A 
ATOM     43  C   UNL A   1      42.527  22.124  25.699  1.00  0.00     0.059 A 
ATOM     44  F   UNL A   1      43.049  24.370  25.271  1.00  0.00    -0.206 F 
ATOM     45  C   UNL A   1      42.293  21.104  26.619  1.00  0.00     0.060 A 
BRANCH  45  46
ATOM     46  S   UNL A   1      41.987  19.416  26.058  1.00  0.00     0.124 S 
ATOM     47  O   UNL A   1      42.898  19.315  24.922  1.00  0.00    -0.237 OA
ATOM     48  O   UNL A   1      42.347  18.630  27.233  1.00  0.00    -0.237 OA
ATOM     49  O   UNL A   1      40.566  19.423  25.722  1.00  0.00    -0.744 OA
ENDBRANCH  45  46
ENDBRANCH  24  38
BRANCH  25  50
ATOM     50  C   UNL A   1      44.329  33.188  30.653  1.00  0.00     0.058 A 
ATOM     51  C   UNL A   1      44.453  34.223  29.713  1.00  0.00     0.135 A 
ATOM     52  C   UNL A   1      44.447  33.543  32.008  1.00  0.00     0.135 A 
ATOM     53  F   UNL A   1      44.358  33.954  28.401  1.00  0.00    -0.206 F 
ATOM     54  C   UNL A   1      44.702  35.540  30.090  1.00  0.00     0.059 A 
ATOM     55  C   UNL A   1      44.657  34.860  32.415  1.00  0.00     0.059 A 
ATOM     56  F   UNL A   1      44.346  32.604  32.962  1.00  0.00    -0.206 F 
ATOM     57  C   UNL A   1      44.798  35.851  31.446  1.00  0.00     0.060 A 
BRANCH  57  58
ATOM     58  S   UNL A   1      45.080  37.569  31.923  1.00  0.00     0.124 S 
ATOM     59  O   UNL A   1      46.112  37.427  32.942  1.00  0.00    -0.237 OA
ATOM     60  O   UNL A   1      45.510  38.165  30.660  1.00  0.00    -0.237 OA
ATOM     61  O   UNL A   1      43.772  38.008  32.401  1.00  0.00    -0.744 OA
ENDBRANCH  57  58
ENDBRANCH  25  50
BRANCH  37  62
ATOM     62  C   UNL A   1      48.504  27.761  29.316  1.00  0.00     0.058 A 
ATOM     63  C   UNL A   1      49.137  27.400  30.515  1.00  0.00     0.135 A 
ATOM     64  C   UNL A   1      49.300  27.950  28.177  1.00  0.00     0.135 A 
ATOM     65  F   UNL A   1      48.416  27.216  31.633  1.00  0.00    -0.206 F 
ATOM     66  C   UNL A   1      50.518  27.267  30.591  1.00  0.00     0.059 A 
ATOM     67  C   UNL A   1      50.679  27.791  28.222  1.00  0.00     0.059 A 
ATOM     68  F   UNL A   1      48.738  28.285  27.005  1.00  0.00    -0.206 F 
ATOM     69  C   UNL A   1      51.280  27.467  29.439  1.00  0.00     0.060 A 
BRANCH  69  70
ATOM     70  S   UNL A   1      53.071  27.280  29.547  1.00  0.00     0.124 S 
ATOM     71  O   UNL A   1      53.502  28.670  29.660  1.00  0.00    -0.237 OA
ATOM     72  O   UNL A   1      53.228  26.467  30.748  1.00  0.00    -0.237 OA
ATOM     73  O   UNL A   1      53.418  26.614  28.295  1.00  0.00    -0.744 OA
ENDBRANCH  69  70
ENDBRANCH  37  62
ENDBRANCH  11  12
ENDBRANCH   4   6
ENDBRANCH   3   4
ENDBRANCH   2   3
ENDBRANCH   1   2
BRANCH   1  74
ATOM     74  O   UNL A   1      32.036  29.325  24.960  1.00  0.00    -0.458 OA
BRANCH  74  75
ATOM     75  C   UNL A   1      31.751  28.807  23.742  1.00  0.00     0.338 C 
ATOM     76  O   UNL A   1      32.457  28.854  22.748  1.00  0.00    -0.246 OA
BRANCH  75  77
ATOM     77  C   UNL A   1      30.479  28.057  23.794  1.00  0.00     0.071 A 
ATOM     78  C   UNL A   1      29.383  28.632  23.126  1.00  0.00     0.016 A 
ATOM     79  C   UNL A   1      30.344  26.829  24.457  1.00  0.00     0.032 A 
ATOM     80  C   UNL A   1      28.148  27.983  23.110  1.00  0.00     0.001 A 
ATOM     81  C   UNL A   1      29.066  26.242  24.509  1.00  0.00     0.013 A 
ATOM     82  C   UNL A   1      27.985  26.797  23.817  1.00  0.00     0.001 A 
BRANCH  79  83
ATOM     83  C   UNL A   1      31.481  26.101  25.003  1.00  0.00     0.135 A 
ATOM     84  C   UNL A   1      31.815  25.573  26.228  1.00  0.00     0.051 A 
ATOM     85  O   UNL A   1      32.536  25.972  24.152  1.00  0.00    -0.457 OA
ATOM     86  C   UNL A   1      33.144  25.100  26.100  1.00  0.00     0.051 A 
ATOM     87  C   UNL A   1      33.549  25.306  24.786  1.00  0.00     0.128 A 
BRANCH  87  88
ATOM     88  C   UNL A   1      34.753  24.888  24.154  1.00  0.00     0.068 C 
ATOM     89  C   UNL A   1      35.010  23.581  24.011  1.00  0.00     0.084 C 
ATOM     90  S   UNL A   1      36.570  22.904  23.773  1.00  0.00    -0.054 SA
ATOM     91  C   UNL A   1      34.046  22.488  24.289  1.00  0.00     0.266 C 
ATOM     92  C   UNL A   1      36.085  21.380  24.547  1.00  0.00     0.148 C 
ATOM     93  N   UNL A   1      34.725  21.384  24.760  1.00  0.00    -0.288 N 
ATOM     94  O   UNL A   1      32.840  22.585  24.112  1.00  0.00    -0.268 OA
ATOM     95  S   UNL A   1      37.204  20.216  24.968  1.00  0.00    -0.052 S 
BRANCH  93  96
ATOM     96  C   UNL A   1      33.948  20.335  25.425  1.00  0.00     0.163 C 
BRANCH  96  97
ATOM     97  C   UNL A   1      33.696  19.164  24.480  1.00  0.00    -0.028 A 
ATOM     98  C   UNL A   1      32.651  19.199  23.549  1.00  0.00     0.005 A 
ATOM     99  C   UNL A   1      34.511  18.020  24.522  1.00  0.00     0.005 A 
ATOM    100  C   UNL A   1      32.434  18.122  22.683  1.00  0.00     0.000 A 
ATOM    101  C   UNL A   1      34.312  16.956  23.641  1.00  0.00     0.000 A 
ATOM    102  C   UNL A   1      33.269  17.006  22.721  1.00  0.00     0.000 A 
ENDBRANCH  96  97
ENDBRANCH  93  96
ENDBRANCH  87  88
ENDBRANCH  79  83
ENDBRANCH  75  77
ENDBRANCH  74  75
ENDBRANCH   1  74
TORSDOF 18
ENDMDL
MODEL 2
REMARK VINA RESULT:     -12.6      1.364      2.440
REMARK SMILES O=C(OCCOC(=O)c1ccccc1-c1ccc(/C=C2/SC(=S)N(Cc3ccccc3)C2=O)o1)c1ccc(-c2c3nc(c(-c4c(F)cc(S(=O)(=O)[O-])cc4F)c4ccc([nH]4)c(-c4c(F)cc(S(=O)(=O)[O-])cc4F)c4nc(c(-c5c(F)cc(S(=O)(=O)[O-])cc5F)c5ccc2[nH]5)C=C4)C=C3)cc1
REMARK SMILES IDX 5 1 4 2 3 3 2 4 1 5 35 6 36 7 100 8 37 9 99 10 38 11 39 12
REMARK SMILES IDX 40 13 93 14 41 15 98 16 92 17 94 18 42 19 97 20 91 21 90 22
REMARK SMILES IDX 43 24 77 25 56 26 76 27 57 28 60 29 75 30 95 31 58 32 59 33
REMARK SMILES IDX 74 35 96 36 61 37 44 38 45 39 54 40 46 41 47 42 53 43 55 44
REMARK SMILES IDX 48 45 49 46 50 47 51 48 52 49 78 50 79 51 88 52 80 53 81 54
REMARK SMILES IDX 87 55 89 56 82 57 83 58 84 59 85 60 86 61 62 62 63 63 72 64
REMARK SMILES IDX 64 65 65 66 71 67 73 68 66 69 67 70 68 71 69 72 70 73 6 74
REMARK SMILES IDX 7 75 8 76 9 77 10 78 14 79 11 80 13 81 12 82 15 83 16 84
REMARK SMILES IDX 34 85 17 86 18 87 19 88 20 89 21 90 32 91 22 92 24 93 33 94
REMARK SMILES IDX 23 95 25 96 26 97 27 98 31 99 28 100 30 101 29 102
REMARK H PARENT 94 23 60 34
REMARK Flexibility Score: inf
ROOT
ATOM      1  C   UNL A   1      32.183  27.873  26.465  1.00  0.00     0.275 C 
ENDROOT
BRANCH   1   2
ATOM      2  C   UNL A   1      33.510  28.229  27.133  1.00  0.00     0.275 C 
BRANCH   2   3
ATOM      3  O   UNL A   1      33.531  29.558  27.688  1.00  0.00    -0.458 OA
BRANCH   3   4
ATOM      4  C   UNL A   1      34.555  30.404  27.951  1.00  0.00     0.338 C 
ATOM      5  O   UNL A   1      34.336  31.611  27.820  1.00  0.00    -0.246 OA
BRANCH   4   6
ATOM      6  C   UNL A   1      35.952  30.002  28.351  1.00  0.00     0.060 A 
ATOM      7  C   UNL A   1      36.367  29.585  29.615  1.00  0.00     0.016 A 
ATOM      8  C   UNL A   1      36.932  30.037  27.332  1.00  0.00     0.016 A 
ATOM      9  C   UNL A   1      37.688  29.203  29.856  1.00  0.00     0.010 A 
ATOM     10  C   UNL A   1      38.261  29.653  27.566  1.00  0.00     0.010 A 
ATOM     11  C   UNL A   1      38.647  29.244  28.841  1.00  0.00    -0.014 A 
BRANCH  11  12
ATOM     12  C   UNL A   1      40.052  28.947  29.211  1.00  0.00     0.031 A 
ATOM     13  C   UNL A   1      40.628  27.634  28.816  1.00  0.00     0.074 A 
ATOM     14  C   UNL A   1      40.834  29.910  29.732  1.00  0.00     0.049 A 
ATOM     15  N   UNL A   1      41.871  27.247  28.855  1.00  0.00    -0.248 NA
ATOM     16  C   UNL A   1      39.686  26.623  28.309  1.00  0.00     0.031 C 
ATOM     17  C   UNL A   1      40.324  31.198  30.151  1.00  0.00     0.029 A 
ATOM     18  N   UNL A   1      42.182  30.013  29.953  1.00  0.00    -0.354 N 
ATOM     19  C   UNL A   1      41.868  25.947  28.381  1.00  0.00     0.074 A 
ATOM     20  C   UNL A   1      40.495  25.601  28.078  1.00  0.00     0.031 C 
ATOM     21  C   UNL A   1      41.333  32.011  30.490  1.00  0.00     0.029 A 
ATOM     22  C   UNL A   1      42.577  31.271  30.367  1.00  0.00     0.049 A 
ATOM     23  H   UNL A   1      42.808  29.263  29.830  1.00  0.00     0.167 HD
ATOM     24  C   UNL A   1      42.927  25.125  28.222  1.00  0.00     0.037 A 
ATOM     25  C   UNL A   1      43.807  31.767  30.610  1.00  0.00     0.037 A 
ATOM     26  C   UNL A   1      44.272  25.492  28.577  1.00  0.00     0.049 A 
ATOM     27  C   UNL A   1      44.964  30.825  30.417  1.00  0.00     0.074 A 
ATOM     28  C   UNL A   1      45.414  24.717  28.551  1.00  0.00     0.029 A 
ATOM     29  N   UNL A   1      44.652  26.752  29.031  1.00  0.00    -0.354 N 
ATOM     30  N   UNL A   1      44.944  29.586  29.979  1.00  0.00    -0.248 NA
ATOM     31  C   UNL A   1      46.299  31.322  30.763  1.00  0.00     0.031 C 
ATOM     32  C   UNL A   1      46.477  25.494  29.024  1.00  0.00     0.029 A 
ATOM     33  C   UNL A   1      46.011  26.772  29.294  1.00  0.00     0.049 A 
ATOM     34  H   UNL A   1      44.043  27.516  29.150  1.00  0.00     0.167 HD
ATOM     35  C   UNL A   1      46.259  29.149  30.016  1.00  0.00     0.074 A 
ATOM     36  C   UNL A   1      47.057  30.278  30.457  1.00  0.00     0.031 C 
ATOM     37  C   UNL A   1      46.762  27.920  29.742  1.00  0.00     0.037 A 
BRANCH  24  38
ATOM     38  C   UNL A   1      42.638  23.750  27.700  1.00  0.00     0.058 A 
ATOM     39  C   UNL A   1      42.438  22.662  28.564  1.00  0.00     0.135 A 
ATOM     40  C   UNL A   1      42.604  23.507  26.318  1.00  0.00     0.135 A 
ATOM     41  F   UNL A   1      42.503  22.833  29.894  1.00  0.00    -0.206 F 
ATOM     42  C   UNL A   1      42.232  21.377  28.076  1.00  0.00     0.059 A 
ATOM     43  C   UNL A   1      42.375  22.235  25.808  1.00  0.00     0.059 A 
ATOM     44  F   UNL A   1      42.815  24.510  25.451  1.00  0.00    -0.206 F 
ATOM     45  C   UNL A   1      42.201  21.174  26.695  1.00  0.00     0.060 A 
BRANCH  45  46
ATOM     46  S   UNL A   1      41.929  19.499  26.079  1.00  0.00     0.124 S 
ATOM     47  O   UNL A   1      42.785  19.479  24.897  1.00  0.00    -0.237 OA
ATOM     48  O   UNL A   1      42.377  18.681  27.201  1.00  0.00    -0.237 OA
ATOM     49  O   UNL A   1      40.494  19.464  25.814  1.00  0.00    -0.744 OA
ENDBRANCH  45  46
ENDBRANCH  24  38
BRANCH  25  50
ATOM     50  C   UNL A   1      44.007  33.177  31.067  1.00  0.00     0.058 A 
ATOM     51  C   UNL A   1      44.135  34.235  30.154  1.00  0.00     0.135 A 
ATOM     52  C   UNL A   1      44.098  33.500  32.432  1.00  0.00     0.135 A 
ATOM     53  F   UNL A   1      44.066  33.997  28.835  1.00  0.00    -0.206 F 
ATOM     54  C   UNL A   1      44.363  35.545  30.567  1.00  0.00     0.059 A 
ATOM     55  C   UNL A   1      44.285  34.809  32.873  1.00  0.00     0.059 A 
ATOM     56  F   UNL A   1      43.991  32.537  33.361  1.00  0.00    -0.206 F 
ATOM     57  C   UNL A   1      44.432  35.824  31.932  1.00  0.00     0.060 A 
BRANCH  57  58
ATOM     58  S   UNL A   1      44.686  37.533  32.453  1.00  0.00     0.124 S 
ATOM     59  O   UNL A   1      43.407  37.842  33.082  1.00  0.00    -0.237 OA
ATOM     60  O   UNL A   1      45.825  37.406  33.359  1.00  0.00    -0.237 OA
ATOM     61  O   UNL A   1      44.962  38.233  31.203  1.00  0.00    -0.744 OA
ENDBRANCH  57  58
ENDBRANCH  25  50
BRANCH  37  62
ATOM     62  C   UNL A   1      48.243  27.753  29.920  1.00  0.00     0.058 A 
ATOM     63  C   UNL A   1      49.141  28.009  28.873  1.00  0.00     0.135 A 
ATOM     64  C   UNL A   1      48.767  27.356  31.160  1.00  0.00     0.135 A 
ATOM     65  F   UNL A   1      48.685  28.385  27.667  1.00  0.00    -0.206 F 
ATOM     66  C   UNL A   1      50.510  27.841  29.037  1.00  0.00     0.059 A 
ATOM     67  C   UNL A   1      50.134  27.213  31.356  1.00  0.00     0.059 A 
ATOM     68  F   UNL A   1      47.947  27.110  32.194  1.00  0.00    -0.206 F 
ATOM     69  C   UNL A   1      50.996  27.440  30.283  1.00  0.00     0.060 A 
BRANCH  69  70
ATOM     70  S   UNL A   1      52.777  27.237  30.487  1.00  0.00     0.124 S 
ATOM     71  O   UNL A   1      52.855  26.707  31.845  1.00  0.00    -0.237 OA
ATOM     72  O   UNL A   1      53.109  26.300  29.420  1.00  0.00    -0.237 OA
ATOM     73  O   UNL A   1      53.294  28.590  30.310  1.00  0.00    -0.744 OA
ENDBRANCH  69  70
ENDBRANCH  37  62
ENDBRANCH  11  12
ENDBRANCH   4   6
ENDBRANCH   3   4
ENDBRANCH   2   3
ENDBRANCH   1   2
BRANCH   1  74
ATOM     74  O   UNL A   1      31.509  29.037  25.978  1.00  0.00    -0.458 OA
BRANCH  74  75
ATOM     75  C   UNL A   1      31.682  29.331  24.668  1.00  0.00     0.338 C 
ATOM     76  O   UNL A   1      32.745  29.403  24.073  1.00  0.00    -0.246 OA
BRANCH  75  77
ATOM     77  C   UNL A   1      30.371  29.454  23.998  1.00  0.00     0.071 A 
ATOM     78  C   UNL A   1      29.798  30.738  23.970  1.00  0.00     0.016 A 
ATOM     79  C   UNL A   1      29.714  28.369  23.401  1.00  0.00     0.032 A 
ATOM     80  C   UNL A   1      28.571  30.949  23.342  1.00  0.00     0.001 A 
ATOM     81  C   UNL A   1      28.434  28.587  22.861  1.00  0.00     0.013 A 
ATOM     82  C   UNL A   1      27.880  29.869  22.804  1.00  0.00     0.001 A 
BRANCH  79  83
ATOM     83  C   UNL A   1      30.341  27.064  23.237  1.00  0.00     0.135 A 
ATOM     84  C   UNL A   1      31.094  26.451  22.264  1.00  0.00     0.051 A 
ATOM     85  O   UNL A   1      30.059  26.168  24.222  1.00  0.00    -0.457 OA
ATOM     86  C   UNL A   1      31.274  25.113  22.694  1.00  0.00     0.051 A 
ATOM     87  C   UNL A   1      30.671  24.979  23.940  1.00  0.00     0.128 A 
BRANCH  87  88
ATOM     88  C   UNL A   1      30.693  23.860  24.818  1.00  0.00     0.068 C 
ATOM     89  C   UNL A   1      31.851  23.236  25.074  1.00  0.00     0.084 C 
ATOM     90  S   UNL A   1      31.997  21.625  25.650  1.00  0.00    -0.054 SA
ATOM     91  C   UNL A   1      33.190  23.727  24.666  1.00  0.00     0.266 C 
ATOM     92  C   UNL A   1      33.582  21.434  24.872  1.00  0.00     0.148 C 
ATOM     93  N   UNL A   1      34.010  22.652  24.394  1.00  0.00    -0.288 N 
ATOM     94  O   UNL A   1      33.487  24.911  24.595  1.00  0.00    -0.268 OA
ATOM     95  S   UNL A   1      34.320  19.943  24.739  1.00  0.00    -0.052 S 
BRANCH  93  96
ATOM     96  C   UNL A   1      35.241  22.904  23.641  1.00  0.00     0.163 C 
BRANCH  96  97
ATOM     97  C   UNL A   1      36.455  22.887  24.565  1.00  0.00    -0.028 A 
ATOM     98  C   UNL A   1      36.736  23.967  25.410  1.00  0.00     0.005 A 
ATOM     99  C   UNL A   1      37.323  21.782  24.589  1.00  0.00     0.005 A 
ATOM    100  C   UNL A   1      37.849  23.936  26.258  1.00  0.00     0.000 A 
ATOM    101  C   UNL A   1      38.419  21.739  25.453  1.00  0.00     0.000 A 
ATOM    102  C   UNL A   1      38.683  22.820  26.287  1.00  0.00     0.000 A 
ENDBRANCH  96  97
ENDBRANCH  93  96
ENDBRANCH  87  88
ENDBRANCH  79  83
ENDBRANCH  75  77
ENDBRANCH  74  75
ENDBRANCH   1  74
TORSDOF 18
ENDMDL
MODEL 3
REMARK VINA RESULT:     -12.1      3.698      9.855
REMARK SMILES O=C(OCCOC(=O)c1ccccc1-c1ccc(/C=C2/SC(=S)N(Cc3ccccc3)C2=O)o1)c1ccc(-c2c3nc(c(-c4c(F)cc(S(=O)(=O)[O-])cc4F)c4ccc([nH]4)c(-c4c(F)cc(S(=O)(=O)[O-])cc4F)c4nc(c(-c5c(F)cc(S(=O)(=O)[O-])cc5F)c5ccc2[nH]5)C=C4)C=C3)cc1
REMARK SMILES IDX 5 1 4 2 3 3 2 4 1 5 35 6 36 7 100 8 37 9 99 10 38 11 39 12
REMARK SMILES IDX 40 13 93 14 41 15 98 16 92 17 94 18 42 19 97 20 91 21 90 22
REMARK SMILES IDX 43 24 77 25 56 26 76 27 57 28 60 29 75 30 95 31 58 32 59 33
REMARK SMILES IDX 74 35 96 36 61 37 44 38 45 39 54 40 46 41 47 42 53 43 55 44
REMARK SMILES IDX 48 45 49 46 50 47 51 48 52 49 78 50 79 51 88 52 80 53 81 54
REMARK SMILES IDX 87 55 89 56 82 57 83 58 84 59 85 60 86 61 62 62 63 63 72 64
REMARK SMILES IDX 64 65 65 66 71 67 73 68 66 69 67 70 68 71 69 72 70 73 6 74
REMARK SMILES IDX 7 75 8 76 9 77 10 78 14 79 11 80 13 81 12 82 15 83 16 84
REMARK SMILES IDX 34 85 17 86 18 87 19 88 20 89 21 90 32 91 22 92 24 93 33 94
REMARK SMILES IDX 23 95 25 96 26 97 27 98 31 99 28 100 30 101 29 102
REMARK H PARENT 94 23 60 34
REMARK Flexibility Score: inf
ROOT
ATOM      1  C   UNL A   1      35.353  23.046  26.427  1.00  0.00     0.275 C 
ENDROOT
BRANCH   1   2
ATOM      2  C   UNL A   1      36.567  23.910  26.090  1.00  0.00     0.275 C 
BRANCH   2   3
ATOM      3  O   UNL A   1      37.793  23.161  25.998  1.00  0.00    -0.458 OA
BRANCH   3   4
ATOM      4  C   UNL A   1      39.039  23.417  26.464  1.00  0.00     0.338 C 
ATOM      5  O   UNL A   1      39.876  22.518  26.360  1.00  0.00    -0.246 OA
BRANCH   4   6
ATOM      6  C   UNL A   1      39.484  24.690  27.139  1.00  0.00     0.060 A 
ATOM      7  C   UNL A   1      40.234  25.716  26.565  1.00  0.00     0.016 A 
ATOM      8  C   UNL A   1      39.082  24.863  28.484  1.00  0.00     0.016 A 
ATOM      9  C   UNL A   1      40.557  26.869  27.284  1.00  0.00     0.010 A 
ATOM     10  C   UNL A   1      39.402  26.019  29.212  1.00  0.00     0.010 A 
ATOM     11  C   UNL A   1      40.156  27.026  28.613  1.00  0.00    -0.014 A 
BRANCH  11  12
ATOM     12  C   UNL A   1      40.650  28.218  29.343  1.00  0.00     0.031 A 
ATOM     13  C   UNL A   1      39.726  29.368  29.533  1.00  0.00     0.074 A 
ATOM     14  C   UNL A   1      41.841  28.185  29.968  1.00  0.00     0.049 A 
ATOM     15  N   UNL A   1      39.874  30.411  30.300  1.00  0.00    -0.248 NA
ATOM     16  C   UNL A   1      38.471  29.343  28.765  1.00  0.00     0.031 C 
ATOM     17  C   UNL A   1      42.787  27.101  29.804  1.00  0.00     0.029 A 
ATOM     18  N   UNL A   1      42.450  29.005  30.881  1.00  0.00    -0.354 N 
ATOM     19  C   UNL A   1      38.734  31.173  30.109  1.00  0.00     0.074 A 
ATOM     20  C   UNL A   1      37.911  30.483  29.138  1.00  0.00     0.031 C 
ATOM     21  C   UNL A   1      43.816  27.250  30.648  1.00  0.00     0.029 A 
ATOM     22  C   UNL A   1      43.630  28.490  31.382  1.00  0.00     0.049 A 
ATOM     23  H   UNL A   1      42.083  29.877  31.153  1.00  0.00     0.167 HD
ATOM     24  C   UNL A   1      38.419  32.346  30.697  1.00  0.00     0.037 A 
ATOM     25  C   UNL A   1      44.459  28.964  32.334  1.00  0.00     0.037 A 
ATOM     26  C   UNL A   1      39.287  33.022  31.625  1.00  0.00     0.049 A 
ATOM     27  C   UNL A   1      44.074  30.271  32.973  1.00  0.00     0.074 A 
ATOM     28  C   UNL A   1      39.122  34.259  32.217  1.00  0.00     0.029 A 
ATOM     29  N   UNL A   1      40.493  32.510  32.093  1.00  0.00    -0.354 N 
ATOM     30  N   UNL A   1      42.994  30.992  32.770  1.00  0.00    -0.248 NA
ATOM     31  C   UNL A   1      45.010  30.844  33.944  1.00  0.00     0.031 C 
ATOM     32  C   UNL A   1      40.245  34.512  33.013  1.00  0.00     0.029 A 
ATOM     33  C   UNL A   1      41.086  33.410  32.962  1.00  0.00     0.049 A 
ATOM     34  H   UNL A   1      40.870  31.637  31.842  1.00  0.00     0.167 HD
ATOM     35  C   UNL A   1      43.130  32.113  33.573  1.00  0.00     0.074 A 
ATOM     36  C   UNL A   1      44.366  31.943  34.314  1.00  0.00     0.031 C 
ATOM     37  C   UNL A   1      42.325  33.201  33.671  1.00  0.00     0.037 A 
BRANCH  24  38
ATOM     38  C   UNL A   1      37.118  32.972  30.295  1.00  0.00     0.058 A 
ATOM     39  C   UNL A   1      37.004  33.748  29.131  1.00  0.00     0.135 A 
ATOM     40  C   UNL A   1      35.981  32.830  31.105  1.00  0.00     0.135 A 
ATOM     41  F   UNL A   1      38.074  33.950  28.344  1.00  0.00    -0.206 F 
ATOM     42  C   UNL A   1      35.812  34.378  28.793  1.00  0.00     0.059 A 
ATOM     43  C   UNL A   1      34.772  33.431  30.774  1.00  0.00     0.059 A 
ATOM     44  F   UNL A   1      36.046  32.119  32.241  1.00  0.00    -0.206 F 
ATOM     45  C   UNL A   1      34.700  34.212  29.622  1.00  0.00     0.060 A 
BRANCH  45  46
ATOM     46  S   UNL A   1      33.159  35.034  29.167  1.00  0.00     0.124 S 
ATOM     47  O   UNL A   1      33.645  36.327  28.695  1.00  0.00    -0.237 OA
ATOM     48  O   UNL A   1      32.626  34.144  28.141  1.00  0.00    -0.237 OA
ATOM     49  O   UNL A   1      32.409  35.066  30.418  1.00  0.00    -0.744 OA
ENDBRANCH  45  46
ENDBRANCH  24  38
BRANCH  25  50
ATOM     50  C   UNL A   1      45.707  28.237  32.720  1.00  0.00     0.058 A 
ATOM     51  C   UNL A   1      46.928  28.478  32.072  1.00  0.00     0.135 A 
ATOM     52  C   UNL A   1      45.707  27.265  33.735  1.00  0.00     0.135 A 
ATOM     53  F   UNL A   1      47.000  29.388  31.088  1.00  0.00    -0.206 F 
ATOM     54  C   UNL A   1      48.089  27.778  32.395  1.00  0.00     0.059 A 
ATOM     55  C   UNL A   1      46.862  26.579  34.105  1.00  0.00     0.059 A 
ATOM     56  F   UNL A   1      44.573  26.979  34.393  1.00  0.00    -0.206 F 
ATOM     57  C   UNL A   1      48.047  26.831  33.418  1.00  0.00     0.060 A 
BRANCH  57  58
ATOM     58  S   UNL A   1      49.567  25.961  33.854  1.00  0.00     0.124 S 
ATOM     59  O   UNL A   1      49.527  26.010  35.310  1.00  0.00    -0.237 OA
ATOM     60  O   UNL A   1      49.344  24.647  33.255  1.00  0.00    -0.237 OA
ATOM     61  O   UNL A   1      50.611  26.762  33.222  1.00  0.00    -0.744 OA
ENDBRANCH  57  58
ENDBRANCH  25  50
BRANCH  37  62
ATOM     62  C   UNL A   1      42.777  34.279  34.612  1.00  0.00     0.058 A 
ATOM     63  C   UNL A   1      43.642  35.303  34.193  1.00  0.00     0.135 A 
ATOM     64  C   UNL A   1      42.320  34.300  35.938  1.00  0.00     0.135 A 
ATOM     65  F   UNL A   1      44.110  35.320  32.935  1.00  0.00    -0.206 F 
ATOM     66  C   UNL A   1      44.069  36.291  35.070  1.00  0.00     0.059 A 
ATOM     67  C   UNL A   1      42.708  35.297  36.823  1.00  0.00     0.059 A 
ATOM     68  F   UNL A   1      41.483  33.348  36.380  1.00  0.00    -0.206 F 
ATOM     69  C   UNL A   1      43.598  36.278  36.385  1.00  0.00     0.060 A 
BRANCH  69  70
ATOM     70  S   UNL A   1      44.150  37.574  37.511  1.00  0.00     0.124 S 
ATOM     71  O   UNL A   1      43.047  37.620  38.465  1.00  0.00    -0.237 OA
ATOM     72  O   UNL A   1      45.406  37.033  38.017  1.00  0.00    -0.237 OA
ATOM     73  O   UNL A   1      44.280  38.742  36.644  1.00  0.00    -0.744 OA
ENDBRANCH  69  70
ENDBRANCH  37  62
ENDBRANCH  11  12
ENDBRANCH   4   6
ENDBRANCH   3   4
ENDBRANCH   2   3
ENDBRANCH   1   2
BRANCH   1  74
ATOM     74  O   UNL A   1      35.546  21.687  26.025  1.00  0.00    -0.458 OA
BRANCH  74  75
ATOM     75  C   UNL A   1      35.319  21.404  24.721  1.00  0.00     0.338 C 
ATOM     76  O   UNL A   1      35.799  21.981  23.757  1.00  0.00    -0.246 OA
BRANCH  75  77
ATOM     77  C   UNL A   1      34.471  20.201  24.602  1.00  0.00     0.071 A 
ATOM     78  C   UNL A   1      35.125  18.959  24.694  1.00  0.00     0.016 A 
ATOM     79  C   UNL A   1      33.082  20.262  24.418  1.00  0.00     0.032 A 
ATOM     80  C   UNL A   1      34.399  17.772  24.610  1.00  0.00     0.001 A 
ATOM     81  C   UNL A   1      32.386  19.053  24.238  1.00  0.00     0.013 A 
ATOM     82  C   UNL A   1      33.032  17.818  24.363  1.00  0.00     0.001 A 
BRANCH  79  83
ATOM     83  C   UNL A   1      32.332  21.507  24.502  1.00  0.00     0.135 A 
ATOM     84  C   UNL A   1      31.426  22.051  25.381  1.00  0.00     0.051 A 
ATOM     85  O   UNL A   1      32.454  22.320  23.417  1.00  0.00    -0.457 OA
ATOM     86  C   UNL A   1      30.985  23.260  24.789  1.00  0.00     0.051 A 
ATOM     87  C   UNL A   1      31.681  23.433  23.598  1.00  0.00     0.128 A 
BRANCH  87  88
ATOM     88  C   UNL A   1      31.667  24.551  22.718  1.00  0.00     0.068 C 
ATOM     89  C   UNL A   1      31.835  25.786  23.209  1.00  0.00     0.084 C 
ATOM     90  S   UNL A   1      31.341  27.234  22.427  1.00  0.00    -0.054 SA
ATOM     91  C   UNL A   1      32.235  26.102  24.603  1.00  0.00     0.266 C 
ATOM     92  C   UNL A   1      31.133  28.065  23.983  1.00  0.00     0.148 C 
ATOM     93  N   UNL A   1      31.639  27.282  24.995  1.00  0.00    -0.288 N 
ATOM     94  O   UNL A   1      32.982  25.401  25.269  1.00  0.00    -0.268 OA
ATOM     95  S   UNL A   1      30.365  29.543  24.091  1.00  0.00    -0.052 S 
BRANCH  93  96
ATOM     96  C   UNL A   1      31.607  27.588  26.428  1.00  0.00     0.163 C 
BRANCH  96  97
ATOM     97  C   UNL A   1      32.670  28.623  26.785  1.00  0.00    -0.028 A 
ATOM     98  C   UNL A   1      34.027  28.280  26.827  1.00  0.00     0.005 A 
ATOM     99  C   UNL A   1      32.310  29.949  27.080  1.00  0.00     0.005 A 
ATOM    100  C   UNL A   1      34.993  29.240  27.150  1.00  0.00     0.000 A 
ATOM    101  C   UNL A   1      33.275  30.913  27.376  1.00  0.00     0.000 A 
ATOM    102  C   UNL A   1      34.619  30.556  27.414  1.00  0.00     0.000 A 
ENDBRANCH  96  97
ENDBRANCH  93  96
ENDBRANCH  87  88
ENDBRANCH  79  83
ENDBRANCH  75  77
ENDBRANCH  74  75
ENDBRANCH   1  74
TORSDOF 18
ENDMDL
