MODEL 1
REMARK VINA RESULT:     -10.3      0.000      0.000
REMARK SMILES Cc1cc(Br)cc2c1O[C@H](C(F)(F)F)C(C(=O)OCCOC(=O)c1ccc(-c3c4nc(c(-c5c(F)cc(S(=O)(=O)[O-])cc5F)c5ccc([nH]5)c(-c5c(F)cc(S(=O)(=O)[O-])cc5F)c5nc(c(-c6c(F)cc(S(=O)(=O)[O-])cc6F)c6ccc3[nH]6)C=C5)C=C4)cc1)=C2
REMARK SMILES IDX 20 1 19 2 18 3 16 4 17 5 15 6 1 7 2 8 3 9 8 10 4 11 7 12
REMARK SMILES IDX 9 13 5 14 6 15 90 16 10 17 11 18 12 19 13 20 14 21 21 22
REMARK SMILES IDX 22 23 23 24 24 25 25 26 89 27 26 28 88 29 27 30 28 31 29 32
REMARK SMILES IDX 82 33 30 34 87 35 81 36 83 37 31 38 86 39 80 40 79 41 32 43
REMARK SMILES IDX 66 44 45 45 65 46 46 47 49 48 64 49 84 50 47 51 48 52 63 54
REMARK SMILES IDX 85 55 50 56 33 57 34 58 43 59 35 60 36 61 42 62 44 63 37 64
REMARK SMILES IDX 38 65 39 66 40 67 41 68 67 69 68 70 77 71 69 72 70 73 76 74
REMARK SMILES IDX 78 75 71 76 72 77 73 78 74 79 75 80 51 81 52 82 61 83 53 84
REMARK SMILES IDX 54 85 60 86 62 87 55 88 56 89 57 90 58 91 59 92
REMARK H PARENT 83 42 49 53
REMARK Flexibility Score: inf
ROOT
ATOM      1  C   UNL A   1      33.647  33.523  28.129  1.00  0.00     0.275 C 
ENDROOT
BRANCH   1   2
ATOM      2  C   UNL A   1      34.289  34.743  28.791  1.00  0.00     0.275 C 
BRANCH   2   3
ATOM      3  O   UNL A   1      34.170  34.686  30.230  1.00  0.00    -0.459 OA
BRANCH   3   4
ATOM      4  C   UNL A   1      34.779  33.632  30.823  1.00  0.00     0.338 C 
ATOM      5  O   UNL A   1      34.402  32.471  30.800  1.00  0.00    -0.246 OA
BRANCH   4   6
ATOM      6  C   UNL A   1      36.005  34.063  31.520  1.00  0.00     0.087 C 
ATOM      7  C   UNL A   1      39.489  35.357  35.066  1.00  0.00     0.048 C 
ATOM      8  C   UNL A   1      39.521  34.840  33.657  1.00  0.00    -0.007 A 
ATOM      9  C   UNL A   1      40.757  34.579  33.042  1.00  0.00     0.023 A 
ATOM     10  C   UNL A   1      38.336  34.642  32.932  1.00  0.00     0.130 A 
ATOM     11  C   UNL A   1      40.807  34.118  31.729  1.00  0.00     0.019 A 
ATOM     12  C   UNL A   1      38.398  34.163  31.622  1.00  0.00     0.019 A 
ATOM     13  O   UNL A   1      37.154  34.953  33.549  1.00  0.00    -0.475 OA
ATOM     14  Br  UNL A   1      42.475  33.758  30.919  1.00  0.00    -0.051 Br
ATOM     15  C   UNL A   1      39.633  33.909  31.013  1.00  0.00     0.027 A 
ATOM     16  C   UNL A   1      37.175  33.888  30.897  1.00  0.00     0.027 C 
ATOM     17  C   UNL A   1      35.901  34.532  32.939  1.00  0.00     0.316 C 
BRANCH  17  18
ATOM     18  C   UNL A   1      35.248  33.465  33.833  1.00  0.00     0.430 C 
ATOM     19  F   UNL A   1      35.733  32.230  33.558  1.00  0.00    -0.167 F 
ATOM     20  F   UNL A   1      35.504  33.691  35.145  1.00  0.00    -0.167 F 
ATOM     21  F   UNL A   1      33.906  33.416  33.683  1.00  0.00    -0.167 F 
ENDBRANCH  17  18
ENDBRANCH   4   6
ENDBRANCH   3   4
ENDBRANCH   2   3
ENDBRANCH   1   2
BRANCH   1  22
ATOM     22  O   UNL A   1      34.621  32.789  27.365  1.00  0.00    -0.458 OA
BRANCH  22  23
ATOM     23  C   UNL A   1      34.537  31.443  27.467  1.00  0.00     0.338 C 
ATOM     24  O   UNL A   1      33.626  30.728  27.090  1.00  0.00    -0.246 OA
BRANCH  23  25
ATOM     25  C   UNL A   1      35.785  30.911  28.031  1.00  0.00     0.060 A 
ATOM     26  C   UNL A   1      35.725  29.707  28.720  1.00  0.00     0.016 A 
ATOM     27  C   UNL A   1      36.958  31.658  28.036  1.00  0.00     0.016 A 
ATOM     28  C   UNL A   1      36.773  29.321  29.545  1.00  0.00     0.010 A 
ATOM     29  C   UNL A   1      38.075  31.178  28.735  1.00  0.00     0.010 A 
ATOM     30  C   UNL A   1      37.985  30.023  29.535  1.00  0.00    -0.014 A 
BRANCH  30  31
ATOM     31  C   UNL A   1      39.129  29.528  30.357  1.00  0.00     0.031 A 
ATOM     32  C   UNL A   1      40.147  28.579  29.773  1.00  0.00     0.074 A 
ATOM     33  C   UNL A   1      39.280  29.972  31.625  1.00  0.00     0.049 A 
ATOM     34  N   UNL A   1      41.146  27.977  30.365  1.00  0.00    -0.248 NA
ATOM     35  C   UNL A   1      40.020  28.250  28.342  1.00  0.00     0.031 C 
ATOM     36  C   UNL A   1      38.383  30.913  32.304  1.00  0.00     0.029 A 
ATOM     37  N   UNL A   1      40.251  29.722  32.564  1.00  0.00    -0.354 N 
ATOM     38  C   UNL A   1      41.739  27.172  29.397  1.00  0.00     0.074 A 
ATOM     39  C   UNL A   1      40.970  27.339  28.184  1.00  0.00     0.031 C 
ATOM     40  C   UNL A   1      38.890  31.227  33.503  1.00  0.00     0.029 A 
ATOM     41  C   UNL A   1      40.083  30.426  33.735  1.00  0.00     0.049 A 
ATOM     42  H   UNL A   1      40.999  29.098  32.412  1.00  0.00     0.167 HD
ATOM     43  C   UNL A   1      42.829  26.376  29.510  1.00  0.00     0.037 A 
ATOM     44  C   UNL A   1      40.784  30.410  34.887  1.00  0.00     0.037 A 
ATOM     45  C   UNL A   1      43.616  26.257  30.711  1.00  0.00     0.049 A 
ATOM     46  C   UNL A   1      41.959  29.481  35.002  1.00  0.00     0.074 A 
ATOM     47  C   UNL A   1      44.739  25.477  30.927  1.00  0.00     0.029 A 
ATOM     48  N   UNL A   1      43.375  26.947  31.890  1.00  0.00    -0.354 N 
ATOM     49  N   UNL A   1      42.470  28.691  34.090  1.00  0.00    -0.248 NA
ATOM     50  C   UNL A   1      42.636  29.418  36.304  1.00  0.00     0.031 C 
ATOM     51  C   UNL A   1      45.151  25.663  32.250  1.00  0.00     0.029 A 
ATOM     52  C   UNL A   1      44.318  26.599  32.842  1.00  0.00     0.049 A 
ATOM     53  H   UNL A   1      42.642  27.589  32.029  1.00  0.00     0.167 HD
ATOM     54  C   UNL A   1      43.540  28.050  34.700  1.00  0.00     0.074 A 
ATOM     55  C   UNL A   1      43.610  28.552  36.058  1.00  0.00     0.031 C 
ATOM     56  C   UNL A   1      44.384  27.126  34.183  1.00  0.00     0.037 A 
BRANCH  43  57
ATOM     57  C   UNL A   1      43.241  25.561  28.312  1.00  0.00     0.058 A 
ATOM     58  C   UNL A   1      44.111  26.066  27.334  1.00  0.00     0.135 A 
ATOM     59  C   UNL A   1      42.807  24.230  28.174  1.00  0.00     0.135 A 
ATOM     60  F   UNL A   1      44.545  27.334  27.406  1.00  0.00    -0.206 F 
ATOM     61  C   UNL A   1      44.520  25.291  26.252  1.00  0.00     0.059 A 
ATOM     62  C   UNL A   1      43.226  23.428  27.116  1.00  0.00     0.059 A 
ATOM     63  F   UNL A   1      41.976  23.693  29.080  1.00  0.00    -0.206 F 
ATOM     64  C   UNL A   1      44.076  23.972  26.154  1.00  0.00     0.060 A 
BRANCH  64  65
ATOM     65  S   UNL A   1      44.627  22.980  24.749  1.00  0.00     0.124 S 
ATOM     66  O   UNL A   1      45.103  21.770  25.415  1.00  0.00    -0.237 OA
ATOM     67  O   UNL A   1      43.402  22.834  23.971  1.00  0.00    -0.237 OA
ATOM     68  O   UNL A   1      45.665  23.803  24.135  1.00  0.00    -0.744 OA
ENDBRANCH  64  65
ENDBRANCH  43  57
BRANCH  44  69
ATOM     69  C   UNL A   1      40.376  31.287  36.019  1.00  0.00     0.058 A 
ATOM     70  C   UNL A   1      41.186  32.354  36.434  1.00  0.00     0.135 A 
ATOM     71  C   UNL A   1      39.151  31.105  36.683  1.00  0.00     0.135 A 
ATOM     72  F   UNL A   1      42.370  32.566  35.839  1.00  0.00    -0.206 F 
ATOM     73  C   UNL A   1      40.800  33.207  37.463  1.00  0.00     0.059 A 
ATOM     74  C   UNL A   1      38.728  31.963  37.693  1.00  0.00     0.059 A 
ATOM     75  F   UNL A   1      38.330  30.107  36.319  1.00  0.00    -0.206 F 
ATOM     76  C   UNL A   1      39.564  33.007  38.082  1.00  0.00     0.060 A 
BRANCH  76  77
ATOM     77  S   UNL A   1      39.050  34.153  39.379  1.00  0.00     0.124 S 
ATOM     78  O   UNL A   1      40.180  34.083  40.298  1.00  0.00    -0.237 OA
ATOM     79  O   UNL A   1      38.903  35.404  38.641  1.00  0.00    -0.237 OA
ATOM     80  O   UNL A   1      37.803  33.572  39.867  1.00  0.00    -0.744 OA
ENDBRANCH  76  77
ENDBRANCH  44  69
BRANCH  56  81
ATOM     81  C   UNL A   1      45.486  26.609  35.063  1.00  0.00     0.058 A 
ATOM     82  C   UNL A   1      45.318  25.457  35.844  1.00  0.00     0.135 A 
ATOM     83  C   UNL A   1      46.758  27.202  35.025  1.00  0.00     0.135 A 
ATOM     84  F   UNL A   1      44.118  24.860  35.922  1.00  0.00    -0.206 F 
ATOM     85  C   UNL A   1      46.380  24.900  36.548  1.00  0.00     0.059 A 
ATOM     86  C   UNL A   1      47.839  26.650  35.702  1.00  0.00     0.059 A 
ATOM     87  F   UNL A   1      46.967  28.305  34.289  1.00  0.00    -0.206 F 
ATOM     88  C   UNL A   1      47.641  25.495  36.457  1.00  0.00     0.060 A 
BRANCH  88  89
ATOM     89  S   UNL A   1      49.028  24.702  37.297  1.00  0.00     0.124 S 
ATOM     90  O   UNL A   1      48.739  25.003  38.695  1.00  0.00    -0.237 OA
ATOM     91  O   UNL A   1      48.868  23.305  36.904  1.00  0.00    -0.237 OA
ATOM     92  O   UNL A   1      50.196  25.374  36.738  1.00  0.00    -0.744 OA
ENDBRANCH  88  89
ENDBRANCH  56  81
ENDBRANCH  30  31
ENDBRANCH  23  25
ENDBRANCH  22  23
ENDBRANCH   1  22
TORSDOF 15
ENDMDL
MODEL 2
REMARK VINA RESULT:     -10.2      5.320     10.761
REMARK SMILES Cc1cc(Br)cc2c1O[C@H](C(F)(F)F)C(C(=O)OCCOC(=O)c1ccc(-c3c4nc(c(-c5c(F)cc(S(=O)(=O)[O-])cc5F)c5ccc([nH]5)c(-c5c(F)cc(S(=O)(=O)[O-])cc5F)c5nc(c(-c6c(F)cc(S(=O)(=O)[O-])cc6F)c6ccc3[nH]6)C=C5)C=C4)cc1)=C2
REMARK SMILES IDX 20 1 19 2 18 3 16 4 17 5 15 6 1 7 2 8 3 9 8 10 4 11 7 12
REMARK SMILES IDX 9 13 5 14 6 15 90 16 10 17 11 18 12 19 13 20 14 21 21 22
REMARK SMILES IDX 22 23 23 24 24 25 25 26 89 27 26 28 88 29 27 30 28 31 29 32
REMARK SMILES IDX 82 33 30 34 87 35 81 36 83 37 31 38 86 39 80 40 79 41 32 43
REMARK SMILES IDX 66 44 45 45 65 46 46 47 49 48 64 49 84 50 47 51 48 52 63 54
REMARK SMILES IDX 85 55 50 56 33 57 34 58 43 59 35 60 36 61 42 62 44 63 37 64
REMARK SMILES IDX 38 65 39 66 40 67 41 68 67 69 68 70 77 71 69 72 70 73 76 74
REMARK SMILES IDX 78 75 71 76 72 77 73 78 74 79 75 80 51 81 52 82 61 83 53 84
REMARK SMILES IDX 54 85 60 86 62 87 55 88 56 89 57 90 58 91 59 92
REMARK H PARENT 83 42 49 53
REMARK Flexibility Score: inf
ROOT
ATOM      1  C   UNL A   1      32.633  28.426  27.454  1.00  0.00     0.275 C 
ENDROOT
BRANCH   1   2
ATOM      2  C   UNL A   1      31.910  28.413  26.106  1.00  0.00     0.275 C 
BRANCH   2   3
ATOM      3  O   UNL A   1      31.836  27.078  25.560  1.00  0.00    -0.459 OA
BRANCH   3   4
ATOM      4  C   UNL A   1      32.813  26.754  24.680  1.00  0.00     0.338 C 
ATOM      5  O   UNL A   1      33.255  27.468  23.793  1.00  0.00    -0.246 OA
BRANCH   4   6
ATOM      6  C   UNL A   1      33.310  25.389  24.931  1.00  0.00     0.087 C 
ATOM      7  C   UNL A   1      34.004  20.299  24.957  1.00  0.00     0.048 C 
ATOM      8  C   UNL A   1      34.861  21.508  25.193  1.00  0.00    -0.007 A 
ATOM      9  C   UNL A   1      36.227  21.345  25.478  1.00  0.00     0.023 A 
ATOM     10  C   UNL A   1      34.315  22.801  25.162  1.00  0.00     0.130 A 
ATOM     11  C   UNL A   1      37.034  22.454  25.719  1.00  0.00     0.019 A 
ATOM     12  C   UNL A   1      35.138  23.906  25.387  1.00  0.00     0.019 A 
ATOM     13  O   UNL A   1      32.971  22.916  24.927  1.00  0.00    -0.475 OA
ATOM     14  Br  UNL A   1      38.873  22.220  26.089  1.00  0.00    -0.051 Br
ATOM     15  C   UNL A   1      36.497  23.735  25.677  1.00  0.00     0.027 A 
ATOM     16  C   UNL A   1      34.591  25.243  25.284  1.00  0.00     0.027 C 
ATOM     17  C   UNL A   1      32.409  24.228  24.637  1.00  0.00     0.316 C 
BRANCH  17  18
ATOM     18  C   UNL A   1      31.930  24.251  23.177  1.00  0.00     0.430 C 
ATOM     19  F   UNL A   1      30.891  25.106  23.013  1.00  0.00    -0.167 F 
ATOM     20  F   UNL A   1      32.908  24.674  22.339  1.00  0.00    -0.167 F 
ATOM     21  F   UNL A   1      31.525  23.035  22.748  1.00  0.00    -0.167 F 
ENDBRANCH  17  18
ENDBRANCH   4   6
ENDBRANCH   3   4
ENDBRANCH   2   3
ENDBRANCH   1   2
BRANCH   1  22
ATOM     22  O   UNL A   1      34.031  28.715  27.277  1.00  0.00    -0.458 OA
BRANCH  22  23
ATOM     23  C   UNL A   1      34.445  29.895  27.795  1.00  0.00     0.338 C 
ATOM     24  O   UNL A   1      33.768  30.882  28.021  1.00  0.00    -0.246 OA
BRANCH  23  25
ATOM     25  C   UNL A   1      35.866  29.805  28.157  1.00  0.00     0.060 A 
ATOM     26  C   UNL A   1      36.807  30.071  27.172  1.00  0.00     0.016 A 
ATOM     27  C   UNL A   1      36.272  29.303  29.390  1.00  0.00     0.016 A 
ATOM     28  C   UNL A   1      38.130  29.690  27.348  1.00  0.00     0.010 A 
ATOM     29  C   UNL A   1      37.636  29.078  29.624  1.00  0.00     0.010 A 
ATOM     30  C   UNL A   1      38.580  29.228  28.591  1.00  0.00    -0.014 A 
BRANCH  30  31
ATOM     31  C   UNL A   1      40.029  28.920  28.781  1.00  0.00     0.031 A 
ATOM     32  C   UNL A   1      40.957  29.928  29.412  1.00  0.00     0.074 A 
ATOM     33  C   UNL A   1      40.505  27.705  28.425  1.00  0.00     0.049 A 
ATOM     34  N   UNL A   1      42.255  29.868  29.569  1.00  0.00    -0.248 NA
ATOM     35  C   UNL A   1      40.357  31.174  29.921  1.00  0.00     0.031 C 
ATOM     36  C   UNL A   1      39.708  26.627  27.829  1.00  0.00     0.029 A 
ATOM     37  N   UNL A   1      41.758  27.154  28.535  1.00  0.00    -0.354 N 
ATOM     38  C   UNL A   1      42.629  31.074  30.153  1.00  0.00     0.074 A 
ATOM     39  C   UNL A   1      41.426  31.862  30.298  1.00  0.00     0.031 C 
ATOM     40  C   UNL A   1      40.463  25.527  27.712  1.00  0.00     0.029 A 
ATOM     41  C   UNL A   1      41.827  25.846  28.111  1.00  0.00     0.049 A 
ATOM     42  H   UNL A   1      42.534  27.648  28.887  1.00  0.00     0.167 HD
ATOM     43  C   UNL A   1      43.862  31.481  30.541  1.00  0.00     0.037 A 
ATOM     44  C   UNL A   1      42.871  24.999  28.016  1.00  0.00     0.037 A 
ATOM     45  C   UNL A   1      45.046  30.666  30.437  1.00  0.00     0.049 A 
ATOM     46  C   UNL A   1      44.235  25.492  28.406  1.00  0.00     0.074 A 
ATOM     47  C   UNL A   1      46.342  30.986  30.802  1.00  0.00     0.029 A 
ATOM     48  N   UNL A   1      45.077  29.368  29.950  1.00  0.00    -0.354 N 
ATOM     49  N   UNL A   1      44.573  26.654  28.908  1.00  0.00    -0.248 NA
ATOM     50  C   UNL A   1      45.363  24.574  28.194  1.00  0.00     0.031 C 
ATOM     51  C   UNL A   1      47.163  29.897  30.495  1.00  0.00     0.029 A 
ATOM     52  C   UNL A   1      46.371  28.878  29.989  1.00  0.00     0.049 A 
ATOM     53  H   UNL A   1      44.294  28.868  29.624  1.00  0.00     0.167 HD
ATOM     54  C   UNL A   1      45.949  26.603  29.090  1.00  0.00     0.074 A 
ATOM     55  C   UNL A   1      46.381  25.290  28.654  1.00  0.00     0.031 C 
ATOM     56  C   UNL A   1      46.778  27.560  29.570  1.00  0.00     0.037 A 
BRANCH  43  57
ATOM     57  C   UNL A   1      44.007  32.868  31.108  1.00  0.00     0.058 A 
ATOM     58  C   UNL A   1      44.252  33.982  30.291  1.00  0.00     0.135 A 
ATOM     59  C   UNL A   1      43.837  33.095  32.486  1.00  0.00     0.135 A 
ATOM     60  F   UNL A   1      44.438  33.824  28.971  1.00  0.00    -0.206 F 
ATOM     61  C   UNL A   1      44.343  35.267  30.819  1.00  0.00     0.059 A 
ATOM     62  C   UNL A   1      43.895  34.375  33.031  1.00  0.00     0.059 A 
ATOM     63  F   UNL A   1      43.599  32.067  33.315  1.00  0.00    -0.206 F 
ATOM     64  C   UNL A   1      44.159  35.454  32.190  1.00  0.00     0.060 A 
BRANCH  64  65
ATOM     65  S   UNL A   1      44.269  37.130  32.852  1.00  0.00     0.124 S 
ATOM     66  O   UNL A   1      45.592  37.114  33.471  1.00  0.00    -0.237 OA
ATOM     67  O   UNL A   1      44.142  37.948  31.652  1.00  0.00    -0.237 OA
ATOM     68  O   UNL A   1      43.146  37.206  33.783  1.00  0.00    -0.744 OA
ENDBRANCH  64  65
ENDBRANCH  43  57
BRANCH  44  69
ATOM     69  C   UNL A   1      42.663  23.613  27.513  1.00  0.00     0.058 A 
ATOM     70  C   UNL A   1      42.782  23.315  26.148  1.00  0.00     0.135 A 
ATOM     71  C   UNL A   1      42.382  22.550  28.388  1.00  0.00     0.135 A 
ATOM     72  F   UNL A   1      43.039  24.296  25.269  1.00  0.00    -0.206 F 
ATOM     73  C   UNL A   1      42.630  22.019  25.667  1.00  0.00     0.059 A 
ATOM     74  C   UNL A   1      42.257  21.240  27.936  1.00  0.00     0.059 A 
ATOM     75  F   UNL A   1      42.269  22.775  29.707  1.00  0.00    -0.206 F 
ATOM     76  C   UNL A   1      42.375  20.985  26.572  1.00  0.00     0.060 A 
BRANCH  76  77
ATOM     77  S   UNL A   1      42.235  19.299  25.943  1.00  0.00     0.124 S 
ATOM     78  O   UNL A   1      43.102  19.349  24.771  1.00  0.00    -0.237 OA
ATOM     79  O   UNL A   1      42.726  18.510  27.068  1.00  0.00    -0.237 OA
ATOM     80  O   UNL A   1      40.808  19.160  25.665  1.00  0.00    -0.744 OA
ENDBRANCH  76  77
ENDBRANCH  44  69
BRANCH  56  81
ATOM     81  C   UNL A   1      48.239  27.229  29.689  1.00  0.00     0.058 A 
ATOM     82  C   UNL A   1      49.163  27.641  28.718  1.00  0.00     0.135 A 
ATOM     83  C   UNL A   1      48.730  26.606  30.847  1.00  0.00     0.135 A 
ATOM     84  F   UNL A   1      48.740  28.230  27.588  1.00  0.00    -0.206 F 
ATOM     85  C   UNL A   1      50.529  27.458  28.897  1.00  0.00     0.059 A 
ATOM     86  C   UNL A   1      50.094  26.434  31.058  1.00  0.00     0.059 A 
ATOM     87  F   UNL A   1      47.884  26.198  31.805  1.00  0.00    -0.206 F 
ATOM     88  C   UNL A   1      50.986  26.868  30.079  1.00  0.00     0.060 A 
BRANCH  88  89
ATOM     89  S   UNL A   1      52.766  26.730  30.338  1.00  0.00     0.124 S 
ATOM     90  O   UNL A   1      53.224  26.290  29.024  1.00  0.00    -0.237 OA
ATOM     91  O   UNL A   1      53.131  28.093  30.712  1.00  0.00    -0.237 OA
ATOM     92  O   UNL A   1      52.881  25.741  31.405  1.00  0.00    -0.744 OA
ENDBRANCH  88  89
ENDBRANCH  56  81
ENDBRANCH  30  31
ENDBRANCH  23  25
ENDBRANCH  22  23
ENDBRANCH   1  22
TORSDOF 15
ENDMDL
MODEL 3
REMARK VINA RESULT:     -10.2      4.834     12.569
REMARK SMILES Cc1cc(Br)cc2c1O[C@H](C(F)(F)F)C(C(=O)OCCOC(=O)c1ccc(-c3c4nc(c(-c5c(F)cc(S(=O)(=O)[O-])cc5F)c5ccc([nH]5)c(-c5c(F)cc(S(=O)(=O)[O-])cc5F)c5nc(c(-c6c(F)cc(S(=O)(=O)[O-])cc6F)c6ccc3[nH]6)C=C5)C=C4)cc1)=C2
REMARK SMILES IDX 20 1 19 2 18 3 16 4 17 5 15 6 1 7 2 8 3 9 8 10 4 11 7 12
REMARK SMILES IDX 9 13 5 14 6 15 90 16 10 17 11 18 12 19 13 20 14 21 21 22
REMARK SMILES IDX 22 23 23 24 24 25 25 26 89 27 26 28 88 29 27 30 28 31 29 32
REMARK SMILES IDX 82 33 30 34 87 35 81 36 83 37 31 38 86 39 80 40 79 41 32 43
REMARK SMILES IDX 66 44 45 45 65 46 46 47 49 48 64 49 84 50 47 51 48 52 63 54
REMARK SMILES IDX 85 55 50 56 33 57 34 58 43 59 35 60 36 61 42 62 44 63 37 64
REMARK SMILES IDX 38 65 39 66 40 67 41 68 67 69 68 70 77 71 69 72 70 73 76 74
REMARK SMILES IDX 78 75 71 76 72 77 73 78 74 79 75 80 51 81 52 82 61 83 53 84
REMARK SMILES IDX 54 85 60 86 62 87 55 88 56 89 57 90 58 91 59 92
REMARK H PARENT 83 42 49 53
REMARK Flexibility Score: inf
ROOT
ATOM      1  C   UNL A   1      40.742  20.411  26.425  1.00  0.00     0.275 C 
ENDROOT
BRANCH   1   2
ATOM      2  C   UNL A   1      42.145  20.130  26.966  1.00  0.00     0.275 C 
BRANCH   2   3
ATOM      3  O   UNL A   1      43.164  20.540  26.028  1.00  0.00    -0.459 OA
BRANCH   3   4
ATOM      4  C   UNL A   1      43.190  21.862  25.737  1.00  0.00     0.338 C 
ATOM      5  O   UNL A   1      42.411  22.460  25.011  1.00  0.00    -0.246 OA
BRANCH   4   6
ATOM      6  C   UNL A   1      44.305  22.528  26.436  1.00  0.00     0.087 C 
ATOM      7  C   UNL A   1      48.695  24.936  27.584  1.00  0.00     0.048 C 
ATOM      8  C   UNL A   1      47.333  24.818  28.203  1.00  0.00    -0.007 A 
ATOM      9  C   UNL A   1      47.047  25.516  29.388  1.00  0.00     0.023 A 
ATOM     10  C   UNL A   1      46.346  23.999  27.632  1.00  0.00     0.130 A 
ATOM     11  C   UNL A   1      45.795  25.404  29.987  1.00  0.00     0.019 A 
ATOM     12  C   UNL A   1      45.089  23.909  28.233  1.00  0.00     0.019 A 
ATOM     13  O   UNL A   1      46.678  23.298  26.503  1.00  0.00    -0.475 OA
ATOM     14  Br  UNL A   1      45.420  26.358  31.575  1.00  0.00    -0.051 Br
ATOM     15  C   UNL A   1      44.813  24.602  29.417  1.00  0.00     0.027 A 
ATOM     16  C   UNL A   1      44.048  23.121  27.606  1.00  0.00     0.027 C 
ATOM     17  C   UNL A   1      45.627  22.640  25.740  1.00  0.00     0.316 C 
BRANCH  17  18
ATOM     18  C   UNL A   1      45.485  23.347  24.382  1.00  0.00     0.430 C 
ATOM     19  F   UNL A   1      44.619  24.386  24.457  1.00  0.00    -0.167 F 
ATOM     20  F   UNL A   1      46.666  23.864  23.964  1.00  0.00    -0.167 F 
ATOM     21  F   UNL A   1      45.040  22.517  23.413  1.00  0.00    -0.167 F 
ENDBRANCH  17  18
ENDBRANCH   4   6
ENDBRANCH   3   4
ENDBRANCH   2   3
ENDBRANCH   1   2
BRANCH   1  22
ATOM     22  O   UNL A   1      40.035  21.315  27.294  1.00  0.00    -0.458 OA
BRANCH  22  23
ATOM     23  C   UNL A   1      39.336  22.287  26.666  1.00  0.00     0.338 C 
ATOM     24  O   UNL A   1      38.403  22.148  25.894  1.00  0.00    -0.246 OA
BRANCH  23  25
ATOM     25  C   UNL A   1      39.799  23.604  27.122  1.00  0.00     0.060 A 
ATOM     26  C   UNL A   1      39.604  24.691  26.281  1.00  0.00     0.016 A 
ATOM     27  C   UNL A   1      40.565  23.746  28.276  1.00  0.00     0.016 A 
ATOM     28  C   UNL A   1      40.296  25.874  26.495  1.00  0.00     0.010 A 
ATOM     29  C   UNL A   1      41.126  24.995  28.578  1.00  0.00     0.010 A 
ATOM     30  C   UNL A   1      41.035  26.067  27.670  1.00  0.00    -0.014 A 
BRANCH  30  31
ATOM     31  C   UNL A   1      41.688  27.386  27.921  1.00  0.00     0.031 A 
ATOM     32  C   UNL A   1      40.967  28.473  28.679  1.00  0.00     0.074 A 
ATOM     33  C   UNL A   1      42.958  27.591  27.505  1.00  0.00     0.049 A 
ATOM     34  N   UNL A   1      41.343  29.706  28.907  1.00  0.00    -0.248 NA
ATOM     35  C   UNL A   1      39.647  28.142  29.243  1.00  0.00     0.031 C 
ATOM     36  C   UNL A   1      43.781  26.612  26.785  1.00  0.00     0.029 A 
ATOM     37  N   UNL A   1      43.796  28.670  27.647  1.00  0.00    -0.354 N 
ATOM     38  C   UNL A   1      40.295  30.306  29.599  1.00  0.00     0.074 A 
ATOM     39  C   UNL A   1      39.255  29.311  29.731  1.00  0.00     0.031 C 
ATOM     40  C   UNL A   1      45.019  27.097  26.631  1.00  0.00     0.029 A 
ATOM     41  C   UNL A   1      45.056  28.464  27.132  1.00  0.00     0.049 A 
ATOM     42  H   UNL A   1      43.522  29.511  28.079  1.00  0.00     0.167 HD
ATOM     43  C   UNL A   1      40.216  31.567  30.089  1.00  0.00     0.037 A 
ATOM     44  C   UNL A   1      46.120  29.287  27.036  1.00  0.00     0.037 A 
ATOM     45  C   UNL A   1      41.281  32.533  29.994  1.00  0.00     0.049 A 
ATOM     46  C   UNL A   1      45.988  30.695  27.541  1.00  0.00     0.074 A 
ATOM     47  C   UNL A   1      41.299  33.837  30.457  1.00  0.00     0.029 A 
ATOM     48  N   UNL A   1      42.519  32.297  29.414  1.00  0.00    -0.354 N 
ATOM     49  N   UNL A   1      44.970  31.256  28.146  1.00  0.00    -0.248 NA
ATOM     50  C   UNL A   1      47.132  31.591  27.327  1.00  0.00     0.031 C 
ATOM     51  C   UNL A   1      42.532  34.403  30.119  1.00  0.00     0.029 A 
ATOM     52  C   UNL A   1      43.302  33.435  29.493  1.00  0.00     0.049 A 
ATOM     53  H   UNL A   1      42.799  31.446  29.007  1.00  0.00     0.167 HD
ATOM     54  C   UNL A   1      45.356  32.565  28.404  1.00  0.00     0.074 A 
ATOM     55  C   UNL A   1      46.707  32.710  27.898  1.00  0.00     0.031 C 
ATOM     56  C   UNL A   1      44.653  33.555  29.002  1.00  0.00     0.037 A 
BRANCH  43  57
ATOM     57  C   UNL A   1      38.938  31.988  30.765  1.00  0.00     0.058 A 
ATOM     58  C   UNL A   1      38.721  31.781  32.135  1.00  0.00     0.135 A 
ATOM     59  C   UNL A   1      37.941  32.666  30.041  1.00  0.00     0.135 A 
ATOM     60  F   UNL A   1      39.631  31.126  32.872  1.00  0.00    -0.206 F 
ATOM     61  C   UNL A   1      37.554  32.212  32.760  1.00  0.00     0.059 A 
ATOM     62  C   UNL A   1      36.779  33.131  30.652  1.00  0.00     0.059 A 
ATOM     63  F   UNL A   1      38.096  32.894  28.728  1.00  0.00    -0.206 F 
ATOM     64  C   UNL A   1      36.590  32.889  32.012  1.00  0.00     0.060 A 
BRANCH  64  65
ATOM     65  S   UNL A   1      35.090  33.450  32.845  1.00  0.00     0.124 S 
ATOM     66  O   UNL A   1      35.357  33.055  34.225  1.00  0.00    -0.237 OA
ATOM     67  O   UNL A   1      35.106  34.884  32.583  1.00  0.00    -0.237 OA
ATOM     68  O   UNL A   1      34.027  32.704  32.176  1.00  0.00    -0.744 OA
ENDBRANCH  64  65
ENDBRANCH  43  57
BRANCH  44  69
ATOM     69  C   UNL A   1      47.385  28.800  26.420  1.00  0.00     0.058 A 
ATOM     70  C   UNL A   1      48.523  28.559  27.203  1.00  0.00     0.135 A 
ATOM     71  C   UNL A   1      47.472  28.524  25.044  1.00  0.00     0.135 A 
ATOM     72  F   UNL A   1      48.496  28.815  28.520  1.00  0.00    -0.206 F 
ATOM     73  C   UNL A   1      49.700  28.066  26.649  1.00  0.00     0.059 A 
ATOM     74  C   UNL A   1      48.627  28.000  24.472  1.00  0.00     0.059 A 
ATOM     75  F   UNL A   1      46.410  28.724  24.249  1.00  0.00    -0.206 F 
ATOM     76  C   UNL A   1      49.740  27.782  25.281  1.00  0.00     0.060 A 
BRANCH  76  77
ATOM     77  S   UNL A   1      51.254  27.090  24.584  1.00  0.00     0.124 S 
ATOM     78  O   UNL A   1      52.205  28.172  24.815  1.00  0.00    -0.237 OA
ATOM     79  O   UNL A   1      51.443  25.890  25.393  1.00  0.00    -0.237 OA
ATOM     80  O   UNL A   1      50.903  26.848  23.188  1.00  0.00    -0.744 OA
ENDBRANCH  76  77
ENDBRANCH  44  69
BRANCH  56  81
ATOM     81  C   UNL A   1      45.327  34.886  29.181  1.00  0.00     0.058 A 
ATOM     82  C   UNL A   1      45.222  35.894  28.213  1.00  0.00     0.135 A 
ATOM     83  C   UNL A   1      45.974  35.193  30.389  1.00  0.00     0.135 A 
ATOM     84  F   UNL A   1      44.623  35.646  27.038  1.00  0.00    -0.206 F 
ATOM     85  C   UNL A   1      45.726  37.170  28.442  1.00  0.00     0.059 A 
ATOM     86  C   UNL A   1      46.464  36.468  30.648  1.00  0.00     0.059 A 
ATOM     87  F   UNL A   1      46.095  34.260  31.347  1.00  0.00    -0.206 F 
ATOM     88  C   UNL A   1      46.331  37.452  29.670  1.00  0.00     0.060 A 
BRANCH  88  89
ATOM     89  S   UNL A   1      46.889  39.138  29.986  1.00  0.00     0.124 S 
ATOM     90  O   UNL A   1      46.127  39.893  28.997  1.00  0.00    -0.237 OA
ATOM     91  O   UNL A   1      46.494  39.338  31.377  1.00  0.00    -0.237 OA
ATOM     92  O   UNL A   1      48.328  39.072  29.752  1.00  0.00    -0.744 OA
ENDBRANCH  88  89
ENDBRANCH  56  81
ENDBRANCH  30  31
ENDBRANCH  23  25
ENDBRANCH  22  23
ENDBRANCH   1  22
TORSDOF 15
ENDMDL
