MODEL 1
REMARK VINA RESULT:     -12.4      0.000      0.000
REMARK SMILES C[C@@H](C(=O)OCCOC(=O)c1ccc(-c2c3nc(c(-c4c(F)cc(S(=O)(=O)[O-])cc4F)c4ccc([nH]4)c(-c4c(F)cc(S(=O)(=O)[O-])cc4F)c4nc(c(-c5c(F)cc(S(=O)(=O)[O-])cc5F)c5ccc2[nH]5)C=C4)C=C3)cc1)c1ccc(-c2ccc3[nH]ccc3c2)cc1
REMARK SMILES IDX 7 1 6 2 5 3 3 4 4 5 2 6 1 7 77 8 78 9 91 10 79 11 90 12
REMARK SMILES IDX 80 13 81 14 82 15 89 16 83 17 88 18 84 19 87 20 85 21 86 22
REMARK SMILES IDX 8 24 9 25 10 26 11 27 12 28 76 29 13 30 75 31 14 32 15 33
REMARK SMILES IDX 16 34 69 35 17 36 74 37 68 38 70 39 18 40 73 41 67 42 66 43
REMARK SMILES IDX 19 45 53 46 32 47 52 48 33 49 36 50 51 51 71 52 34 53 35 54
REMARK SMILES IDX 50 56 72 57 37 58 20 59 21 60 30 61 22 62 23 63 29 64 31 65
REMARK SMILES IDX 24 66 25 67 26 68 27 69 28 70 54 71 55 72 64 73 56 74 57 75
REMARK SMILES IDX 63 76 65 77 58 78 59 79 60 80 61 81 62 82 38 83 39 84 48 85
REMARK SMILES IDX 40 86 41 87 47 88 49 89 42 90 43 91 44 92 45 93 46 94
REMARK H PARENT 85 23 70 44 36 55
REMARK Flexibility Score: inf
ROOT
ATOM      1  C   UNL A   1      34.156  30.907  27.810  1.00  0.00     0.275 C 
ENDROOT
BRANCH   1   2
ATOM      2  C   UNL A   1      33.939  29.763  26.824  1.00  0.00     0.274 C 
BRANCH   2   3
ATOM      3  O   UNL A   1      32.706  29.957  26.104  1.00  0.00    -0.462 OA
BRANCH   3   4
ATOM      4  C   UNL A   1      32.311  28.949  25.275  1.00  0.00     0.313 C 
ATOM      5  O   UNL A   1      31.216  28.402  25.339  1.00  0.00    -0.252 OA
BRANCH   4   6
ATOM      6  C   UNL A   1      33.414  28.529  24.292  1.00  0.00     0.126 C 
ATOM      7  C   UNL A   1      33.173  29.031  22.864  1.00  0.00     0.025 C 
BRANCH   6   8
ATOM      8  C   UNL A   1      33.697  27.031  24.365  1.00  0.00    -0.034 A 
ATOM      9  C   UNL A   1      33.717  26.208  23.234  1.00  0.00     0.005 A 
ATOM     10  C   UNL A   1      33.907  26.420  25.608  1.00  0.00     0.005 A 
ATOM     11  C   UNL A   1      33.922  24.824  23.350  1.00  0.00     0.009 A 
ATOM     12  C   UNL A   1      34.121  25.035  25.715  1.00  0.00     0.009 A 
ATOM     13  C   UNL A   1      34.119  24.188  24.591  1.00  0.00    -0.018 A 
BRANCH  13  14
ATOM     14  C   UNL A   1      34.240  22.701  24.704  1.00  0.00    -0.018 A 
ATOM     15  C   UNL A   1      35.450  22.081  25.079  1.00  0.00     0.011 A 
ATOM     16  C   UNL A   1      33.162  21.843  24.395  1.00  0.00     0.019 A 
ATOM     17  C   UNL A   1      35.630  20.687  25.104  1.00  0.00     0.027 A 
ATOM     18  C   UNL A   1      33.294  20.437  24.456  1.00  0.00    -0.000 A 
ATOM     19  C   UNL A   1      34.532  19.893  24.781  1.00  0.00     0.045 A 
ATOM     20  C   UNL A   1      32.406  19.349  24.240  1.00  0.00     0.028 A 
ATOM     21  N   UNL A   1      34.417  18.524  24.686  1.00  0.00    -0.361 N 
ATOM     22  C   UNL A   1      33.119  18.185  24.409  1.00  0.00     0.083 A 
ATOM     23  H   UNL A   1      35.156  17.885  24.801  1.00  0.00     0.166 HD
ENDBRANCH  13  14
ENDBRANCH   6   8
ENDBRANCH   4   6
ENDBRANCH   3   4
ENDBRANCH   2   3
ENDBRANCH   1   2
BRANCH   1  24
ATOM     24  O   UNL A   1      35.559  31.204  27.893  1.00  0.00    -0.458 OA
BRANCH  24  25
ATOM     25  C   UNL A   1      36.154  30.932  29.077  1.00  0.00     0.338 C 
ATOM     26  O   UNL A   1      35.749  31.211  30.193  1.00  0.00    -0.246 OA
BRANCH  25  27
ATOM     27  C   UNL A   1      37.420  30.221  28.831  1.00  0.00     0.060 A 
ATOM     28  C   UNL A   1      38.254  29.905  29.899  1.00  0.00     0.016 A 
ATOM     29  C   UNL A   1      37.830  29.969  27.521  1.00  0.00     0.016 A 
ATOM     30  C   UNL A   1      39.541  29.432  29.651  1.00  0.00     0.010 A 
ATOM     31  C   UNL A   1      39.093  29.410  27.285  1.00  0.00     0.010 A 
ATOM     32  C   UNL A   1      39.987  29.181  28.344  1.00  0.00    -0.014 A 
BRANCH  32  33
ATOM     33  C   UNL A   1      41.399  28.756  28.096  1.00  0.00     0.031 A 
ATOM     34  C   UNL A   1      42.540  29.717  28.338  1.00  0.00     0.074 A 
ATOM     35  C   UNL A   1      41.680  27.498  27.696  1.00  0.00     0.049 A 
ATOM     36  N   UNL A   1      43.809  29.595  28.036  1.00  0.00    -0.248 NA
ATOM     37  C   UNL A   1      42.206  31.000  28.979  1.00  0.00     0.031 C 
ATOM     38  C   UNL A   1      40.694  26.438  27.476  1.00  0.00     0.029 A 
ATOM     39  N   UNL A   1      42.882  26.880  27.445  1.00  0.00    -0.354 N 
ATOM     40  C   UNL A   1      44.402  30.806  28.371  1.00  0.00     0.074 A 
ATOM     41  C   UNL A   1      43.359  31.652  28.911  1.00  0.00     0.031 C 
ATOM     42  C   UNL A   1      41.333  25.284  27.232  1.00  0.00     0.029 A 
ATOM     43  C   UNL A   1      42.770  25.536  27.177  1.00  0.00     0.049 A 
ATOM     44  H   UNL A   1      43.743  27.356  27.458  1.00  0.00     0.167 HD
ATOM     45  C   UNL A   1      45.696  31.180  28.235  1.00  0.00     0.037 A 
ATOM     46  C   UNL A   1      43.712  24.610  26.909  1.00  0.00     0.037 A 
ATOM     47  C   UNL A   1      46.752  30.299  27.806  1.00  0.00     0.049 A 
ATOM     48  C   UNL A   1      45.149  25.041  26.799  1.00  0.00     0.074 A 
ATOM     49  C   UNL A   1      48.101  30.578  27.665  1.00  0.00     0.029 A 
ATOM     50  N   UNL A   1      46.583  28.962  27.476  1.00  0.00    -0.354 N 
ATOM     51  N   UNL A   1      45.678  26.225  26.995  1.00  0.00    -0.248 NA
ATOM     52  C   UNL A   1      46.117  24.011  26.393  1.00  0.00     0.031 C 
ATOM     53  C   UNL A   1      48.748  29.413  27.243  1.00  0.00     0.029 A 
ATOM     54  C   UNL A   1      47.807  28.400  27.150  1.00  0.00     0.049 A 
ATOM     55  H   UNL A   1      45.723  28.485  27.473  1.00  0.00     0.167 HD
ATOM     56  C   UNL A   1      47.035  26.081  26.743  1.00  0.00     0.074 A 
ATOM     57  C   UNL A   1      47.255  24.692  26.399  1.00  0.00     0.031 C 
ATOM     58  C   UNL A   1      48.010  27.021  26.786  1.00  0.00     0.037 A 
BRANCH  45  59
ATOM     59  C   UNL A   1      46.045  32.614  28.517  1.00  0.00     0.058 A 
ATOM     60  C   UNL A   1      46.480  33.046  29.778  1.00  0.00     0.135 A 
ATOM     61  C   UNL A   1      45.975  33.566  27.486  1.00  0.00     0.135 A 
ATOM     62  F   UNL A   1      46.553  32.179  30.801  1.00  0.00    -0.206 F 
ATOM     63  C   UNL A   1      46.810  34.378  30.015  1.00  0.00     0.059 A 
ATOM     64  C   UNL A   1      46.319  34.898  27.694  1.00  0.00     0.059 A 
ATOM     65  F   UNL A   1      45.568  33.203  26.259  1.00  0.00    -0.206 F 
ATOM     66  C   UNL A   1      46.722  35.297  28.967  1.00  0.00     0.060 A 
BRANCH  66  67
ATOM     67  S   UNL A   1      47.152  37.023  29.282  1.00  0.00     0.124 S 
ATOM     68  O   UNL A   1      46.140  37.722  28.497  1.00  0.00    -0.237 OA
ATOM     69  O   UNL A   1      47.011  37.123  30.731  1.00  0.00    -0.237 OA
ATOM     70  O   UNL A   1      48.519  37.129  28.781  1.00  0.00    -0.744 OA
ENDBRANCH  66  67
ENDBRANCH  45  59
BRANCH  46  71
ATOM     71  C   UNL A   1      43.327  23.182  26.736  1.00  0.00     0.058 A 
ATOM     72  C   UNL A   1      43.342  22.585  25.465  1.00  0.00     0.135 A 
ATOM     73  C   UNL A   1      42.966  22.375  27.825  1.00  0.00     0.135 A 
ATOM     74  F   UNL A   1      43.636  23.316  24.381  1.00  0.00    -0.206 F 
ATOM     75  C   UNL A   1      43.035  21.241  25.281  1.00  0.00     0.059 A 
ATOM     76  C   UNL A   1      42.675  21.022  27.671  1.00  0.00     0.059 A 
ATOM     77  F   UNL A   1      42.926  22.892  29.063  1.00  0.00    -0.206 F 
ATOM     78  C   UNL A   1      42.710  20.465  26.393  1.00  0.00     0.060 A 
BRANCH  78  79
ATOM     79  S   UNL A   1      42.388  18.703  26.161  1.00  0.00     0.124 S 
ATOM     80  O   UNL A   1      42.642  18.181  27.499  1.00  0.00    -0.237 OA
ATOM     81  O   UNL A   1      40.994  18.694  25.728  1.00  0.00    -0.237 OA
ATOM     82  O   UNL A   1      43.355  18.322  25.137  1.00  0.00    -0.744 OA
ENDBRANCH  78  79
ENDBRANCH  46  71
BRANCH  58  83
ATOM     83  C   UNL A   1      49.403  26.580  26.441  1.00  0.00     0.058 A 
ATOM     84  C   UNL A   1      50.231  25.970  27.395  1.00  0.00     0.135 A 
ATOM     85  C   UNL A   1      49.900  26.729  25.136  1.00  0.00     0.135 A 
ATOM     86  F   UNL A   1      49.804  25.812  28.658  1.00  0.00    -0.206 F 
ATOM     87  C   UNL A   1      51.514  25.541  27.073  1.00  0.00     0.059 A 
ATOM     88  C   UNL A   1      51.171  26.287  24.787  1.00  0.00     0.059 A 
ATOM     89  F   UNL A   1      49.140  27.298  24.186  1.00  0.00    -0.206 F 
ATOM     90  C   UNL A   1      51.976  25.705  25.767  1.00  0.00     0.060 A 
BRANCH  90  91
ATOM     91  S   UNL A   1      53.631  25.115  25.350  1.00  0.00     0.124 S 
ATOM     92  O   UNL A   1      53.434  23.668  25.352  1.00  0.00    -0.237 OA
ATOM     93  O   UNL A   1      53.862  25.721  24.042  1.00  0.00    -0.237 OA
ATOM     94  O   UNL A   1      54.459  25.639  26.432  1.00  0.00    -0.744 OA
ENDBRANCH  90  91
ENDBRANCH  58  83
ENDBRANCH  32  33
ENDBRANCH  25  27
ENDBRANCH  24  25
ENDBRANCH   1  24
TORSDOF 16
ENDMDL
MODEL 2
REMARK VINA RESULT:     -12.2      6.760     12.415
REMARK SMILES C[C@@H](C(=O)OCCOC(=O)c1ccc(-c2c3nc(c(-c4c(F)cc(S(=O)(=O)[O-])cc4F)c4ccc([nH]4)c(-c4c(F)cc(S(=O)(=O)[O-])cc4F)c4nc(c(-c5c(F)cc(S(=O)(=O)[O-])cc5F)c5ccc2[nH]5)C=C4)C=C3)cc1)c1ccc(-c2ccc3[nH]ccc3c2)cc1
REMARK SMILES IDX 7 1 6 2 5 3 3 4 4 5 2 6 1 7 77 8 78 9 91 10 79 11 90 12
REMARK SMILES IDX 80 13 81 14 82 15 89 16 83 17 88 18 84 19 87 20 85 21 86 22
REMARK SMILES IDX 8 24 9 25 10 26 11 27 12 28 76 29 13 30 75 31 14 32 15 33
REMARK SMILES IDX 16 34 69 35 17 36 74 37 68 38 70 39 18 40 73 41 67 42 66 43
REMARK SMILES IDX 19 45 53 46 32 47 52 48 33 49 36 50 51 51 71 52 34 53 35 54
REMARK SMILES IDX 50 56 72 57 37 58 20 59 21 60 30 61 22 62 23 63 29 64 31 65
REMARK SMILES IDX 24 66 25 67 26 68 27 69 28 70 54 71 55 72 64 73 56 74 57 75
REMARK SMILES IDX 63 76 65 77 58 78 59 79 60 80 61 81 62 82 38 83 39 84 48 85
REMARK SMILES IDX 40 86 41 87 47 88 49 89 42 90 43 91 44 92 45 93 46 94
REMARK H PARENT 85 23 70 44 36 55
REMARK Flexibility Score: inf
ROOT
ATOM      1  C   UNL A   1      40.136  22.039  26.530  1.00  0.00     0.275 C 
ENDROOT
BRANCH   1   2
ATOM      2  C   UNL A   1      38.964  21.416  25.776  1.00  0.00     0.274 C 
BRANCH   2   3
ATOM      3  O   UNL A   1      37.837  22.315  25.783  1.00  0.00    -0.462 OA
BRANCH   3   4
ATOM      4  C   UNL A   1      36.802  22.012  24.950  1.00  0.00     0.313 C 
ATOM      5  O   UNL A   1      36.926  21.843  23.741  1.00  0.00    -0.252 OA
BRANCH   4   6
ATOM      6  C   UNL A   1      35.452  21.971  25.680  1.00  0.00     0.126 C 
ATOM      7  C   UNL A   1      34.613  20.736  25.326  1.00  0.00     0.025 C 
BRANCH   6   8
ATOM      8  C   UNL A   1      34.685  23.282  25.529  1.00  0.00    -0.034 A 
ATOM      9  C   UNL A   1      35.092  24.302  24.664  1.00  0.00     0.005 A 
ATOM     10  C   UNL A   1      33.547  23.518  26.312  1.00  0.00     0.005 A 
ATOM     11  C   UNL A   1      34.393  25.518  24.600  1.00  0.00     0.009 A 
ATOM     12  C   UNL A   1      32.847  24.734  26.234  1.00  0.00     0.009 A 
ATOM     13  C   UNL A   1      33.256  25.782  25.388  1.00  0.00    -0.018 A 
BRANCH  13  14
ATOM     14  C   UNL A   1      32.581  27.117  25.376  1.00  0.00    -0.018 A 
ATOM     15  C   UNL A   1      31.613  27.451  24.406  1.00  0.00     0.011 A 
ATOM     16  C   UNL A   1      32.914  28.126  26.307  1.00  0.00     0.019 A 
ATOM     17  C   UNL A   1      31.027  28.725  24.304  1.00  0.00     0.027 A 
ATOM     18  C   UNL A   1      32.309  29.402  26.263  1.00  0.00    -0.000 A 
ATOM     19  C   UNL A   1      31.402  29.680  25.246  1.00  0.00     0.045 A 
ATOM     20  C   UNL A   1      32.413  30.574  27.059  1.00  0.00     0.028 A 
ATOM     21  N   UNL A   1      31.032  31.000  25.375  1.00  0.00    -0.361 N 
ATOM     22  C   UNL A   1      31.600  31.534  26.501  1.00  0.00     0.083 A 
ATOM     23  H   UNL A   1      30.445  31.487  24.752  1.00  0.00     0.166 HD
ENDBRANCH  13  14
ENDBRANCH   6   8
ENDBRANCH   4   6
ENDBRANCH   3   4
ENDBRANCH   2   3
ENDBRANCH   1   2
BRANCH   1  24
ATOM     24  O   UNL A   1      39.795  23.380  26.914  1.00  0.00    -0.458 OA
BRANCH  24  25
ATOM     25  C   UNL A   1      40.756  24.314  26.726  1.00  0.00     0.338 C 
ATOM     26  O   UNL A   1      41.711  24.254  25.970  1.00  0.00    -0.246 OA
BRANCH  25  27
ATOM     27  C   UNL A   1      40.486  25.469  27.599  1.00  0.00     0.060 A 
ATOM     28  C   UNL A   1      41.325  26.579  27.555  1.00  0.00     0.016 A 
ATOM     29  C   UNL A   1      39.463  25.399  28.545  1.00  0.00     0.016 A 
ATOM     30  C   UNL A   1      41.203  27.573  28.524  1.00  0.00     0.010 A 
ATOM     31  C   UNL A   1      39.291  26.446  29.460  1.00  0.00     0.010 A 
ATOM     32  C   UNL A   1      40.192  27.524  29.496  1.00  0.00    -0.014 A 
BRANCH  32  33
ATOM     33  C   UNL A   1      40.133  28.556  30.577  1.00  0.00     0.031 A 
ATOM     34  C   UNL A   1      41.176  28.577  31.670  1.00  0.00     0.074 A 
ATOM     35  C   UNL A   1      39.176  29.507  30.570  1.00  0.00     0.049 A 
ATOM     36  N   UNL A   1      41.212  29.283  32.772  1.00  0.00    -0.248 NA
ATOM     37  C   UNL A   1      42.320  27.662  31.517  1.00  0.00     0.031 C 
ATOM     38  C   UNL A   1      38.133  29.654  29.553  1.00  0.00     0.029 A 
ATOM     39  N   UNL A   1      38.948  30.561  31.423  1.00  0.00    -0.354 N 
ATOM     40  C   UNL A   1      42.325  28.841  33.477  1.00  0.00     0.074 A 
ATOM     41  C   UNL A   1      42.950  27.812  32.675  1.00  0.00     0.031 C 
ATOM     42  C   UNL A   1      37.452  30.788  29.779  1.00  0.00     0.029 A 
ATOM     43  C   UNL A   1      37.938  31.399  31.012  1.00  0.00     0.049 A 
ATOM     44  H   UNL A   1      39.461  30.702  32.251  1.00  0.00     0.167 HD
ATOM     45  C   UNL A   1      42.780  29.252  34.684  1.00  0.00     0.037 A 
ATOM     46  C   UNL A   1      37.450  32.528  31.565  1.00  0.00     0.037 A 
ATOM     47  C   UNL A   1      42.224  30.355  35.426  1.00  0.00     0.049 A 
ATOM     48  C   UNL A   1      37.996  32.987  32.889  1.00  0.00     0.074 A 
ATOM     49  C   UNL A   1      42.636  30.865  36.645  1.00  0.00     0.029 A 
ATOM     50  N   UNL A   1      41.156  31.133  35.005  1.00  0.00    -0.354 N 
ATOM     51  N   UNL A   1      38.970  32.479  33.607  1.00  0.00    -0.248 NA
ATOM     52  C   UNL A   1      37.350  34.158  33.499  1.00  0.00     0.031 C 
ATOM     53  C   UNL A   1      41.813  31.949  36.967  1.00  0.00     0.029 A 
ATOM     54  C   UNL A   1      40.908  32.132  35.934  1.00  0.00     0.049 A 
ATOM     55  H   UNL A   1      40.649  30.997  34.173  1.00  0.00     0.167 HD
ATOM     56  C   UNL A   1      39.055  33.269  34.745  1.00  0.00     0.074 A 
ATOM     57  C   UNL A   1      38.049  34.303  34.616  1.00  0.00     0.031 C 
ATOM     58  C   UNL A   1      39.888  33.141  35.806  1.00  0.00     0.037 A 
BRANCH  45  59
ATOM     59  C   UNL A   1      43.915  28.487  35.303  1.00  0.00     0.058 A 
ATOM     60  C   UNL A   1      45.258  28.831  35.089  1.00  0.00     0.135 A 
ATOM     61  C   UNL A   1      43.644  27.406  36.159  1.00  0.00     0.135 A 
ATOM     62  F   UNL A   1      45.571  29.848  34.269  1.00  0.00    -0.206 F 
ATOM     63  C   UNL A   1      46.294  28.116  35.682  1.00  0.00     0.059 A 
ATOM     64  C   UNL A   1      44.663  26.689  36.779  1.00  0.00     0.059 A 
ATOM     65  F   UNL A   1      42.376  27.037  36.400  1.00  0.00    -0.206 F 
ATOM     66  C   UNL A   1      45.986  27.043  36.522  1.00  0.00     0.060 A 
BRANCH  66  67
ATOM     67  S   UNL A   1      47.337  26.120  37.289  1.00  0.00     0.124 S 
ATOM     68  O   UNL A   1      48.460  27.032  37.089  1.00  0.00    -0.237 OA
ATOM     69  O   UNL A   1      46.877  25.974  38.665  1.00  0.00    -0.237 OA
ATOM     70  O   UNL A   1      47.387  24.885  36.513  1.00  0.00    -0.744 OA
ENDBRANCH  66  67
ENDBRANCH  45  59
BRANCH  46  71
ATOM     71  C   UNL A   1      36.393  33.307  30.863  1.00  0.00     0.058 A 
ATOM     72  C   UNL A   1      35.065  33.284  31.318  1.00  0.00     0.135 A 
ATOM     73  C   UNL A   1      36.681  34.109  29.748  1.00  0.00     0.135 A 
ATOM     74  F   UNL A   1      34.720  32.502  32.351  1.00  0.00    -0.206 F 
ATOM     75  C   UNL A   1      34.068  34.041  30.711  1.00  0.00     0.059 A 
ATOM     76  C   UNL A   1      35.707  34.892  29.137  1.00  0.00     0.059 A 
ATOM     77  F   UNL A   1      37.932  34.165  29.264  1.00  0.00    -0.206 F 
ATOM     78  C   UNL A   1      34.401  34.849  29.625  1.00  0.00     0.060 A 
BRANCH  78  79
ATOM     79  S   UNL A   1      33.121  35.888  28.889  1.00  0.00     0.124 S 
ATOM     80  O   UNL A   1      33.920  36.831  28.114  1.00  0.00    -0.237 OA
ATOM     81  O   UNL A   1      32.343  34.926  28.114  1.00  0.00    -0.237 OA
ATOM     82  O   UNL A   1      32.435  36.443  30.052  1.00  0.00    -0.744 OA
ENDBRANCH  78  79
ENDBRANCH  46  71
BRANCH  58  83
ATOM     83  C   UNL A   1      39.740  34.139  36.918  1.00  0.00     0.058 A 
ATOM     84  C   UNL A   1      40.409  35.372  36.884  1.00  0.00     0.135 A 
ATOM     85  C   UNL A   1      38.890  33.880  38.005  1.00  0.00     0.135 A 
ATOM     86  F   UNL A   1      41.237  35.663  35.869  1.00  0.00    -0.206 F 
ATOM     87  C   UNL A   1      40.257  36.308  37.902  1.00  0.00     0.059 A 
ATOM     88  C   UNL A   1      38.706  34.811  39.022  1.00  0.00     0.059 A 
ATOM     89  F   UNL A   1      38.221  32.718  38.076  1.00  0.00    -0.206 F 
ATOM     90  C   UNL A   1      39.405  36.017  38.967  1.00  0.00     0.060 A 
BRANCH  90  91
ATOM     91  S   UNL A   1      39.187  37.251  40.268  1.00  0.00     0.124 S 
ATOM     92  O   UNL A   1      38.525  36.468  41.306  1.00  0.00    -0.237 OA
ATOM     93  O   UNL A   1      40.561  37.652  40.556  1.00  0.00    -0.237 OA
ATOM     94  O   UNL A   1      38.364  38.273  39.628  1.00  0.00    -0.744 OA
ENDBRANCH  90  91
ENDBRANCH  58  83
ENDBRANCH  32  33
ENDBRANCH  25  27
ENDBRANCH  24  25
ENDBRANCH   1  24
TORSDOF 16
ENDMDL
MODEL 3
REMARK VINA RESULT:     -12.0      6.936     13.412
REMARK SMILES C[C@@H](C(=O)OCCOC(=O)c1ccc(-c2c3nc(c(-c4c(F)cc(S(=O)(=O)[O-])cc4F)c4ccc([nH]4)c(-c4c(F)cc(S(=O)(=O)[O-])cc4F)c4nc(c(-c5c(F)cc(S(=O)(=O)[O-])cc5F)c5ccc2[nH]5)C=C4)C=C3)cc1)c1ccc(-c2ccc3[nH]ccc3c2)cc1
REMARK SMILES IDX 7 1 6 2 5 3 3 4 4 5 2 6 1 7 77 8 78 9 91 10 79 11 90 12
REMARK SMILES IDX 80 13 81 14 82 15 89 16 83 17 88 18 84 19 87 20 85 21 86 22
REMARK SMILES IDX 8 24 9 25 10 26 11 27 12 28 76 29 13 30 75 31 14 32 15 33
REMARK SMILES IDX 16 34 69 35 17 36 74 37 68 38 70 39 18 40 73 41 67 42 66 43
REMARK SMILES IDX 19 45 53 46 32 47 52 48 33 49 36 50 51 51 71 52 34 53 35 54
REMARK SMILES IDX 50 56 72 57 37 58 20 59 21 60 30 61 22 62 23 63 29 64 31 65
REMARK SMILES IDX 24 66 25 67 26 68 27 69 28 70 54 71 55 72 64 73 56 74 57 75
REMARK SMILES IDX 63 76 65 77 58 78 59 79 60 80 61 81 62 82 38 83 39 84 48 85
REMARK SMILES IDX 40 86 41 87 47 88 49 89 42 90 43 91 44 92 45 93 46 94
REMARK H PARENT 85 23 70 44 36 55
REMARK Flexibility Score: inf
ROOT
ATOM      1  C   UNL A   1      42.455  22.895  25.916  1.00  0.00     0.275 C 
ENDROOT
BRANCH   1   2
ATOM      2  C   UNL A   1      43.371  23.184  24.730  1.00  0.00     0.274 C 
BRANCH   2   3
ATOM      3  O   UNL A   1      43.702  24.587  24.691  1.00  0.00    -0.462 OA
BRANCH   3   4
ATOM      4  C   UNL A   1      45.002  24.920  24.929  1.00  0.00     0.313 C 
ATOM      5  O   UNL A   1      45.958  24.238  24.575  1.00  0.00    -0.252 OA
BRANCH   4   6
ATOM      6  C   UNL A   1      45.138  26.211  25.749  1.00  0.00     0.126 C 
ATOM      7  C   UNL A   1      46.333  27.073  25.323  1.00  0.00     0.025 C 
BRANCH   6   8
ATOM      8  C   UNL A   1      45.098  25.937  27.250  1.00  0.00    -0.034 A 
ATOM      9  C   UNL A   1      45.244  26.944  28.208  1.00  0.00     0.005 A 
ATOM     10  C   UNL A   1      44.953  24.623  27.715  1.00  0.00     0.005 A 
ATOM     11  C   UNL A   1      45.260  26.642  29.580  1.00  0.00     0.009 A 
ATOM     12  C   UNL A   1      44.961  24.330  29.090  1.00  0.00     0.009 A 
ATOM     13  C   UNL A   1      45.132  25.327  30.067  1.00  0.00    -0.018 A 
BRANCH  13  14
ATOM     14  C   UNL A   1      45.248  25.013  31.526  1.00  0.00    -0.018 A 
ATOM     15  C   UNL A   1      46.247  25.594  32.333  1.00  0.00     0.011 A 
ATOM     16  C   UNL A   1      44.391  24.083  32.155  1.00  0.00     0.019 A 
ATOM     17  C   UNL A   1      46.447  25.253  33.682  1.00  0.00     0.027 A 
ATOM     18  C   UNL A   1      44.534  23.752  33.522  1.00  0.00    -0.000 A 
ATOM     19  C   UNL A   1      45.575  24.323  34.245  1.00  0.00     0.045 A 
ATOM     20  C   UNL A   1      43.825  22.903  34.413  1.00  0.00     0.028 A 
ATOM     21  N   UNL A   1      45.546  23.776  35.508  1.00  0.00    -0.361 N 
ATOM     22  C   UNL A   1      44.458  22.954  35.634  1.00  0.00     0.083 A 
ATOM     23  H   UNL A   1      46.208  23.951  36.216  1.00  0.00     0.166 HD
ENDBRANCH  13  14
ENDBRANCH   6   8
ENDBRANCH   4   6
ENDBRANCH   3   4
ENDBRANCH   2   3
ENDBRANCH   1   2
BRANCH   1  24
ATOM     24  O   UNL A   1      41.824  24.114  26.339  1.00  0.00    -0.458 OA
BRANCH  24  25
ATOM     25  C   UNL A   1      40.735  23.976  27.129  1.00  0.00     0.338 C 
ATOM     26  O   UNL A   1      39.994  23.011  27.209  1.00  0.00    -0.246 OA
BRANCH  25  27
ATOM     27  C   UNL A   1      40.549  25.205  27.917  1.00  0.00     0.060 A 
ATOM     28  C   UNL A   1      41.603  26.105  28.051  1.00  0.00     0.016 A 
ATOM     29  C   UNL A   1      39.360  25.406  28.620  1.00  0.00     0.016 A 
ATOM     30  C   UNL A   1      41.502  27.151  28.966  1.00  0.00     0.010 A 
ATOM     31  C   UNL A   1      39.236  26.511  29.471  1.00  0.00     0.010 A 
ATOM     32  C   UNL A   1      40.324  27.371  29.697  1.00  0.00    -0.014 A 
BRANCH  32  33
ATOM     33  C   UNL A   1      40.268  28.446  30.735  1.00  0.00     0.031 A 
ATOM     34  C   UNL A   1      41.327  28.526  31.809  1.00  0.00     0.074 A 
ATOM     35  C   UNL A   1      39.298  29.385  30.704  1.00  0.00     0.049 A 
ATOM     36  N   UNL A   1      41.371  29.278  32.881  1.00  0.00    -0.248 NA
ATOM     37  C   UNL A   1      42.481  27.620  31.677  1.00  0.00     0.031 C 
ATOM     38  C   UNL A   1      38.239  29.477  29.698  1.00  0.00     0.029 A 
ATOM     39  N   UNL A   1      39.070  30.470  31.516  1.00  0.00    -0.354 N 
ATOM     40  C   UNL A   1      42.500  28.879  33.585  1.00  0.00     0.074 A 
ATOM     41  C   UNL A   1      43.126  27.825  32.817  1.00  0.00     0.031 C 
ATOM     42  C   UNL A   1      37.547  30.610  29.887  1.00  0.00     0.029 A 
ATOM     43  C   UNL A   1      38.044  31.279  31.086  1.00  0.00     0.049 A 
ATOM     44  H   UNL A   1      39.594  30.652  32.329  1.00  0.00     0.167 HD
ATOM     45  C   UNL A   1      42.968  29.345  34.767  1.00  0.00     0.037 A 
ATOM     46  C   UNL A   1      37.550  32.423  31.599  1.00  0.00     0.037 A 
ATOM     47  C   UNL A   1      42.410  30.471  35.471  1.00  0.00     0.049 A 
ATOM     48  C   UNL A   1      38.110  32.943  32.895  1.00  0.00     0.074 A 
ATOM     49  C   UNL A   1      42.833  31.037  36.661  1.00  0.00     0.029 A 
ATOM     50  N   UNL A   1      41.325  31.218  35.036  1.00  0.00    -0.354 N 
ATOM     51  N   UNL A   1      39.101  32.478  33.618  1.00  0.00    -0.248 NA
ATOM     52  C   UNL A   1      37.458  34.131  33.465  1.00  0.00     0.031 C 
ATOM     53  C   UNL A   1      42.001  32.123  36.952  1.00  0.00     0.029 A 
ATOM     54  C   UNL A   1      41.078  32.252  35.926  1.00  0.00     0.049 A 
ATOM     55  H   UNL A   1      40.808  31.041  34.218  1.00  0.00     0.167 HD
ATOM     56  C   UNL A   1      39.193  33.315  34.721  1.00  0.00     0.074 A 
ATOM     57  C   UNL A   1      38.172  34.331  34.565  1.00  0.00     0.031 C 
ATOM     58  C   UNL A   1      40.044  33.242  35.772  1.00  0.00     0.037 A 
BRANCH  45  59
ATOM     59  C   UNL A   1      44.122  28.620  35.399  1.00  0.00     0.058 A 
ATOM     60  C   UNL A   1      45.456  28.984  35.165  1.00  0.00     0.135 A 
ATOM     61  C   UNL A   1      43.878  27.560  36.288  1.00  0.00     0.135 A 
ATOM     62  F   UNL A   1      45.744  29.982  34.314  1.00  0.00    -0.206 F 
ATOM     63  C   UNL A   1      46.510  28.307  35.771  1.00  0.00     0.059 A 
ATOM     64  C   UNL A   1      44.916  26.882  36.921  1.00  0.00     0.059 A 
ATOM     65  F   UNL A   1      42.619  27.174  36.550  1.00  0.00    -0.206 F 
ATOM     66  C   UNL A   1      46.230  27.253  36.644  1.00  0.00     0.060 A 
BRANCH  66  67
ATOM     67  S   UNL A   1      47.604  26.379  37.427  1.00  0.00     0.124 S 
ATOM     68  O   UNL A   1      48.018  27.343  38.442  1.00  0.00    -0.237 OA
ATOM     69  O   UNL A   1      46.962  25.168  37.927  1.00  0.00    -0.237 OA
ATOM     70  O   UNL A   1      48.546  26.178  36.330  1.00  0.00    -0.744 OA
ENDBRANCH  66  67
ENDBRANCH  45  59
BRANCH  46  71
ATOM     71  C   UNL A   1      36.472  33.159  30.883  1.00  0.00     0.058 A 
ATOM     72  C   UNL A   1      35.143  33.100  31.331  1.00  0.00     0.135 A 
ATOM     73  C   UNL A   1      36.741  33.956  29.759  1.00  0.00     0.135 A 
ATOM     74  F   UNL A   1      34.817  32.320  32.372  1.00  0.00    -0.206 F 
ATOM     75  C   UNL A   1      34.126  33.816  30.710  1.00  0.00     0.059 A 
ATOM     76  C   UNL A   1      35.745  34.700  29.133  1.00  0.00     0.059 A 
ATOM     77  F   UNL A   1      37.992  34.046  29.280  1.00  0.00    -0.206 F 
ATOM     78  C   UNL A   1      34.439  34.621  29.615  1.00  0.00     0.060 A 
BRANCH  78  79
ATOM     79  S   UNL A   1      33.130  35.610  28.860  1.00  0.00     0.124 S 
ATOM     80  O   UNL A   1      33.903  36.581  28.094  1.00  0.00    -0.237 OA
ATOM     81  O   UNL A   1      32.400  34.618  28.076  1.00  0.00    -0.237 OA
ATOM     82  O   UNL A   1      32.408  36.140  30.012  1.00  0.00    -0.744 OA
ENDBRANCH  78  79
ENDBRANCH  46  71
BRANCH  58  83
ATOM     83  C   UNL A   1      39.899  34.284  36.844  1.00  0.00     0.058 A 
ATOM     84  C   UNL A   1      39.118  34.050  37.986  1.00  0.00     0.135 A 
ATOM     85  C   UNL A   1      40.580  35.509  36.750  1.00  0.00     0.135 A 
ATOM     86  F   UNL A   1      38.444  32.897  38.118  1.00  0.00    -0.206 F 
ATOM     87  C   UNL A   1      38.999  35.005  38.991  1.00  0.00     0.059 A 
ATOM     88  C   UNL A   1      40.492  36.468  37.753  1.00  0.00     0.059 A 
ATOM     89  F   UNL A   1      41.346  35.774  35.679  1.00  0.00    -0.206 F 
ATOM     90  C   UNL A   1      39.688  36.211  38.864  1.00  0.00     0.060 A 
BRANCH  90  91
ATOM     91  S   UNL A   1      39.555  37.431  40.189  1.00  0.00     0.124 S 
ATOM     92  O   UNL A   1      39.697  36.592  41.374  1.00  0.00    -0.237 OA
ATOM     93  O   UNL A   1      40.673  38.326  39.908  1.00  0.00    -0.237 OA
ATOM     94  O   UNL A   1      38.231  38.009  39.982  1.00  0.00    -0.744 OA
ENDBRANCH  90  91
ENDBRANCH  58  83
ENDBRANCH  32  33
ENDBRANCH  25  27
ENDBRANCH  24  25
ENDBRANCH   1  24
TORSDOF 16
ENDMDL
