MODEL 1
REMARK VINA RESULT:     -13.8      0.000      0.000
REMARK SMILES C[C@]12C(=O)N(c3ccc(C(=O)OCCOC(=O)c4ccc(-c5c6nc(c(-c7c(F)cc(S(=O)(=O)[O-])cc7F)c7ccc([nH]7)c(-c7c(F)cc(S(=O)(=O)[O-])cc7F)c7nc(c(-c8c(F)cc(S(=O)(=O)[O-])cc8F)c8ccc5[nH]8)C=C7)C=C6)cc4)cc3)C(=O)[C@H]1[C@H]1c3ccccc3[C@@H]2c2ccccc21
REMARK SMILES IDX 14 1 13 2 12 3 10 4 11 5 9 6 6 7 7 8 85 9 8 10 84 11 5 12
REMARK SMILES IDX 1 13 2 14 3 15 88 16 96 17 4 18 86 19 89 20 95 21 97 22
REMARK SMILES IDX 87 23 90 24 102 25 94 26 98 27 91 28 101 29 93 30 99 31
REMARK SMILES IDX 92 32 100 33 15 34 16 35 17 36 18 37 19 38 83 39 20 40 82 41
REMARK SMILES IDX 21 42 22 43 23 44 76 45 24 46 81 47 75 48 77 49 25 50 80 51
REMARK SMILES IDX 74 52 73 53 26 55 60 56 39 57 59 58 40 59 43 60 58 61 78 62
REMARK SMILES IDX 41 63 42 64 57 66 79 67 44 68 27 69 28 70 37 71 29 72 30 73
REMARK SMILES IDX 36 74 38 75 31 76 32 77 33 78 34 79 35 80 61 81 62 82 71 83
REMARK SMILES IDX 63 84 64 85 70 86 72 87 65 88 66 89 67 90 68 91 69 92 45 93
REMARK SMILES IDX 46 94 55 95 47 96 48 97 54 98 56 99 49 100 50 101 51 102
REMARK SMILES IDX 52 103 53 104
REMARK H PARENT 77 54 43 65
REMARK Flexibility Score: inf
ROOT
ATOM      1  C   UNL A   1      34.751  31.708  29.558  1.00  0.00     0.275 C 
ENDROOT
BRANCH   1   2
ATOM      2  C   UNL A   1      34.459  31.675  28.055  1.00  0.00     0.275 C 
BRANCH   2   3
ATOM      3  O   UNL A   1      33.835  30.431  27.669  1.00  0.00    -0.458 OA
BRANCH   3   4
ATOM      4  C   UNL A   1      34.673  29.493  27.173  1.00  0.00     0.338 C 
ATOM      5  O   UNL A   1      35.888  29.457  27.303  1.00  0.00    -0.246 OA
BRANCH   4   6
ATOM      6  C   UNL A   1      33.916  28.375  26.572  1.00  0.00     0.060 A 
ATOM      7  C   UNL A   1      32.357  26.176  25.690  1.00  0.00     0.052 A 
ATOM      8  C   UNL A   1      31.898  27.064  26.675  1.00  0.00     0.028 A 
ATOM      9  C   UNL A   1      33.619  26.427  25.135  1.00  0.00     0.028 A 
ATOM     10  C   UNL A   1      32.680  28.107  27.135  1.00  0.00     0.018 A 
ATOM     11  C   UNL A   1      34.386  27.545  25.551  1.00  0.00     0.018 A 
BRANCH   7  12
ATOM     12  N   UNL A   1      31.605  24.986  25.485  1.00  0.00    -0.250 N 
ATOM     13  C   UNL A   1      30.214  21.998  26.024  1.00  0.00     0.024 C 
ATOM     14  C   UNL A   1      31.543  22.675  25.617  1.00  0.00     0.071 C 
ATOM     15  C   UNL A   1      31.623  23.956  26.382  1.00  0.00     0.241 C 
ATOM     16  C   UNL A   1      31.511  23.090  24.091  1.00  0.00     0.107 C 
ATOM     17  C   UNL A   1      32.832  21.849  25.972  1.00  0.00     0.066 C 
ATOM     18  O   UNL A   1      31.648  24.010  27.604  1.00  0.00    -0.273 OA
ATOM     19  C   UNL A   1      31.033  24.550  24.302  1.00  0.00     0.238 C 
ATOM     20  C   UNL A   1      32.543  22.114  23.366  1.00  0.00     0.063 C 
ATOM     21  C   UNL A   1      34.037  22.529  25.300  1.00  0.00    -0.036 A 
ATOM     22  C   UNL A   1      32.656  20.522  25.256  1.00  0.00    -0.036 A 
ATOM     23  O   UNL A   1      30.357  25.185  23.505  1.00  0.00    -0.274 OA
ATOM     24  C   UNL A   1      33.927  22.610  23.884  1.00  0.00    -0.036 A 
ATOM     25  C   UNL A   1      32.434  20.665  23.862  1.00  0.00    -0.036 A 
ATOM     26  C   UNL A   1      35.115  23.111  25.948  1.00  0.00     0.005 A 
ATOM     27  C   UNL A   1      32.766  19.275  25.858  1.00  0.00     0.005 A 
ATOM     28  C   UNL A   1      34.863  23.301  23.125  1.00  0.00     0.004 A 
ATOM     29  C   UNL A   1      32.325  19.530  23.070  1.00  0.00     0.004 A 
ATOM     30  C   UNL A   1      36.057  23.808  25.184  1.00  0.00     0.000 A 
ATOM     31  C   UNL A   1      32.652  18.144  25.056  1.00  0.00     0.000 A 
ATOM     32  C   UNL A   1      35.930  23.906  23.789  1.00  0.00     0.000 A 
ATOM     33  C   UNL A   1      32.431  18.270  23.676  1.00  0.00     0.000 A 
ENDBRANCH   7  12
ENDBRANCH   4   6
ENDBRANCH   3   4
ENDBRANCH   2   3
ENDBRANCH   1   2
BRANCH   1  34
ATOM     34  O   UNL A   1      36.168  31.765  29.809  1.00  0.00    -0.458 OA
BRANCH  34  35
ATOM     35  C   UNL A   1      36.671  30.740  30.532  1.00  0.00     0.338 C 
ATOM     36  O   UNL A   1      36.092  30.067  31.367  1.00  0.00    -0.246 OA
BRANCH  35  37
ATOM     37  C   UNL A   1      38.057  30.480  30.114  1.00  0.00     0.060 A 
ATOM     38  C   UNL A   1      39.012  30.022  31.017  1.00  0.00     0.016 A 
ATOM     39  C   UNL A   1      38.362  30.572  28.761  1.00  0.00     0.016 A 
ATOM     40  C   UNL A   1      40.279  29.658  30.542  1.00  0.00     0.010 A 
ATOM     41  C   UNL A   1      39.566  30.072  28.275  1.00  0.00     0.010 A 
ATOM     42  C   UNL A   1      40.560  29.642  29.160  1.00  0.00    -0.014 A 
BRANCH  42  43
ATOM     43  C   UNL A   1      41.889  29.207  28.639  1.00  0.00     0.031 A 
ATOM     44  C   UNL A   1      43.049  30.177  28.584  1.00  0.00     0.074 A 
ATOM     45  C   UNL A   1      42.054  27.945  28.189  1.00  0.00     0.049 A 
ATOM     46  N   UNL A   1      44.275  29.974  28.170  1.00  0.00    -0.248 NA
ATOM     47  C   UNL A   1      42.795  31.561  29.017  1.00  0.00     0.031 C 
ATOM     48  C   UNL A   1      41.002  26.930  28.111  1.00  0.00     0.029 A 
ATOM     49  N   UNL A   1      43.173  27.293  27.727  1.00  0.00    -0.354 N 
ATOM     50  C   UNL A   1      44.925  31.198  28.287  1.00  0.00     0.074 A 
ATOM     51  C   UNL A   1      43.942  32.157  28.733  1.00  0.00     0.031 C 
ATOM     52  C   UNL A   1      41.536  25.769  27.699  1.00  0.00     0.029 A 
ATOM     53  C   UNL A   1      42.959  25.964  27.443  1.00  0.00     0.049 A 
ATOM     54  H   UNL A   1      44.045  27.735  27.610  1.00  0.00     0.167 HD
ATOM     55  C   UNL A   1      46.232  31.494  28.085  1.00  0.00     0.037 A 
ATOM     56  C   UNL A   1      43.814  25.003  27.037  1.00  0.00     0.037 A 
ATOM     57  C   UNL A   1      47.223  30.531  27.686  1.00  0.00     0.049 A 
ATOM     58  C   UNL A   1      45.265  25.349  26.836  1.00  0.00     0.074 A 
ATOM     59  C   UNL A   1      48.583  30.719  27.509  1.00  0.00     0.029 A 
ATOM     60  N   UNL A   1      46.963  29.196  27.412  1.00  0.00    -0.354 N 
ATOM     61  N   UNL A   1      45.868  26.501  27.008  1.00  0.00    -0.248 NA
ATOM     62  C   UNL A   1      46.152  24.267  26.386  1.00  0.00     0.031 C 
ATOM     63  C   UNL A   1      49.140  29.504  27.096  1.00  0.00     0.029 A 
ATOM     64  C   UNL A   1      48.135  28.551  27.056  1.00  0.00     0.049 A 
ATOM     65  H   UNL A   1      46.077  28.771  27.462  1.00  0.00     0.167 HD
ATOM     66  C   UNL A   1      47.206  26.277  26.707  1.00  0.00     0.074 A 
ATOM     67  C   UNL A   1      47.328  24.877  26.358  1.00  0.00     0.031 C 
ATOM     68  C   UNL A   1      48.241  27.155  26.717  1.00  0.00     0.037 A 
BRANCH  55  69
ATOM     69  C   UNL A   1      46.679  32.910  28.337  1.00  0.00     0.058 A 
ATOM     70  C   UNL A   1      47.242  33.291  29.568  1.00  0.00     0.135 A 
ATOM     71  C   UNL A   1      46.599  33.884  27.328  1.00  0.00     0.135 A 
ATOM     72  F   UNL A   1      47.329  32.405  30.573  1.00  0.00    -0.206 F 
ATOM     73  C   UNL A   1      47.687  34.588  29.795  1.00  0.00     0.059 A 
ATOM     74  C   UNL A   1      47.066  35.182  27.525  1.00  0.00     0.059 A 
ATOM     75  F   UNL A   1      46.072  33.577  26.132  1.00  0.00    -0.206 F 
ATOM     76  C   UNL A   1      47.598  35.526  28.766  1.00  0.00     0.060 A 
BRANCH  76  77
ATOM     77  S   UNL A   1      48.205  37.198  29.077  1.00  0.00     0.124 S 
ATOM     78  O   UNL A   1      49.650  37.002  29.003  1.00  0.00    -0.237 OA
ATOM     79  O   UNL A   1      47.612  37.953  27.978  1.00  0.00    -0.237 OA
ATOM     80  O   UNL A   1      47.683  37.510  30.403  1.00  0.00    -0.744 OA
ENDBRANCH  76  77
ENDBRANCH  55  69
BRANCH  56  81
ATOM     81  C   UNL A   1      43.329  23.609  26.849  1.00  0.00     0.058 A 
ATOM     82  C   UNL A   1      43.122  23.092  25.561  1.00  0.00     0.135 A 
ATOM     83  C   UNL A   1      43.093  22.759  27.940  1.00  0.00     0.135 A 
ATOM     84  F   UNL A   1      43.326  23.867  24.486  1.00  0.00    -0.206 F 
ATOM     85  C   UNL A   1      42.688  21.785  25.361  1.00  0.00     0.059 A 
ATOM     86  C   UNL A   1      42.682  21.440  27.764  1.00  0.00     0.059 A 
ATOM     87  F   UNL A   1      43.290  23.200  29.191  1.00  0.00    -0.206 F 
ATOM     88  C   UNL A   1      42.476  20.964  26.470  1.00  0.00     0.060 A 
BRANCH  88  89
ATOM     89  S   UNL A   1      41.966  19.254  26.192  1.00  0.00     0.124 S 
ATOM     90  O   UNL A   1      42.396  18.614  27.430  1.00  0.00    -0.237 OA
ATOM     91  O   UNL A   1      40.524  19.391  26.011  1.00  0.00    -0.237 OA
ATOM     92  O   UNL A   1      42.708  18.872  24.994  1.00  0.00    -0.744 OA
ENDBRANCH  88  89
ENDBRANCH  56  81
BRANCH  68  93
ATOM     93  C   UNL A   1      49.602  26.631  26.353  1.00  0.00     0.058 A 
ATOM     94  C   UNL A   1      50.141  26.823  25.073  1.00  0.00     0.135 A 
ATOM     95  C   UNL A   1      50.405  26.004  27.319  1.00  0.00     0.135 A 
ATOM     96  F   UNL A   1      49.411  27.412  24.113  1.00  0.00    -0.206 F 
ATOM     97  C   UNL A   1      51.428  26.400  24.757  1.00  0.00     0.059 A 
ATOM     98  C   UNL A   1      51.704  25.596  27.033  1.00  0.00     0.059 A 
ATOM     99  F   UNL A   1      49.939  25.807  28.562  1.00  0.00    -0.206 F 
ATOM    100  C   UNL A   1      52.204  25.792  25.747  1.00  0.00     0.060 A 
BRANCH 100 101
ATOM    101  S   UNL A   1      53.890  25.296  25.336  1.00  0.00     0.124 S 
ATOM    102  O   UNL A   1      54.053  25.880  24.008  1.00  0.00    -0.237 OA
ATOM    103  O   UNL A   1      54.667  25.920  26.403  1.00  0.00    -0.237 OA
ATOM    104  O   UNL A   1      53.836  23.837  25.377  1.00  0.00    -0.744 OA
ENDBRANCH 100 101
ENDBRANCH  68  93
ENDBRANCH  42  43
ENDBRANCH  35  37
ENDBRANCH  34  35
ENDBRANCH   1  34
TORSDOF 15
ENDMDL
MODEL 2
REMARK VINA RESULT:     -13.8      0.522      1.661
REMARK SMILES C[C@]12C(=O)N(c3ccc(C(=O)OCCOC(=O)c4ccc(-c5c6nc(c(-c7c(F)cc(S(=O)(=O)[O-])cc7F)c7ccc([nH]7)c(-c7c(F)cc(S(=O)(=O)[O-])cc7F)c7nc(c(-c8c(F)cc(S(=O)(=O)[O-])cc8F)c8ccc5[nH]8)C=C7)C=C6)cc4)cc3)C(=O)[C@H]1[C@H]1c3ccccc3[C@@H]2c2ccccc21
REMARK SMILES IDX 14 1 13 2 12 3 10 4 11 5 9 6 6 7 7 8 85 9 8 10 84 11 5 12
REMARK SMILES IDX 1 13 2 14 3 15 88 16 96 17 4 18 86 19 89 20 95 21 97 22
REMARK SMILES IDX 87 23 90 24 102 25 94 26 98 27 91 28 101 29 93 30 99 31
REMARK SMILES IDX 92 32 100 33 15 34 16 35 17 36 18 37 19 38 83 39 20 40 82 41
REMARK SMILES IDX 21 42 22 43 23 44 76 45 24 46 81 47 75 48 77 49 25 50 80 51
REMARK SMILES IDX 74 52 73 53 26 55 60 56 39 57 59 58 40 59 43 60 58 61 78 62
REMARK SMILES IDX 41 63 42 64 57 66 79 67 44 68 27 69 28 70 37 71 29 72 30 73
REMARK SMILES IDX 36 74 38 75 31 76 32 77 33 78 34 79 35 80 61 81 62 82 71 83
REMARK SMILES IDX 63 84 64 85 70 86 72 87 65 88 66 89 67 90 68 91 69 92 45 93
REMARK SMILES IDX 46 94 55 95 47 96 48 97 54 98 56 99 49 100 50 101 51 102
REMARK SMILES IDX 52 103 53 104
REMARK H PARENT 77 54 43 65
REMARK Flexibility Score: inf
ROOT
ATOM      1  C   UNL A   1      35.050  31.662  29.127  1.00  0.00     0.275 C 
ENDROOT
BRANCH   1   2
ATOM      2  C   UNL A   1      35.194  31.400  27.624  1.00  0.00     0.275 C 
BRANCH   2   3
ATOM      3  O   UNL A   1      34.679  30.099  27.267  1.00  0.00    -0.458 OA
BRANCH   3   4
ATOM      4  C   UNL A   1      33.374  30.070  26.916  1.00  0.00     0.338 C 
ATOM      5  O   UNL A   1      32.614  31.025  26.848  1.00  0.00    -0.246 OA
BRANCH   4   6
ATOM      6  C   UNL A   1      32.986  28.725  26.440  1.00  0.00     0.060 A 
ATOM      7  C   UNL A   1      31.973  26.200  25.639  1.00  0.00     0.052 A 
ATOM      8  C   UNL A   1      31.190  27.364  25.588  1.00  0.00     0.028 A 
ATOM      9  C   UNL A   1      33.294  26.332  26.086  1.00  0.00     0.028 A 
ATOM     10  C   UNL A   1      31.673  28.585  26.023  1.00  0.00     0.018 A 
ATOM     11  C   UNL A   1      33.812  27.599  26.456  1.00  0.00     0.018 A 
BRANCH   7  12
ATOM     12  N   UNL A   1      31.307  24.959  25.435  1.00  0.00    -0.250 N 
ATOM     13  C   UNL A   1      30.101  21.895  25.992  1.00  0.00     0.024 C 
ATOM     14  C   UNL A   1      31.394  22.652  25.610  1.00  0.00     0.071 C 
ATOM     15  C   UNL A   1      31.367  23.949  26.352  1.00  0.00     0.241 C 
ATOM     16  C   UNL A   1      31.379  23.038  24.076  1.00  0.00     0.107 C 
ATOM     17  C   UNL A   1      32.723  21.920  26.017  1.00  0.00     0.066 C 
ATOM     18  O   UNL A   1      31.352  24.025  27.573  1.00  0.00    -0.273 OA
ATOM     19  C   UNL A   1      30.800  24.467  24.246  1.00  0.00     0.238 C 
ATOM     20  C   UNL A   1      32.494  22.120  23.399  1.00  0.00     0.063 C 
ATOM     21  C   UNL A   1      33.900  22.666  25.366  1.00  0.00    -0.036 A 
ATOM     22  C   UNL A   1      32.656  20.571  25.321  1.00  0.00    -0.036 A 
ATOM     23  O   UNL A   1      30.107  25.042  23.418  1.00  0.00    -0.274 OA
ATOM     24  C   UNL A   1      33.826  22.715  23.946  1.00  0.00    -0.036 A 
ATOM     25  C   UNL A   1      32.466  20.676  23.919  1.00  0.00    -0.036 A 
ATOM     26  C   UNL A   1      34.918  23.330  26.033  1.00  0.00     0.005 A 
ATOM     27  C   UNL A   1      32.830  19.345  25.949  1.00  0.00     0.005 A 
ATOM     28  C   UNL A   1      34.737  23.454  23.201  1.00  0.00     0.004 A 
ATOM     29  C   UNL A   1      32.455  19.523  23.146  1.00  0.00     0.004 A 
ATOM     30  C   UNL A   1      35.834  24.074  25.283  1.00  0.00     0.000 A 
ATOM     31  C   UNL A   1      32.814  18.196  25.166  1.00  0.00     0.000 A 
ATOM     32  C   UNL A   1      35.742  24.140  23.882  1.00  0.00     0.000 A 
ATOM     33  C   UNL A   1      32.626  18.283  23.778  1.00  0.00     0.000 A 
ENDBRANCH   7  12
ENDBRANCH   4   6
ENDBRANCH   3   4
ENDBRANCH   2   3
ENDBRANCH   1   2
BRANCH   1  34
ATOM     34  O   UNL A   1      36.331  31.626  29.784  1.00  0.00    -0.458 OA
BRANCH  34  35
ATOM     35  C   UNL A   1      36.630  30.465  30.408  1.00  0.00     0.338 C 
ATOM     36  O   UNL A   1      35.972  29.889  31.256  1.00  0.00    -0.246 OA
BRANCH  35  37
ATOM     37  C   UNL A   1      37.882  29.923  29.859  1.00  0.00     0.060 A 
ATOM     38  C   UNL A   1      38.151  29.960  28.494  1.00  0.00     0.016 A 
ATOM     39  C   UNL A   1      38.858  29.495  30.752  1.00  0.00     0.016 A 
ATOM     40  C   UNL A   1      39.413  29.558  28.038  1.00  0.00     0.010 A 
ATOM     41  C   UNL A   1      40.153  29.240  30.311  1.00  0.00     0.010 A 
ATOM     42  C   UNL A   1      40.443  29.230  28.943  1.00  0.00    -0.014 A 
BRANCH  42  43
ATOM     43  C   UNL A   1      41.807  28.851  28.470  1.00  0.00     0.031 A 
ATOM     44  C   UNL A   1      42.923  29.871  28.443  1.00  0.00     0.074 A 
ATOM     45  C   UNL A   1      42.043  27.594  28.039  1.00  0.00     0.049 A 
ATOM     46  N   UNL A   1      44.170  29.720  28.072  1.00  0.00    -0.248 NA
ATOM     47  C   UNL A   1      42.593  31.246  28.854  1.00  0.00     0.031 C 
ATOM     48  C   UNL A   1      41.040  26.532  27.937  1.00  0.00     0.029 A 
ATOM     49  N   UNL A   1      43.204  26.989  27.621  1.00  0.00    -0.354 N 
ATOM     50  C   UNL A   1      44.761  30.974  28.198  1.00  0.00     0.074 A 
ATOM     51  C   UNL A   1      43.722  31.892  28.602  1.00  0.00     0.031 C 
ATOM     52  C   UNL A   1      41.639  25.393  27.554  1.00  0.00     0.029 A 
ATOM     53  C   UNL A   1      43.060  25.649  27.343  1.00  0.00     0.049 A 
ATOM     54  H   UNL A   1      44.059  27.469  27.528  1.00  0.00     0.167 HD
ATOM     55  C   UNL A   1      46.059  31.326  28.036  1.00  0.00     0.037 A 
ATOM     56  C   UNL A   1      43.970  24.724  26.976  1.00  0.00     0.037 A 
ATOM     57  C   UNL A   1      47.105  30.405  27.680  1.00  0.00     0.049 A 
ATOM     58  C   UNL A   1      45.409  25.133  26.819  1.00  0.00     0.074 A 
ATOM     59  C   UNL A   1      48.460  30.652  27.546  1.00  0.00     0.029 A 
ATOM     60  N   UNL A   1      46.915  29.057  27.411  1.00  0.00    -0.354 N 
ATOM     61  N   UNL A   1      45.954  26.313  26.999  1.00  0.00    -0.248 NA
ATOM     62  C   UNL A   1      46.358  24.088  26.409  1.00  0.00     0.031 C 
ATOM     63  C   UNL A   1      49.085  29.460  27.164  1.00  0.00     0.029 A 
ATOM     64  C   UNL A   1      48.125  28.463  27.101  1.00  0.00     0.049 A 
ATOM     65  H   UNL A   1      46.047  28.593  27.437  1.00  0.00     0.167 HD
ATOM     66  C   UNL A   1      47.311  26.147  26.745  1.00  0.00     0.074 A 
ATOM     67  C   UNL A   1      47.507  24.750  26.414  1.00  0.00     0.031 C 
ATOM     68  C   UNL A   1      48.304  27.069  26.779  1.00  0.00     0.037 A 
BRANCH  55  69
ATOM     69  C   UNL A   1      46.434  32.763  28.288  1.00  0.00     0.058 A 
ATOM     70  C   UNL A   1      46.356  33.727  27.269  1.00  0.00     0.135 A 
ATOM     71  C   UNL A   1      46.821  33.196  29.567  1.00  0.00     0.135 A 
ATOM     72  F   UNL A   1      46.006  33.367  26.024  1.00  0.00    -0.206 F 
ATOM     73  C   UNL A   1      46.668  35.062  27.503  1.00  0.00     0.059 A 
ATOM     74  C   UNL A   1      47.111  34.533  29.831  1.00  0.00     0.059 A 
ATOM     75  F   UNL A   1      46.912  32.318  30.579  1.00  0.00    -0.206 F 
ATOM     76  C   UNL A   1      47.041  35.456  28.788  1.00  0.00     0.060 A 
BRANCH  76  77
ATOM     77  S   UNL A   1      47.418  37.198  29.074  1.00  0.00     0.124 S 
ATOM     78  O   UNL A   1      47.270  37.295  30.523  1.00  0.00    -0.237 OA
ATOM     79  O   UNL A   1      48.783  37.308  28.569  1.00  0.00    -0.237 OA
ATOM     80  O   UNL A   1      46.404  37.900  28.293  1.00  0.00    -0.744 OA
ENDBRANCH  76  77
ENDBRANCH  55  69
BRANCH  56  81
ATOM     81  C   UNL A   1      43.554  23.308  26.786  1.00  0.00     0.058 A 
ATOM     82  C   UNL A   1      43.258  22.495  27.892  1.00  0.00     0.135 A 
ATOM     83  C   UNL A   1      43.417  22.746  25.508  1.00  0.00     0.135 A 
ATOM     84  F   UNL A   1      43.381  22.984  29.135  1.00  0.00    -0.206 F 
ATOM     85  C   UNL A   1      42.849  21.175  27.739  1.00  0.00     0.059 A 
ATOM     86  C   UNL A   1      42.985  21.434  25.328  1.00  0.00     0.059 A 
ATOM     87  F   UNL A   1      43.674  23.485  24.419  1.00  0.00    -0.206 F 
ATOM     88  C   UNL A   1      42.710  20.654  26.451  1.00  0.00     0.060 A 
BRANCH  88  89
ATOM     89  S   UNL A   1      42.125  18.955  26.265  1.00  0.00     0.124 S 
ATOM     90  O   UNL A   1      42.240  18.454  27.630  1.00  0.00    -0.237 OA
ATOM     91  O   UNL A   1      40.766  19.154  25.770  1.00  0.00    -0.237 OA
ATOM     92  O   UNL A   1      43.058  18.382  25.301  1.00  0.00    -0.744 OA
ENDBRANCH  88  89
ENDBRANCH  56  81
BRANCH  68  93
ATOM     93  C   UNL A   1      49.699  26.604  26.466  1.00  0.00     0.058 A 
ATOM     94  C   UNL A   1      50.523  26.049  27.455  1.00  0.00     0.135 A 
ATOM     95  C   UNL A   1      50.182  26.640  25.148  1.00  0.00     0.135 A 
ATOM     96  F   UNL A   1      50.108  25.996  28.731  1.00  0.00    -0.206 F 
ATOM     97  C   UNL A   1      51.787  25.555  27.152  1.00  0.00     0.059 A 
ATOM     98  C   UNL A   1      51.433  26.128  24.817  1.00  0.00     0.059 A 
ATOM     99  F   UNL A   1      49.427  27.152  24.164  1.00  0.00    -0.206 F 
ATOM    100  C   UNL A   1      52.231  25.593  25.828  1.00  0.00     0.060 A 
BRANCH 100 101
ATOM    101  S   UNL A   1      53.852  24.901  25.442  1.00  0.00     0.124 S 
ATOM    102  O   UNL A   1      54.278  25.750  24.333  1.00  0.00    -0.237 OA
ATOM    103  O   UNL A   1      54.577  25.087  26.696  1.00  0.00    -0.237 OA
ATOM    104  O   UNL A   1      53.558  23.514  25.094  1.00  0.00    -0.744 OA
ENDBRANCH 100 101
ENDBRANCH  68  93
ENDBRANCH  42  43
ENDBRANCH  35  37
ENDBRANCH  34  35
ENDBRANCH   1  34
TORSDOF 15
ENDMDL
MODEL 3
REMARK VINA RESULT:     -13.8      5.870      8.011
REMARK SMILES C[C@]12C(=O)N(c3ccc(C(=O)OCCOC(=O)c4ccc(-c5c6nc(c(-c7c(F)cc(S(=O)(=O)[O-])cc7F)c7ccc([nH]7)c(-c7c(F)cc(S(=O)(=O)[O-])cc7F)c7nc(c(-c8c(F)cc(S(=O)(=O)[O-])cc8F)c8ccc5[nH]8)C=C7)C=C6)cc4)cc3)C(=O)[C@H]1[C@H]1c3ccccc3[C@@H]2c2ccccc21
REMARK SMILES IDX 14 1 13 2 12 3 10 4 11 5 9 6 6 7 7 8 85 9 8 10 84 11 5 12
REMARK SMILES IDX 1 13 2 14 3 15 88 16 96 17 4 18 86 19 89 20 95 21 97 22
REMARK SMILES IDX 87 23 90 24 102 25 94 26 98 27 91 28 101 29 93 30 99 31
REMARK SMILES IDX 92 32 100 33 15 34 16 35 17 36 18 37 19 38 83 39 20 40 82 41
REMARK SMILES IDX 21 42 22 43 23 44 76 45 24 46 81 47 75 48 77 49 25 50 80 51
REMARK SMILES IDX 74 52 73 53 26 55 60 56 39 57 59 58 40 59 43 60 58 61 78 62
REMARK SMILES IDX 41 63 42 64 57 66 79 67 44 68 27 69 28 70 37 71 29 72 30 73
REMARK SMILES IDX 36 74 38 75 31 76 32 77 33 78 34 79 35 80 61 81 62 82 71 83
REMARK SMILES IDX 63 84 64 85 70 86 72 87 65 88 66 89 67 90 68 91 69 92 45 93
REMARK SMILES IDX 46 94 55 95 47 96 48 97 54 98 56 99 49 100 50 101 51 102
REMARK SMILES IDX 52 103 53 104
REMARK H PARENT 77 54 43 65
REMARK Flexibility Score: inf
ROOT
ATOM      1  C   UNL A   1      32.694  33.015  27.789  1.00  0.00     0.275 C 
ENDROOT
BRANCH   1   2
ATOM      2  C   UNL A   1      33.771  31.941  27.605  1.00  0.00     0.275 C 
BRANCH   2   3
ATOM      3  O   UNL A   1      33.183  30.642  27.373  1.00  0.00    -0.458 OA
BRANCH   3   4
ATOM      4  C   UNL A   1      34.061  29.620  27.269  1.00  0.00     0.338 C 
ATOM      5  O   UNL A   1      35.190  29.576  27.736  1.00  0.00    -0.246 OA
BRANCH   4   6
ATOM      6  C   UNL A   1      33.424  28.440  26.647  1.00  0.00     0.060 A 
ATOM      7  C   UNL A   1      32.061  26.134  25.713  1.00  0.00     0.052 A 
ATOM      8  C   UNL A   1      31.449  27.062  26.569  1.00  0.00     0.028 A 
ATOM      9  C   UNL A   1      33.379  26.398  25.315  1.00  0.00     0.028 A 
ATOM     10  C   UNL A   1      32.132  28.160  27.059  1.00  0.00     0.018 A 
ATOM     11  C   UNL A   1      34.050  27.566  25.754  1.00  0.00     0.018 A 
BRANCH   7  12
ATOM     12  N   UNL A   1      31.379  24.906  25.489  1.00  0.00    -0.250 N 
ATOM     13  C   UNL A   1      30.124  21.853  25.997  1.00  0.00     0.024 C 
ATOM     14  C   UNL A   1      31.430  22.596  25.632  1.00  0.00     0.071 C 
ATOM     15  C   UNL A   1      31.418  23.882  26.392  1.00  0.00     0.241 C 
ATOM     16  C   UNL A   1      31.430  23.002  24.104  1.00  0.00     0.107 C 
ATOM     17  C   UNL A   1      32.745  21.838  26.036  1.00  0.00     0.066 C 
ATOM     18  O   UNL A   1      31.397  23.942  27.614  1.00  0.00    -0.273 OA
ATOM     19  C   UNL A   1      30.871  24.437  24.290  1.00  0.00     0.238 C 
ATOM     20  C   UNL A   1      32.534  22.077  23.420  1.00  0.00     0.063 C 
ATOM     21  C   UNL A   1      33.937  22.576  25.402  1.00  0.00    -0.036 A 
ATOM     22  C   UNL A   1      32.663  20.500  25.321  1.00  0.00    -0.036 A 
ATOM     23  O   UNL A   1      30.191  25.034  23.467  1.00  0.00    -0.274 OA
ATOM     24  C   UNL A   1      33.872  22.645  23.982  1.00  0.00    -0.036 A 
ATOM     25  C   UNL A   1      32.482  20.627  23.920  1.00  0.00    -0.036 A 
ATOM     26  C   UNL A   1      34.961  23.215  26.083  1.00  0.00     0.005 A 
ATOM     27  C   UNL A   1      32.815  19.263  25.934  1.00  0.00     0.005 A 
ATOM     28  C   UNL A   1      34.798  23.381  23.253  1.00  0.00     0.004 A 
ATOM     29  C   UNL A   1      32.458  19.485  23.131  1.00  0.00     0.004 A 
ATOM     30  C   UNL A   1      35.892  23.956  25.348  1.00  0.00     0.000 A 
ATOM     31  C   UNL A   1      32.786  18.125  25.135  1.00  0.00     0.000 A 
ATOM     32  C   UNL A   1      35.809  24.042  23.949  1.00  0.00     0.000 A 
ATOM     33  C   UNL A   1      32.607  18.234  23.747  1.00  0.00     0.000 A 
ENDBRANCH   7  12
ENDBRANCH   4   6
ENDBRANCH   3   4
ENDBRANCH   2   3
ENDBRANCH   1   2
BRANCH   1  34
ATOM     34  O   UNL A   1      33.262  34.336  27.708  1.00  0.00    -0.458 OA
BRANCH  34  35
ATOM     35  C   UNL A   1      33.306  35.020  28.873  1.00  0.00     0.338 C 
ATOM     36  O   UNL A   1      32.526  35.870  29.264  1.00  0.00    -0.246 OA
BRANCH  35  37
ATOM     37  C   UNL A   1      34.437  34.538  29.680  1.00  0.00     0.060 A 
ATOM     38  C   UNL A   1      34.237  33.918  30.910  1.00  0.00     0.016 A 
ATOM     39  C   UNL A   1      35.710  34.590  29.122  1.00  0.00     0.016 A 
ATOM     40  C   UNL A   1      35.334  33.354  31.574  1.00  0.00     0.010 A 
ATOM     41  C   UNL A   1      36.765  33.902  29.712  1.00  0.00     0.010 A 
ATOM     42  C   UNL A   1      36.605  33.303  30.966  1.00  0.00    -0.014 A 
BRANCH  42  43
ATOM     43  C   UNL A   1      37.769  32.659  31.642  1.00  0.00     0.031 A 
ATOM     44  C   UNL A   1      38.264  33.170  32.976  1.00  0.00     0.074 A 
ATOM     45  C   UNL A   1      38.402  31.625  31.048  1.00  0.00     0.049 A 
ATOM     46  N   UNL A   1      39.255  32.731  33.713  1.00  0.00    -0.248 NA
ATOM     47  C   UNL A   1      37.585  34.347  33.545  1.00  0.00     0.031 C 
ATOM     48  C   UNL A   1      38.080  31.081  29.727  1.00  0.00     0.029 A 
ATOM     49  N   UNL A   1      39.439  30.835  31.483  1.00  0.00    -0.354 N 
ATOM     50  C   UNL A   1      39.316  33.577  34.815  1.00  0.00     0.074 A 
ATOM     51  C   UNL A   1      38.320  34.603  34.616  1.00  0.00     0.031 C 
ATOM     52  C   UNL A   1      38.851  30.008  29.490  1.00  0.00     0.029 A 
ATOM     53  C   UNL A   1      39.751  29.809  30.621  1.00  0.00     0.049 A 
ATOM     54  H   UNL A   1      39.914  30.988  32.332  1.00  0.00     0.167 HD
ATOM     55  C   UNL A   1      40.099  33.488  35.918  1.00  0.00     0.037 A 
ATOM     56  C   UNL A   1      40.650  28.810  30.732  1.00  0.00     0.037 A 
ATOM     57  C   UNL A   1      41.059  32.441  36.140  1.00  0.00     0.049 A 
ATOM     58  C   UNL A   1      41.497  28.720  31.973  1.00  0.00     0.074 A 
ATOM     59  C   UNL A   1      41.861  32.230  37.248  1.00  0.00     0.029 A 
ATOM     60  N   UNL A   1      41.341  31.422  35.242  1.00  0.00    -0.354 N 
ATOM     61  N   UNL A   1      41.497  29.499  33.028  1.00  0.00    -0.248 NA
ATOM     62  C   UNL A   1      42.466  27.616  32.039  1.00  0.00     0.031 C 
ATOM     63  C   UNL A   1      42.652  31.102  37.007  1.00  0.00     0.029 A 
ATOM     64  C   UNL A   1      42.312  30.586  35.766  1.00  0.00     0.049 A 
ATOM     65  H   UNL A   1      40.914  31.309  34.363  1.00  0.00     0.167 HD
ATOM     66  C   UNL A   1      42.449  28.968  33.891  1.00  0.00     0.074 A 
ATOM     67  C   UNL A   1      42.993  27.793  33.243  1.00  0.00     0.031 C 
ATOM     68  C   UNL A   1      42.840  29.416  35.110  1.00  0.00     0.037 A 
BRANCH  55  69
ATOM     69  C   UNL A   1      39.919  34.526  36.993  1.00  0.00     0.058 A 
ATOM     70  C   UNL A   1      40.623  35.743  36.959  1.00  0.00     0.135 A 
ATOM     71  C   UNL A   1      38.998  34.336  38.037  1.00  0.00     0.135 A 
ATOM     72  F   UNL A   1      41.527  35.973  35.994  1.00  0.00    -0.206 F 
ATOM     73  C   UNL A   1      40.437  36.720  37.931  1.00  0.00     0.059 A 
ATOM     74  C   UNL A   1      38.775  35.313  39.004  1.00  0.00     0.059 A 
ATOM     75  F   UNL A   1      38.298  33.193  38.119  1.00  0.00    -0.206 F 
ATOM     76  C   UNL A   1      39.508  36.498  38.947  1.00  0.00     0.060 A 
BRANCH  76  77
ATOM     77  S   UNL A   1      39.265  37.791  40.184  1.00  0.00     0.124 S 
ATOM     78  O   UNL A   1      38.925  37.005  41.366  1.00  0.00    -0.237 OA
ATOM     79  O   UNL A   1      40.571  38.443  40.212  1.00  0.00    -0.237 OA
ATOM     80  O   UNL A   1      38.178  38.592  39.630  1.00  0.00    -0.744 OA
ENDBRANCH  76  77
ENDBRANCH  55  69
BRANCH  56  81
ATOM     81  C   UNL A   1      40.754  27.782  29.661  1.00  0.00     0.058 A 
ATOM     82  C   UNL A   1      39.785  26.772  29.543  1.00  0.00     0.135 A 
ATOM     83  C   UNL A   1      41.795  27.800  28.722  1.00  0.00     0.135 A 
ATOM     84  F   UNL A   1      38.774  26.707  30.421  1.00  0.00    -0.206 F 
ATOM     85  C   UNL A   1      39.851  25.813  28.538  1.00  0.00     0.059 A 
ATOM     86  C   UNL A   1      41.869  26.865  27.693  1.00  0.00     0.059 A 
ATOM     87  F   UNL A   1      42.738  28.753  28.783  1.00  0.00    -0.206 F 
ATOM     88  C   UNL A   1      40.895  25.871  27.613  1.00  0.00     0.060 A 
BRANCH  88  89
ATOM     89  S   UNL A   1      40.937  24.651  26.281  1.00  0.00     0.124 S 
ATOM     90  O   UNL A   1      39.546  24.216  26.237  1.00  0.00    -0.237 OA
ATOM     91  O   UNL A   1      41.391  25.453  25.149  1.00  0.00    -0.237 OA
ATOM     92  O   UNL A   1      41.894  23.660  26.762  1.00  0.00    -0.744 OA
ENDBRANCH  88  89
ENDBRANCH  56  81
BRANCH  68  93
ATOM     93  C   UNL A   1      43.895  28.631  35.836  1.00  0.00     0.058 A 
ATOM     94  C   UNL A   1      45.254  28.959  35.727  1.00  0.00     0.135 A 
ATOM     95  C   UNL A   1      43.536  27.595  36.713  1.00  0.00     0.135 A 
ATOM     96  F   UNL A   1      45.650  29.939  34.899  1.00  0.00    -0.206 F 
ATOM     97  C   UNL A   1      46.225  28.277  36.453  1.00  0.00     0.059 A 
ATOM     98  C   UNL A   1      44.487  26.916  37.468  1.00  0.00     0.059 A 
ATOM     99  F   UNL A   1      42.247  27.251  36.861  1.00  0.00    -0.206 F 
ATOM    100  C   UNL A   1      45.831  27.261  37.326  1.00  0.00     0.060 A 
BRANCH 100 101
ATOM    101  S   UNL A   1      47.097  26.421  38.299  1.00  0.00     0.124 S 
ATOM    102  O   UNL A   1      46.301  25.449  39.043  1.00  0.00    -0.237 OA
ATOM    103  O   UNL A   1      47.968  25.868  37.266  1.00  0.00    -0.237 OA
ATOM    104  O   UNL A   1      47.683  27.494  39.097  1.00  0.00    -0.744 OA
ENDBRANCH 100 101
ENDBRANCH  68  93
ENDBRANCH  42  43
ENDBRANCH  35  37
ENDBRANCH  34  35
ENDBRANCH   1  34
TORSDOF 15
ENDMDL
