MODEL 1
REMARK VINA RESULT:     -10.9      0.000      0.000
REMARK SMILES O=C(CCC(=O)N1N=C(c2ccc(F)cc2)C[C@@H]1c1ccc2nccnc2c1)OCCOC(=O)c1ccc(-c2c3nc(c(-c4c(F)cc(S(=O)(=O)[O-])cc4F)c4ccc([nH]4)c(-c4c(F)cc(S(=O)(=O)[O-])cc4F)c4nc(c(-c5c(F)cc(S(=O)(=O)[O-])cc5F)c5ccc2[nH]5)C=C4)C=C3)cc1
REMARK SMILES IDX 30 1 29 2 2 3 1 4 3 5 4 6 5 7 6 8 7 9 8 10 18 11 9 12 17 13
REMARK SMILES IDX 19 14 20 15 28 16 21 17 27 18 22 19 26 20 23 21 25 22 24 23
REMARK SMILES IDX 10 24 11 25 16 26 12 27 15 28 13 29 14 30 31 31 32 32 33 33
REMARK SMILES IDX 34 34 35 35 36 36 100 37 37 38 99 39 38 40 39 41 40 42 93 43
REMARK SMILES IDX 41 44 98 45 92 46 94 47 42 48 97 49 91 50 90 51 43 53 77 54
REMARK SMILES IDX 56 55 76 56 57 57 60 58 75 59 95 60 58 61 59 62 74 64 96 65
REMARK SMILES IDX 61 66 44 67 45 68 54 69 46 70 47 71 53 72 55 73 48 74 49 75
REMARK SMILES IDX 50 76 51 77 52 78 78 79 79 80 88 81 80 82 81 83 87 84 89 85
REMARK SMILES IDX 82 86 83 87 84 88 85 89 86 90 62 91 63 92 72 93 64 94 65 95
REMARK SMILES IDX 71 96 73 97 66 98 67 99 68 100 69 101 70 102
REMARK H PARENT 94 52 60 63
REMARK Flexibility Score: inf
ROOT
ATOM      1  C   UNL A   1      46.253  25.860  25.197  1.00  0.00     0.274 C 
ENDROOT
BRANCH   1   2
ATOM      2  O   UNL A   1      46.184  24.699  24.329  1.00  0.00    -0.462 OA
BRANCH   2   3
ATOM      3  C   UNL A   1      46.081  23.401  24.657  1.00  0.00     0.306 C 
ATOM      4  O   UNL A   1      46.714  22.906  25.586  1.00  0.00    -0.252 OA
BRANCH   3   5
ATOM      5  C   UNL A   1      45.002  22.648  24.006  1.00  0.00     0.132 C 
BRANCH   5   6
ATOM      6  C   UNL A   1      44.935  21.310  24.705  1.00  0.00     0.114 C 
BRANCH   6   7
ATOM      7  C   UNL A   1      43.652  20.922  25.456  1.00  0.00     0.243 C 
ATOM      8  O   UNL A   1      43.302  19.738  25.278  1.00  0.00    -0.273 OA
BRANCH   7   9
ATOM      9  N   UNL A   1      42.954  21.726  26.370  1.00  0.00    -0.225 N 
ATOM     10  N   UNL A   1      41.807  22.215  25.774  1.00  0.00    -0.174 NA
ATOM     11  C   UNL A   1      42.850  21.921  27.888  1.00  0.00     0.147 C 
ATOM     12  C   UNL A   1      40.937  22.439  26.694  1.00  0.00     0.071 C 
ATOM     13  C   UNL A   1      41.380  22.305  28.104  1.00  0.00     0.091 C 
BRANCH  11  14
ATOM     14  C   UNL A   1      43.652  23.028  28.628  1.00  0.00    -0.021 A 
ATOM     15  C   UNL A   1      43.233  23.387  29.925  1.00  0.00     0.008 A 
ATOM     16  C   UNL A   1      44.759  23.735  28.126  1.00  0.00     0.036 A 
ATOM     17  C   UNL A   1      43.961  24.290  30.712  1.00  0.00     0.031 A 
ATOM     18  C   UNL A   1      45.567  24.559  28.942  1.00  0.00     0.089 A 
ATOM     19  C   UNL A   1      45.161  24.818  30.276  1.00  0.00     0.089 A 
ATOM     20  N   UNL A   1      46.765  25.018  28.503  1.00  0.00    -0.253 NA
ATOM     21  N   UNL A   1      45.931  25.502  31.152  1.00  0.00    -0.253 NA
ATOM     22  C   UNL A   1      47.585  25.559  29.440  1.00  0.00     0.132 A 
ATOM     23  C   UNL A   1      47.178  25.798  30.735  1.00  0.00     0.132 A 
ENDBRANCH  11  14
BRANCH  12  24
ATOM     24  C   UNL A   1      39.541  22.672  26.355  1.00  0.00    -0.002 A 
ATOM     25  C   UNL A   1      38.755  21.656  25.821  1.00  0.00     0.013 A 
ATOM     26  C   UNL A   1      39.019  23.939  26.644  1.00  0.00     0.013 A 
ATOM     27  C   UNL A   1      37.410  21.923  25.571  1.00  0.00     0.040 A 
ATOM     28  C   UNL A   1      37.681  24.201  26.376  1.00  0.00     0.040 A 
ATOM     29  C   UNL A   1      36.889  23.188  25.845  1.00  0.00     0.123 A 
ATOM     30  F   UNL A   1      35.595  23.432  25.601  1.00  0.00    -0.207 F 
ENDBRANCH  12  24
ENDBRANCH   7   9
ENDBRANCH   6   7
ENDBRANCH   5   6
ENDBRANCH   3   5
ENDBRANCH   2   3
ENDBRANCH   1   2
BRANCH   1  31
ATOM     31  C   UNL A   1      44.903  26.548  25.155  1.00  0.00     0.275 C 
BRANCH  31  32
ATOM     32  O   UNL A   1      44.039  25.933  26.110  1.00  0.00    -0.458 OA
BRANCH  32  33
ATOM     33  C   UNL A   1      42.715  26.234  26.050  1.00  0.00     0.338 C 
ATOM     34  O   UNL A   1      41.871  25.889  25.248  1.00  0.00    -0.246 OA
BRANCH  33  35
ATOM     35  C   UNL A   1      42.428  26.907  27.309  1.00  0.00     0.060 A 
ATOM     36  C   UNL A   1      42.907  28.202  27.558  1.00  0.00     0.016 A 
ATOM     37  C   UNL A   1      41.556  26.256  28.175  1.00  0.00     0.016 A 
ATOM     38  C   UNL A   1      42.444  28.888  28.669  1.00  0.00     0.010 A 
ATOM     39  C   UNL A   1      41.106  26.929  29.281  1.00  0.00     0.010 A 
ATOM     40  C   UNL A   1      41.554  28.237  29.525  1.00  0.00    -0.014 A 
BRANCH  40  41
ATOM     41  C   UNL A   1      41.184  28.798  30.821  1.00  0.00     0.031 A 
ATOM     42  C   UNL A   1      40.067  29.786  30.820  1.00  0.00     0.074 A 
ATOM     43  C   UNL A   1      41.964  28.555  31.882  1.00  0.00     0.049 A 
ATOM     44  N   UNL A   1      39.732  30.646  31.735  1.00  0.00    -0.248 NA
ATOM     45  C   UNL A   1      39.249  29.844  29.592  1.00  0.00     0.031 C 
ATOM     46  C   UNL A   1      43.070  27.597  31.918  1.00  0.00     0.029 A 
ATOM     47  N   UNL A   1      41.973  29.137  33.116  1.00  0.00    -0.354 N 
ATOM     48  C   UNL A   1      38.672  31.356  31.194  1.00  0.00     0.074 A 
ATOM     49  C   UNL A   1      38.449  30.866  29.855  1.00  0.00     0.031 C 
ATOM     50  C   UNL A   1      43.666  27.670  33.120  1.00  0.00     0.029 A 
ATOM     51  C   UNL A   1      43.011  28.712  33.907  1.00  0.00     0.049 A 
ATOM     52  H   UNL A   1      41.302  29.794  33.410  1.00  0.00     0.167 HD
ATOM     53  C   UNL A   1      37.948  32.330  31.786  1.00  0.00     0.037 A 
ATOM     54  C   UNL A   1      43.393  29.154  35.118  1.00  0.00     0.037 A 
ATOM     55  C   UNL A   1      38.226  32.797  33.117  1.00  0.00     0.049 A 
ATOM     56  C   UNL A   1      42.601  30.271  35.742  1.00  0.00     0.074 A 
ATOM     57  C   UNL A   1      37.566  33.766  33.845  1.00  0.00     0.029 A 
ATOM     58  N   UNL A   1      39.263  32.324  33.914  1.00  0.00    -0.354 N 
ATOM     59  N   UNL A   1      41.577  30.931  35.246  1.00  0.00    -0.248 NA
ATOM     60  C   UNL A   1      43.009  30.708  37.080  1.00  0.00     0.031 C 
ATOM     61  C   UNL A   1      38.233  33.912  35.064  1.00  0.00     0.029 A 
ATOM     62  C   UNL A   1      39.272  32.993  35.123  1.00  0.00     0.049 A 
ATOM     63  H   UNL A   1      39.897  31.616  33.655  1.00  0.00     0.167 HD
ATOM     64  C   UNL A   1      41.196  31.840  36.225  1.00  0.00     0.074 A 
ATOM     65  C   UNL A   1      42.101  31.641  37.342  1.00  0.00     0.031 C 
ATOM     66  C   UNL A   1      40.193  32.753  36.210  1.00  0.00     0.037 A 
BRANCH  53  67
ATOM     67  C   UNL A   1      36.824  32.936  31.000  1.00  0.00     0.058 A 
ATOM     68  C   UNL A   1      35.496  32.555  31.244  1.00  0.00     0.135 A 
ATOM     69  C   UNL A   1      37.058  33.893  29.998  1.00  0.00     0.135 A 
ATOM     70  F   UNL A   1      35.210  31.663  32.205  1.00  0.00    -0.206 F 
ATOM     71  C   UNL A   1      34.441  33.089  30.510  1.00  0.00     0.059 A 
ATOM     72  C   UNL A   1      36.016  34.464  29.274  1.00  0.00     0.059 A 
ATOM     73  F   UNL A   1      38.306  34.320  29.750  1.00  0.00    -0.206 F 
ATOM     74  C   UNL A   1      34.712  34.043  29.527  1.00  0.00     0.060 A 
BRANCH  74  75
ATOM     75  S   UNL A   1      33.328  34.750  28.610  1.00  0.00     0.124 S 
ATOM     76  O   UNL A   1      32.395  35.077  29.682  1.00  0.00    -0.237 OA
ATOM     77  O   UNL A   1      33.954  35.886  27.940  1.00  0.00    -0.237 OA
ATOM     78  O   UNL A   1      32.916  33.663  27.726  1.00  0.00    -0.744 OA
ENDBRANCH  74  75
ENDBRANCH  53  67
BRANCH  54  79
ATOM     79  C   UNL A   1      44.535  28.505  35.809  1.00  0.00     0.058 A 
ATOM     80  C   UNL A   1      44.348  27.446  36.710  1.00  0.00     0.135 A 
ATOM     81  C   UNL A   1      45.836  28.999  35.641  1.00  0.00     0.135 A 
ATOM     82  F   UNL A   1      43.119  26.949  36.923  1.00  0.00    -0.206 F 
ATOM     83  C   UNL A   1      45.407  26.918  37.442  1.00  0.00     0.059 A 
ATOM     84  C   UNL A   1      46.916  28.473  36.343  1.00  0.00     0.059 A 
ATOM     85  F   UNL A   1      46.063  30.010  34.789  1.00  0.00    -0.206 F 
ATOM     86  C   UNL A   1      46.687  27.445  37.256  1.00  0.00     0.060 A 
BRANCH  86  87
ATOM     87  S   UNL A   1      48.041  26.775  38.244  1.00  0.00     0.124 S 
ATOM     88  O   UNL A   1      48.118  25.405  37.745  1.00  0.00    -0.237 OA
ATOM     89  O   UNL A   1      49.150  27.649  37.874  1.00  0.00    -0.237 OA
ATOM     90  O   UNL A   1      47.562  26.917  39.615  1.00  0.00    -0.744 OA
ENDBRANCH  86  87
ENDBRANCH  54  79
BRANCH  66  91
ATOM     91  C   UNL A   1      39.997  33.583  37.445  1.00  0.00     0.058 A 
ATOM     92  C   UNL A   1      39.017  33.225  38.386  1.00  0.00     0.135 A 
ATOM     93  C   UNL A   1      40.698  34.781  37.645  1.00  0.00     0.135 A 
ATOM     94  F   UNL A   1      38.312  32.092  38.232  1.00  0.00    -0.206 F 
ATOM     95  C   UNL A   1      38.720  34.042  39.467  1.00  0.00     0.059 A 
ATOM     96  C   UNL A   1      40.439  35.599  38.740  1.00  0.00     0.059 A 
ATOM     97  F   UNL A   1      41.650  35.159  36.778  1.00  0.00    -0.206 F 
ATOM     98  C   UNL A   1      39.434  35.230  39.634  1.00  0.00     0.060 A 
BRANCH  98  99
ATOM     99  S   UNL A   1      39.031  36.279  41.045  1.00  0.00     0.124 S 
ATOM    100  O   UNL A   1      40.285  36.276  41.788  1.00  0.00    -0.237 OA
ATOM    101  O   UNL A   1      38.679  37.539  40.397  1.00  0.00    -0.237 OA
ATOM    102  O   UNL A   1      37.921  35.577  41.682  1.00  0.00    -0.744 OA
ENDBRANCH  98  99
ENDBRANCH  66  91
ENDBRANCH  40  41
ENDBRANCH  33  35
ENDBRANCH  32  33
ENDBRANCH  31  32
ENDBRANCH   1  31
TORSDOF 19
ENDMDL
MODEL 2
REMARK VINA RESULT:     -10.8      4.315     11.366
REMARK SMILES O=C(CCC(=O)N1N=C(c2ccc(F)cc2)C[C@@H]1c1ccc2nccnc2c1)OCCOC(=O)c1ccc(-c2c3nc(c(-c4c(F)cc(S(=O)(=O)[O-])cc4F)c4ccc([nH]4)c(-c4c(F)cc(S(=O)(=O)[O-])cc4F)c4nc(c(-c5c(F)cc(S(=O)(=O)[O-])cc5F)c5ccc2[nH]5)C=C4)C=C3)cc1
REMARK SMILES IDX 30 1 29 2 2 3 1 4 3 5 4 6 5 7 6 8 7 9 8 10 18 11 9 12 17 13
REMARK SMILES IDX 19 14 20 15 28 16 21 17 27 18 22 19 26 20 23 21 25 22 24 23
REMARK SMILES IDX 10 24 11 25 16 26 12 27 15 28 13 29 14 30 31 31 32 32 33 33
REMARK SMILES IDX 34 34 35 35 36 36 100 37 37 38 99 39 38 40 39 41 40 42 93 43
REMARK SMILES IDX 41 44 98 45 92 46 94 47 42 48 97 49 91 50 90 51 43 53 77 54
REMARK SMILES IDX 56 55 76 56 57 57 60 58 75 59 95 60 58 61 59 62 74 64 96 65
REMARK SMILES IDX 61 66 44 67 45 68 54 69 46 70 47 71 53 72 55 73 48 74 49 75
REMARK SMILES IDX 50 76 51 77 52 78 78 79 79 80 88 81 80 82 81 83 87 84 89 85
REMARK SMILES IDX 82 86 83 87 84 88 85 89 86 90 62 91 63 92 72 93 64 94 65 95
REMARK SMILES IDX 71 96 73 97 66 98 67 99 68 100 69 101 70 102
REMARK H PARENT 94 52 60 63
REMARK Flexibility Score: inf
ROOT
ATOM      1  C   UNL A   1      33.879  35.280  28.456  1.00  0.00     0.274 C 
ENDROOT
BRANCH   1   2
ATOM      2  O   UNL A   1      33.575  33.904  28.799  1.00  0.00    -0.462 OA
BRANCH   2   3
ATOM      3  C   UNL A   1      33.170  32.901  28.003  1.00  0.00     0.306 C 
ATOM      4  O   UNL A   1      32.147  32.971  27.327  1.00  0.00    -0.252 OA
BRANCH   3   5
ATOM      5  C   UNL A   1      34.129  31.809  27.793  1.00  0.00     0.132 C 
BRANCH   5   6
ATOM      6  C   UNL A   1      33.308  30.556  27.592  1.00  0.00     0.114 C 
BRANCH   6   7
ATOM      7  C   UNL A   1      33.953  29.342  26.908  1.00  0.00     0.243 C 
ATOM      8  O   UNL A   1      35.093  29.069  27.334  1.00  0.00    -0.273 OA
BRANCH   7   9
ATOM      9  N   UNL A   1      33.336  28.495  25.974  1.00  0.00    -0.225 N 
ATOM     10  N   UNL A   1      34.252  27.568  25.514  1.00  0.00    -0.174 NA
ATOM     11  C   UNL A   1      31.923  28.029  25.599  1.00  0.00     0.147 C 
ATOM     12  C   UNL A   1      33.612  26.514  25.148  1.00  0.00     0.071 C 
ATOM     13  C   UNL A   1      32.130  26.582  25.134  1.00  0.00     0.091 C 
BRANCH  11  14
ATOM     14  C   UNL A   1      31.121  28.696  24.446  1.00  0.00    -0.021 A 
ATOM     15  C   UNL A   1      30.938  27.956  23.261  1.00  0.00     0.008 A 
ATOM     16  C   UNL A   1      30.566  29.989  24.452  1.00  0.00     0.036 A 
ATOM     17  C   UNL A   1      30.134  28.428  22.213  1.00  0.00     0.031 A 
ATOM     18  C   UNL A   1      29.664  30.431  23.458  1.00  0.00     0.089 A 
ATOM     19  C   UNL A   1      29.430  29.612  22.325  1.00  0.00     0.089 A 
ATOM     20  N   UNL A   1      28.948  31.571  23.623  1.00  0.00    -0.253 NA
ATOM     21  N   UNL A   1      28.501  29.911  21.390  1.00  0.00    -0.253 NA
ATOM     22  C   UNL A   1      27.917  31.767  22.762  1.00  0.00     0.132 A 
ATOM     23  C   UNL A   1      27.698  30.957  21.668  1.00  0.00     0.132 A 
ENDBRANCH  11  14
BRANCH  12  24
ATOM     24  C   UNL A   1      34.318  25.266  24.901  1.00  0.00    -0.002 A 
ATOM     25  C   UNL A   1      35.044  24.642  25.911  1.00  0.00     0.013 A 
ATOM     26  C   UNL A   1      34.185  24.701  23.626  1.00  0.00     0.013 A 
ATOM     27  C   UNL A   1      35.650  23.419  25.630  1.00  0.00     0.040 A 
ATOM     28  C   UNL A   1      34.807  23.489  23.351  1.00  0.00     0.040 A 
ATOM     29  C   UNL A   1      35.531  22.859  24.357  1.00  0.00     0.123 A 
ATOM     30  F   UNL A   1      36.117  21.683  24.100  1.00  0.00    -0.207 F 
ENDBRANCH  12  24
ENDBRANCH   7   9
ENDBRANCH   6   7
ENDBRANCH   5   6
ENDBRANCH   3   5
ENDBRANCH   2   3
ENDBRANCH   1   2
BRANCH   1  31
ATOM     31  C   UNL A   1      33.168  36.172  29.455  1.00  0.00     0.275 C 
BRANCH  31  32
ATOM     32  O   UNL A   1      32.754  35.383  30.569  1.00  0.00    -0.458 OA
BRANCH  32  33
ATOM     33  C   UNL A   1      33.033  35.853  31.814  1.00  0.00     0.338 C 
ATOM     34  O   UNL A   1      32.483  36.719  32.464  1.00  0.00    -0.246 OA
BRANCH  33  35
ATOM     35  C   UNL A   1      34.029  34.933  32.345  1.00  0.00     0.060 A 
ATOM     36  C   UNL A   1      33.647  33.716  32.927  1.00  0.00     0.016 A 
ATOM     37  C   UNL A   1      35.361  35.267  32.123  1.00  0.00     0.016 A 
ATOM     38  C   UNL A   1      34.622  32.779  33.229  1.00  0.00     0.010 A 
ATOM     39  C   UNL A   1      36.328  34.346  32.432  1.00  0.00     0.010 A 
ATOM     40  C   UNL A   1      35.956  33.112  32.986  1.00  0.00    -0.014 A 
BRANCH  40  41
ATOM     41  C   UNL A   1      37.056  32.280  33.467  1.00  0.00     0.031 A 
ATOM     42  C   UNL A   1      37.712  32.718  34.732  1.00  0.00     0.074 A 
ATOM     43  C   UNL A   1      37.533  31.310  32.676  1.00  0.00     0.049 A 
ATOM     44  N   UNL A   1      38.865  32.369  35.222  1.00  0.00    -0.248 NA
ATOM     45  C   UNL A   1      36.988  33.730  35.527  1.00  0.00     0.031 C 
ATOM     46  C   UNL A   1      36.918  30.857  31.427  1.00  0.00     0.029 A 
ATOM     47  N   UNL A   1      38.673  30.569  32.786  1.00  0.00    -0.354 N 
ATOM     48  C   UNL A   1      39.012  33.123  36.376  1.00  0.00     0.074 A 
ATOM     49  C   UNL A   1      37.860  33.985  36.490  1.00  0.00     0.031 C 
ATOM     50  C   UNL A   1      37.705  29.920  30.874  1.00  0.00     0.029 A 
ATOM     51  C   UNL A   1      38.893  29.752  31.706  1.00  0.00     0.049 A 
ATOM     52  H   UNL A   1      39.277  30.616  33.562  1.00  0.00     0.167 HD
ATOM     53  C   UNL A   1      40.030  33.079  37.261  1.00  0.00     0.037 A 
ATOM     54  C   UNL A   1      39.961  28.985  31.425  1.00  0.00     0.037 A 
ATOM     55  C   UNL A   1      41.167  32.216  37.088  1.00  0.00     0.049 A 
ATOM     56  C   UNL A   1      41.105  28.984  32.402  1.00  0.00     0.074 A 
ATOM     57  C   UNL A   1      42.261  32.059  37.913  1.00  0.00     0.029 A 
ATOM     58  N   UNL A   1      41.349  31.368  36.002  1.00  0.00    -0.354 N 
ATOM     59  N   UNL A   1      41.239  29.676  33.513  1.00  0.00    -0.248 NA
ATOM     60  C   UNL A   1      42.240  28.108  32.096  1.00  0.00     0.031 C 
ATOM     61  C   UNL A   1      43.130  31.151  37.301  1.00  0.00     0.029 A 
ATOM     62  C   UNL A   1      42.549  30.694  36.125  1.00  0.00     0.049 A 
ATOM     63  H   UNL A   1      40.716  31.262  35.254  1.00  0.00     0.167 HD
ATOM     64  C   UNL A   1      42.460  29.295  34.056  1.00  0.00     0.074 A 
ATOM     65  C   UNL A   1      43.021  28.309  33.151  1.00  0.00     0.031 C 
ATOM     66  C   UNL A   1      43.063  29.714  35.197  1.00  0.00     0.037 A 
BRANCH  53  67
ATOM     67  C   UNL A   1      39.950  33.981  38.456  1.00  0.00     0.058 A 
ATOM     68  C   UNL A   1      40.551  35.249  38.437  1.00  0.00     0.135 A 
ATOM     69  C   UNL A   1      39.281  33.592  39.629  1.00  0.00     0.135 A 
ATOM     70  F   UNL A   1      41.183  35.683  37.335  1.00  0.00    -0.206 F 
ATOM     71  C   UNL A   1      40.508  36.091  39.543  1.00  0.00     0.059 A 
ATOM     72  C   UNL A   1      39.197  34.430  40.736  1.00  0.00     0.059 A 
ATOM     73  F   UNL A   1      38.657  32.404  39.688  1.00  0.00    -0.206 F 
ATOM     74  C   UNL A   1      39.828  35.672  40.689  1.00  0.00     0.060 A 
BRANCH  74  75
ATOM     75  S   UNL A   1      39.752  36.791  42.101  1.00  0.00     0.124 S 
ATOM     76  O   UNL A   1      38.816  36.100  42.981  1.00  0.00    -0.237 OA
ATOM     77  O   UNL A   1      41.142  36.819  42.546  1.00  0.00    -0.237 OA
ATOM     78  O   UNL A   1      39.265  38.039  41.520  1.00  0.00    -0.744 OA
ENDBRANCH  74  75
ENDBRANCH  53  67
BRANCH  54  79
ATOM     79  C   UNL A   1      39.957  28.142  30.204  1.00  0.00     0.058 A 
ATOM     80  C   UNL A   1      39.235  26.940  30.137  1.00  0.00     0.135 A 
ATOM     81  C   UNL A   1      40.754  28.487  29.103  1.00  0.00     0.135 A 
ATOM     82  F   UNL A   1      38.472  26.553  31.172  1.00  0.00    -0.206 F 
ATOM     83  C   UNL A   1      39.326  26.096  29.035  1.00  0.00     0.059 A 
ATOM     84  C   UNL A   1      40.843  27.672  27.979  1.00  0.00     0.059 A 
ATOM     85  F   UNL A   1      41.460  29.627  29.120  1.00  0.00    -0.206 F 
ATOM     86  C   UNL A   1      40.140  26.469  27.962  1.00  0.00     0.060 A 
BRANCH  86  87
ATOM     87  S   UNL A   1      40.277  25.343  26.559  1.00  0.00     0.124 S 
ATOM     88  O   UNL A   1      38.906  24.854  26.441  1.00  0.00    -0.237 OA
ATOM     89  O   UNL A   1      40.728  26.235  25.495  1.00  0.00    -0.237 OA
ATOM     90  O   UNL A   1      41.257  24.359  27.008  1.00  0.00    -0.744 OA
ENDBRANCH  86  87
ENDBRANCH  54  79
BRANCH  66  91
ATOM     91  C   UNL A   1      44.381  29.088  35.550  1.00  0.00     0.058 A 
ATOM     92  C   UNL A   1      44.425  27.970  36.399  1.00  0.00     0.135 A 
ATOM     93  C   UNL A   1      45.597  29.653  35.138  1.00  0.00     0.135 A 
ATOM     94  F   UNL A   1      43.287  27.400  36.827  1.00  0.00    -0.206 F 
ATOM     95  C   UNL A   1      45.629  27.451  36.851  1.00  0.00     0.059 A 
ATOM     96  C   UNL A   1      46.817  29.129  35.553  1.00  0.00     0.059 A 
ATOM     97  F   UNL A   1      45.606  30.716  34.320  1.00  0.00    -0.206 F 
ATOM     98  C   UNL A   1      46.821  28.040  36.425  1.00  0.00     0.060 A 
BRANCH  98  99
ATOM     99  S   UNL A   1      48.377  27.352  37.026  1.00  0.00     0.124 S 
ATOM    100  O   UNL A   1      49.356  28.206  36.365  1.00  0.00    -0.237 OA
ATOM    101  O   UNL A   1      48.251  27.529  38.470  1.00  0.00    -0.237 OA
ATOM    102  O   UNL A   1      48.336  25.968  36.564  1.00  0.00    -0.744 OA
ENDBRANCH  98  99
ENDBRANCH  66  91
ENDBRANCH  40  41
ENDBRANCH  33  35
ENDBRANCH  32  33
ENDBRANCH  31  32
ENDBRANCH   1  31
TORSDOF 19
ENDMDL
MODEL 3
REMARK VINA RESULT:     -10.6      4.509     12.404
REMARK SMILES O=C(CCC(=O)N1N=C(c2ccc(F)cc2)C[C@@H]1c1ccc2nccnc2c1)OCCOC(=O)c1ccc(-c2c3nc(c(-c4c(F)cc(S(=O)(=O)[O-])cc4F)c4ccc([nH]4)c(-c4c(F)cc(S(=O)(=O)[O-])cc4F)c4nc(c(-c5c(F)cc(S(=O)(=O)[O-])cc5F)c5ccc2[nH]5)C=C4)C=C3)cc1
REMARK SMILES IDX 30 1 29 2 2 3 1 4 3 5 4 6 5 7 6 8 7 9 8 10 18 11 9 12 17 13
REMARK SMILES IDX 19 14 20 15 28 16 21 17 27 18 22 19 26 20 23 21 25 22 24 23
REMARK SMILES IDX 10 24 11 25 16 26 12 27 15 28 13 29 14 30 31 31 32 32 33 33
REMARK SMILES IDX 34 34 35 35 36 36 100 37 37 38 99 39 38 40 39 41 40 42 93 43
REMARK SMILES IDX 41 44 98 45 92 46 94 47 42 48 97 49 91 50 90 51 43 53 77 54
REMARK SMILES IDX 56 55 76 56 57 57 60 58 75 59 95 60 58 61 59 62 74 64 96 65
REMARK SMILES IDX 61 66 44 67 45 68 54 69 46 70 47 71 53 72 55 73 48 74 49 75
REMARK SMILES IDX 50 76 51 77 52 78 78 79 79 80 88 81 80 82 81 83 87 84 89 85
REMARK SMILES IDX 82 86 83 87 84 88 85 89 86 90 62 91 63 92 72 93 64 94 65 95
REMARK SMILES IDX 71 96 73 97 66 98 67 99 68 100 69 101 70 102
REMARK H PARENT 94 52 60 63
REMARK Flexibility Score: inf
ROOT
ATOM      1  C   UNL A   1      33.900  34.282  29.387  1.00  0.00     0.274 C 
ENDROOT
BRANCH   1   2
ATOM      2  O   UNL A   1      34.644  33.925  30.580  1.00  0.00    -0.462 OA
BRANCH   2   3
ATOM      3  C   UNL A   1      34.254  33.961  31.865  1.00  0.00     0.306 C 
ATOM      4  O   UNL A   1      33.297  34.632  32.243  1.00  0.00    -0.252 OA
BRANCH   3   5
ATOM      5  C   UNL A   1      34.877  32.979  32.762  1.00  0.00     0.132 C 
BRANCH   5   6
ATOM      6  C   UNL A   1      35.741  33.766  33.719  1.00  0.00     0.114 C 
BRANCH   6   7
ATOM      7  C   UNL A   1      37.269  33.674  33.596  1.00  0.00     0.243 C 
ATOM      8  O   UNL A   1      37.741  34.352  32.661  1.00  0.00    -0.273 OA
BRANCH   7   9
ATOM      9  N   UNL A   1      38.132  33.013  34.484  1.00  0.00    -0.225 N 
ATOM     10  N   UNL A   1      38.509  31.798  33.944  1.00  0.00    -0.174 NA
ATOM     11  C   UNL A   1      39.071  33.357  35.647  1.00  0.00     0.147 C 
ATOM     12  C   UNL A   1      39.659  31.482  34.427  1.00  0.00     0.071 C 
ATOM     13  C   UNL A   1      40.208  32.335  35.509  1.00  0.00     0.091 C 
BRANCH  11  14
ATOM     14  C   UNL A   1      38.617  33.233  37.130  1.00  0.00    -0.021 A 
ATOM     15  C   UNL A   1      39.430  33.826  38.116  1.00  0.00     0.008 A 
ATOM     16  C   UNL A   1      37.473  32.565  37.600  1.00  0.00     0.036 A 
ATOM     17  C   UNL A   1      39.045  33.865  39.464  1.00  0.00     0.031 A 
ATOM     18  C   UNL A   1      37.014  32.692  38.931  1.00  0.00     0.089 A 
ATOM     19  C   UNL A   1      37.816  33.383  39.874  1.00  0.00     0.089 A 
ATOM     20  N   UNL A   1      35.781  32.256  39.289  1.00  0.00    -0.253 NA
ATOM     21  N   UNL A   1      37.399  33.644  41.133  1.00  0.00    -0.253 NA
ATOM     22  C   UNL A   1      35.323  32.667  40.499  1.00  0.00     0.132 A 
ATOM     23  C   UNL A   1      36.113  33.344  41.403  1.00  0.00     0.132 A 
ENDBRANCH  11  14
BRANCH  12  24
ATOM     24  C   UNL A   1      40.446  30.414  33.827  1.00  0.00    -0.002 A 
ATOM     25  C   UNL A   1      39.841  29.246  33.374  1.00  0.00     0.013 A 
ATOM     26  C   UNL A   1      41.820  30.643  33.678  1.00  0.00     0.013 A 
ATOM     27  C   UNL A   1      40.638  28.285  32.756  1.00  0.00     0.040 A 
ATOM     28  C   UNL A   1      42.610  29.672  33.074  1.00  0.00     0.040 A 
ATOM     29  C   UNL A   1      42.010  28.504  32.617  1.00  0.00     0.123 A 
ATOM     30  F   UNL A   1      42.765  27.573  32.020  1.00  0.00    -0.207 F 
ENDBRANCH  12  24
ENDBRANCH   7   9
ENDBRANCH   6   7
ENDBRANCH   5   6
ENDBRANCH   3   5
ENDBRANCH   2   3
ENDBRANCH   1   2
BRANCH   1  31
ATOM     31  C   UNL A   1      34.099  33.175  28.371  1.00  0.00     0.275 C 
BRANCH  31  32
ATOM     32  O   UNL A   1      34.422  31.967  29.059  1.00  0.00    -0.458 OA
BRANCH  32  33
ATOM     33  C   UNL A   1      34.654  30.856  28.310  1.00  0.00     0.338 C 
ATOM     34  O   UNL A   1      33.995  30.364  27.417  1.00  0.00    -0.246 OA
BRANCH  33  35
ATOM     35  C   UNL A   1      36.016  30.462  28.643  1.00  0.00     0.060 A 
ATOM     36  C   UNL A   1      36.357  30.086  29.950  1.00  0.00     0.016 A 
ATOM     37  C   UNL A   1      36.906  30.352  27.580  1.00  0.00     0.016 A 
ATOM     38  C   UNL A   1      37.600  29.520  30.185  1.00  0.00     0.010 A 
ATOM     39  C   UNL A   1      38.140  29.803  27.812  1.00  0.00     0.010 A 
ATOM     40  C   UNL A   1      38.483  29.395  29.110  1.00  0.00    -0.014 A 
BRANCH  40  41
ATOM     41  C   UNL A   1      39.879  29.012  29.302  1.00  0.00     0.031 A 
ATOM     42  C   UNL A   1      40.826  30.112  29.642  1.00  0.00     0.074 A 
ATOM     43  C   UNL A   1      40.262  27.769  28.985  1.00  0.00     0.049 A 
ATOM     44  N   UNL A   1      42.124  30.127  29.574  1.00  0.00    -0.248 NA
ATOM     45  C   UNL A   1      40.219  31.389  30.067  1.00  0.00     0.031 C 
ATOM     46  C   UNL A   1      39.361  26.666  28.644  1.00  0.00     0.029 A 
ATOM     47  N   UNL A   1      41.514  27.244  28.851  1.00  0.00    -0.354 N 
ATOM     48  C   UNL A   1      42.492  31.413  29.937  1.00  0.00     0.074 A 
ATOM     49  C   UNL A   1      41.284  32.167  30.175  1.00  0.00     0.031 C 
ATOM     50  C   UNL A   1      40.099  25.592  28.319  1.00  0.00     0.029 A 
ATOM     51  C   UNL A   1      41.512  25.953  28.385  1.00  0.00     0.049 A 
ATOM     52  H   UNL A   1      42.336  27.740  29.066  1.00  0.00     0.167 HD
ATOM     53  C   UNL A   1      43.742  31.905  30.064  1.00  0.00     0.037 A 
ATOM     54  C   UNL A   1      42.550  25.178  28.025  1.00  0.00     0.037 A 
ATOM     55  C   UNL A   1      44.913  31.116  29.793  1.00  0.00     0.049 A 
ATOM     56  C   UNL A   1      43.934  25.760  28.131  1.00  0.00     0.074 A 
ATOM     57  C   UNL A   1      46.240  31.481  29.895  1.00  0.00     0.029 A 
ATOM     58  N   UNL A   1      44.886  29.796  29.357  1.00  0.00    -0.354 N 
ATOM     59  N   UNL A   1      44.291  26.970  28.501  1.00  0.00    -0.248 NA
ATOM     60  C   UNL A   1      45.053  24.883  27.774  1.00  0.00     0.031 C 
ATOM     61  C   UNL A   1      47.015  30.397  29.474  1.00  0.00     0.029 A 
ATOM     62  C   UNL A   1      46.174  29.334  29.168  1.00  0.00     0.049 A 
ATOM     63  H   UNL A   1      44.069  29.267  29.205  1.00  0.00     0.167 HD
ATOM     64  C   UNL A   1      45.680  26.991  28.452  1.00  0.00     0.074 A 
ATOM     65  C   UNL A   1      46.094  25.669  28.020  1.00  0.00     0.031 C 
ATOM     66  C   UNL A   1      46.536  28.003  28.740  1.00  0.00     0.037 A 
BRANCH  53  67
ATOM     67  C   UNL A   1      43.887  33.333  30.498  1.00  0.00     0.058 A 
ATOM     68  C   UNL A   1      43.756  34.378  29.571  1.00  0.00     0.135 A 
ATOM     69  C   UNL A   1      44.159  33.673  31.834  1.00  0.00     0.135 A 
ATOM     70  F   UNL A   1      43.473  34.115  28.286  1.00  0.00    -0.206 F 
ATOM     71  C   UNL A   1      43.909  35.708  29.950  1.00  0.00     0.059 A 
ATOM     72  C   UNL A   1      44.284  34.996  32.242  1.00  0.00     0.059 A 
ATOM     73  F   UNL A   1      44.257  32.713  32.769  1.00  0.00    -0.206 F 
ATOM     74  C   UNL A   1      44.172  36.007  31.288  1.00  0.00     0.060 A 
BRANCH  74  75
ATOM     75  S   UNL A   1      44.332  37.739  31.767  1.00  0.00     0.124 S 
ATOM     76  O   UNL A   1      43.928  38.426  30.546  1.00  0.00    -0.237 OA
ATOM     77  O   UNL A   1      43.402  37.833  32.889  1.00  0.00    -0.237 OA
ATOM     78  O   UNL A   1      45.743  37.864  32.123  1.00  0.00    -0.744 OA
ENDBRANCH  74  75
ENDBRANCH  53  67
BRANCH  54  79
ATOM     79  C   UNL A   1      42.305  23.782  27.586  1.00  0.00     0.058 A 
ATOM     80  C   UNL A   1      42.413  22.699  28.472  1.00  0.00     0.135 A 
ATOM     81  C   UNL A   1      42.042  23.499  26.238  1.00  0.00     0.135 A 
ATOM     82  F   UNL A   1      42.684  22.912  29.770  1.00  0.00    -0.206 F 
ATOM     83  C   UNL A   1      42.297  21.384  28.032  1.00  0.00     0.059 A 
ATOM     84  C   UNL A   1      41.898  22.195  25.777  1.00  0.00     0.059 A 
ATOM     85  F   UNL A   1      41.929  24.503  25.355  1.00  0.00    -0.206 F 
ATOM     86  C   UNL A   1      42.046  21.143  26.679  1.00  0.00     0.060 A 
BRANCH  86  87
ATOM     87  S   UNL A   1      41.939  19.430  26.120  1.00  0.00     0.124 S 
ATOM     88  O   UNL A   1      42.323  18.703  27.327  1.00  0.00    -0.237 OA
ATOM     89  O   UNL A   1      40.536  19.323  25.733  1.00  0.00    -0.237 OA
ATOM     90  O   UNL A   1      42.897  19.372  25.021  1.00  0.00    -0.744 OA
ENDBRANCH  86  87
ENDBRANCH  54  79
BRANCH  66  91
ATOM     91  C   UNL A   1      48.006  27.714  28.630  1.00  0.00     0.058 A 
ATOM     92  C   UNL A   1      48.723  28.136  27.498  1.00  0.00     0.135 A 
ATOM     93  C   UNL A   1      48.676  26.935  29.584  1.00  0.00     0.135 A 
ATOM     94  F   UNL A   1      48.122  28.876  26.552  1.00  0.00    -0.206 F 
ATOM     95  C   UNL A   1      50.047  27.771  27.303  1.00  0.00     0.059 A 
ATOM     96  C   UNL A   1      50.013  26.584  29.425  1.00  0.00     0.059 A 
ATOM     97  F   UNL A   1      48.035  26.517  30.686  1.00  0.00    -0.206 F 
ATOM     98  C   UNL A   1      50.683  26.991  28.270  1.00  0.00     0.060 A 
BRANCH  98  99
ATOM     99  S   UNL A   1      52.404  26.524  27.997  1.00  0.00     0.124 S 
ATOM    100  O   UNL A   1      52.261  25.249  27.304  1.00  0.00    -0.237 OA
ATOM    101  O   UNL A   1      52.896  27.635  27.187  1.00  0.00    -0.237 OA
ATOM    102  O   UNL A   1      52.953  26.449  29.347  1.00  0.00    -0.744 OA
ENDBRANCH  98  99
ENDBRANCH  66  91
ENDBRANCH  40  41
ENDBRANCH  33  35
ENDBRANCH  32  33
ENDBRANCH  31  32
ENDBRANCH   1  31
TORSDOF 19
ENDMDL
