MODEL 1
REMARK VINA RESULT:     -10.2      0.000      0.000
REMARK SMILES CCOC(=O)CS(=O)(=O)N1CCC(CC(=O)OCCOC(=O)c2ccc(-c3c4nc(c(-c5c(F)cc(S(=O)(=O)[O-])cc5F)c5ccc([nH]5)c(-c5c(F)cc(S(=O)(=O)[O-])cc5F)c5nc(c(-c6c(F)cc(S(=O)(=O)[O-])cc6F)c6ccc3[nH]6)C=C5)C=C4)cc2)CC1
REMARK SMILES IDX 17 1 15 2 16 3 14 4 13 5 10 6 11 7 90 8 12 9 89 10 7 11 8 12
REMARK SMILES IDX 9 13 6 14 4 15 5 16 3 17 2 18 1 19 18 20 19 21 20 22 21 23
REMARK SMILES IDX 22 24 23 25 24 26 88 27 25 28 87 29 26 30 27 31 28 32 81 33
REMARK SMILES IDX 29 34 86 35 80 36 82 37 30 38 85 39 79 40 78 41 31 43 65 44
REMARK SMILES IDX 44 45 64 46 45 47 48 48 63 49 83 50 46 51 47 52 62 54 84 55
REMARK SMILES IDX 49 56 32 57 33 58 42 59 34 60 35 61 41 62 43 63 36 64 37 65
REMARK SMILES IDX 38 66 39 67 40 68 66 69 67 70 76 71 68 72 69 73 75 74 77 75
REMARK SMILES IDX 70 76 71 77 72 78 73 79 74 80 50 81 51 82 60 83 52 84 53 85
REMARK SMILES IDX 59 86 61 87 54 88 55 89 56 90 57 91 58 92
REMARK H PARENT 82 42 48 53
REMARK Flexibility Score: inf
ROOT
ATOM      1  O   UNL A   1      33.330  29.047  27.687  1.00  0.00    -0.462 OA
ENDROOT
BRANCH   1   2
ATOM      2  C   UNL A   1      32.251  28.333  27.285  1.00  0.00     0.306 C 
ATOM      3  O   UNL A   1      31.233  28.171  27.945  1.00  0.00    -0.252 OA
BRANCH   2   4
ATOM      4  C   UNL A   1      32.463  27.678  25.935  1.00  0.00     0.126 C 
BRANCH   4   5
ATOM      5  C   UNL A   1      32.573  26.145  25.949  1.00  0.00     0.003 C 
ATOM      6  N   UNL A   1      33.072  23.663  24.516  1.00  0.00    -0.201 NA
ATOM      7  C   UNL A   1      31.703  23.958  24.990  1.00  0.00     0.102 C 
ATOM      8  C   UNL A   1      34.113  24.199  25.418  1.00  0.00     0.102 C 
ATOM      9  C   UNL A   1      31.517  25.471  25.054  1.00  0.00     0.021 C 
ATOM     10  C   UNL A   1      33.981  25.718  25.492  1.00  0.00     0.021 C 
BRANCH   6  11
ATOM     11  S   UNL A   1      33.344  22.193  23.740  1.00  0.00     0.224 S 
ATOM     12  O   UNL A   1      34.693  21.758  24.035  1.00  0.00    -0.212 OA
ATOM     13  O   UNL A   1      32.946  22.374  22.356  1.00  0.00    -0.212 OA
BRANCH  11  14
ATOM     14  C   UNL A   1      32.184  21.053  24.434  1.00  0.00     0.276 C 
BRANCH  14  15
ATOM     15  C   UNL A   1      32.738  20.213  25.522  1.00  0.00     0.322 C 
ATOM     16  O   UNL A   1      33.359  20.691  26.465  1.00  0.00    -0.251 OA
BRANCH  15  17
ATOM     17  O   UNL A   1      32.394  18.907  25.414  1.00  0.00    -0.465 OA
BRANCH  17  18
ATOM     18  C   UNL A   1      32.876  18.202  24.255  1.00  0.00     0.229 C 
ATOM     19  C   UNL A   1      34.374  17.971  24.320  1.00  0.00     0.049 C 
ENDBRANCH  17  18
ENDBRANCH  15  17
ENDBRANCH  14  15
ENDBRANCH  11  14
ENDBRANCH   6  11
ENDBRANCH   4   5
ENDBRANCH   2   4
ENDBRANCH   1   2
BRANCH   1  20
ATOM     20  C   UNL A   1      33.336  30.449  27.359  1.00  0.00     0.274 C 
BRANCH  20  21
ATOM     21  C   UNL A   1      34.561  31.156  27.942  1.00  0.00     0.275 C 
BRANCH  21  22
ATOM     22  O   UNL A   1      35.618  30.222  28.225  1.00  0.00    -0.458 OA
BRANCH  22  23
ATOM     23  C   UNL A   1      36.405  30.533  29.283  1.00  0.00     0.338 C 
ATOM     24  O   UNL A   1      36.055  31.016  30.345  1.00  0.00    -0.246 OA
BRANCH  23  25
ATOM     25  C   UNL A   1      37.777  30.080  29.008  1.00  0.00     0.060 A 
ATOM     26  C   UNL A   1      38.698  30.063  30.061  1.00  0.00     0.016 A 
ATOM     27  C   UNL A   1      38.165  29.711  27.719  1.00  0.00     0.016 A 
ATOM     28  C   UNL A   1      40.012  29.665  29.828  1.00  0.00     0.010 A 
ATOM     29  C   UNL A   1      39.485  29.308  27.489  1.00  0.00     0.010 A 
ATOM     30  C   UNL A   1      40.417  29.283  28.540  1.00  0.00    -0.014 A 
BRANCH  30  31
ATOM     31  C   UNL A   1      41.817  28.851  28.297  1.00  0.00     0.031 A 
ATOM     32  C   UNL A   1      42.930  29.859  28.301  1.00  0.00     0.074 A 
ATOM     33  C   UNL A   1      42.080  27.551  28.063  1.00  0.00     0.049 A 
ATOM     34  N   UNL A   1      44.200  29.688  28.034  1.00  0.00    -0.248 NA
ATOM     35  C   UNL A   1      42.571  31.243  28.650  1.00  0.00     0.031 C 
ATOM     36  C   UNL A   1      41.084  26.478  28.051  1.00  0.00     0.029 A 
ATOM     37  N   UNL A   1      43.261  26.912  27.780  1.00  0.00    -0.354 N 
ATOM     38  C   UNL A   1      44.790  30.938  28.167  1.00  0.00     0.074 A 
ATOM     39  C   UNL A   1      43.737  31.865  28.524  1.00  0.00     0.031 C 
ATOM     40  C   UNL A   1      41.695  25.315  27.769  1.00  0.00     0.029 A 
ATOM     41  C   UNL A   1      43.116  25.566  27.540  1.00  0.00     0.049 A 
ATOM     42  H   UNL A   1      44.130  27.374  27.751  1.00  0.00     0.167 HD
ATOM     43  C   UNL A   1      46.092  31.278  28.007  1.00  0.00     0.037 A 
ATOM     44  C   UNL A   1      44.018  24.644  27.151  1.00  0.00     0.037 A 
ATOM     45  C   UNL A   1      47.138  30.348  27.667  1.00  0.00     0.049 A 
ATOM     46  C   UNL A   1      45.449  25.060  26.936  1.00  0.00     0.074 A 
ATOM     47  C   UNL A   1      48.493  30.594  27.520  1.00  0.00     0.029 A 
ATOM     48  N   UNL A   1      46.949  28.997  27.416  1.00  0.00    -0.354 N 
ATOM     49  N   UNL A   1      45.995  26.243  27.089  1.00  0.00    -0.248 NA
ATOM     50  C   UNL A   1      46.385  24.018  26.489  1.00  0.00     0.031 C 
ATOM     51  C   UNL A   1      49.116  29.401  27.139  1.00  0.00     0.029 A 
ATOM     52  C   UNL A   1      48.157  28.403  27.090  1.00  0.00     0.049 A 
ATOM     53  H   UNL A   1      46.083  28.529  27.461  1.00  0.00     0.167 HD
ATOM     54  C   UNL A   1      47.340  26.084  26.775  1.00  0.00     0.074 A 
ATOM     55  C   UNL A   1      47.529  24.687  26.439  1.00  0.00     0.031 C 
ATOM     56  C   UNL A   1      48.330  27.010  26.762  1.00  0.00     0.037 A 
BRANCH  43  57
ATOM     57  C   UNL A   1      46.469  32.722  28.183  1.00  0.00     0.058 A 
ATOM     58  C   UNL A   1      46.981  33.208  29.395  1.00  0.00     0.135 A 
ATOM     59  C   UNL A   1      46.384  33.614  27.102  1.00  0.00     0.135 A 
ATOM     60  F   UNL A   1      47.068  32.401  30.465  1.00  0.00    -0.206 F 
ATOM     61  C   UNL A   1      47.390  34.530  29.531  1.00  0.00     0.059 A 
ATOM     62  C   UNL A   1      46.806  34.936  27.209  1.00  0.00     0.059 A 
ATOM     63  F   UNL A   1      45.897  33.199  25.921  1.00  0.00    -0.206 F 
ATOM     64  C   UNL A   1      47.301  35.387  28.432  1.00  0.00     0.060 A 
BRANCH  64  65
ATOM     65  S   UNL A   1      47.864  37.093  28.617  1.00  0.00     0.124 S 
ATOM     66  O   UNL A   1      47.607  37.630  27.284  1.00  0.00    -0.237 OA
ATOM     67  O   UNL A   1      46.999  37.594  29.679  1.00  0.00    -0.237 OA
ATOM     68  O   UNL A   1      49.272  36.949  28.975  1.00  0.00    -0.744 OA
ENDBRANCH  64  65
ENDBRANCH  43  57
BRANCH  44  69
ATOM     69  C   UNL A   1      43.595  23.240  26.907  1.00  0.00     0.058 A 
ATOM     70  C   UNL A   1      43.479  22.733  25.603  1.00  0.00     0.135 A 
ATOM     71  C   UNL A   1      43.280  22.383  27.973  1.00  0.00     0.135 A 
ATOM     72  F   UNL A   1      43.760  23.518  24.552  1.00  0.00    -0.206 F 
ATOM     73  C   UNL A   1      43.043  21.434  25.364  1.00  0.00     0.059 A 
ATOM     74  C   UNL A   1      42.867  21.072  27.759  1.00  0.00     0.059 A 
ATOM     75  F   UNL A   1      43.385  22.816  29.238  1.00  0.00    -0.206 F 
ATOM     76  C   UNL A   1      42.737  20.611  26.449  1.00  0.00     0.060 A 
BRANCH  76  77
ATOM     77  S   UNL A   1      42.196  18.917  26.134  1.00  0.00     0.124 S 
ATOM     78  O   UNL A   1      40.808  19.123  25.736  1.00  0.00    -0.237 OA
ATOM     79  O   UNL A   1      43.108  18.492  25.077  1.00  0.00    -0.237 OA
ATOM     80  O   UNL A   1      42.393  18.259  27.422  1.00  0.00    -0.744 OA
ENDBRANCH  76  77
ENDBRANCH  44  69
BRANCH  56  81
ATOM     81  C   UNL A   1      49.710  26.540  26.398  1.00  0.00     0.058 A 
ATOM     82  C   UNL A   1      50.188  26.618  25.080  1.00  0.00     0.135 A 
ATOM     83  C   UNL A   1      50.578  26.046  27.384  1.00  0.00     0.135 A 
ATOM     84  F   UNL A   1      49.394  27.076  24.100  1.00  0.00    -0.206 F 
ATOM     85  C   UNL A   1      51.474  26.202  24.749  1.00  0.00     0.059 A 
ATOM     86  C   UNL A   1      51.876  25.645  27.079  1.00  0.00     0.059 A 
ATOM     87  F   UNL A   1      50.172  25.959  28.660  1.00  0.00    -0.206 F 
ATOM     88  C   UNL A   1      52.310  25.716  25.755  1.00  0.00     0.060 A 
BRANCH  88  89
ATOM     89  S   UNL A   1      53.986  25.206  25.321  1.00  0.00     0.124 S 
ATOM     90  O   UNL A   1      54.296  26.119  24.225  1.00  0.00    -0.237 OA
ATOM     91  O   UNL A   1      54.718  25.437  26.563  1.00  0.00    -0.237 OA
ATOM     92  O   UNL A   1      53.829  23.804  24.947  1.00  0.00    -0.744 OA
ENDBRANCH  88  89
ENDBRANCH  56  81
ENDBRANCH  30  31
ENDBRANCH  23  25
ENDBRANCH  22  23
ENDBRANCH  21  22
ENDBRANCH  20  21
ENDBRANCH   1  20
TORSDOF 20
ENDMDL
MODEL 2
REMARK VINA RESULT:     -10.1      6.924     12.425
REMARK SMILES CCOC(=O)CS(=O)(=O)N1CCC(CC(=O)OCCOC(=O)c2ccc(-c3c4nc(c(-c5c(F)cc(S(=O)(=O)[O-])cc5F)c5ccc([nH]5)c(-c5c(F)cc(S(=O)(=O)[O-])cc5F)c5nc(c(-c6c(F)cc(S(=O)(=O)[O-])cc6F)c6ccc3[nH]6)C=C5)C=C4)cc2)CC1
REMARK SMILES IDX 17 1 15 2 16 3 14 4 13 5 10 6 11 7 90 8 12 9 89 10 7 11 8 12
REMARK SMILES IDX 9 13 6 14 4 15 5 16 3 17 2 18 1 19 18 20 19 21 20 22 21 23
REMARK SMILES IDX 22 24 23 25 24 26 88 27 25 28 87 29 26 30 27 31 28 32 81 33
REMARK SMILES IDX 29 34 86 35 80 36 82 37 30 38 85 39 79 40 78 41 31 43 65 44
REMARK SMILES IDX 44 45 64 46 45 47 48 48 63 49 83 50 46 51 47 52 62 54 84 55
REMARK SMILES IDX 49 56 32 57 33 58 42 59 34 60 35 61 41 62 43 63 36 64 37 65
REMARK SMILES IDX 38 66 39 67 40 68 66 69 67 70 76 71 68 72 69 73 75 74 77 75
REMARK SMILES IDX 70 76 71 77 72 78 73 79 74 80 50 81 51 82 60 83 52 84 53 85
REMARK SMILES IDX 59 86 61 87 54 88 55 89 56 90 57 91 58 92
REMARK H PARENT 82 42 48 53
REMARK Flexibility Score: inf
ROOT
ATOM      1  O   UNL A   1      38.178  21.240  25.417  1.00  0.00    -0.462 OA
ENDROOT
BRANCH   1   2
ATOM      2  C   UNL A   1      37.076  21.372  24.638  1.00  0.00     0.306 C 
ATOM      3  O   UNL A   1      36.871  22.300  23.867  1.00  0.00    -0.252 OA
BRANCH   2   4
ATOM      4  C   UNL A   1      36.068  20.267  24.874  1.00  0.00     0.126 C 
BRANCH   4   5
ATOM      5  C   UNL A   1      34.693  20.720  25.393  1.00  0.00     0.003 C 
ATOM      6  N   UNL A   1      32.744  22.844  25.781  1.00  0.00    -0.201 NA
ATOM      7  C   UNL A   1      33.437  22.279  26.958  1.00  0.00     0.102 C 
ATOM      8  C   UNL A   1      32.519  21.841  24.719  1.00  0.00     0.102 C 
ATOM      9  C   UNL A   1      34.804  21.757  26.525  1.00  0.00     0.021 C 
ATOM     10  C   UNL A   1      33.865  21.309  24.235  1.00  0.00     0.021 C 
BRANCH   6  11
ATOM     11  S   UNL A   1      31.579  24.033  26.040  1.00  0.00     0.224 S 
ATOM     12  O   UNL A   1      30.991  23.826  27.346  1.00  0.00    -0.212 OA
ATOM     13  O   UNL A   1      30.721  24.035  24.869  1.00  0.00    -0.212 OA
BRANCH  11  14
ATOM     14  C   UNL A   1      32.443  25.576  26.011  1.00  0.00     0.276 C 
BRANCH  14  15
ATOM     15  C   UNL A   1      31.564  26.759  25.854  1.00  0.00     0.322 C 
ATOM     16  O   UNL A   1      31.329  27.257  24.758  1.00  0.00    -0.251 OA
BRANCH  15  17
ATOM     17  O   UNL A   1      30.979  27.146  27.013  1.00  0.00    -0.465 OA
BRANCH  17  18
ATOM     18  C   UNL A   1      31.691  28.111  27.809  1.00  0.00     0.229 C 
ATOM     19  C   UNL A   1      32.083  29.331  26.995  1.00  0.00     0.049 C 
ENDBRANCH  17  18
ENDBRANCH  15  17
ENDBRANCH  14  15
ENDBRANCH  11  14
ENDBRANCH   6  11
ENDBRANCH   4   5
ENDBRANCH   2   4
ENDBRANCH   1   2
BRANCH   1  20
ATOM     20  C   UNL A   1      38.583  22.401  26.166  1.00  0.00     0.274 C 
BRANCH  20  21
ATOM     21  C   UNL A   1      40.069  22.348  26.522  1.00  0.00     0.275 C 
BRANCH  21  22
ATOM     22  O   UNL A   1      40.412  23.356  27.489  1.00  0.00    -0.458 OA
BRANCH  22  23
ATOM     23  C   UNL A   1      40.906  24.510  26.979  1.00  0.00     0.338 C 
ATOM     24  O   UNL A   1      41.288  24.708  25.840  1.00  0.00    -0.246 OA
BRANCH  23  25
ATOM     25  C   UNL A   1      40.801  25.567  27.998  1.00  0.00     0.060 A 
ATOM     26  C   UNL A   1      41.911  26.386  28.226  1.00  0.00     0.016 A 
ATOM     27  C   UNL A   1      39.634  25.726  28.748  1.00  0.00     0.016 A 
ATOM     28  C   UNL A   1      41.853  27.379  29.202  1.00  0.00     0.010 A 
ATOM     29  C   UNL A   1      39.578  26.725  29.725  1.00  0.00     0.010 A 
ATOM     30  C   UNL A   1      40.686  27.558  29.959  1.00  0.00    -0.014 A 
BRANCH  30  31
ATOM     31  C   UNL A   1      40.624  28.621  30.993  1.00  0.00     0.031 A 
ATOM     32  C   UNL A   1      41.528  28.564  32.192  1.00  0.00     0.074 A 
ATOM     33  C   UNL A   1      39.746  29.633  30.854  1.00  0.00     0.049 A 
ATOM     34  N   UNL A   1      41.568  29.354  33.234  1.00  0.00    -0.248 NA
ATOM     35  C   UNL A   1      42.516  27.474  32.225  1.00  0.00     0.031 C 
ATOM     36  C   UNL A   1      38.830  29.806  29.725  1.00  0.00     0.029 A 
ATOM     37  N   UNL A   1      39.472  30.701  31.671  1.00  0.00    -0.354 N 
ATOM     38  C   UNL A   1      42.571  28.853  34.055  1.00  0.00     0.074 A 
ATOM     39  C   UNL A   1      43.106  27.680  33.397  1.00  0.00     0.031 C 
ATOM     40  C   UNL A   1      38.092  30.911  29.924  1.00  0.00     0.029 A 
ATOM     41  C   UNL A   1      38.453  31.500  31.211  1.00  0.00     0.049 A 
ATOM     42  H   UNL A   1      39.960  30.879  32.507  1.00  0.00     0.167 HD
ATOM     43  C   UNL A   1      43.004  29.331  35.245  1.00  0.00     0.037 A 
ATOM     44  C   UNL A   1      37.855  32.569  31.774  1.00  0.00     0.037 A 
ATOM     45  C   UNL A   1      42.478  30.508  35.887  1.00  0.00     0.049 A 
ATOM     46  C   UNL A   1      38.327  33.051  33.120  1.00  0.00     0.074 A 
ATOM     47  C   UNL A   1      42.879  31.091  37.078  1.00  0.00     0.029 A 
ATOM     48  N   UNL A   1      41.434  31.280  35.399  1.00  0.00    -0.354 N 
ATOM     49  N   UNL A   1      39.293  32.579  33.872  1.00  0.00    -0.248 NA
ATOM     50  C   UNL A   1      37.623  34.205  33.698  1.00  0.00     0.031 C 
ATOM     51  C   UNL A   1      42.052  32.190  37.330  1.00  0.00     0.029 A 
ATOM     52  C   UNL A   1      41.162  32.318  36.275  1.00  0.00     0.049 A 
ATOM     53  H   UNL A   1      40.957  31.115  34.553  1.00  0.00     0.167 HD
ATOM     54  C   UNL A   1      39.325  33.389  35.001  1.00  0.00     0.074 A 
ATOM     55  C   UNL A   1      38.293  34.390  34.827  1.00  0.00     0.031 C 
ATOM     56  C   UNL A   1      40.134  33.310  36.087  1.00  0.00     0.037 A 
BRANCH  43  57
ATOM     57  C   UNL A   1      44.096  28.578  35.951  1.00  0.00     0.058 A 
ATOM     58  C   UNL A   1      43.815  27.511  36.817  1.00  0.00     0.135 A 
ATOM     59  C   UNL A   1      45.444  28.882  35.701  1.00  0.00     0.135 A 
ATOM     60  F   UNL A   1      42.543  27.189  37.103  1.00  0.00    -0.206 F 
ATOM     61  C   UNL A   1      44.833  26.775  37.415  1.00  0.00     0.059 A 
ATOM     62  C   UNL A   1      46.478  28.147  36.272  1.00  0.00     0.059 A 
ATOM     63  F   UNL A   1      45.766  29.897  34.882  1.00  0.00    -0.206 F 
ATOM     64  C   UNL A   1      46.162  27.099  37.135  1.00  0.00     0.060 A 
BRANCH  64  65
ATOM     65  S   UNL A   1      47.470  26.114  37.897  1.00  0.00     0.124 S 
ATOM     66  O   UNL A   1      48.247  25.711  36.729  1.00  0.00    -0.237 OA
ATOM     67  O   UNL A   1      48.113  27.080  38.782  1.00  0.00    -0.237 OA
ATOM     68  O   UNL A   1      46.742  25.042  38.567  1.00  0.00    -0.744 OA
ENDBRANCH  64  65
ENDBRANCH  43  57
BRANCH  44  69
ATOM     69  C   UNL A   1      36.722  33.241  31.086  1.00  0.00     0.058 A 
ATOM     70  C   UNL A   1      35.400  33.067  31.524  1.00  0.00     0.135 A 
ATOM     71  C   UNL A   1      36.937  34.056  29.964  1.00  0.00     0.135 A 
ATOM     72  F   UNL A   1      35.144  32.288  32.587  1.00  0.00    -0.206 F 
ATOM     73  C   UNL A   1      34.330  33.658  30.861  1.00  0.00     0.059 A 
ATOM     74  C   UNL A   1      35.885  34.679  29.300  1.00  0.00     0.059 A 
ATOM     75  F   UNL A   1      38.183  34.263  29.512  1.00  0.00    -0.206 F 
ATOM     76  C   UNL A   1      34.583  34.460  29.747  1.00  0.00     0.060 A 
BRANCH  76  77
ATOM     77  S   UNL A   1      33.191  35.246  28.905  1.00  0.00     0.124 S 
ATOM     78  O   UNL A   1      32.348  35.631  30.030  1.00  0.00    -0.237 OA
ATOM     79  O   UNL A   1      33.840  36.339  28.188  1.00  0.00    -0.237 OA
ATOM     80  O   UNL A   1      32.668  34.178  28.058  1.00  0.00    -0.744 OA
ENDBRANCH  76  77
ENDBRANCH  44  69
BRANCH  56  81
ATOM     81  C   UNL A   1      39.952  34.347  37.159  1.00  0.00     0.058 A 
ATOM     82  C   UNL A   1      40.603  35.589  37.096  1.00  0.00     0.135 A 
ATOM     83  C   UNL A   1      39.086  34.113  38.238  1.00  0.00     0.135 A 
ATOM     84  F   UNL A   1      41.447  35.859  36.088  1.00  0.00    -0.206 F 
ATOM     85  C   UNL A   1      40.418  36.556  38.078  1.00  0.00     0.059 A 
ATOM     86  C   UNL A   1      38.868  35.075  39.220  1.00  0.00     0.059 A 
ATOM     87  F   UNL A   1      38.433  32.945  38.340  1.00  0.00    -0.206 F 
ATOM     88  C   UNL A   1      39.548  36.289  39.137  1.00  0.00     0.060 A 
BRANCH  88  89
ATOM     89  S   UNL A   1      39.291  37.562  40.392  1.00  0.00     0.124 S 
ATOM     90  O   UNL A   1      38.980  36.757  41.568  1.00  0.00    -0.237 OA
ATOM     91  O   UNL A   1      40.581  38.246  40.415  1.00  0.00    -0.237 OA
ATOM     92  O   UNL A   1      38.183  38.348  39.856  1.00  0.00    -0.744 OA
ENDBRANCH  88  89
ENDBRANCH  56  81
ENDBRANCH  30  31
ENDBRANCH  23  25
ENDBRANCH  22  23
ENDBRANCH  21  22
ENDBRANCH  20  21
ENDBRANCH   1  20
TORSDOF 20
ENDMDL
MODEL 3
REMARK VINA RESULT:     -10.1      0.892      1.812
REMARK SMILES CCOC(=O)CS(=O)(=O)N1CCC(CC(=O)OCCOC(=O)c2ccc(-c3c4nc(c(-c5c(F)cc(S(=O)(=O)[O-])cc5F)c5ccc([nH]5)c(-c5c(F)cc(S(=O)(=O)[O-])cc5F)c5nc(c(-c6c(F)cc(S(=O)(=O)[O-])cc6F)c6ccc3[nH]6)C=C5)C=C4)cc2)CC1
REMARK SMILES IDX 17 1 15 2 16 3 14 4 13 5 10 6 11 7 90 8 12 9 89 10 7 11 8 12
REMARK SMILES IDX 9 13 6 14 4 15 5 16 3 17 2 18 1 19 18 20 19 21 20 22 21 23
REMARK SMILES IDX 22 24 23 25 24 26 88 27 25 28 87 29 26 30 27 31 28 32 81 33
REMARK SMILES IDX 29 34 86 35 80 36 82 37 30 38 85 39 79 40 78 41 31 43 65 44
REMARK SMILES IDX 44 45 64 46 45 47 48 48 63 49 83 50 46 51 47 52 62 54 84 55
REMARK SMILES IDX 49 56 32 57 33 58 42 59 34 60 35 61 41 62 43 63 36 64 37 65
REMARK SMILES IDX 38 66 39 67 40 68 66 69 67 70 76 71 68 72 69 73 75 74 77 75
REMARK SMILES IDX 70 76 71 77 72 78 73 79 74 80 50 81 51 82 60 83 52 84 53 85
REMARK SMILES IDX 59 86 61 87 54 88 55 89 56 90 57 91 58 92
REMARK H PARENT 82 42 48 53
REMARK Flexibility Score: inf
ROOT
ATOM      1  O   UNL A   1      33.196  29.364  27.531  1.00  0.00    -0.462 OA
ENDROOT
BRANCH   1   2
ATOM      2  C   UNL A   1      32.018  28.765  27.230  1.00  0.00     0.306 C 
ATOM      3  O   UNL A   1      31.201  28.373  28.054  1.00  0.00    -0.252 OA
BRANCH   2   4
ATOM      4  C   UNL A   1      31.840  28.558  25.740  1.00  0.00     0.126 C 
BRANCH   4   5
ATOM      5  C   UNL A   1      32.056  27.121  25.236  1.00  0.00     0.003 C 
ATOM      6  N   UNL A   1      32.114  24.264  25.781  1.00  0.00    -0.201 NA
ATOM      7  C   UNL A   1      33.382  24.970  25.500  1.00  0.00     0.102 C 
ATOM      8  C   UNL A   1      30.970  24.836  25.040  1.00  0.00     0.102 C 
ATOM      9  C   UNL A   1      33.243  26.428  25.928  1.00  0.00     0.021 C 
ATOM     10  C   UNL A   1      30.776  26.292  25.457  1.00  0.00     0.021 C 
BRANCH   6  11
ATOM     11  S   UNL A   1      32.169  22.601  26.036  1.00  0.00     0.224 S 
ATOM     12  O   UNL A   1      30.843  22.058  25.832  1.00  0.00    -0.212 OA
ATOM     13  O   UNL A   1      32.828  22.398  27.313  1.00  0.00    -0.212 OA
BRANCH  11  14
ATOM     14  C   UNL A   1      33.272  21.956  24.813  1.00  0.00     0.276 C 
BRANCH  14  15
ATOM     15  C   UNL A   1      32.592  21.363  23.637  1.00  0.00     0.322 C 
ATOM     16  O   UNL A   1      32.334  20.166  23.568  1.00  0.00    -0.251 OA
BRANCH  15  17
ATOM     17  O   UNL A   1      32.203  22.286  22.726  1.00  0.00    -0.465 OA
BRANCH  17  18
ATOM     18  C   UNL A   1      33.243  23.056  22.095  1.00  0.00     0.229 C 
ATOM     19  C   UNL A   1      32.879  24.526  22.007  1.00  0.00     0.049 C 
ENDBRANCH  17  18
ENDBRANCH  15  17
ENDBRANCH  14  15
ENDBRANCH  11  14
ENDBRANCH   6  11
ENDBRANCH   4   5
ENDBRANCH   2   4
ENDBRANCH   1   2
BRANCH   1  20
ATOM     20  C   UNL A   1      33.292  30.775  27.259  1.00  0.00     0.274 C 
BRANCH  20  21
ATOM     21  C   UNL A   1      34.498  31.400  27.962  1.00  0.00     0.275 C 
BRANCH  21  22
ATOM     22  O   UNL A   1      35.498  30.411  28.264  1.00  0.00    -0.458 OA
BRANCH  22  23
ATOM     23  C   UNL A   1      36.272  30.674  29.343  1.00  0.00     0.338 C 
ATOM     24  O   UNL A   1      35.912  31.120  30.418  1.00  0.00    -0.246 OA
BRANCH  23  25
ATOM     25  C   UNL A   1      37.644  30.216  29.072  1.00  0.00     0.060 A 
ATOM     26  C   UNL A   1      38.581  30.261  30.109  1.00  0.00     0.016 A 
ATOM     27  C   UNL A   1      38.015  29.781  27.798  1.00  0.00     0.016 A 
ATOM     28  C   UNL A   1      39.894  29.860  29.877  1.00  0.00     0.010 A 
ATOM     29  C   UNL A   1      39.334  29.376  27.569  1.00  0.00     0.010 A 
ATOM     30  C   UNL A   1      40.283  29.413  28.606  1.00  0.00    -0.014 A 
BRANCH  30  31
ATOM     31  C   UNL A   1      41.681  28.978  28.364  1.00  0.00     0.031 A 
ATOM     32  C   UNL A   1      42.797  29.984  28.372  1.00  0.00     0.074 A 
ATOM     33  C   UNL A   1      41.942  27.678  28.128  1.00  0.00     0.049 A 
ATOM     34  N   UNL A   1      44.067  29.810  28.106  1.00  0.00    -0.248 NA
ATOM     35  C   UNL A   1      42.440  31.368  28.721  1.00  0.00     0.031 C 
ATOM     36  C   UNL A   1      40.944  26.607  28.112  1.00  0.00     0.029 A 
ATOM     37  N   UNL A   1      43.122  27.037  27.845  1.00  0.00    -0.354 N 
ATOM     38  C   UNL A   1      44.660  31.059  28.242  1.00  0.00     0.074 A 
ATOM     39  C   UNL A   1      43.608  31.988  28.599  1.00  0.00     0.031 C 
ATOM     40  C   UNL A   1      41.553  25.444  27.830  1.00  0.00     0.029 A 
ATOM     41  C   UNL A   1      42.975  25.692  27.603  1.00  0.00     0.049 A 
ATOM     42  H   UNL A   1      43.992  27.497  27.818  1.00  0.00     0.167 HD
ATOM     43  C   UNL A   1      45.962  31.397  28.084  1.00  0.00     0.037 A 
ATOM     44  C   UNL A   1      43.876  24.768  27.214  1.00  0.00     0.037 A 
ATOM     45  C   UNL A   1      47.006  30.465  27.744  1.00  0.00     0.049 A 
ATOM     46  C   UNL A   1      45.308  25.182  27.002  1.00  0.00     0.074 A 
ATOM     47  C   UNL A   1      48.362  30.708  27.599  1.00  0.00     0.029 A 
ATOM     48  N   UNL A   1      46.815  29.115  27.490  1.00  0.00    -0.354 N 
ATOM     49  N   UNL A   1      45.856  26.363  27.158  1.00  0.00    -0.248 NA
ATOM     50  C   UNL A   1      46.242  24.139  26.555  1.00  0.00     0.031 C 
ATOM     51  C   UNL A   1      48.984  29.515  27.217  1.00  0.00     0.029 A 
ATOM     52  C   UNL A   1      48.022  28.518  27.166  1.00  0.00     0.049 A 
ATOM     53  H   UNL A   1      45.948  28.649  27.534  1.00  0.00     0.167 HD
ATOM     54  C   UNL A   1      47.201  26.202  26.846  1.00  0.00     0.074 A 
ATOM     55  C   UNL A   1      47.387  24.805  26.507  1.00  0.00     0.031 C 
ATOM     56  C   UNL A   1      48.193  27.126  26.836  1.00  0.00     0.037 A 
BRANCH  43  57
ATOM     57  C   UNL A   1      46.342  32.840  28.263  1.00  0.00     0.058 A 
ATOM     58  C   UNL A   1      46.308  33.748  27.194  1.00  0.00     0.135 A 
ATOM     59  C   UNL A   1      46.674  33.334  29.534  1.00  0.00     0.135 A 
ATOM     60  F   UNL A   1      46.012  33.324  25.955  1.00  0.00    -0.206 F 
ATOM     61  C   UNL A   1      46.596  35.096  27.379  1.00  0.00     0.059 A 
ATOM     62  C   UNL A   1      46.947  34.682  29.746  1.00  0.00     0.059 A 
ATOM     63  F   UNL A   1      46.724  32.505  30.589  1.00  0.00    -0.206 F 
ATOM     64  C   UNL A   1      46.912  35.555  28.660  1.00  0.00     0.060 A 
BRANCH  64  65
ATOM     65  S   UNL A   1      47.255  37.314  28.887  1.00  0.00     0.124 S 
ATOM     66  O   UNL A   1      46.128  37.922  28.186  1.00  0.00    -0.237 OA
ATOM     67  O   UNL A   1      47.244  37.449  30.340  1.00  0.00    -0.237 OA
ATOM     68  O   UNL A   1      48.558  37.491  28.254  1.00  0.00    -0.744 OA
ENDBRANCH  64  65
ENDBRANCH  43  57
BRANCH  44  69
ATOM     69  C   UNL A   1      43.449  23.366  26.967  1.00  0.00     0.058 A 
ATOM     70  C   UNL A   1      43.262  22.884  25.663  1.00  0.00     0.135 A 
ATOM     71  C   UNL A   1      43.204  22.486  28.032  1.00  0.00     0.135 A 
ATOM     72  F   UNL A   1      43.475  23.691  24.613  1.00  0.00    -0.206 F 
ATOM     73  C   UNL A   1      42.823  21.585  25.423  1.00  0.00     0.059 A 
ATOM     74  C   UNL A   1      42.789  21.175  27.817  1.00  0.00     0.059 A 
ATOM     75  F   UNL A   1      43.379  22.895  29.298  1.00  0.00    -0.206 F 
ATOM     76  C   UNL A   1      42.586  20.739  26.508  1.00  0.00     0.060 A 
BRANCH  76  77
ATOM     77  S   UNL A   1      42.041  19.047  26.190  1.00  0.00     0.124 S 
ATOM     78  O   UNL A   1      42.938  18.648  25.113  1.00  0.00    -0.237 OA
ATOM     79  O   UNL A   1      42.263  18.403  27.481  1.00  0.00    -0.237 OA
ATOM     80  O   UNL A   1      40.639  19.213  25.817  1.00  0.00    -0.744 OA
ENDBRANCH  76  77
ENDBRANCH  44  69
BRANCH  56  81
ATOM     81  C   UNL A   1      49.573  26.653  26.472  1.00  0.00     0.058 A 
ATOM     82  C   UNL A   1      50.066  26.766  25.163  1.00  0.00     0.135 A 
ATOM     83  C   UNL A   1      50.425  26.122  27.453  1.00  0.00     0.135 A 
ATOM     84  F   UNL A   1      49.288  27.261  24.189  1.00  0.00    -0.206 F 
ATOM     85  C   UNL A   1      51.351  26.347  24.834  1.00  0.00     0.059 A 
ATOM     86  C   UNL A   1      51.722  25.718  27.150  1.00  0.00     0.059 A 
ATOM     87  F   UNL A   1      50.004  26.001  28.722  1.00  0.00    -0.206 F 
ATOM     88  C   UNL A   1      52.171  25.823  25.834  1.00  0.00     0.060 A 
BRANCH  88  89
ATOM     89  S   UNL A   1      53.848  25.311  25.403  1.00  0.00     0.124 S 
ATOM     90  O   UNL A   1      54.227  26.333  24.434  1.00  0.00    -0.237 OA
ATOM     91  O   UNL A   1      54.536  25.370  26.690  1.00  0.00    -0.237 OA
ATOM     92  O   UNL A   1      53.663  23.968  24.861  1.00  0.00    -0.744 OA
ENDBRANCH  88  89
ENDBRANCH  56  81
ENDBRANCH  30  31
ENDBRANCH  23  25
ENDBRANCH  22  23
ENDBRANCH  21  22
ENDBRANCH  20  21
ENDBRANCH   1  20
TORSDOF 20
ENDMDL
