MODEL 1
REMARK VINA RESULT:     -11.9      0.000      0.000
REMARK SMILES CCNC(=O)c1cccc(-c2ccc(Cl)c(C(=O)OCCOC(=O)c3ccc(-c4c5nc(c(-c6c(F)cc(S(=O)(=O)[O-])cc6F)c6ccc([nH]6)c(-c6c(F)cc(S(=O)(=O)[O-])cc6F)c6nc(c(-c7c(F)cc(S(=O)(=O)[O-])cc7F)c7ccc4[nH]7)C=C6)C=C5)cc3)c2)c1
REMARK SMILES IDX 20 1 19 2 17 3 18 4 16 5 11 6 12 7 91 8 13 9 14 10 15 11
REMARK SMILES IDX 10 12 6 13 7 14 92 15 8 16 9 17 4 18 3 19 5 21 2 22 1 23
REMARK SMILES IDX 21 24 22 25 23 26 24 27 25 28 26 29 90 30 27 31 89 32 28 33
REMARK SMILES IDX 29 34 30 35 83 36 31 37 88 38 82 39 84 40 32 41 87 42 81 43
REMARK SMILES IDX 80 44 33 46 67 47 46 48 66 49 47 50 50 51 65 52 85 53 48 54
REMARK SMILES IDX 49 55 64 57 86 58 51 59 34 60 35 61 44 62 36 63 37 64 43 65
REMARK SMILES IDX 45 66 38 67 39 68 40 69 41 70 42 71 68 72 69 73 78 74 70 75
REMARK SMILES IDX 71 76 77 77 79 78 72 79 73 80 74 81 75 82 76 83 52 84 53 85
REMARK SMILES IDX 62 86 54 87 55 88 61 89 63 90 56 91 57 92 58 93 59 94 60 95
REMARK H PARENT 3 20 84 45 50 56
REMARK Flexibility Score: inf
ROOT
ATOM      1  C   UNL A   1      38.217  23.020  25.808  1.00  0.00     0.275 C 
ENDROOT
BRANCH   1   2
ATOM      2  O   UNL A   1      37.746  22.195  24.725  1.00  0.00    -0.458 OA
BRANCH   2   3
ATOM      3  C   UNL A   1      36.697  22.662  23.998  1.00  0.00     0.339 C 
ATOM      4  O   UNL A   1      36.747  23.012  22.834  1.00  0.00    -0.246 OA
BRANCH   3   5
ATOM      5  C   UNL A   1      35.469  22.644  24.845  1.00  0.00     0.079 A 
ATOM      6  C   UNL A   1      33.697  23.922  25.971  1.00  0.00    -0.017 A 
ATOM      7  C   UNL A   1      33.226  22.733  26.540  1.00  0.00     0.010 A 
ATOM      8  C   UNL A   1      34.853  23.865  25.174  1.00  0.00     0.026 A 
ATOM      9  C   UNL A   1      33.818  21.511  26.212  1.00  0.00     0.022 A 
ATOM     10  C   UNL A   1      34.900  21.457  25.325  1.00  0.00     0.055 A 
ATOM     11  Cl  UNL A   1      35.466  19.877  24.909  1.00  0.00    -0.083 Cl
BRANCH   6  12
ATOM     12  C   UNL A   1      32.907  25.158  26.044  1.00  0.00    -0.018 A 
ATOM     13  C   UNL A   1      32.882  27.584  25.773  1.00  0.00     0.040 A 
ATOM     14  C   UNL A   1      31.495  27.594  25.917  1.00  0.00     0.014 A 
ATOM     15  C   UNL A   1      33.579  26.382  25.893  1.00  0.00     0.022 A 
ATOM     16  C   UNL A   1      30.811  26.392  26.115  1.00  0.00     0.001 A 
ATOM     17  C   UNL A   1      31.511  25.179  26.161  1.00  0.00     0.009 A 
BRANCH  13  18
ATOM     18  C   UNL A   1      33.611  28.849  25.536  1.00  0.00     0.251 C 
ATOM     19  N   UNL A   1      33.742  29.357  24.266  1.00  0.00    -0.352 N 
ATOM     20  H   UNL A   1      34.382  30.100  24.182  1.00  0.00     0.163 HD
ATOM     21  O   UNL A   1      34.106  29.449  26.488  1.00  0.00    -0.269 OA
BRANCH  19  22
ATOM     22  C   UNL A   1      33.086  28.973  23.023  1.00  0.00     0.112 C 
ATOM     23  C   UNL A   1      33.794  27.798  22.375  1.00  0.00     0.027 C 
ENDBRANCH  19  22
ENDBRANCH  13  18
ENDBRANCH   6  12
ENDBRANCH   3   5
ENDBRANCH   2   3
ENDBRANCH   1   2
BRANCH   1  24
ATOM     24  C   UNL A   1      39.539  22.469  26.349  1.00  0.00     0.275 C 
BRANCH  24  25
ATOM     25  O   UNL A   1      40.004  23.253  27.465  1.00  0.00    -0.458 OA
BRANCH  25  26
ATOM     26  C   UNL A   1      40.804  24.297  27.138  1.00  0.00     0.338 C 
ATOM     27  O   UNL A   1      41.501  24.409  26.143  1.00  0.00    -0.246 OA
BRANCH  26  28
ATOM     28  C   UNL A   1      40.572  25.406  28.079  1.00  0.00     0.060 A 
ATOM     29  C   UNL A   1      41.650  26.254  28.326  1.00  0.00     0.016 A 
ATOM     30  C   UNL A   1      39.366  25.590  28.753  1.00  0.00     0.016 A 
ATOM     31  C   UNL A   1      41.534  27.309  29.224  1.00  0.00     0.010 A 
ATOM     32  C   UNL A   1      39.251  26.643  29.673  1.00  0.00     0.010 A 
ATOM     33  C   UNL A   1      40.335  27.509  29.914  1.00  0.00    -0.014 A 
BRANCH  33  34
ATOM     34  C   UNL A   1      40.267  28.573  30.949  1.00  0.00     0.031 A 
ATOM     35  C   UNL A   1      41.202  28.524  32.124  1.00  0.00     0.074 A 
ATOM     36  C   UNL A   1      39.423  29.613  30.802  1.00  0.00     0.049 A 
ATOM     37  N   UNL A   1      41.263  29.310  33.168  1.00  0.00    -0.248 NA
ATOM     38  C   UNL A   1      42.209  27.450  32.117  1.00  0.00     0.031 C 
ATOM     39  C   UNL A   1      38.526  29.819  29.666  1.00  0.00     0.029 A 
ATOM     40  N   UNL A   1      39.187  30.695  31.614  1.00  0.00    -0.354 N 
ATOM     41  C   UNL A   1      42.295  28.815  33.955  1.00  0.00     0.074 A 
ATOM     42  C   UNL A   1      42.827  27.653  33.273  1.00  0.00     0.031 C 
ATOM     43  C   UNL A   1      37.837  30.957  29.852  1.00  0.00     0.029 A 
ATOM     44  C   UNL A   1      38.204  31.534  31.144  1.00  0.00     0.049 A 
ATOM     45  H   UNL A   1      39.676  30.856  32.454  1.00  0.00     0.167 HD
ATOM     46  C   UNL A   1      42.759  29.288  35.137  1.00  0.00     0.037 A 
ATOM     47  C   UNL A   1      37.640  32.622  31.705  1.00  0.00     0.037 A 
ATOM     48  C   UNL A   1      42.236  30.453  35.802  1.00  0.00     0.049 A 
ATOM     49  C   UNL A   1      38.115  33.081  33.059  1.00  0.00     0.074 A 
ATOM     50  C   UNL A   1      42.631  31.006  37.007  1.00  0.00     0.029 A 
ATOM     51  N   UNL A   1      41.204  31.245  35.320  1.00  0.00    -0.354 N 
ATOM     52  N   UNL A   1      39.071  32.585  33.810  1.00  0.00    -0.248 NA
ATOM     53  C   UNL A   1      37.431  34.241  33.648  1.00  0.00     0.031 C 
ATOM     54  C   UNL A   1      41.809  32.106  37.276  1.00  0.00     0.029 A 
ATOM     55  C   UNL A   1      40.936  32.270  36.214  1.00  0.00     0.049 A 
ATOM     56  H   UNL A   1      40.731  31.101  34.468  1.00  0.00     0.167 HD
ATOM     57  C   UNL A   1      39.118  33.386  34.946  1.00  0.00     0.074 A 
ATOM     58  C   UNL A   1      38.103  34.405  34.779  1.00  0.00     0.031 C 
ATOM     59  C   UNL A   1      39.927  33.285  36.030  1.00  0.00     0.037 A 
BRANCH  46  60
ATOM     60  C   UNL A   1      43.863  28.518  35.807  1.00  0.00     0.058 A 
ATOM     61  C   UNL A   1      45.217  28.802  35.572  1.00  0.00     0.135 A 
ATOM     62  C   UNL A   1      43.558  27.495  36.720  1.00  0.00     0.135 A 
ATOM     63  F   UNL A   1      45.566  29.758  34.695  1.00  0.00    -0.206 F 
ATOM     64  C   UNL A   1      46.230  28.080  36.196  1.00  0.00     0.059 A 
ATOM     65  C   UNL A   1      44.554  26.778  37.375  1.00  0.00     0.059 A 
ATOM     66  F   UNL A   1      42.279  27.181  36.981  1.00  0.00    -0.206 F 
ATOM     67  C   UNL A   1      45.889  27.068  37.094  1.00  0.00     0.060 A 
BRANCH  67  68
ATOM     68  S   UNL A   1      47.213  26.135  37.892  1.00  0.00     0.124 S 
ATOM     69  O   UNL A   1      46.507  24.925  38.304  1.00  0.00    -0.237 OA
ATOM     70  O   UNL A   1      48.174  25.967  36.806  1.00  0.00    -0.237 OA
ATOM     71  O   UNL A   1      47.643  27.011  38.976  1.00  0.00    -0.744 OA
ENDBRANCH  67  68
ENDBRANCH  46  60
BRANCH  47  72
ATOM     72  C   UNL A   1      36.535  33.334  31.007  1.00  0.00     0.058 A 
ATOM     73  C   UNL A   1      35.209  33.239  31.454  1.00  0.00     0.135 A 
ATOM     74  C   UNL A   1      36.785  34.119  29.870  1.00  0.00     0.135 A 
ATOM     75  F   UNL A   1      34.916  32.489  32.528  1.00  0.00    -0.206 F 
ATOM     76  C   UNL A   1      34.168  33.884  30.792  1.00  0.00     0.059 A 
ATOM     77  C   UNL A   1      35.765  34.796  29.207  1.00  0.00     0.059 A 
ATOM     78  F   UNL A   1      38.037  34.247  29.401  1.00  0.00    -0.206 F 
ATOM     79  C   UNL A   1      34.457  34.663  29.669  1.00  0.00     0.060 A 
BRANCH  79  80
ATOM     80  S   UNL A   1      33.106  35.528  28.840  1.00  0.00     0.124 S 
ATOM     81  O   UNL A   1      32.318  35.996  29.974  1.00  0.00    -0.237 OA
ATOM     82  O   UNL A   1      33.817  36.558  28.087  1.00  0.00    -0.237 OA
ATOM     83  O   UNL A   1      32.488  34.484  28.029  1.00  0.00    -0.744 OA
ENDBRANCH  79  80
ENDBRANCH  47  72
BRANCH  59  84
ATOM     84  C   UNL A   1      39.779  34.326  37.107  1.00  0.00     0.058 A 
ATOM     85  C   UNL A   1      38.979  34.110  38.239  1.00  0.00     0.135 A 
ATOM     86  C   UNL A   1      40.491  35.534  37.028  1.00  0.00     0.135 A 
ATOM     87  F   UNL A   1      38.273  32.975  38.361  1.00  0.00    -0.206 F 
ATOM     88  C   UNL A   1      38.874  35.064  39.247  1.00  0.00     0.059 A 
ATOM     89  C   UNL A   1      40.422  36.491  38.037  1.00  0.00     0.059 A 
ATOM     90  F   UNL A   1      41.279  35.788  35.970  1.00  0.00    -0.206 F 
ATOM     91  C   UNL A   1      39.602  36.250  39.138  1.00  0.00     0.060 A 
BRANCH  91  92
ATOM     92  S   UNL A   1      39.486  37.464  40.470  1.00  0.00     0.124 S 
ATOM     93  O   UNL A   1      38.868  36.677  41.532  1.00  0.00    -0.237 OA
ATOM     94  O   UNL A   1      40.883  37.830  40.683  1.00  0.00    -0.237 OA
ATOM     95  O   UNL A   1      38.650  38.516  39.899  1.00  0.00    -0.744 OA
ENDBRANCH  91  92
ENDBRANCH  59  84
ENDBRANCH  33  34
ENDBRANCH  26  28
ENDBRANCH  25  26
ENDBRANCH  24  25
ENDBRANCH   1  24
TORSDOF 17
ENDMDL
MODEL 2
REMARK VINA RESULT:     -11.7      0.688      1.819
REMARK SMILES CCNC(=O)c1cccc(-c2ccc(Cl)c(C(=O)OCCOC(=O)c3ccc(-c4c5nc(c(-c6c(F)cc(S(=O)(=O)[O-])cc6F)c6ccc([nH]6)c(-c6c(F)cc(S(=O)(=O)[O-])cc6F)c6nc(c(-c7c(F)cc(S(=O)(=O)[O-])cc7F)c7ccc4[nH]7)C=C6)C=C5)cc3)c2)c1
REMARK SMILES IDX 20 1 19 2 17 3 18 4 16 5 11 6 12 7 91 8 13 9 14 10 15 11
REMARK SMILES IDX 10 12 6 13 7 14 92 15 8 16 9 17 4 18 3 19 5 21 2 22 1 23
REMARK SMILES IDX 21 24 22 25 23 26 24 27 25 28 26 29 90 30 27 31 89 32 28 33
REMARK SMILES IDX 29 34 30 35 83 36 31 37 88 38 82 39 84 40 32 41 87 42 81 43
REMARK SMILES IDX 80 44 33 46 67 47 46 48 66 49 47 50 50 51 65 52 85 53 48 54
REMARK SMILES IDX 49 55 64 57 86 58 51 59 34 60 35 61 44 62 36 63 37 64 43 65
REMARK SMILES IDX 45 66 38 67 39 68 40 69 41 70 42 71 68 72 69 73 78 74 70 75
REMARK SMILES IDX 71 76 77 77 79 78 72 79 73 80 74 81 75 82 76 83 52 84 53 85
REMARK SMILES IDX 62 86 54 87 55 88 61 89 63 90 56 91 57 92 58 93 59 94 60 95
REMARK H PARENT 3 20 84 45 50 56
REMARK Flexibility Score: inf
ROOT
ATOM      1  C   UNL A   1      38.625  21.980  25.760  1.00  0.00     0.275 C 
ENDROOT
BRANCH   1   2
ATOM      2  O   UNL A   1      37.716  23.051  25.441  1.00  0.00    -0.458 OA
BRANCH   2   3
ATOM      3  C   UNL A   1      36.777  22.808  24.489  1.00  0.00     0.339 C 
ATOM      4  O   UNL A   1      37.005  22.611  23.310  1.00  0.00    -0.246 OA
BRANCH   3   5
ATOM      5  C   UNL A   1      35.429  22.787  25.126  1.00  0.00     0.079 A 
ATOM      6  C   UNL A   1      33.533  24.065  26.029  1.00  0.00    -0.017 A 
ATOM      7  C   UNL A   1      32.944  22.864  26.443  1.00  0.00     0.010 A 
ATOM      8  C   UNL A   1      34.800  24.010  25.424  1.00  0.00     0.026 A 
ATOM      9  C   UNL A   1      33.548  21.641  26.141  1.00  0.00     0.022 A 
ATOM     10  C   UNL A   1      34.758  21.597  25.437  1.00  0.00     0.055 A 
ATOM     11  Cl  UNL A   1      35.341  20.023  25.024  1.00  0.00    -0.083 Cl
BRANCH   6  12
ATOM     12  C   UNL A   1      32.774  25.323  26.048  1.00  0.00    -0.018 A 
ATOM     13  C   UNL A   1      32.737  27.694  25.468  1.00  0.00     0.040 A 
ATOM     14  C   UNL A   1      31.385  27.762  25.800  1.00  0.00     0.014 A 
ATOM     15  C   UNL A   1      33.431  26.497  25.647  1.00  0.00     0.022 A 
ATOM     16  C   UNL A   1      30.722  26.616  26.246  1.00  0.00     0.001 A 
ATOM     17  C   UNL A   1      31.408  25.399  26.352  1.00  0.00     0.009 A 
BRANCH  13  18
ATOM     18  C   UNL A   1      33.440  28.896  24.970  1.00  0.00     0.251 C 
ATOM     19  N   UNL A   1      33.800  29.906  25.830  1.00  0.00    -0.352 N 
ATOM     20  H   UNL A   1      34.104  30.733  25.391  1.00  0.00     0.163 HD
ATOM     21  O   UNL A   1      33.701  28.991  23.773  1.00  0.00    -0.269 OA
BRANCH  19  22
ATOM     22  C   UNL A   1      33.806  29.949  27.286  1.00  0.00     0.112 C 
ATOM     23  C   UNL A   1      35.205  30.199  27.816  1.00  0.00     0.027 C 
ENDBRANCH  19  22
ENDBRANCH  13  18
ENDBRANCH   6  12
ENDBRANCH   3   5
ENDBRANCH   2   3
ENDBRANCH   1   2
BRANCH   1  24
ATOM     24  C   UNL A   1      39.786  22.513  26.604  1.00  0.00     0.275 C 
BRANCH  24  25
ATOM     25  O   UNL A   1      39.744  23.951  26.688  1.00  0.00    -0.458 OA
BRANCH  25  26
ATOM     26  C   UNL A   1      40.955  24.558  26.718  1.00  0.00     0.338 C 
ATOM     27  O   UNL A   1      41.850  24.460  25.895  1.00  0.00    -0.246 OA
BRANCH  26  28
ATOM     28  C   UNL A   1      40.985  25.539  27.816  1.00  0.00     0.060 A 
ATOM     29  C   UNL A   1      39.818  25.677  28.565  1.00  0.00     0.016 A 
ATOM     30  C   UNL A   1      42.087  26.350  28.079  1.00  0.00     0.016 A 
ATOM     31  C   UNL A   1      39.743  26.601  29.601  1.00  0.00     0.010 A 
ATOM     32  C   UNL A   1      42.009  27.297  29.111  1.00  0.00     0.010 A 
ATOM     33  C   UNL A   1      40.835  27.428  29.879  1.00  0.00    -0.014 A 
BRANCH  33  34
ATOM     34  C   UNL A   1      40.696  28.483  30.916  1.00  0.00     0.031 A 
ATOM     35  C   UNL A   1      41.605  28.468  32.113  1.00  0.00     0.074 A 
ATOM     36  C   UNL A   1      39.811  29.485  30.754  1.00  0.00     0.049 A 
ATOM     37  N   UNL A   1      41.606  29.250  33.162  1.00  0.00    -0.248 NA
ATOM     38  C   UNL A   1      42.657  27.440  32.126  1.00  0.00     0.031 C 
ATOM     39  C   UNL A   1      38.933  29.658  29.597  1.00  0.00     0.029 A 
ATOM     40  N   UNL A   1      39.508  30.552  31.565  1.00  0.00    -0.354 N 
ATOM     41  C   UNL A   1      42.640  28.796  33.971  1.00  0.00     0.074 A 
ATOM     42  C   UNL A   1      43.238  27.663  33.297  1.00  0.00     0.031 C 
ATOM     43  C   UNL A   1      38.190  30.764  29.772  1.00  0.00     0.029 A 
ATOM     44  C   UNL A   1      38.501  31.349  31.075  1.00  0.00     0.049 A 
ATOM     45  H   UNL A   1      39.969  30.729  32.417  1.00  0.00     0.167 HD
ATOM     46  C   UNL A   1      43.054  29.283  35.166  1.00  0.00     0.037 A 
ATOM     47  C   UNL A   1      37.876  32.408  31.627  1.00  0.00     0.037 A 
ATOM     48  C   UNL A   1      42.464  30.420  35.824  1.00  0.00     0.049 A 
ATOM     49  C   UNL A   1      38.298  32.879  32.994  1.00  0.00     0.074 A 
ATOM     50  C   UNL A   1      42.806  30.983  37.041  1.00  0.00     0.029 A 
ATOM     51  N   UNL A   1      41.410  31.169  35.321  1.00  0.00    -0.354 N 
ATOM     52  N   UNL A   1      39.256  32.422  33.766  1.00  0.00    -0.248 NA
ATOM     53  C   UNL A   1      37.550  34.005  33.572  1.00  0.00     0.031 C 
ATOM     54  C   UNL A   1      41.930  32.044  37.294  1.00  0.00     0.029 A 
ATOM     55  C   UNL A   1      41.076  32.176  36.212  1.00  0.00     0.049 A 
ATOM     56  H   UNL A   1      40.964  31.008  34.457  1.00  0.00     0.167 HD
ATOM     57  C   UNL A   1      39.241  33.218  34.906  1.00  0.00     0.074 A 
ATOM     58  C   UNL A   1      38.186  34.193  34.720  1.00  0.00     0.031 C 
ATOM     59  C   UNL A   1      40.028  33.147  36.009  1.00  0.00     0.037 A 
BRANCH  46  60
ATOM     60  C   UNL A   1      44.175  28.559  35.859  1.00  0.00     0.058 A 
ATOM     61  C   UNL A   1      43.940  27.482  36.728  1.00  0.00     0.135 A 
ATOM     62  C   UNL A   1      45.508  28.935  35.630  1.00  0.00     0.135 A 
ATOM     63  F   UNL A   1      42.682  27.092  36.998  1.00  0.00    -0.206 F 
ATOM     64  C   UNL A   1      44.985  26.821  37.366  1.00  0.00     0.059 A 
ATOM     65  C   UNL A   1      46.570  28.272  36.236  1.00  0.00     0.059 A 
ATOM     66  F   UNL A   1      45.789  29.959  34.809  1.00  0.00    -0.206 F 
ATOM     67  C   UNL A   1      46.297  27.226  37.117  1.00  0.00     0.060 A 
BRANCH  67  68
ATOM     68  S   UNL A   1      47.643  26.365  37.957  1.00  0.00     0.124 S 
ATOM     69  O   UNL A   1      48.641  27.425  38.069  1.00  0.00    -0.237 OA
ATOM     70  O   UNL A   1      47.016  25.952  39.208  1.00  0.00    -0.237 OA
ATOM     71  O   UNL A   1      47.979  25.280  37.041  1.00  0.00    -0.744 OA
ENDBRANCH  67  68
ENDBRANCH  46  60
BRANCH  47  72
ATOM     72  C   UNL A   1      36.757  33.075  30.906  1.00  0.00     0.058 A 
ATOM     73  C   UNL A   1      37.000  34.002  29.882  1.00  0.00     0.135 A 
ATOM     74  C   UNL A   1      35.420  32.801  31.234  1.00  0.00     0.135 A 
ATOM     75  F   UNL A   1      38.261  34.309  29.541  1.00  0.00    -0.206 F 
ATOM     76  C   UNL A   1      35.959  34.646  29.219  1.00  0.00     0.059 A 
ATOM     77  C   UNL A   1      34.362  33.410  30.567  1.00  0.00     0.059 A 
ATOM     78  F   UNL A   1      35.131  31.918  32.203  1.00  0.00    -0.206 F 
ATOM     79  C   UNL A   1      34.641  34.341  29.567  1.00  0.00     0.060 A 
BRANCH  79  80
ATOM     80  S   UNL A   1      33.297  35.151  28.675  1.00  0.00     0.124 S 
ATOM     81  O   UNL A   1      32.697  34.027  27.965  1.00  0.00    -0.237 OA
ATOM     82  O   UNL A   1      32.503  35.717  29.762  1.00  0.00    -0.237 OA
ATOM     83  O   UNL A   1      33.990  36.127  27.841  1.00  0.00    -0.744 OA
ENDBRANCH  79  80
ENDBRANCH  47  72
BRANCH  59  84
ATOM     84  C   UNL A   1      39.808  34.174  37.086  1.00  0.00     0.058 A 
ATOM     85  C   UNL A   1      38.942  33.941  38.165  1.00  0.00     0.135 A 
ATOM     86  C   UNL A   1      40.518  35.386  37.066  1.00  0.00     0.135 A 
ATOM     87  F   UNL A   1      38.235  32.802  38.230  1.00  0.00    -0.206 F 
ATOM     88  C   UNL A   1      38.770  34.882  39.176  1.00  0.00     0.059 A 
ATOM     89  C   UNL A   1      40.382  36.330  38.080  1.00  0.00     0.059 A 
ATOM     90  F   UNL A   1      41.368  35.655  36.062  1.00  0.00    -0.206 F 
ATOM     91  C   UNL A   1      39.497  36.073  39.125  1.00  0.00     0.060 A 
BRANCH  91  92
ATOM     92  S   UNL A   1      39.293  37.271  40.462  1.00  0.00     0.124 S 
ATOM     93  O   UNL A   1      40.620  37.875  40.519  1.00  0.00    -0.237 OA
ATOM     94  O   UNL A   1      38.227  38.128  39.954  1.00  0.00    -0.237 OA
ATOM     95  O   UNL A   1      38.930  36.442  41.608  1.00  0.00    -0.744 OA
ENDBRANCH  91  92
ENDBRANCH  59  84
ENDBRANCH  33  34
ENDBRANCH  26  28
ENDBRANCH  25  26
ENDBRANCH  24  25
ENDBRANCH   1  24
TORSDOF 17
ENDMDL
MODEL 3
REMARK VINA RESULT:     -11.6      6.940     12.243
REMARK SMILES CCNC(=O)c1cccc(-c2ccc(Cl)c(C(=O)OCCOC(=O)c3ccc(-c4c5nc(c(-c6c(F)cc(S(=O)(=O)[O-])cc6F)c6ccc([nH]6)c(-c6c(F)cc(S(=O)(=O)[O-])cc6F)c6nc(c(-c7c(F)cc(S(=O)(=O)[O-])cc7F)c7ccc4[nH]7)C=C6)C=C5)cc3)c2)c1
REMARK SMILES IDX 20 1 19 2 17 3 18 4 16 5 11 6 12 7 91 8 13 9 14 10 15 11
REMARK SMILES IDX 10 12 6 13 7 14 92 15 8 16 9 17 4 18 3 19 5 21 2 22 1 23
REMARK SMILES IDX 21 24 22 25 23 26 24 27 25 28 26 29 90 30 27 31 89 32 28 33
REMARK SMILES IDX 29 34 30 35 83 36 31 37 88 38 82 39 84 40 32 41 87 42 81 43
REMARK SMILES IDX 80 44 33 46 67 47 46 48 66 49 47 50 50 51 65 52 85 53 48 54
REMARK SMILES IDX 49 55 64 57 86 58 51 59 34 60 35 61 44 62 36 63 37 64 43 65
REMARK SMILES IDX 45 66 38 67 39 68 40 69 41 70 42 71 68 72 69 73 78 74 70 75
REMARK SMILES IDX 71 76 77 77 79 78 72 79 73 80 74 81 75 82 76 83 52 84 53 85
REMARK SMILES IDX 62 86 54 87 55 88 61 89 63 90 56 91 57 92 58 93 59 94 60 95
REMARK H PARENT 3 20 84 45 50 56
REMARK Flexibility Score: inf
ROOT
ATOM      1  C   UNL A   1      33.442  28.841  27.036  1.00  0.00     0.275 C 
ENDROOT
BRANCH   1   2
ATOM      2  O   UNL A   1      33.649  28.456  25.664  1.00  0.00    -0.458 OA
BRANCH   2   3
ATOM      3  C   UNL A   1      32.550  28.366  24.869  1.00  0.00     0.339 C 
ATOM      4  O   UNL A   1      31.611  29.140  24.876  1.00  0.00    -0.246 OA
BRANCH   3   5
ATOM      5  C   UNL A   1      32.695  27.188  23.966  1.00  0.00     0.079 A 
ATOM      6  C   UNL A   1      33.829  25.060  23.485  1.00  0.00    -0.017 A 
ATOM      7  C   UNL A   1      33.141  24.990  22.268  1.00  0.00     0.010 A 
ATOM      8  C   UNL A   1      33.636  26.195  24.293  1.00  0.00     0.026 A 
ATOM      9  C   UNL A   1      32.192  25.961  21.936  1.00  0.00     0.022 A 
ATOM     10  C   UNL A   1      31.928  27.026  22.805  1.00  0.00     0.055 A 
ATOM     11  Cl  UNL A   1      30.651  28.094  22.335  1.00  0.00    -0.083 Cl
BRANCH   6  12
ATOM     12  C   UNL A   1      34.579  23.905  23.995  1.00  0.00    -0.018 A 
ATOM     13  C   UNL A   1      34.558  21.927  25.425  1.00  0.00     0.040 A 
ATOM     14  C   UNL A   1      35.786  21.525  24.901  1.00  0.00     0.014 A 
ATOM     15  C   UNL A   1      33.995  23.134  25.013  1.00  0.00     0.022 A 
ATOM     16  C   UNL A   1      36.408  22.302  23.921  1.00  0.00     0.001 A 
ATOM     17  C   UNL A   1      35.800  23.476  23.457  1.00  0.00     0.009 A 
BRANCH  13  18
ATOM     18  C   UNL A   1      33.880  21.097  26.444  1.00  0.00     0.251 C 
ATOM     19  N   UNL A   1      33.066  20.054  26.071  1.00  0.00    -0.352 N 
ATOM     20  H   UNL A   1      32.526  19.671  26.800  1.00  0.00     0.163 HD
ATOM     21  O   UNL A   1      34.046  21.346  27.635  1.00  0.00    -0.269 OA
BRANCH  19  22
ATOM     22  C   UNL A   1      32.874  19.423  24.772  1.00  0.00     0.112 C 
ATOM     23  C   UNL A   1      33.683  18.144  24.665  1.00  0.00     0.027 C 
ENDBRANCH  19  22
ENDBRANCH  13  18
ENDBRANCH   6  12
ENDBRANCH   3   5
ENDBRANCH   2   3
ENDBRANCH   1   2
BRANCH   1  24
ATOM     24  C   UNL A   1      34.479  29.888  27.449  1.00  0.00     0.275 C 
BRANCH  24  25
ATOM     25  O   UNL A   1      35.421  29.337  28.390  1.00  0.00    -0.458 OA
BRANCH  25  26
ATOM     26  C   UNL A   1      36.136  30.252  29.087  1.00  0.00     0.338 C 
ATOM     27  O   UNL A   1      35.704  31.098  29.852  1.00  0.00    -0.246 OA
BRANCH  26  28
ATOM     28  C   UNL A   1      37.573  29.963  28.946  1.00  0.00     0.060 A 
ATOM     29  C   UNL A   1      38.043  29.732  27.654  1.00  0.00     0.016 A 
ATOM     30  C   UNL A   1      38.437  29.856  30.035  1.00  0.00     0.016 A 
ATOM     31  C   UNL A   1      39.379  29.421  27.428  1.00  0.00     0.010 A 
ATOM     32  C   UNL A   1      39.781  29.523  29.812  1.00  0.00     0.010 A 
ATOM     33  C   UNL A   1      40.260  29.303  28.506  1.00  0.00    -0.014 A 
BRANCH  33  34
ATOM     34  C   UNL A   1      41.656  28.861  28.252  1.00  0.00     0.031 A 
ATOM     35  C   UNL A   1      42.774  29.863  28.329  1.00  0.00     0.074 A 
ATOM     36  C   UNL A   1      41.929  27.563  28.022  1.00  0.00     0.049 A 
ATOM     37  N   UNL A   1      44.048  29.703  28.076  1.00  0.00    -0.248 NA
ATOM     38  C   UNL A   1      42.409  31.223  28.755  1.00  0.00     0.031 C 
ATOM     39  C   UNL A   1      40.943  26.482  28.006  1.00  0.00     0.029 A 
ATOM     40  N   UNL A   1      43.120  26.931  27.763  1.00  0.00    -0.354 N 
ATOM     41  C   UNL A   1      44.634  30.944  28.288  1.00  0.00     0.074 A 
ATOM     42  C   UNL A   1      43.575  31.851  28.680  1.00  0.00     0.031 C 
ATOM     43  C   UNL A   1      41.569  25.322  27.751  1.00  0.00     0.029 A 
ATOM     44  C   UNL A   1      42.990  25.581  27.533  1.00  0.00     0.049 A 
ATOM     45  H   UNL A   1      43.986  27.400  27.744  1.00  0.00     0.167 HD
ATOM     46  C   UNL A   1      45.938  31.295  28.170  1.00  0.00     0.037 A 
ATOM     47  C   UNL A   1      43.906  24.666  27.156  1.00  0.00     0.037 A 
ATOM     48  C   UNL A   1      46.988  30.385  27.794  1.00  0.00     0.049 A 
ATOM     49  C   UNL A   1      45.334  25.097  26.949  1.00  0.00     0.074 A 
ATOM     50  C   UNL A   1      48.338  30.646  27.637  1.00  0.00     0.029 A 
ATOM     51  N   UNL A   1      46.809  29.037  27.517  1.00  0.00    -0.354 N 
ATOM     52  N   UNL A   1      45.872  26.282  27.121  1.00  0.00    -0.248 NA
ATOM     53  C   UNL A   1      46.280  24.071  26.488  1.00  0.00     0.031 C 
ATOM     54  C   UNL A   1      48.967  29.467  27.221  1.00  0.00     0.029 A 
ATOM     55  C   UNL A   1      48.020  28.459  27.170  1.00  0.00     0.049 A 
ATOM     56  H   UNL A   1      45.948  28.561  27.560  1.00  0.00     0.167 HD
ATOM     57  C   UNL A   1      47.220  26.137  26.813  1.00  0.00     0.074 A 
ATOM     58  C   UNL A   1      47.419  24.748  26.455  1.00  0.00     0.031 C 
ATOM     59  C   UNL A   1      48.205  27.070  26.825  1.00  0.00     0.037 A 
BRANCH  46  60
ATOM     60  C   UNL A   1      46.293  32.736  28.409  1.00  0.00     0.058 A 
ATOM     61  C   UNL A   1      46.253  33.693  27.383  1.00  0.00     0.135 A 
ATOM     62  C   UNL A   1      46.657  33.171  29.695  1.00  0.00     0.135 A 
ATOM     63  F   UNL A   1      45.929  33.328  26.131  1.00  0.00    -0.206 F 
ATOM     64  C   UNL A   1      46.587  35.023  27.616  1.00  0.00     0.059 A 
ATOM     65  C   UNL A   1      46.969  34.501  29.956  1.00  0.00     0.059 A 
ATOM     66  F   UNL A   1      46.713  32.297  30.712  1.00  0.00    -0.206 F 
ATOM     67  C   UNL A   1      46.947  35.417  28.906  1.00  0.00     0.060 A 
BRANCH  67  68
ATOM     68  S   UNL A   1      47.385  37.145  29.192  1.00  0.00     0.124 S 
ATOM     69  O   UNL A   1      46.708  37.804  28.080  1.00  0.00    -0.237 OA
ATOM     70  O   UNL A   1      46.820  37.395  30.514  1.00  0.00    -0.237 OA
ATOM     71  O   UNL A   1      48.843  37.143  29.127  1.00  0.00    -0.744 OA
ENDBRANCH  67  68
ENDBRANCH  46  60
BRANCH  47  72
ATOM     72  C   UNL A   1      43.494  23.256  26.911  1.00  0.00     0.058 A 
ATOM     73  C   UNL A   1      43.174  22.397  27.971  1.00  0.00     0.135 A 
ATOM     74  C   UNL A   1      43.422  22.740  25.608  1.00  0.00     0.135 A 
ATOM     75  F   UNL A   1      43.242  22.838  29.237  1.00  0.00    -0.206 F 
ATOM     76  C   UNL A   1      42.811  21.071  27.751  1.00  0.00     0.059 A 
ATOM     77  C   UNL A   1      43.035  21.426  25.360  1.00  0.00     0.059 A 
ATOM     78  F   UNL A   1      43.715  23.521  24.556  1.00  0.00    -0.206 F 
ATOM     79  C   UNL A   1      42.742  20.595  26.439  1.00  0.00     0.060 A 
BRANCH  79  80
ATOM     80  S   UNL A   1      42.231  18.886  26.160  1.00  0.00     0.124 S 
ATOM     81  O   UNL A   1      40.817  19.049  25.848  1.00  0.00    -0.237 OA
ATOM     82  O   UNL A   1      43.090  18.486  25.049  1.00  0.00    -0.237 OA
ATOM     83  O   UNL A   1      42.526  18.236  27.434  1.00  0.00    -0.744 OA
ENDBRANCH  79  80
ENDBRANCH  47  72
BRANCH  59  84
ATOM     84  C   UNL A   1      49.597  26.616  26.477  1.00  0.00     0.058 A 
ATOM     85  C   UNL A   1      50.431  25.997  27.420  1.00  0.00     0.135 A 
ATOM     86  C   UNL A   1      50.080  26.755  25.165  1.00  0.00     0.135 A 
ATOM     87  F   UNL A   1      50.020  25.845  28.689  1.00  0.00    -0.206 F 
ATOM     88  C   UNL A   1      51.704  25.549  27.081  1.00  0.00     0.059 A 
ATOM     89  C   UNL A   1      51.340  26.290  24.798  1.00  0.00     0.059 A 
ATOM     90  F   UNL A   1      49.320  27.331  24.221  1.00  0.00    -0.206 F 
ATOM     91  C   UNL A   1      52.148  25.698  25.766  1.00  0.00     0.060 A 
BRANCH  91  92
ATOM     92  S   UNL A   1      53.788  25.079  25.330  1.00  0.00     0.124 S 
ATOM     93  O   UNL A   1      53.967  25.638  23.993  1.00  0.00    -0.237 OA
ATOM     94  O   UNL A   1      54.628  25.653  26.375  1.00  0.00    -0.237 OA
ATOM     95  O   UNL A   1      53.630  23.628  25.388  1.00  0.00    -0.744 OA
ENDBRANCH  91  92
ENDBRANCH  59  84
ENDBRANCH  33  34
ENDBRANCH  26  28
ENDBRANCH  25  26
ENDBRANCH  24  25
ENDBRANCH   1  24
TORSDOF 17
ENDMDL
