MODEL 1
REMARK VINA RESULT:     -12.7      0.000      0.000
REMARK SMILES O=C(C[C@H]1C[C@H]2CC[C@@H](C1)N2C(=O)NCCC1CC1)OCCOC(=O)c1ccc(-c2c3nc(c(-c4c(F)cc(S(=O)(=O)[O-])cc4F)c4ccc([nH]4)c(-c4c(F)cc(S(=O)(=O)[O-])cc4F)c4nc(c(-c5c(F)cc(S(=O)(=O)[O-])cc5F)c5ccc2[nH]5)C=C4)C=C3)cc1
REMARK SMILES IDX 21 1 20 2 2 3 1 4 3 5 4 6 5 7 10 8 6 9 9 10 7 11 11 12 8 13
REMARK SMILES IDX 12 14 13 15 14 16 15 18 16 19 17 20 18 21 19 22 22 23 23 24
REMARK SMILES IDX 24 25 25 26 26 27 27 28 91 29 28 30 90 31 29 32 30 33 31 34
REMARK SMILES IDX 84 35 32 36 89 37 83 38 85 39 33 40 88 41 82 42 81 43 34 45
REMARK SMILES IDX 68 46 47 47 67 48 48 49 51 50 66 51 86 52 49 53 50 54 65 56
REMARK SMILES IDX 87 57 52 58 35 59 36 60 45 61 37 62 38 63 44 64 46 65 39 66
REMARK SMILES IDX 40 67 41 68 42 69 43 70 69 71 70 72 79 73 71 74 72 75 78 76
REMARK SMILES IDX 80 77 73 78 74 79 75 80 76 81 77 82 53 83 54 84 63 85 55 86
REMARK SMILES IDX 56 87 62 88 64 89 57 90 58 91 59 92 60 93 61 94
REMARK H PARENT 14 17 85 44 51 55
REMARK Flexibility Score: inf
ROOT
ATOM      1  C   UNL A   1      34.510  29.323  27.055  1.00  0.00     0.274 C 
ENDROOT
BRANCH   1   2
ATOM      2  O   UNL A   1      33.040  28.546  26.642  1.00  0.00    -0.462 OA
BRANCH   2   3
ATOM      3  C   UNL A   1      32.335  27.339  26.506  1.00  0.00     0.306 C 
ATOM      4  O   UNL A   1      31.350  27.200  27.246  1.00  0.00    -0.252 OA
BRANCH   3   5
ATOM      5  C   UNL A   1      32.660  26.005  25.519  1.00  0.00     0.126 C 
BRANCH   5   6
ATOM      6  C   UNL A   1      34.054  25.253  25.203  1.00  0.00     0.004 C 
ATOM      7  C   UNL A   1      33.885  24.333  26.330  1.00  0.00     0.029 C 
ATOM      8  C   UNL A   1      34.637  24.280  23.812  1.00  0.00     0.029 C 
ATOM      9  C   UNL A   1      32.808  23.397  25.781  1.00  0.00     0.087 C 
ATOM     10  C   UNL A   1      33.841  22.687  23.354  1.00  0.00     0.087 C 
ATOM     11  C   UNL A   1      31.025  23.648  24.576  1.00  0.00     0.027 C 
ATOM     12  N   UNL A   1      33.956  22.326  24.839  1.00  0.00    -0.319 N 
ATOM     13  C   UNL A   1      31.874  22.598  22.934  1.00  0.00     0.027 C 
BRANCH  12  14
ATOM     14  C   UNL A   1      34.643  21.315  25.438  1.00  0.00     0.317 C 
ATOM     15  O   UNL A   1      35.832  21.457  25.739  1.00  0.00    -0.249 OA
ATOM     16  N   UNL A   1      34.055  20.192  25.876  1.00  0.00    -0.338 N 
ATOM     17  H   UNL A   1      34.538  19.800  26.639  1.00  0.00     0.165 HD
BRANCH  16  18
ATOM     18  C   UNL A   1      32.885  19.403  25.514  1.00  0.00     0.118 C 
BRANCH  18  19
ATOM     19  C   UNL A   1      33.033  18.807  24.118  1.00  0.00     0.025 C 
BRANCH  19  20
ATOM     20  C   UNL A   1      34.116  17.766  24.039  1.00  0.00    -0.009 C 
ATOM     21  C   UNL A   1      33.855  16.384  24.579  1.00  0.00     0.004 C 
ATOM     22  C   UNL A   1      34.066  16.578  23.107  1.00  0.00     0.004 C 
ENDBRANCH  19  20
ENDBRANCH  18  19
ENDBRANCH  16  18
ENDBRANCH  12  14
ENDBRANCH   5   6
ENDBRANCH   3   5
ENDBRANCH   2   3
ENDBRANCH   1   2
BRANCH   1  23
ATOM     23  C   UNL A   1      34.311  31.115  27.720  1.00  0.00     0.275 C 
BRANCH  23  24
ATOM     24  O   UNL A   1      35.533  31.330  29.392  1.00  0.00    -0.458 OA
BRANCH  24  25
ATOM     25  C   UNL A   1      36.552  30.317  30.213  1.00  0.00     0.338 C 
ATOM     26  O   UNL A   1      36.443  30.086  31.431  1.00  0.00    -0.246 OA
BRANCH  25  27
ATOM     27  C   UNL A   1      37.733  29.662  29.663  1.00  0.00     0.060 A 
ATOM     28  C   UNL A   1      38.755  29.364  30.575  1.00  0.00     0.016 A 
ATOM     29  C   UNL A   1      37.996  29.715  28.291  1.00  0.00     0.016 A 
ATOM     30  C   UNL A   1      39.996  28.983  30.118  1.00  0.00     0.010 A 
ATOM     31  C   UNL A   1      39.231  29.288  27.825  1.00  0.00     0.010 A 
ATOM     32  C   UNL A   1      40.229  28.933  28.742  1.00  0.00    -0.014 A 
BRANCH  32  33
ATOM     33  C   UNL A   1      41.584  28.600  28.292  1.00  0.00     0.031 A 
ATOM     34  C   UNL A   1      42.630  29.666  28.289  1.00  0.00     0.074 A 
ATOM     35  C   UNL A   1      41.848  27.323  27.971  1.00  0.00     0.049 A 
ATOM     36  N   UNL A   1      43.893  29.568  27.983  1.00  0.00    -0.248 NA
ATOM     37  C   UNL A   1      42.200  31.021  28.674  1.00  0.00     0.031 C 
ATOM     38  C   UNL A   1      40.872  26.230  27.996  1.00  0.00     0.029 A 
ATOM     39  N   UNL A   1      43.012  26.728  27.584  1.00  0.00    -0.354 N 
ATOM     40  C   UNL A   1      44.409  30.848  28.126  1.00  0.00     0.074 A 
ATOM     41  C   UNL A   1      43.315  31.714  28.503  1.00  0.00     0.031 C 
ATOM     42  C   UNL A   1      41.489  25.087  27.663  1.00  0.00     0.029 A 
ATOM     43  C   UNL A   1      42.885  25.380  27.356  1.00  0.00     0.049 A 
ATOM     44  H   UNL A   1      43.861  27.217  27.477  1.00  0.00     0.167 HD
ATOM     45  C   UNL A   1      45.690  31.247  27.961  1.00  0.00     0.037 A 
ATOM     46  C   UNL A   1      43.802  24.493  26.934  1.00  0.00     0.037 A 
ATOM     47  C   UNL A   1      46.749  30.351  27.578  1.00  0.00     0.049 A 
ATOM     48  C   UNL A   1      45.202  24.984  26.696  1.00  0.00     0.074 A 
ATOM     49  C   UNL A   1      48.090  30.633  27.398  1.00  0.00     0.029 A 
ATOM     50  N   UNL A   1      46.583  29.000  27.298  1.00  0.00    -0.354 N 
ATOM     51  N   UNL A   1      45.695  26.190  26.860  1.00  0.00    -0.248 NA
ATOM     52  C   UNL A   1      46.175  23.993  26.226  1.00  0.00     0.031 C 
ATOM     53  C   UNL A   1      48.715  29.477  26.922  1.00  0.00     0.029 A 
ATOM     54  C   UNL A   1      47.788  28.445  26.904  1.00  0.00     0.049 A 
ATOM     55  H   UNL A   1      45.732  28.508  27.369  1.00  0.00     0.167 HD
ATOM     56  C   UNL A   1      47.047  26.093  26.555  1.00  0.00     0.074 A 
ATOM     57  C   UNL A   1      47.291  24.706  26.209  1.00  0.00     0.031 C 
ATOM     58  C   UNL A   1      48.002  27.058  26.564  1.00  0.00     0.037 A 
BRANCH  45  59
ATOM     59  C   UNL A   1      45.994  32.709  28.135  1.00  0.00     0.058 A 
ATOM     60  C   UNL A   1      45.874  33.635  27.085  1.00  0.00     0.135 A 
ATOM     61  C   UNL A   1      46.403  33.194  29.388  1.00  0.00     0.135 A 
ATOM     62  F   UNL A   1      45.513  33.227  25.858  1.00  0.00    -0.206 F 
ATOM     63  C   UNL A   1      46.173  34.982  27.266  1.00  0.00     0.059 A 
ATOM     64  C   UNL A   1      46.668  34.542  29.602  1.00  0.00     0.059 A 
ATOM     65  F   UNL A   1      46.548  32.352  30.424  1.00  0.00    -0.206 F 
ATOM     66  C   UNL A   1      46.563  35.426  28.531  1.00  0.00     0.060 A 
BRANCH  66  67
ATOM     67  S   UNL A   1      46.929  37.179  28.753  1.00  0.00     0.124 S 
ATOM     68  O   UNL A   1      48.378  37.155  28.928  1.00  0.00    -0.237 OA
ATOM     69  O   UNL A   1      46.449  37.754  27.501  1.00  0.00    -0.237 OA
ATOM     70  O   UNL A   1      46.161  37.539  29.942  1.00  0.00    -0.744 OA
ENDBRANCH  66  67
ENDBRANCH  45  59
BRANCH  46  71
ATOM     71  C   UNL A   1      43.425  23.071  26.725  1.00  0.00     0.058 A 
ATOM     72  C   UNL A   1      43.175  22.220  27.810  1.00  0.00     0.135 A 
ATOM     73  C   UNL A   1      43.301  22.537  25.432  1.00  0.00     0.135 A 
ATOM     74  F   UNL A   1      43.278  22.683  29.065  1.00  0.00    -0.206 F 
ATOM     75  C   UNL A   1      42.846  20.882  27.624  1.00  0.00     0.059 A 
ATOM     76  C   UNL A   1      42.936  21.212  25.219  1.00  0.00     0.059 A 
ATOM     77  F   UNL A   1      43.508  23.314  24.358  1.00  0.00    -0.206 F 
ATOM     78  C   UNL A   1      42.724  20.388  26.323  1.00  0.00     0.060 A 
BRANCH  78  79
ATOM     79  S   UNL A   1      42.260  18.660  26.096  1.00  0.00     0.124 S 
ATOM     80  O   UNL A   1      42.552  18.102  27.412  1.00  0.00    -0.237 OA
ATOM     81  O   UNL A   1      40.848  18.771  25.747  1.00  0.00    -0.237 OA
ATOM     82  O   UNL A   1      43.135  18.216  25.015  1.00  0.00    -0.744 OA
ENDBRANCH  78  79
ENDBRANCH  46  71
BRANCH  58  83
ATOM     83  C   UNL A   1      49.411  26.629  26.251  1.00  0.00     0.058 A 
ATOM     84  C   UNL A   1      49.965  26.749  24.967  1.00  0.00     0.135 A 
ATOM     85  C   UNL A   1      50.229  26.109  27.270  1.00  0.00     0.135 A 
ATOM     86  F   UNL A   1      49.230  27.237  23.954  1.00  0.00    -0.206 F 
ATOM     87  C   UNL A   1      51.259  26.321  24.692  1.00  0.00     0.059 A 
ATOM     88  C   UNL A   1      51.541  25.721  27.028  1.00  0.00     0.059 A 
ATOM     89  F   UNL A   1      49.757  25.985  28.521  1.00  0.00    -0.206 F 
ATOM     90  C   UNL A   1      52.040  25.811  25.731  1.00  0.00     0.060 A 
BRANCH  90  91
ATOM     91  S   UNL A   1      53.720  25.271  25.362  1.00  0.00     0.124 S 
ATOM     92  O   UNL A   1      53.572  23.819  25.376  1.00  0.00    -0.237 OA
ATOM     93  O   UNL A   1      53.957  25.873  24.053  1.00  0.00    -0.237 OA
ATOM     94  O   UNL A   1      54.507  25.832  26.456  1.00  0.00    -0.744 OA
ENDBRANCH  90  91
ENDBRANCH  58  83
ENDBRANCH  32  33
ENDBRANCH  25  27
ENDBRANCH  24  25
ENDBRANCH  23  24
ENDBRANCH   1  23
TORSDOF 19
ENDMDL
MODEL 2
REMARK VINA RESULT:     -12.7      6.542     12.244
REMARK SMILES O=C(C[C@H]1C[C@H]2CC[C@@H](C1)N2C(=O)NCCC1CC1)OCCOC(=O)c1ccc(-c2c3nc(c(-c4c(F)cc(S(=O)(=O)[O-])cc4F)c4ccc([nH]4)c(-c4c(F)cc(S(=O)(=O)[O-])cc4F)c4nc(c(-c5c(F)cc(S(=O)(=O)[O-])cc5F)c5ccc2[nH]5)C=C4)C=C3)cc1
REMARK SMILES IDX 21 1 20 2 2 3 1 4 3 5 4 6 5 7 10 8 6 9 9 10 7 11 11 12 8 13
REMARK SMILES IDX 12 14 13 15 14 16 15 18 16 19 17 20 18 21 19 22 22 23 23 24
REMARK SMILES IDX 24 25 25 26 26 27 27 28 91 29 28 30 90 31 29 32 30 33 31 34
REMARK SMILES IDX 84 35 32 36 89 37 83 38 85 39 33 40 88 41 82 42 81 43 34 45
REMARK SMILES IDX 68 46 47 47 67 48 48 49 51 50 66 51 86 52 49 53 50 54 65 56
REMARK SMILES IDX 87 57 52 58 35 59 36 60 45 61 37 62 38 63 44 64 46 65 39 66
REMARK SMILES IDX 40 67 41 68 42 69 43 70 69 71 70 72 79 73 71 74 72 75 78 76
REMARK SMILES IDX 80 77 73 78 74 79 75 80 76 81 77 82 53 83 54 84 63 85 55 86
REMARK SMILES IDX 56 87 62 88 64 89 57 90 58 91 59 92 60 93 61 94
REMARK H PARENT 14 17 85 44 51 55
REMARK Flexibility Score: inf
ROOT
ATOM      1  C   UNL A   1      40.231  21.930  27.054  1.00  0.00     0.274 C 
ENDROOT
BRANCH   1   2
ATOM      2  O   UNL A   1      38.817  22.254  26.142  1.00  0.00    -0.462 OA
BRANCH   2   3
ATOM      3  C   UNL A   1      37.639  21.753  25.564  1.00  0.00     0.306 C 
ATOM      4  O   UNL A   1      37.762  20.713  24.898  1.00  0.00    -0.252 OA
BRANCH   3   5
ATOM      5  C   UNL A   1      36.071  22.385  25.586  1.00  0.00     0.126 C 
BRANCH   5   6
ATOM      6  C   UNL A   1      34.709  21.781  26.212  1.00  0.00     0.004 C 
ATOM      7  C   UNL A   1      34.430  23.015  26.949  1.00  0.00     0.029 C 
ATOM      8  C   UNL A   1      33.160  21.238  25.488  1.00  0.00     0.029 C 
ATOM      9  C   UNL A   1      33.962  23.930  25.818  1.00  0.00     0.087 C 
ATOM     10  C   UNL A   1      32.058  22.405  24.589  1.00  0.00     0.087 C 
ATOM     11  C   UNL A   1      34.557  24.253  23.760  1.00  0.00     0.027 C 
ATOM     12  N   UNL A   1      32.233  23.331  25.798  1.00  0.00    -0.319 N 
ATOM     13  C   UNL A   1      32.734  23.455  23.010  1.00  0.00     0.027 C 
BRANCH  12  14
ATOM     14  C   UNL A   1      31.302  23.804  26.672  1.00  0.00     0.317 C 
ATOM     15  O   UNL A   1      30.912  23.104  27.611  1.00  0.00    -0.249 OA
ATOM     16  N   UNL A   1      30.881  25.078  26.672  1.00  0.00    -0.338 N 
ATOM     17  H   UNL A   1      30.598  25.370  27.569  1.00  0.00     0.165 HD
BRANCH  16  18
ATOM     18  C   UNL A   1      30.735  26.141  25.687  1.00  0.00     0.118 C 
BRANCH  18  19
ATOM     19  C   UNL A   1      31.241  27.472  26.234  1.00  0.00     0.025 C 
BRANCH  19  20
ATOM     20  C   UNL A   1      32.624  27.376  26.815  1.00  0.00    -0.009 C 
ATOM     21  C   UNL A   1      33.818  27.611  25.928  1.00  0.00     0.004 C 
ATOM     22  C   UNL A   1      33.521  28.572  27.041  1.00  0.00     0.004 C 
ENDBRANCH  19  20
ENDBRANCH  18  19
ENDBRANCH  16  18
ENDBRANCH  12  14
ENDBRANCH   5   6
ENDBRANCH   3   5
ENDBRANCH   2   3
ENDBRANCH   1   2
BRANCH   1  23
ATOM     23  C   UNL A   1      41.873  22.086  26.068  1.00  0.00     0.275 C 
BRANCH  23  24
ATOM     24  O   UNL A   1      42.604  24.020  26.321  1.00  0.00    -0.458 OA
BRANCH  24  25
ATOM     25  C   UNL A   1      41.989  25.530  26.040  1.00  0.00     0.338 C 
ATOM     26  O   UNL A   1      42.016  26.076  24.923  1.00  0.00    -0.246 OA
BRANCH  25  27
ATOM     27  C   UNL A   1      41.444  26.433  27.048  1.00  0.00     0.060 A 
ATOM     28  C   UNL A   1      42.148  27.628  27.251  1.00  0.00     0.016 A 
ATOM     29  C   UNL A   1      40.554  25.958  28.015  1.00  0.00     0.016 A 
ATOM     30  C   UNL A   1      41.864  28.418  28.341  1.00  0.00     0.010 A 
ATOM     31  C   UNL A   1      40.231  26.771  29.091  1.00  0.00     0.010 A 
ATOM     32  C   UNL A   1      40.895  27.995  29.255  1.00  0.00    -0.014 A 
BRANCH  32  33
ATOM     33  C   UNL A   1      40.675  28.820  30.445  1.00  0.00     0.031 A 
ATOM     34  C   UNL A   1      41.570  28.644  31.627  1.00  0.00     0.074 A 
ATOM     35  C   UNL A   1      39.717  29.760  30.394  1.00  0.00     0.049 A 
ATOM     36  N   UNL A   1      41.579  29.306  32.749  1.00  0.00    -0.248 NA
ATOM     37  C   UNL A   1      42.585  27.579  31.540  1.00  0.00     0.031 C 
ATOM     38  C   UNL A   1      38.838  30.004  29.247  1.00  0.00     0.029 A 
ATOM     39  N   UNL A   1      39.338  30.692  31.315  1.00  0.00    -0.354 N 
ATOM     40  C   UNL A   1      42.589  28.734  33.509  1.00  0.00     0.074 A 
ATOM     41  C   UNL A   1      43.142  27.643  32.739  1.00  0.00     0.031 C 
ATOM     42  C   UNL A   1      38.037  31.043  29.526  1.00  0.00     0.029 A 
ATOM     43  C   UNL A   1      38.315  31.499  30.883  1.00  0.00     0.049 A 
ATOM     44  H   UNL A   1      39.757  30.778  32.202  1.00  0.00     0.167 HD
ATOM     45  C   UNL A   1      43.012  29.106  34.738  1.00  0.00     0.037 A 
ATOM     46  C   UNL A   1      37.674  32.487  31.529  1.00  0.00     0.037 A 
ATOM     47  C   UNL A   1      42.428  30.198  35.474  1.00  0.00     0.049 A 
ATOM     48  C   UNL A   1      38.125  32.831  32.921  1.00  0.00     0.074 A 
ATOM     49  C   UNL A   1      42.783  30.681  36.718  1.00  0.00     0.029 A 
ATOM     50  N   UNL A   1      41.354  30.963  35.037  1.00  0.00    -0.354 N 
ATOM     51  N   UNL A   1      39.101  32.307  33.626  1.00  0.00    -0.248 NA
ATOM     52  C   UNL A   1      37.397  33.907  33.601  1.00  0.00     0.031 C 
ATOM     53  C   UNL A   1      41.867  31.676  37.072  1.00  0.00     0.029 A 
ATOM     54  C   UNL A   1      41.005  31.887  36.007  1.00  0.00     0.049 A 
ATOM     55  H   UNL A   1      40.906  30.864  34.165  1.00  0.00     0.167 HD
ATOM     56  C   UNL A   1      39.133  33.021  34.819  1.00  0.00     0.074 A 
ATOM     57  C   UNL A   1      38.084  34.018  34.728  1.00  0.00     0.031 C 
ATOM     58  C   UNL A   1      39.954  32.871  35.889  1.00  0.00     0.037 A 
BRANCH  45  59
ATOM     59  C   UNL A   1      44.106  28.296  35.375  1.00  0.00     0.058 A 
ATOM     60  C   UNL A   1      45.467  28.607  35.215  1.00  0.00     0.135 A 
ATOM     61  C   UNL A   1      43.781  27.191  36.178  1.00  0.00     0.135 A 
ATOM     62  F   UNL A   1      45.841  29.637  34.438  1.00  0.00    -0.206 F 
ATOM     63  C   UNL A   1      46.464  27.836  35.805  1.00  0.00     0.059 A 
ATOM     64  C   UNL A   1      44.759  26.430  36.810  1.00  0.00     0.059 A 
ATOM     65  F   UNL A   1      42.498  26.838  36.356  1.00  0.00    -0.206 F 
ATOM     66  C   UNL A   1      46.099  26.753  36.607  1.00  0.00     0.060 A 
BRANCH  66  67
ATOM     67  S   UNL A   1      47.402  25.775  37.380  1.00  0.00     0.124 S 
ATOM     68  O   UNL A   1      48.217  26.815  38.002  1.00  0.00    -0.237 OA
ATOM     69  O   UNL A   1      46.648  24.926  38.295  1.00  0.00    -0.237 OA
ATOM     70  O   UNL A   1      48.024  25.084  36.254  1.00  0.00    -0.744 OA
ENDBRANCH  66  67
ENDBRANCH  45  59
BRANCH  46  71
ATOM     71  C   UNL A   1      36.560  33.214  30.866  1.00  0.00     0.058 A 
ATOM     72  C   UNL A   1      35.225  32.979  31.225  1.00  0.00     0.135 A 
ATOM     73  C   UNL A   1      36.810  34.163  29.861  1.00  0.00     0.135 A 
ATOM     74  F   UNL A   1      34.935  32.083  32.180  1.00  0.00    -0.206 F 
ATOM     75  C   UNL A   1      34.176  33.636  30.592  1.00  0.00     0.059 A 
ATOM     76  C   UNL A   1      35.779  34.860  29.240  1.00  0.00     0.059 A 
ATOM     77  F   UNL A   1      38.070  34.441  29.494  1.00  0.00    -0.206 F 
ATOM     78  C   UNL A   1      34.464  34.578  29.604  1.00  0.00     0.060 A 
BRANCH  78  79
ATOM     79  S   UNL A   1      33.094  35.450  28.818  1.00  0.00     0.124 S 
ATOM     80  O   UNL A   1      32.461  34.378  28.056  1.00  0.00    -0.237 OA
ATOM     81  O   UNL A   1      32.348  35.942  29.971  1.00  0.00    -0.237 OA
ATOM     82  O   UNL A   1      33.760  36.478  28.024  1.00  0.00    -0.744 OA
ENDBRANCH  78  79
ENDBRANCH  46  71
BRANCH  58  83
ATOM     83  C   UNL A   1      39.791  33.852  37.020  1.00  0.00     0.058 A 
ATOM     84  C   UNL A   1      40.432  35.100  37.030  1.00  0.00     0.135 A 
ATOM     85  C   UNL A   1      38.952  33.538  38.104  1.00  0.00     0.135 A 
ATOM     86  F   UNL A   1      41.246  35.452  36.021  1.00  0.00    -0.206 F 
ATOM     87  C   UNL A   1      40.289  35.980  38.097  1.00  0.00     0.059 A 
ATOM     88  C   UNL A   1      38.757  34.423  39.156  1.00  0.00     0.059 A 
ATOM     89  F   UNL A   1      38.301  32.364  38.141  1.00  0.00    -0.206 F 
ATOM     90  C   UNL A   1      39.446  35.633  39.155  1.00  0.00     0.060 A 
BRANCH  90  91
ATOM     91  S   UNL A   1      39.263  36.789  40.526  1.00  0.00     0.124 S 
ATOM     92  O   UNL A   1      40.651  36.999  40.922  1.00  0.00    -0.237 OA
ATOM     93  O   UNL A   1      38.607  37.926  39.885  1.00  0.00    -0.237 OA
ATOM     94  O   UNL A   1      38.440  36.056  41.483  1.00  0.00    -0.744 OA
ENDBRANCH  90  91
ENDBRANCH  58  83
ENDBRANCH  32  33
ENDBRANCH  25  27
ENDBRANCH  24  25
ENDBRANCH  23  24
ENDBRANCH   1  23
TORSDOF 19
ENDMDL
MODEL 3
REMARK VINA RESULT:     -12.6      6.565     12.287
REMARK SMILES O=C(C[C@H]1C[C@H]2CC[C@@H](C1)N2C(=O)NCCC1CC1)OCCOC(=O)c1ccc(-c2c3nc(c(-c4c(F)cc(S(=O)(=O)[O-])cc4F)c4ccc([nH]4)c(-c4c(F)cc(S(=O)(=O)[O-])cc4F)c4nc(c(-c5c(F)cc(S(=O)(=O)[O-])cc5F)c5ccc2[nH]5)C=C4)C=C3)cc1
REMARK SMILES IDX 21 1 20 2 2 3 1 4 3 5 4 6 5 7 10 8 6 9 9 10 7 11 11 12 8 13
REMARK SMILES IDX 12 14 13 15 14 16 15 18 16 19 17 20 18 21 19 22 22 23 23 24
REMARK SMILES IDX 24 25 25 26 26 27 27 28 91 29 28 30 90 31 29 32 30 33 31 34
REMARK SMILES IDX 84 35 32 36 89 37 83 38 85 39 33 40 88 41 82 42 81 43 34 45
REMARK SMILES IDX 68 46 47 47 67 48 48 49 51 50 66 51 86 52 49 53 50 54 65 56
REMARK SMILES IDX 87 57 52 58 35 59 36 60 45 61 37 62 38 63 44 64 46 65 39 66
REMARK SMILES IDX 40 67 41 68 42 69 43 70 69 71 70 72 79 73 71 74 72 75 78 76
REMARK SMILES IDX 80 77 73 78 74 79 75 80 76 81 77 82 53 83 54 84 63 85 55 86
REMARK SMILES IDX 56 87 62 88 64 89 57 90 58 91 59 92 60 93 61 94
REMARK H PARENT 14 17 85 44 51 55
REMARK Flexibility Score: inf
ROOT
ATOM      1  C   UNL A   1      39.172  22.552  26.502  1.00  0.00     0.274 C 
ENDROOT
BRANCH   1   2
ATOM      2  O   UNL A   1      38.373  21.330  25.604  1.00  0.00    -0.462 OA
BRANCH   2   3
ATOM      3  C   UNL A   1      37.157  20.814  25.127  1.00  0.00     0.306 C 
ATOM      4  O   UNL A   1      37.181  19.633  24.749  1.00  0.00    -0.252 OA
BRANCH   3   5
ATOM      5  C   UNL A   1      35.662  21.579  24.931  1.00  0.00     0.126 C 
BRANCH   5   6
ATOM      6  C   UNL A   1      34.229  21.261  25.606  1.00  0.00     0.004 C 
ATOM      7  C   UNL A   1      34.341  22.396  26.524  1.00  0.00     0.029 C 
ATOM      8  C   UNL A   1      32.548  21.257  24.976  1.00  0.00     0.029 C 
ATOM      9  C   UNL A   1      34.071  23.564  25.577  1.00  0.00     0.087 C 
ATOM     10  C   UNL A   1      31.752  22.795  24.355  1.00  0.00     0.087 C 
ATOM     11  C   UNL A   1      34.604  24.035  23.530  1.00  0.00     0.027 C 
ATOM     12  N   UNL A   1      32.246  23.446  25.652  1.00  0.00    -0.319 N 
ATOM     13  C   UNL A   1      32.590  23.864  22.868  1.00  0.00     0.027 C 
BRANCH  12  14
ATOM     14  C   UNL A   1      31.535  24.004  26.670  1.00  0.00     0.317 C 
ATOM     15  O   UNL A   1      31.019  23.292  27.537  1.00  0.00    -0.249 OA
ATOM     16  N   UNL A   1      31.485  25.326  26.886  1.00  0.00    -0.338 N 
ATOM     17  H   UNL A   1      31.345  25.537  27.838  1.00  0.00     0.165 HD
BRANCH  16  18
ATOM     18  C   UNL A   1      31.583  26.533  26.076  1.00  0.00     0.118 C 
BRANCH  18  19
ATOM     19  C   UNL A   1      30.507  26.560  24.995  1.00  0.00     0.025 C 
BRANCH  19  20
ATOM     20  C   UNL A   1      30.666  27.713  24.043  1.00  0.00    -0.009 C 
ATOM     21  C   UNL A   1      31.325  27.485  22.707  1.00  0.00     0.004 C 
ATOM     22  C   UNL A   1      29.873  27.856  22.764  1.00  0.00     0.004 C 
ENDBRANCH  19  20
ENDBRANCH  18  19
ENDBRANCH  16  18
ENDBRANCH  12  14
ENDBRANCH   5   6
ENDBRANCH   3   5
ENDBRANCH   2   3
ENDBRANCH   1   2
BRANCH   1  23
ATOM     23  C   UNL A   1      41.029  22.203  26.855  1.00  0.00     0.275 C 
BRANCH  23  24
ATOM     24  O   UNL A   1      42.125  23.885  26.302  1.00  0.00    -0.458 OA
BRANCH  24  25
ATOM     25  C   UNL A   1      41.748  25.478  26.060  1.00  0.00     0.338 C 
ATOM     26  O   UNL A   1      41.963  26.070  24.987  1.00  0.00    -0.246 OA
BRANCH  25  27
ATOM     27  C   UNL A   1      41.226  26.396  27.065  1.00  0.00     0.060 A 
ATOM     28  C   UNL A   1      41.948  27.583  27.252  1.00  0.00     0.016 A 
ATOM     29  C   UNL A   1      40.339  25.941  28.045  1.00  0.00     0.016 A 
ATOM     30  C   UNL A   1      41.686  28.385  28.339  1.00  0.00     0.010 A 
ATOM     31  C   UNL A   1      40.039  26.767  29.118  1.00  0.00     0.010 A 
ATOM     32  C   UNL A   1      40.721  27.982  29.265  1.00  0.00    -0.014 A 
BRANCH  32  33
ATOM     33  C   UNL A   1      40.524  28.820  30.451  1.00  0.00     0.031 A 
ATOM     34  C   UNL A   1      41.431  28.642  31.624  1.00  0.00     0.074 A 
ATOM     35  C   UNL A   1      39.577  29.771  30.404  1.00  0.00     0.049 A 
ATOM     36  N   UNL A   1      41.461  29.313  32.741  1.00  0.00    -0.248 NA
ATOM     37  C   UNL A   1      42.431  27.565  31.535  1.00  0.00     0.031 C 
ATOM     38  C   UNL A   1      38.689  30.017  29.264  1.00  0.00     0.029 A 
ATOM     39  N   UNL A   1      39.221  30.715  31.321  1.00  0.00    -0.354 N 
ATOM     40  C   UNL A   1      42.472  28.735  33.494  1.00  0.00     0.074 A 
ATOM     41  C   UNL A   1      43.003  27.631  32.727  1.00  0.00     0.031 C 
ATOM     42  C   UNL A   1      37.904  31.068  29.544  1.00  0.00     0.029 A 
ATOM     43  C   UNL A   1      38.203  31.531  30.894  1.00  0.00     0.049 A 
ATOM     44  H   UNL A   1      39.651  30.803  32.203  1.00  0.00     0.167 HD
ATOM     45  C   UNL A   1      42.914  29.111  34.715  1.00  0.00     0.037 A 
ATOM     46  C   UNL A   1      37.581  32.533  31.539  1.00  0.00     0.037 A 
ATOM     47  C   UNL A   1      42.352  30.216  35.448  1.00  0.00     0.049 A 
ATOM     48  C   UNL A   1      38.052  32.882  32.923  1.00  0.00     0.074 A 
ATOM     49  C   UNL A   1      42.727  30.705  36.685  1.00  0.00     0.029 A 
ATOM     50  N   UNL A   1      41.282  30.991  35.018  1.00  0.00    -0.354 N 
ATOM     51  N   UNL A   1      39.029  32.352  33.622  1.00  0.00    -0.248 NA
ATOM     52  C   UNL A   1      37.346  33.972  33.602  1.00  0.00     0.031 C 
ATOM     53  C   UNL A   1      41.827  31.714  37.041  1.00  0.00     0.029 A 
ATOM     54  C   UNL A   1      40.955  31.927  35.984  1.00  0.00     0.049 A 
ATOM     55  H   UNL A   1      40.823  30.890  34.152  1.00  0.00     0.167 HD
ATOM     56  C   UNL A   1      39.084  33.074  34.808  1.00  0.00     0.074 A 
ATOM     57  C   UNL A   1      38.046  34.084  34.720  1.00  0.00     0.031 C 
ATOM     58  C   UNL A   1      39.916  32.922  35.870  1.00  0.00     0.037 A 
BRANCH  45  59
ATOM     59  C   UNL A   1      44.005  28.293  35.347  1.00  0.00     0.058 A 
ATOM     60  C   UNL A   1      45.368  28.586  35.168  1.00  0.00     0.135 A 
ATOM     61  C   UNL A   1      43.676  27.198  36.162  1.00  0.00     0.135 A 
ATOM     62  F   UNL A   1      45.745  29.605  34.379  1.00  0.00    -0.206 F 
ATOM     63  C   UNL A   1      46.362  27.807  35.753  1.00  0.00     0.059 A 
ATOM     64  C   UNL A   1      44.651  26.431  36.789  1.00  0.00     0.059 A 
ATOM     65  F   UNL A   1      42.390  26.863  36.358  1.00  0.00    -0.206 F 
ATOM     66  C   UNL A   1      45.992  26.735  36.568  1.00  0.00     0.060 A 
BRANCH  66  67
ATOM     67  S   UNL A   1      47.293  25.748  37.334  1.00  0.00     0.124 S 
ATOM     68  O   UNL A   1      46.546  24.574  37.778  1.00  0.00    -0.237 OA
ATOM     69  O   UNL A   1      48.212  25.533  36.222  1.00  0.00    -0.237 OA
ATOM     70  O   UNL A   1      47.792  26.611  38.401  1.00  0.00    -0.744 OA
ENDBRANCH  66  67
ENDBRANCH  45  59
BRANCH  46  71
ATOM     71  C   UNL A   1      36.468  33.267  30.883  1.00  0.00     0.058 A 
ATOM     72  C   UNL A   1      36.714  34.186  29.853  1.00  0.00     0.135 A 
ATOM     73  C   UNL A   1      35.134  33.059  31.271  1.00  0.00     0.135 A 
ATOM     74  F   UNL A   1      37.971  34.417  29.445  1.00  0.00    -0.206 F 
ATOM     75  C   UNL A   1      35.681  34.895  29.250  1.00  0.00     0.059 A 
ATOM     76  C   UNL A   1      34.082  33.729  30.657  1.00  0.00     0.059 A 
ATOM     77  F   UNL A   1      34.842  32.176  32.237  1.00  0.00    -0.206 F 
ATOM     78  C   UNL A   1      34.367  34.656  29.657  1.00  0.00     0.060 A 
BRANCH  78  79
ATOM     79  S   UNL A   1      33.034  35.557  28.840  1.00  0.00     0.124 S 
ATOM     80  O   UNL A   1      32.400  34.499  28.060  1.00  0.00    -0.237 OA
ATOM     81  O   UNL A   1      32.270  36.060  29.977  1.00  0.00    -0.237 OA
ATOM     82  O   UNL A   1      33.739  36.574  28.066  1.00  0.00    -0.744 OA
ENDBRANCH  78  79
ENDBRANCH  46  71
BRANCH  58  83
ATOM     83  C   UNL A   1      39.777  33.914  36.995  1.00  0.00     0.058 A 
ATOM     84  C   UNL A   1      39.062  33.625  38.167  1.00  0.00     0.135 A 
ATOM     85  C   UNL A   1      40.397  35.172  36.900  1.00  0.00     0.135 A 
ATOM     86  F   UNL A   1      38.447  32.440  38.312  1.00  0.00    -0.206 F 
ATOM     87  C   UNL A   1      38.922  34.565  39.182  1.00  0.00     0.059 A 
ATOM     88  C   UNL A   1      40.313  36.108  37.923  1.00  0.00     0.059 A 
ATOM     89  F   UNL A   1      41.108  35.498  35.808  1.00  0.00    -0.206 F 
ATOM     90  C   UNL A   1      39.555  35.803  39.052  1.00  0.00     0.060 A 
BRANCH  90  91
ATOM     91  S   UNL A   1      39.375  37.008  40.381  1.00  0.00     0.124 S 
ATOM     92  O   UNL A   1      40.766  37.258  40.742  1.00  0.00    -0.237 OA
ATOM     93  O   UNL A   1      38.686  38.107  39.710  1.00  0.00    -0.237 OA
ATOM     94  O   UNL A   1      38.584  36.297  41.381  1.00  0.00    -0.744 OA
ENDBRANCH  90  91
ENDBRANCH  58  83
ENDBRANCH  32  33
ENDBRANCH  25  27
ENDBRANCH  24  25
ENDBRANCH  23  24
ENDBRANCH   1  23
TORSDOF 19
ENDMDL
