MODEL 1
REMARK VINA RESULT:     -13.1      0.000      0.000
REMARK SMILES O=C1CCCC2=C1[C@H](c1ccc([N+](=O)[O-])cc1)CC(=O)N2c1ccccc1C(=O)OCCOC(=O)c1ccc(-c2c3nc(c(-c4c(F)cc(S(=O)(=O)[O-])cc4F)c4ccc([nH]4)c(-c4c(F)cc(S(=O)(=O)[O-])cc4F)c4nc(c(-c5c(F)cc(S(=O)(=O)[O-])cc5F)c5ccc2[nH]5)C=C4)C=C3)cc1
REMARK SMILES IDX 31 1 30 2 28 3 29 4 27 5 22 6 23 7 24 8 26 9 25 10 21 11
REMARK SMILES IDX 1 12 2 13 3 14 7 15 4 16 6 17 8 18 5 19 18 20 19 21 20 22
REMARK SMILES IDX 9 23 10 24 17 25 11 26 16 27 12 28 13 29 14 30 15 31 32 32
REMARK SMILES IDX 33 33 34 34 35 35 36 36 37 37 101 38 38 39 100 40 39 41
REMARK SMILES IDX 40 42 41 43 94 44 42 45 99 46 93 47 95 48 43 49 98 50 92 51
REMARK SMILES IDX 91 52 44 54 78 55 57 56 77 57 58 58 61 59 76 60 96 61 59 62
REMARK SMILES IDX 60 63 75 65 97 66 62 67 45 68 46 69 55 70 47 71 48 72 54 73
REMARK SMILES IDX 56 74 49 75 50 76 51 77 52 78 53 79 79 80 80 81 89 82 81 83
REMARK SMILES IDX 82 84 88 85 90 86 83 87 84 88 85 89 86 90 87 91 63 92 64 93
REMARK SMILES IDX 73 94 65 95 66 96 72 97 74 98 67 99 68 100 69 101 70 102
REMARK SMILES IDX 71 103
REMARK H PARENT 95 53 61 64
REMARK Flexibility Score: inf
ROOT
ATOM      1  C   UNL A   1      34.540  29.017  27.315  1.00  0.00     0.275 C 
ENDROOT
BRANCH   1   2
ATOM      2  O   UNL A   1      34.110  28.707  25.974  1.00  0.00    -0.458 OA
BRANCH   2   3
ATOM      3  C   UNL A   1      33.157  27.745  25.872  1.00  0.00     0.340 C 
ATOM      4  O   UNL A   1      33.196  26.642  26.390  1.00  0.00    -0.246 OA
BRANCH   3   5
ATOM      5  C   UNL A   1      32.032  28.150  24.994  1.00  0.00     0.084 A 
ATOM      6  C   UNL A   1      31.381  27.278  24.102  1.00  0.00     0.063 A 
ATOM      7  C   UNL A   1      30.338  27.794  23.304  1.00  0.00     0.027 A 
ATOM      8  C   UNL A   1      29.936  29.129  23.401  1.00  0.00     0.002 A 
ATOM      9  C   UNL A   1      31.589  29.482  25.110  1.00  0.00     0.018 A 
ATOM     10  C   UNL A   1      30.561  29.973  24.307  1.00  0.00     0.001 A 
BRANCH   6  11
ATOM     11  N   UNL A   1      31.712  25.882  23.956  1.00  0.00    -0.284 N 
ATOM     12  O   UNL A   1      31.414  21.409  25.482  1.00  0.00    -0.294 OA
ATOM     13  C   UNL A   1      31.279  22.604  25.725  1.00  0.00     0.161 C 
ATOM     14  C   UNL A   1      30.602  23.087  26.976  1.00  0.00     0.081 C 
ATOM     15  C   UNL A   1      31.794  23.649  24.790  1.00  0.00     0.023 C 
ATOM     16  C   UNL A   1      29.494  24.023  26.547  1.00  0.00     0.015 C 
ATOM     17  C   UNL A   1      31.234  24.877  24.823  1.00  0.00     0.033 C 
ATOM     18  C   UNL A   1      32.857  23.236  23.808  1.00  0.00     0.064 C 
ATOM     19  C   UNL A   1      30.052  25.198  25.742  1.00  0.00     0.055 C 
ATOM     20  C   UNL A   1      32.778  24.125  22.573  1.00  0.00     0.114 C 
ATOM     21  C   UNL A   1      32.600  25.586  22.900  1.00  0.00     0.232 C 
ATOM     22  O   UNL A   1      33.160  26.425  22.191  1.00  0.00    -0.274 OA
BRANCH  18  23
ATOM     23  C   UNL A   1      34.250  23.090  24.432  1.00  0.00    -0.039 A 
ATOM     24  C   UNL A   1      34.914  24.120  25.119  1.00  0.00     0.011 A 
ATOM     25  C   UNL A   1      34.925  21.862  24.276  1.00  0.00     0.011 A 
ATOM     26  C   UNL A   1      36.220  23.939  25.603  1.00  0.00     0.086 A 
ATOM     27  C   UNL A   1      36.215  21.662  24.771  1.00  0.00     0.086 A 
ATOM     28  C   UNL A   1      36.865  22.711  25.421  1.00  0.00     0.269 A 
BRANCH  28  29
ATOM     29  N   UNL A   1      38.242  22.522  25.889  1.00  0.00     0.062 N 
ATOM     30  O   UNL A   1      38.767  21.416  25.711  1.00  0.00    -0.258 OA
ATOM     31  O   UNL A   1      38.797  23.482  26.446  1.00  0.00    -0.258 OA
ENDBRANCH  28  29
ENDBRANCH  18  23
ENDBRANCH   6  11
ENDBRANCH   3   5
ENDBRANCH   2   3
ENDBRANCH   1   2
BRANCH   1  32
ATOM     32  C   UNL A   1      34.390  30.500  27.632  1.00  0.00     0.275 C 
BRANCH  32  33
ATOM     33  O   UNL A   1      35.686  31.111  27.715  1.00  0.00    -0.458 OA
BRANCH  33  34
ATOM     34  C   UNL A   1      36.306  30.983  28.908  1.00  0.00     0.338 C 
ATOM     35  O   UNL A   1      35.903  31.352  30.001  1.00  0.00    -0.246 OA
BRANCH  34  36
ATOM     36  C   UNL A   1      37.550  30.228  28.727  1.00  0.00     0.060 A 
ATOM     37  C   UNL A   1      38.302  29.922  29.857  1.00  0.00     0.016 A 
ATOM     38  C   UNL A   1      38.047  29.953  27.458  1.00  0.00     0.016 A 
ATOM     39  C   UNL A   1      39.591  29.425  29.736  1.00  0.00     0.010 A 
ATOM     40  C   UNL A   1      39.313  29.370  27.336  1.00  0.00     0.010 A 
ATOM     41  C   UNL A   1      40.113  29.138  28.472  1.00  0.00    -0.014 A 
BRANCH  41  42
ATOM     42  C   UNL A   1      41.522  28.680  28.332  1.00  0.00     0.031 A 
ATOM     43  C   UNL A   1      42.639  29.670  28.520  1.00  0.00     0.074 A 
ATOM     44  C   UNL A   1      41.805  27.389  28.066  1.00  0.00     0.049 A 
ATOM     45  N   UNL A   1      43.908  29.553  28.229  1.00  0.00    -0.248 NA
ATOM     46  C   UNL A   1      42.274  30.974  29.100  1.00  0.00     0.031 C 
ATOM     47  C   UNL A   1      40.821  26.310  27.942  1.00  0.00     0.029 A 
ATOM     48  N   UNL A   1      43.008  26.762  27.857  1.00  0.00    -0.354 N 
ATOM     49  C   UNL A   1      44.476  30.792  28.509  1.00  0.00     0.074 A 
ATOM     50  C   UNL A   1      43.417  31.640  29.011  1.00  0.00     0.031 C 
ATOM     51  C   UNL A   1      41.461  25.153  27.715  1.00  0.00     0.029 A 
ATOM     52  C   UNL A   1      42.887  25.421  27.578  1.00  0.00     0.049 A 
ATOM     53  H   UNL A   1      43.873  27.229  27.902  1.00  0.00     0.167 HD
ATOM     54  C   UNL A   1      45.763  31.182  28.349  1.00  0.00     0.037 A 
ATOM     55  C   UNL A   1      43.815  24.519  27.202  1.00  0.00     0.037 A 
ATOM     56  C   UNL A   1      46.817  30.300  27.917  1.00  0.00     0.049 A 
ATOM     57  C   UNL A   1      45.233  24.977  27.007  1.00  0.00     0.074 A 
ATOM     58  C   UNL A   1      48.159  30.581  27.740  1.00  0.00     0.029 A 
ATOM     59  N   UNL A   1      46.646  28.956  27.613  1.00  0.00    -0.354 N 
ATOM     60  N   UNL A   1      45.745  26.170  27.194  1.00  0.00    -0.248 NA
ATOM     61  C   UNL A   1      46.192  23.978  26.519  1.00  0.00     0.031 C 
ATOM     62  C   UNL A   1      48.795  29.416  27.299  1.00  0.00     0.029 A 
ATOM     63  C   UNL A   1      47.856  28.397  27.239  1.00  0.00     0.049 A 
ATOM     64  H   UNL A   1      45.790  28.472  27.659  1.00  0.00     0.167 HD
ATOM     65  C   UNL A   1      47.089  26.063  26.859  1.00  0.00     0.074 A 
ATOM     66  C   UNL A   1      47.313  24.684  26.472  1.00  0.00     0.031 C 
ATOM     67  C   UNL A   1      48.051  27.019  26.865  1.00  0.00     0.037 A 
BRANCH  54  68
ATOM     68  C   UNL A   1      46.088  32.630  28.586  1.00  0.00     0.058 A 
ATOM     69  C   UNL A   1      46.489  33.117  29.839  1.00  0.00     0.135 A 
ATOM     70  C   UNL A   1      46.004  33.549  27.526  1.00  0.00     0.135 A 
ATOM     71  F   UNL A   1      46.567  32.288  30.892  1.00  0.00    -0.206 F 
ATOM     72  C   UNL A   1      46.765  34.466  30.041  1.00  0.00     0.059 A 
ATOM     73  C   UNL A   1      46.300  34.898  27.697  1.00  0.00     0.059 A 
ATOM     74  F   UNL A   1      45.623  33.138  26.305  1.00  0.00    -0.206 F 
ATOM     75  C   UNL A   1      46.663  35.351  28.965  1.00  0.00     0.060 A 
BRANCH  75  76
ATOM     76  S   UNL A   1      47.016  37.100  29.239  1.00  0.00     0.124 S 
ATOM     77  O   UNL A   1      48.403  37.189  28.794  1.00  0.00    -0.237 OA
ATOM     78  O   UNL A   1      46.032  37.756  28.383  1.00  0.00    -0.237 OA
ATOM     79  O   UNL A   1      46.805  37.268  30.673  1.00  0.00    -0.744 OA
ENDBRANCH  75  76
ENDBRANCH  54  68
BRANCH  55  80
ATOM     80  C   UNL A   1      43.419  23.109  26.943  1.00  0.00     0.058 A 
ATOM     81  C   UNL A   1      43.366  22.604  25.636  1.00  0.00     0.135 A 
ATOM     82  C   UNL A   1      43.111  22.230  27.996  1.00  0.00     0.135 A 
ATOM     83  F   UNL A   1      43.638  23.406  24.596  1.00  0.00    -0.206 F 
ATOM     84  C   UNL A   1      43.026  21.279  25.380  1.00  0.00     0.059 A 
ATOM     85  C   UNL A   1      42.797  20.895  27.766  1.00  0.00     0.059 A 
ATOM     86  F   UNL A   1      43.155  22.661  29.265  1.00  0.00    -0.206 F 
ATOM     87  C   UNL A   1      42.749  20.429  26.453  1.00  0.00     0.060 A 
BRANCH  87  88
ATOM     88  S   UNL A   1      42.382  18.693  26.117  1.00  0.00     0.124 S 
ATOM     89  O   UNL A   1      40.977  18.760  25.733  1.00  0.00    -0.237 OA
ATOM     90  O   UNL A   1      43.323  18.380  25.047  1.00  0.00    -0.237 OA
ATOM     91  O   UNL A   1      42.659  18.041  27.394  1.00  0.00    -0.744 OA
ENDBRANCH  87  88
ENDBRANCH  55  80
BRANCH  67  92
ATOM     92  C   UNL A   1      49.437  26.594  26.474  1.00  0.00     0.058 A 
ATOM     93  C   UNL A   1      50.299  25.968  27.387  1.00  0.00     0.135 A 
ATOM     94  C   UNL A   1      49.889  26.778  25.158  1.00  0.00     0.135 A 
ATOM     95  F   UNL A   1      49.913  25.778  28.659  1.00  0.00    -0.206 F 
ATOM     96  C   UNL A   1      51.573  25.558  27.013  1.00  0.00     0.059 A 
ATOM     97  C   UNL A   1      51.151  26.356  24.757  1.00  0.00     0.059 A 
ATOM     98  F   UNL A   1      49.097  27.365  24.246  1.00  0.00    -0.206 F 
ATOM     99  C   UNL A   1      51.991  25.756  25.695  1.00  0.00     0.060 A 
BRANCH  99 100
ATOM    100  S   UNL A   1      53.637  25.194  25.212  1.00  0.00     0.124 S 
ATOM    101  O   UNL A   1      53.511  23.749  25.375  1.00  0.00    -0.237 OA
ATOM    102  O   UNL A   1      53.740  25.670  23.836  1.00  0.00    -0.237 OA
ATOM    103  O   UNL A   1      54.516  25.860  26.167  1.00  0.00    -0.744 OA
ENDBRANCH  99 100
ENDBRANCH  67  92
ENDBRANCH  41  42
ENDBRANCH  34  36
ENDBRANCH  33  34
ENDBRANCH  32  33
ENDBRANCH   1  32
TORSDOF 17
ENDMDL
MODEL 2
REMARK VINA RESULT:     -12.6      6.166     11.621
REMARK SMILES O=C1CCCC2=C1[C@H](c1ccc([N+](=O)[O-])cc1)CC(=O)N2c1ccccc1C(=O)OCCOC(=O)c1ccc(-c2c3nc(c(-c4c(F)cc(S(=O)(=O)[O-])cc4F)c4ccc([nH]4)c(-c4c(F)cc(S(=O)(=O)[O-])cc4F)c4nc(c(-c5c(F)cc(S(=O)(=O)[O-])cc5F)c5ccc2[nH]5)C=C4)C=C3)cc1
REMARK SMILES IDX 31 1 30 2 28 3 29 4 27 5 22 6 23 7 24 8 26 9 25 10 21 11
REMARK SMILES IDX 1 12 2 13 3 14 7 15 4 16 6 17 8 18 5 19 18 20 19 21 20 22
REMARK SMILES IDX 9 23 10 24 17 25 11 26 16 27 12 28 13 29 14 30 15 31 32 32
REMARK SMILES IDX 33 33 34 34 35 35 36 36 37 37 101 38 38 39 100 40 39 41
REMARK SMILES IDX 40 42 41 43 94 44 42 45 99 46 93 47 95 48 43 49 98 50 92 51
REMARK SMILES IDX 91 52 44 54 78 55 57 56 77 57 58 58 61 59 76 60 96 61 59 62
REMARK SMILES IDX 60 63 75 65 97 66 62 67 45 68 46 69 55 70 47 71 48 72 54 73
REMARK SMILES IDX 56 74 49 75 50 76 51 77 52 78 53 79 79 80 80 81 89 82 81 83
REMARK SMILES IDX 82 84 88 85 90 86 83 87 84 88 85 89 86 90 87 91 63 92 64 93
REMARK SMILES IDX 73 94 65 95 66 96 72 97 74 98 67 99 68 100 69 101 70 102
REMARK SMILES IDX 71 103
REMARK H PARENT 95 53 61 64
REMARK Flexibility Score: inf
ROOT
ATOM      1  C   UNL A   1      37.559  23.702  26.009  1.00  0.00     0.275 C 
ENDROOT
BRANCH   1   2
ATOM      2  O   UNL A   1      36.646  23.103  25.066  1.00  0.00    -0.458 OA
BRANCH   2   3
ATOM      3  C   UNL A   1      35.328  23.225  25.369  1.00  0.00     0.340 C 
ATOM      4  O   UNL A   1      34.801  24.190  25.897  1.00  0.00    -0.246 OA
BRANCH   3   5
ATOM      5  C   UNL A   1      34.552  22.005  25.031  1.00  0.00     0.084 A 
ATOM      6  C   UNL A   1      33.195  22.018  24.663  1.00  0.00     0.063 A 
ATOM      7  C   UNL A   1      32.566  20.786  24.388  1.00  0.00     0.027 A 
ATOM      8  C   UNL A   1      33.264  19.577  24.455  1.00  0.00     0.002 A 
ATOM      9  C   UNL A   1      35.254  20.785  25.055  1.00  0.00     0.018 A 
ATOM     10  C   UNL A   1      34.612  19.577  24.787  1.00  0.00     0.001 A 
BRANCH   6  11
ATOM     11  N   UNL A   1      32.405  23.218  24.542  1.00  0.00    -0.284 N 
ATOM     12  O   UNL A   1      31.036  27.002  22.045  1.00  0.00    -0.294 OA
ATOM     13  C   UNL A   1      31.848  26.095  22.202  1.00  0.00     0.161 C 
ATOM     14  C   UNL A   1      32.896  25.781  21.173  1.00  0.00     0.081 C 
ATOM     15  C   UNL A   1      31.844  25.258  23.439  1.00  0.00     0.023 C 
ATOM     16  C   UNL A   1      32.757  24.314  20.833  1.00  0.00     0.015 C 
ATOM     17  C   UNL A   1      32.387  24.023  23.384  1.00  0.00     0.033 C 
ATOM     18  C   UNL A   1      31.157  25.819  24.655  1.00  0.00     0.064 C 
ATOM     19  C   UNL A   1      32.940  23.445  22.078  1.00  0.00     0.055 C 
ATOM     20  C   UNL A   1      30.661  24.675  25.530  1.00  0.00     0.114 C 
ATOM     21  C   UNL A   1      31.673  23.570  25.697  1.00  0.00     0.232 C 
ATOM     22  O   UNL A   1      31.746  22.991  26.784  1.00  0.00    -0.274 OA
BRANCH  18  23
ATOM     23  C   UNL A   1      31.967  26.903  25.376  1.00  0.00    -0.039 A 
ATOM     24  C   UNL A   1      33.295  27.232  25.058  1.00  0.00     0.011 A 
ATOM     25  C   UNL A   1      31.359  27.587  26.449  1.00  0.00     0.011 A 
ATOM     26  C   UNL A   1      34.002  28.186  25.807  1.00  0.00     0.086 A 
ATOM     27  C   UNL A   1      32.044  28.553  27.188  1.00  0.00     0.086 A 
ATOM     28  C   UNL A   1      33.372  28.838  26.873  1.00  0.00     0.269 A 
BRANCH  28  29
ATOM     29  N   UNL A   1      34.111  29.810  27.686  1.00  0.00     0.062 N 
ATOM     30  O   UNL A   1      33.650  30.954  27.782  1.00  0.00    -0.258 OA
ATOM     31  O   UNL A   1      35.162  29.428  28.224  1.00  0.00    -0.258 OA
ENDBRANCH  28  29
ENDBRANCH  18  23
ENDBRANCH   6  11
ENDBRANCH   3   5
ENDBRANCH   2   3
ENDBRANCH   1   2
BRANCH   1  32
ATOM     32  C   UNL A   1      38.860  22.916  26.117  1.00  0.00     0.275 C 
BRANCH  32  33
ATOM     33  O   UNL A   1      39.568  23.313  27.302  1.00  0.00    -0.458 OA
BRANCH  33  34
ATOM     34  C   UNL A   1      40.615  24.141  27.094  1.00  0.00     0.338 C 
ATOM     35  O   UNL A   1      41.566  23.968  26.347  1.00  0.00    -0.246 OA
BRANCH  34  36
ATOM     36  C   UNL A   1      40.409  25.378  27.854  1.00  0.00     0.060 A 
ATOM     37  C   UNL A   1      41.359  26.388  27.732  1.00  0.00     0.016 A 
ATOM     38  C   UNL A   1      39.383  25.488  28.785  1.00  0.00     0.016 A 
ATOM     39  C   UNL A   1      41.352  27.475  28.595  1.00  0.00     0.010 A 
ATOM     40  C   UNL A   1      39.323  26.627  29.598  1.00  0.00     0.010 A 
ATOM     41  C   UNL A   1      40.329  27.611  29.538  1.00  0.00    -0.014 A 
BRANCH  41  42
ATOM     42  C   UNL A   1      40.360  28.731  30.517  1.00  0.00     0.031 A 
ATOM     43  C   UNL A   1      41.416  28.741  31.590  1.00  0.00     0.074 A 
ATOM     44  C   UNL A   1      39.473  29.743  30.436  1.00  0.00     0.049 A 
ATOM     45  N   UNL A   1      41.496  29.478  32.666  1.00  0.00    -0.248 NA
ATOM     46  C   UNL A   1      42.521  27.780  31.436  1.00  0.00     0.031 C 
ATOM     47  C   UNL A   1      38.452  29.898  29.397  1.00  0.00     0.029 A 
ATOM     48  N   UNL A   1      39.292  30.839  31.241  1.00  0.00    -0.354 N 
ATOM     49  C   UNL A   1      42.609  29.014  33.359  1.00  0.00     0.074 A 
ATOM     50  C   UNL A   1      43.183  27.945  32.573  1.00  0.00     0.031 C 
ATOM     51  C   UNL A   1      37.777  31.039  29.608  1.00  0.00     0.029 A 
ATOM     52  C   UNL A   1      38.248  31.644  30.848  1.00  0.00     0.049 A 
ATOM     53  H   UNL A   1      39.855  31.030  32.025  1.00  0.00     0.167 HD
ATOM     54  C   UNL A   1      43.095  29.440  34.549  1.00  0.00     0.037 A 
ATOM     55  C   UNL A   1      37.698  32.718  31.446  1.00  0.00     0.037 A 
ATOM     56  C   UNL A   1      42.552  30.556  35.281  1.00  0.00     0.049 A 
ATOM     57  C   UNL A   1      38.237  33.160  32.778  1.00  0.00     0.074 A 
ATOM     58  C   UNL A   1      42.977  31.087  36.484  1.00  0.00     0.029 A 
ATOM     59  N   UNL A   1      41.474  31.323  34.862  1.00  0.00    -0.354 N 
ATOM     60  N   UNL A   1      39.237  32.664  33.466  1.00  0.00    -0.248 NA
ATOM     61  C   UNL A   1      37.554  34.285  33.429  1.00  0.00     0.031 C 
ATOM     62  C   UNL A   1      42.136  32.156  36.811  1.00  0.00     0.029 A 
ATOM     63  C   UNL A   1      41.211  32.317  35.790  1.00  0.00     0.049 A 
ATOM     64  H   UNL A   1      40.970  31.182  34.028  1.00  0.00     0.167 HD
ATOM     65  C   UNL A   1      39.312  33.423  34.627  1.00  0.00     0.074 A 
ATOM     66  C   UNL A   1      38.265  34.422  34.540  1.00  0.00     0.031 C 
ATOM     67  C   UNL A   1      40.166  33.303  35.674  1.00  0.00     0.037 A 
BRANCH  54  68
ATOM     68  C   UNL A   1      44.231  28.665  35.157  1.00  0.00     0.058 A 
ATOM     69  C   UNL A   1      45.575  28.989  34.922  1.00  0.00     0.135 A 
ATOM     70  C   UNL A   1      43.961  27.576  36.003  1.00  0.00     0.135 A 
ATOM     71  F   UNL A   1      45.892  30.007  34.106  1.00  0.00    -0.206 F 
ATOM     72  C   UNL A   1      46.611  28.244  35.478  1.00  0.00     0.059 A 
ATOM     73  C   UNL A   1      44.979  26.832  36.592  1.00  0.00     0.059 A 
ATOM     74  F   UNL A   1      42.692  27.220  36.261  1.00  0.00    -0.206 F 
ATOM     75  C   UNL A   1      46.303  27.164  36.309  1.00  0.00     0.060 A 
BRANCH  75  76
ATOM     76  S   UNL A   1      47.654  26.199  37.019  1.00  0.00     0.124 S 
ATOM     77  O   UNL A   1      47.789  26.816  38.335  1.00  0.00    -0.237 OA
ATOM     78  O   UNL A   1      47.113  24.844  37.007  1.00  0.00    -0.237 OA
ATOM     79  O   UNL A   1      48.762  26.437  36.099  1.00  0.00    -0.744 OA
ENDBRANCH  75  76
ENDBRANCH  54  68
BRANCH  55  80
ATOM     80  C   UNL A   1      36.548  33.416  30.810  1.00  0.00     0.058 A 
ATOM     81  C   UNL A   1      35.258  33.317  31.350  1.00  0.00     0.135 A 
ATOM     82  C   UNL A   1      36.719  34.217  29.669  1.00  0.00     0.135 A 
ATOM     83  F   UNL A   1      35.041  32.554  32.432  1.00  0.00    -0.206 F 
ATOM     84  C   UNL A   1      34.178  33.988  30.784  1.00  0.00     0.059 A 
ATOM     85  C   UNL A   1      35.661  34.920  29.103  1.00  0.00     0.059 A 
ATOM     86  F   UNL A   1      37.935  34.352  29.118  1.00  0.00    -0.206 F 
ATOM     87  C   UNL A   1      34.391  34.793  29.663  1.00  0.00     0.060 A 
BRANCH  87  88
ATOM     88  S   UNL A   1      32.999  35.719  28.980  1.00  0.00     0.124 S 
ATOM     89  O   UNL A   1      33.681  36.808  28.291  1.00  0.00    -0.237 OA
ATOM     90  O   UNL A   1      32.357  34.725  28.126  1.00  0.00    -0.237 OA
ATOM     91  O   UNL A   1      32.237  36.100  30.165  1.00  0.00    -0.744 OA
ENDBRANCH  87  88
ENDBRANCH  55  80
BRANCH  67  92
ATOM     92  C   UNL A   1      40.022  34.298  36.789  1.00  0.00     0.058 A 
ATOM     93  C   UNL A   1      39.201  34.044  37.898  1.00  0.00     0.135 A 
ATOM     94  C   UNL A   1      40.747  35.499  36.764  1.00  0.00     0.135 A 
ATOM     95  F   UNL A   1      38.482  32.912  37.962  1.00  0.00    -0.206 F 
ATOM     96  C   UNL A   1      39.087  34.960  38.938  1.00  0.00     0.059 A 
ATOM     97  C   UNL A   1      40.665  36.419  37.803  1.00  0.00     0.059 A 
ATOM     98  F   UNL A   1      41.552  35.783  35.728  1.00  0.00    -0.206 F 
ATOM     99  C   UNL A   1      39.823  36.145  38.881  1.00  0.00     0.060 A 
BRANCH  99 100
ATOM    100  S   UNL A   1      39.691  37.316  40.250  1.00  0.00     0.124 S 
ATOM    101  O   UNL A   1      40.090  36.487  41.382  1.00  0.00    -0.237 OA
ATOM    102  O   UNL A   1      40.636  38.359  39.864  1.00  0.00    -0.237 OA
ATOM    103  O   UNL A   1      38.286  37.710  40.223  1.00  0.00    -0.744 OA
ENDBRANCH  99 100
ENDBRANCH  67  92
ENDBRANCH  41  42
ENDBRANCH  34  36
ENDBRANCH  33  34
ENDBRANCH  32  33
ENDBRANCH   1  32
TORSDOF 17
ENDMDL
MODEL 3
REMARK VINA RESULT:     -12.4      0.838      7.876
REMARK SMILES O=C1CCCC2=C1[C@H](c1ccc([N+](=O)[O-])cc1)CC(=O)N2c1ccccc1C(=O)OCCOC(=O)c1ccc(-c2c3nc(c(-c4c(F)cc(S(=O)(=O)[O-])cc4F)c4ccc([nH]4)c(-c4c(F)cc(S(=O)(=O)[O-])cc4F)c4nc(c(-c5c(F)cc(S(=O)(=O)[O-])cc5F)c5ccc2[nH]5)C=C4)C=C3)cc1
REMARK SMILES IDX 31 1 30 2 28 3 29 4 27 5 22 6 23 7 24 8 26 9 25 10 21 11
REMARK SMILES IDX 1 12 2 13 3 14 7 15 4 16 6 17 8 18 5 19 18 20 19 21 20 22
REMARK SMILES IDX 9 23 10 24 17 25 11 26 16 27 12 28 13 29 14 30 15 31 32 32
REMARK SMILES IDX 33 33 34 34 35 35 36 36 37 37 101 38 38 39 100 40 39 41
REMARK SMILES IDX 40 42 41 43 94 44 42 45 99 46 93 47 95 48 43 49 98 50 92 51
REMARK SMILES IDX 91 52 44 54 78 55 57 56 77 57 58 58 61 59 76 60 96 61 59 62
REMARK SMILES IDX 60 63 75 65 97 66 62 67 45 68 46 69 55 70 47 71 48 72 54 73
REMARK SMILES IDX 56 74 49 75 50 76 51 77 52 78 53 79 79 80 80 81 89 82 81 83
REMARK SMILES IDX 82 84 88 85 90 86 83 87 84 88 85 89 86 90 87 91 63 92 64 93
REMARK SMILES IDX 73 94 65 95 66 96 72 97 74 98 67 99 68 100 69 101 70 102
REMARK SMILES IDX 71 103
REMARK H PARENT 95 53 61 64
REMARK Flexibility Score: inf
ROOT
ATOM      1  C   UNL A   1      34.307  29.425  26.838  1.00  0.00     0.275 C 
ENDROOT
BRANCH   1   2
ATOM      2  O   UNL A   1      33.132  28.634  26.564  1.00  0.00    -0.458 OA
BRANCH   2   3
ATOM      3  C   UNL A   1      33.136  27.971  25.380  1.00  0.00     0.340 C 
ATOM      4  O   UNL A   1      34.039  27.271  24.954  1.00  0.00    -0.246 OA
BRANCH   3   5
ATOM      5  C   UNL A   1      31.908  28.222  24.584  1.00  0.00     0.084 A 
ATOM      6  C   UNL A   1      31.270  27.244  23.800  1.00  0.00     0.063 A 
ATOM      7  C   UNL A   1      30.121  27.617  23.072  1.00  0.00     0.027 A 
ATOM      8  C   UNL A   1      29.605  28.915  23.133  1.00  0.00     0.002 A 
ATOM      9  C   UNL A   1      31.354  29.514  24.669  1.00  0.00     0.018 A 
ATOM     10  C   UNL A   1      30.222  29.864  23.936  1.00  0.00     0.001 A 
BRANCH   6  11
ATOM     11  N   UNL A   1      31.715  25.877  23.698  1.00  0.00    -0.284 N 
ATOM     12  O   UNL A   1      31.902  21.477  25.440  1.00  0.00    -0.294 OA
ATOM     13  C   UNL A   1      31.673  22.667  25.636  1.00  0.00     0.161 C 
ATOM     14  C   UNL A   1      31.024  23.151  26.901  1.00  0.00     0.081 C 
ATOM     15  C   UNL A   1      32.042  23.703  24.627  1.00  0.00     0.023 C 
ATOM     16  C   UNL A   1      29.815  23.964  26.495  1.00  0.00     0.015 C 
ATOM     17  C   UNL A   1      31.377  24.878  24.636  1.00  0.00     0.033 C 
ATOM     18  C   UNL A   1      33.083  23.336  23.604  1.00  0.00     0.064 C 
ATOM     19  C   UNL A   1      30.223  25.142  25.606  1.00  0.00     0.055 C 
ATOM     20  C   UNL A   1      32.858  24.151  22.336  1.00  0.00     0.114 C 
ATOM     21  C   UNL A   1      32.568  25.606  22.607  1.00  0.00     0.232 C 
ATOM     22  O   UNL A   1      33.012  26.454  21.829  1.00  0.00    -0.274 OA
BRANCH  18  23
ATOM     23  C   UNL A   1      34.515  23.343  24.152  1.00  0.00    -0.039 A 
ATOM     24  C   UNL A   1      35.603  22.724  23.513  1.00  0.00     0.011 A 
ATOM     25  C   UNL A   1      34.752  23.972  25.391  1.00  0.00     0.011 A 
ATOM     26  C   UNL A   1      36.875  22.706  24.107  1.00  0.00     0.086 A 
ATOM     27  C   UNL A   1      36.017  23.980  25.983  1.00  0.00     0.086 A 
ATOM     28  C   UNL A   1      37.073  23.332  25.343  1.00  0.00     0.269 A 
BRANCH  28  29
ATOM     29  N   UNL A   1      38.388  23.288  25.992  1.00  0.00     0.062 N 
ATOM     30  O   UNL A   1      39.011  22.219  25.963  1.00  0.00    -0.258 OA
ATOM     31  O   UNL A   1      38.793  24.324  26.540  1.00  0.00    -0.258 OA
ENDBRANCH  28  29
ENDBRANCH  18  23
ENDBRANCH   6  11
ENDBRANCH   3   5
ENDBRANCH   2   3
ENDBRANCH   1   2
BRANCH   1  32
ATOM     32  C   UNL A   1      35.039  28.944  28.085  1.00  0.00     0.275 C 
BRANCH  32  33
ATOM     33  O   UNL A   1      35.910  29.980  28.565  1.00  0.00    -0.458 OA
BRANCH  33  34
ATOM     34  C   UNL A   1      36.622  29.665  29.668  1.00  0.00     0.338 C 
ATOM     35  O   UNL A   1      36.193  29.338  30.765  1.00  0.00    -0.246 OA
BRANCH  34  36
ATOM     36  C   UNL A   1      38.051  29.680  29.340  1.00  0.00     0.060 A 
ATOM     37  C   UNL A   1      38.416  29.845  28.007  1.00  0.00     0.016 A 
ATOM     38  C   UNL A   1      39.013  29.389  30.301  1.00  0.00     0.016 A 
ATOM     39  C   UNL A   1      39.726  29.633  27.601  1.00  0.00     0.010 A 
ATOM     40  C   UNL A   1      40.350  29.262  29.906  1.00  0.00     0.010 A 
ATOM     41  C   UNL A   1      40.712  29.342  28.547  1.00  0.00    -0.014 A 
BRANCH  41  42
ATOM     42  C   UNL A   1      42.100  29.036  28.108  1.00  0.00     0.031 A 
ATOM     43  C   UNL A   1      42.441  27.639  27.664  1.00  0.00     0.074 A 
ATOM     44  C   UNL A   1      43.043  29.999  28.080  1.00  0.00     0.049 A 
ATOM     45  N   UNL A   1      43.612  27.096  27.461  1.00  0.00    -0.248 NA
ATOM     46  C   UNL A   1      41.308  26.726  27.433  1.00  0.00     0.031 C 
ATOM     47  C   UNL A   1      42.827  31.411  28.405  1.00  0.00     0.029 A 
ATOM     48  N   UNL A   1      44.376  29.936  27.757  1.00  0.00    -0.354 N 
ATOM     49  C   UNL A   1      43.363  25.761  27.162  1.00  0.00     0.074 A 
ATOM     50  C   UNL A   1      41.928  25.580  27.193  1.00  0.00     0.031 C 
ATOM     51  C   UNL A   1      43.975  32.085  28.231  1.00  0.00     0.029 A 
ATOM     52  C   UNL A   1      45.028  31.141  27.879  1.00  0.00     0.049 A 
ATOM     53  H   UNL A   1      44.821  29.109  27.466  1.00  0.00     0.167 HD
ATOM     54  C   UNL A   1      44.256  24.778  26.899  1.00  0.00     0.037 A 
ATOM     55  C   UNL A   1      46.337  31.442  27.772  1.00  0.00     0.037 A 
ATOM     56  C   UNL A   1      45.677  24.995  26.800  1.00  0.00     0.049 A 
ATOM     57  C   UNL A   1      47.315  30.332  27.503  1.00  0.00     0.074 A 
ATOM     58  C   UNL A   1      46.673  24.078  26.518  1.00  0.00     0.029 A 
ATOM     59  N   UNL A   1      46.300  26.225  26.964  1.00  0.00    -0.354 N 
ATOM     60  N   UNL A   1      47.079  29.057  27.304  1.00  0.00    -0.248 NA
ATOM     61  C   UNL A   1      48.738  30.695  27.475  1.00  0.00     0.031 C 
ATOM     62  C   UNL A   1      47.901  24.746  26.542  1.00  0.00     0.029 A 
ATOM     63  C   UNL A   1      47.668  26.089  26.800  1.00  0.00     0.049 A 
ATOM     64  H   UNL A   1      45.836  27.070  27.166  1.00  0.00     0.167 HD
ATOM     65  C   UNL A   1      48.322  28.466  27.116  1.00  0.00     0.074 A 
ATOM     66  C   UNL A   1      49.306  29.526  27.209  1.00  0.00     0.031 C 
ATOM     67  C   UNL A   1      48.624  27.163  26.891  1.00  0.00     0.037 A 
BRANCH  54  68
ATOM     68  C   UNL A   1      43.731  23.376  26.755  1.00  0.00     0.058 A 
ATOM     69  C   UNL A   1      43.297  22.619  27.853  1.00  0.00     0.135 A 
ATOM     70  C   UNL A   1      43.655  22.785  25.483  1.00  0.00     0.135 A 
ATOM     71  F   UNL A   1      43.366  23.126  29.094  1.00  0.00    -0.206 F 
ATOM     72  C   UNL A   1      42.835  21.314  27.699  1.00  0.00     0.059 A 
ATOM     73  C   UNL A   1      43.172  21.492  25.301  1.00  0.00     0.059 A 
ATOM     74  F   UNL A   1      44.060  23.464  24.398  1.00  0.00    -0.206 F 
ATOM     75  C   UNL A   1      42.781  20.758  26.420  1.00  0.00     0.060 A 
BRANCH  75  76
ATOM     76  S   UNL A   1      42.187  19.063  26.232  1.00  0.00     0.124 S 
ATOM     77  O   UNL A   1      40.829  19.284  25.744  1.00  0.00    -0.237 OA
ATOM     78  O   UNL A   1      43.125  18.507  25.262  1.00  0.00    -0.237 OA
ATOM     79  O   UNL A   1      42.287  18.516  27.581  1.00  0.00    -0.744 OA
ENDBRANCH  75  76
ENDBRANCH  54  68
BRANCH  55  80
ATOM     80  C   UNL A   1      46.797  32.843  27.967  1.00  0.00     0.058 A 
ATOM     81  C   UNL A   1      46.730  33.774  26.920  1.00  0.00     0.135 A 
ATOM     82  C   UNL A   1      47.284  33.288  29.207  1.00  0.00     0.135 A 
ATOM     83  F   UNL A   1      46.285  33.395  25.713  1.00  0.00    -0.206 F 
ATOM     84  C   UNL A   1      47.128  35.096  27.095  1.00  0.00     0.059 A 
ATOM     85  C   UNL A   1      47.661  34.611  29.414  1.00  0.00     0.059 A 
ATOM     86  F   UNL A   1      47.359  32.439  30.243  1.00  0.00    -0.206 F 
ATOM     87  C   UNL A   1      47.586  35.507  28.349  1.00  0.00     0.060 A 
BRANCH  87  88
ATOM     88  S   UNL A   1      48.030  37.241  28.588  1.00  0.00     0.124 S 
ATOM     89  O   UNL A   1      47.037  37.915  27.760  1.00  0.00    -0.237 OA
ATOM     90  O   UNL A   1      47.875  37.403  30.030  1.00  0.00    -0.237 OA
ATOM     91  O   UNL A   1      49.406  37.304  28.104  1.00  0.00    -0.744 OA
ENDBRANCH  87  88
ENDBRANCH  55  80
BRANCH  67  92
ATOM     92  C   UNL A   1      50.073  26.823  26.698  1.00  0.00     0.058 A 
ATOM     93  C   UNL A   1      50.911  26.532  27.785  1.00  0.00     0.135 A 
ATOM     94  C   UNL A   1      50.616  26.748  25.406  1.00  0.00     0.135 A 
ATOM     95  F   UNL A   1      50.439  26.600  29.039  1.00  0.00    -0.206 F 
ATOM     96  C   UNL A   1      52.248  26.198  27.598  1.00  0.00     0.059 A 
ATOM     97  C   UNL A   1      51.944  26.394  25.195  1.00  0.00     0.059 A 
ATOM     98  F   UNL A   1      49.851  27.009  24.334  1.00  0.00    -0.206 F 
ATOM     99  C   UNL A   1      52.755  26.131  26.299  1.00  0.00     0.060 A 
BRANCH  99 100
ATOM    100  S   UNL A   1      54.484  25.668  26.065  1.00  0.00     0.124 S 
ATOM    101  O   UNL A   1      54.388  24.737  24.945  1.00  0.00    -0.237 OA
ATOM    102  O   UNL A   1      55.116  26.950  25.771  1.00  0.00    -0.237 OA
ATOM    103  O   UNL A   1      54.852  25.074  27.346  1.00  0.00    -0.744 OA
ENDBRANCH  99 100
ENDBRANCH  67  92
ENDBRANCH  41  42
ENDBRANCH  34  36
ENDBRANCH  33  34
ENDBRANCH  32  33
ENDBRANCH   1  32
TORSDOF 17
ENDMDL
