MODEL 1
REMARK VINA RESULT:     -10.3      0.000      0.000
REMARK SMILES C[C@@H](NS(=O)(=O)/C=C/c1ccccc1)C(=O)OCCOC(=O)c1ccc(-c2c3nc(c(-c4c(F)cc(S(=O)(=O)[O-])cc4F)c4ccc([nH]4)c(-c4c(F)cc(S(=O)(=O)[O-])cc4F)c4nc(c(-c5c(F)cc(S(=O)(=O)[O-])cc5F)c5ccc2[nH]5)C=C4)C=C3)cc1
REMARK SMILES IDX 18 1 17 2 15 3 16 4 2 5 1 6 3 7 4 9 5 10 6 11 7 12 8 13 9 14
REMARK SMILES IDX 10 15 14 16 11 17 13 18 12 19 19 20 20 21 21 22 22 23 23 24
REMARK SMILES IDX 24 25 88 26 25 27 87 28 26 29 27 30 28 31 81 32 29 33 86 34
REMARK SMILES IDX 80 35 82 36 30 37 85 38 79 39 78 40 31 42 65 43 44 44 64 45
REMARK SMILES IDX 45 46 48 47 63 48 83 49 46 50 47 51 62 53 84 54 49 55 32 56
REMARK SMILES IDX 33 57 42 58 34 59 35 60 41 61 43 62 36 63 37 64 38 65 39 66
REMARK SMILES IDX 40 67 66 68 67 69 76 70 68 71 69 72 75 73 77 74 70 75 71 76
REMARK SMILES IDX 72 77 73 78 74 79 50 80 51 81 60 82 52 83 53 84 59 85 61 86
REMARK SMILES IDX 54 87 55 88 56 89 57 90 58 91
REMARK H PARENT 3 8 82 41 48 52
REMARK Flexibility Score: inf
ROOT
ATOM      1  C   UNL A   1      35.875  33.242  33.990  1.00  0.00     0.274 C 
ENDROOT
BRANCH   1   2
ATOM      2  O   UNL A   1      35.328  34.398  33.330  1.00  0.00    -0.461 OA
BRANCH   2   3
ATOM      3  C   UNL A   1      34.078  34.247  32.813  1.00  0.00     0.324 C 
ATOM      4  O   UNL A   1      33.339  33.303  33.064  1.00  0.00    -0.250 OA
BRANCH   3   5
ATOM      5  C   UNL A   1      33.690  35.317  31.808  1.00  0.00     0.176 C 
ATOM      6  C   UNL A   1      33.843  36.731  32.356  1.00  0.00     0.038 C 
BRANCH   5   7
ATOM      7  N   UNL A   1      34.486  35.167  30.551  1.00  0.00    -0.198 NA
ATOM      8  H   UNL A   1      34.919  34.244  30.567  1.00  0.00     0.142 HD
BRANCH   7   9
ATOM      9  S   UNL A   1      33.627  35.313  29.077  1.00  0.00     0.234 S 
ATOM     10  O   UNL A   1      32.365  35.919  29.428  1.00  0.00    -0.208 OA
ATOM     11  O   UNL A   1      34.555  36.026  28.216  1.00  0.00    -0.208 OA
BRANCH   9  12
ATOM     12  C   UNL A   1      33.350  33.741  28.412  1.00  0.00     0.123 C 
ATOM     13  C   UNL A   1      34.384  32.933  28.140  1.00  0.00     0.021 C 
BRANCH  13  14
ATOM     14  C   UNL A   1      34.243  31.536  27.702  1.00  0.00    -0.025 A 
ATOM     15  C   UNL A   1      33.007  30.990  27.325  1.00  0.00     0.008 A 
ATOM     16  C   UNL A   1      35.350  30.688  27.785  1.00  0.00     0.008 A 
ATOM     17  C   UNL A   1      32.867  29.619  27.099  1.00  0.00     0.001 A 
ATOM     18  C   UNL A   1      35.219  29.321  27.525  1.00  0.00     0.001 A 
ATOM     19  C   UNL A   1      33.973  28.783  27.204  1.00  0.00     0.000 A 
ENDBRANCH  13  14
ENDBRANCH   9  12
ENDBRANCH   7   9
ENDBRANCH   5   7
ENDBRANCH   3   5
ENDBRANCH   2   3
ENDBRANCH   1   2
BRANCH   1  20
ATOM     20  C   UNL A   1      37.260  32.793  33.498  1.00  0.00     0.275 C 
BRANCH  20  21
ATOM     21  O   UNL A   1      37.239  31.629  32.652  1.00  0.00    -0.458 OA
BRANCH  21  22
ATOM     22  C   UNL A   1      37.360  31.899  31.328  1.00  0.00     0.338 C 
ATOM     23  O   UNL A   1      36.776  32.779  30.714  1.00  0.00    -0.246 OA
BRANCH  22  24
ATOM     24  C   UNL A   1      38.437  31.098  30.717  1.00  0.00     0.060 A 
ATOM     25  C   UNL A   1      39.451  30.625  31.562  1.00  0.00     0.016 A 
ATOM     26  C   UNL A   1      38.525  30.915  29.338  1.00  0.00     0.016 A 
ATOM     27  C   UNL A   1      40.577  30.005  31.036  1.00  0.00     0.010 A 
ATOM     28  C   UNL A   1      39.668  30.311  28.806  1.00  0.00     0.010 A 
ATOM     29  C   UNL A   1      40.713  29.889  29.651  1.00  0.00    -0.014 A 
BRANCH  29  30
ATOM     30  C   UNL A   1      42.024  29.508  29.078  1.00  0.00     0.031 A 
ATOM     31  C   UNL A   1      42.202  28.100  28.581  1.00  0.00     0.074 A 
ATOM     32  C   UNL A   1      43.022  30.400  28.975  1.00  0.00     0.049 A 
ATOM     33  N   UNL A   1      43.288  27.490  28.187  1.00  0.00    -0.248 NA
ATOM     34  C   UNL A   1      40.988  27.269  28.527  1.00  0.00     0.031 C 
ATOM     35  C   UNL A   1      42.932  31.815  29.336  1.00  0.00     0.029 A 
ATOM     36  N   UNL A   1      44.316  30.242  28.549  1.00  0.00    -0.354 N 
ATOM     37  C   UNL A   1      42.896  26.193  27.872  1.00  0.00     0.074 A 
ATOM     38  C   UNL A   1      41.476  26.104  28.128  1.00  0.00     0.031 C 
ATOM     39  C   UNL A   1      44.131  32.389  29.141  1.00  0.00     0.029 A 
ATOM     40  C   UNL A   1      45.081  31.374  28.690  1.00  0.00     0.049 A 
ATOM     41  H   UNL A   1      44.663  29.399  28.177  1.00  0.00     0.167 HD
ATOM     42  C   UNL A   1      43.659  25.171  27.416  1.00  0.00     0.037 A 
ATOM     43  C   UNL A   1      46.405  31.554  28.519  1.00  0.00     0.037 A 
ATOM     44  C   UNL A   1      45.069  25.284  27.155  1.00  0.00     0.049 A 
ATOM     45  C   UNL A   1      47.251  30.389  28.078  1.00  0.00     0.074 A 
ATOM     46  C   UNL A   1      45.942  24.313  26.697  1.00  0.00     0.029 A 
ATOM     47  N   UNL A   1      45.814  26.444  27.329  1.00  0.00    -0.354 N 
ATOM     48  N   UNL A   1      46.884  29.155  27.820  1.00  0.00    -0.248 NA
ATOM     49  C   UNL A   1      48.689  30.634  27.911  1.00  0.00     0.031 C 
ATOM     50  C   UNL A   1      47.223  24.874  26.636  1.00  0.00     0.029 A 
ATOM     51  C   UNL A   1      47.138  26.208  27.004  1.00  0.00     0.049 A 
ATOM     52  H   UNL A   1      45.453  27.305  27.638  1.00  0.00     0.167 HD
ATOM     53  C   UNL A   1      48.040  28.486  27.430  1.00  0.00     0.074 A 
ATOM     54  C   UNL A   1      49.117  29.452  27.487  1.00  0.00     0.031 C 
ATOM     55  C   UNL A   1      48.193  27.192  27.054  1.00  0.00     0.037 A 
BRANCH  42  56
ATOM     56  C   UNL A   1      42.988  23.839  27.227  1.00  0.00     0.058 A 
ATOM     57  C   UNL A   1      42.843  22.920  28.277  1.00  0.00     0.135 A 
ATOM     58  C   UNL A   1      42.488  23.476  25.966  1.00  0.00     0.135 A 
ATOM     59  F   UNL A   1      43.321  23.206  29.498  1.00  0.00    -0.206 F 
ATOM     60  C   UNL A   1      42.257  21.673  28.076  1.00  0.00     0.059 A 
ATOM     61  C   UNL A   1      41.874  22.245  25.747  1.00  0.00     0.059 A 
ATOM     62  F   UNL A   1      42.604  24.314  24.924  1.00  0.00    -0.206 F 
ATOM     63  C   UNL A   1      41.782  21.342  26.805  1.00  0.00     0.060 A 
BRANCH  63  64
ATOM     64  S   UNL A   1      41.047  19.713  26.552  1.00  0.00     0.124 S 
ATOM     65  O   UNL A   1      39.780  20.062  25.915  1.00  0.00    -0.237 OA
ATOM     66  O   UNL A   1      42.027  19.057  25.692  1.00  0.00    -0.237 OA
ATOM     67  O   UNL A   1      40.942  19.173  27.903  1.00  0.00    -0.744 OA
ENDBRANCH  63  64
ENDBRANCH  42  56
BRANCH  43  68
ATOM     68  C   UNL A   1      47.008  32.885  28.796  1.00  0.00     0.058 A 
ATOM     69  C   UNL A   1      47.457  33.226  30.078  1.00  0.00     0.135 A 
ATOM     70  C   UNL A   1      47.173  33.832  27.771  1.00  0.00     0.135 A 
ATOM     71  F   UNL A   1      47.309  32.361  31.093  1.00  0.00    -0.206 F 
ATOM     72  C   UNL A   1      48.050  34.458  30.339  1.00  0.00     0.059 A 
ATOM     73  C   UNL A   1      47.785  35.060  28.001  1.00  0.00     0.059 A 
ATOM     74  F   UNL A   1      46.765  33.551  26.524  1.00  0.00    -0.206 F 
ATOM     75  C   UNL A   1      48.215  35.366  29.291  1.00  0.00     0.060 A 
BRANCH  75  76
ATOM     76  S   UNL A   1      49.045  36.935  29.625  1.00  0.00     0.124 S 
ATOM     77  O   UNL A   1      47.944  37.883  29.503  1.00  0.00    -0.237 OA
ATOM     78  O   UNL A   1      49.562  36.728  30.975  1.00  0.00    -0.237 OA
ATOM     79  O   UNL A   1      50.061  37.007  28.579  1.00  0.00    -0.744 OA
ENDBRANCH  75  76
ENDBRANCH  43  68
BRANCH  55  80
ATOM     80  C   UNL A   1      49.565  26.751  26.623  1.00  0.00     0.058 A 
ATOM     81  C   UNL A   1      50.448  26.110  27.505  1.00  0.00     0.135 A 
ATOM     82  C   UNL A   1      49.967  26.906  25.287  1.00  0.00     0.135 A 
ATOM     83  F   UNL A   1      50.114  25.942  28.794  1.00  0.00    -0.206 F 
ATOM     84  C   UNL A   1      51.690  25.649  27.079  1.00  0.00     0.059 A 
ATOM     85  C   UNL A   1      51.192  26.430  24.833  1.00  0.00     0.059 A 
ATOM     86  F   UNL A   1      49.153  27.503  24.401  1.00  0.00    -0.206 F 
ATOM     87  C   UNL A   1      52.050  25.809  25.738  1.00  0.00     0.060 A 
BRANCH  87  88
ATOM     88  S   UNL A   1      53.642  25.159  25.185  1.00  0.00     0.124 S 
ATOM     89  O   UNL A   1      53.709  25.668  23.819  1.00  0.00    -0.237 OA
ATOM     90  O   UNL A   1      54.573  25.764  26.133  1.00  0.00    -0.237 OA
ATOM     91  O   UNL A   1      53.480  23.713  25.310  1.00  0.00    -0.744 OA
ENDBRANCH  87  88
ENDBRANCH  55  80
ENDBRANCH  29  30
ENDBRANCH  22  24
ENDBRANCH  21  22
ENDBRANCH  20  21
ENDBRANCH   1  20
TORSDOF 18
ENDMDL
MODEL 2
REMARK VINA RESULT:     -10.2      5.730     13.659
REMARK SMILES C[C@@H](NS(=O)(=O)/C=C/c1ccccc1)C(=O)OCCOC(=O)c1ccc(-c2c3nc(c(-c4c(F)cc(S(=O)(=O)[O-])cc4F)c4ccc([nH]4)c(-c4c(F)cc(S(=O)(=O)[O-])cc4F)c4nc(c(-c5c(F)cc(S(=O)(=O)[O-])cc5F)c5ccc2[nH]5)C=C4)C=C3)cc1
REMARK SMILES IDX 18 1 17 2 15 3 16 4 2 5 1 6 3 7 4 9 5 10 6 11 7 12 8 13 9 14
REMARK SMILES IDX 10 15 14 16 11 17 13 18 12 19 19 20 20 21 21 22 22 23 23 24
REMARK SMILES IDX 24 25 88 26 25 27 87 28 26 29 27 30 28 31 81 32 29 33 86 34
REMARK SMILES IDX 80 35 82 36 30 37 85 38 79 39 78 40 31 42 65 43 44 44 64 45
REMARK SMILES IDX 45 46 48 47 63 48 83 49 46 50 47 51 62 53 84 54 49 55 32 56
REMARK SMILES IDX 33 57 42 58 34 59 35 60 41 61 43 62 36 63 37 64 38 65 39 66
REMARK SMILES IDX 40 67 66 68 67 69 76 70 68 71 69 72 75 73 77 74 70 75 71 76
REMARK SMILES IDX 72 77 73 78 74 79 50 80 51 81 60 82 52 83 53 84 59 85 61 86
REMARK SMILES IDX 54 87 55 88 56 89 57 90 58 91
REMARK H PARENT 3 8 82 41 48 52
REMARK Flexibility Score: inf
ROOT
ATOM      1  C   UNL A   1      45.994  23.825  25.400  1.00  0.00     0.274 C 
ENDROOT
BRANCH   1   2
ATOM      2  O   UNL A   1      45.247  22.673  25.830  1.00  0.00    -0.461 OA
BRANCH   2   3
ATOM      3  C   UNL A   1      44.536  22.035  24.862  1.00  0.00     0.324 C 
ATOM      4  O   UNL A   1      43.862  22.607  24.013  1.00  0.00    -0.250 OA
BRANCH   3   5
ATOM      5  C   UNL A   1      44.566  20.521  24.965  1.00  0.00     0.176 C 
ATOM      6  C   UNL A   1      45.963  19.941  24.778  1.00  0.00     0.038 C 
BRANCH   5   7
ATOM      7  N   UNL A   1      43.999  20.075  26.275  1.00  0.00    -0.198 NA
ATOM      8  H   UNL A   1      43.635  20.900  26.752  1.00  0.00     0.142 HD
BRANCH   7   9
ATOM      9  S   UNL A   1      42.742  18.915  26.211  1.00  0.00     0.234 S 
ATOM     10  O   UNL A   1      42.959  18.182  24.988  1.00  0.00    -0.208 OA
ATOM     11  O   UNL A   1      42.848  18.232  27.489  1.00  0.00    -0.208 OA
BRANCH   9  12
ATOM     12  C   UNL A   1      41.214  19.721  26.140  1.00  0.00     0.123 C 
ATOM     13  C   UNL A   1      41.111  21.002  26.519  1.00  0.00     0.021 C 
BRANCH  13  14
ATOM     14  C   UNL A   1      39.890  21.809  26.368  1.00  0.00    -0.025 A 
ATOM     15  C   UNL A   1      38.766  21.344  25.670  1.00  0.00     0.008 A 
ATOM     16  C   UNL A   1      39.894  23.131  26.823  1.00  0.00     0.008 A 
ATOM     17  C   UNL A   1      37.699  22.196  25.377  1.00  0.00     0.001 A 
ATOM     18  C   UNL A   1      38.811  23.975  26.561  1.00  0.00     0.001 A 
ATOM     19  C   UNL A   1      37.724  23.515  25.819  1.00  0.00     0.000 A 
ENDBRANCH  13  14
ENDBRANCH   9  12
ENDBRANCH   7   9
ENDBRANCH   5   7
ENDBRANCH   3   5
ENDBRANCH   2   3
ENDBRANCH   1   2
BRANCH   1  20
ATOM     20  C   UNL A   1      45.452  25.182  25.879  1.00  0.00     0.275 C 
BRANCH  20  21
ATOM     21  O   UNL A   1      44.327  25.088  26.772  1.00  0.00    -0.458 OA
BRANCH  21  22
ATOM     22  C   UNL A   1      43.181  25.626  26.284  1.00  0.00     0.338 C 
ATOM     23  O   UNL A   1      42.657  25.361  25.212  1.00  0.00    -0.246 OA
BRANCH  22  24
ATOM     24  C   UNL A   1      42.518  26.470  27.295  1.00  0.00     0.060 A 
ATOM     25  C   UNL A   1      43.019  27.765  27.488  1.00  0.00     0.016 A 
ATOM     26  C   UNL A   1      41.512  25.973  28.122  1.00  0.00     0.016 A 
ATOM     27  C   UNL A   1      42.553  28.556  28.530  1.00  0.00     0.010 A 
ATOM     28  C   UNL A   1      41.057  26.760  29.185  1.00  0.00     0.010 A 
ATOM     29  C   UNL A   1      41.603  28.038  29.413  1.00  0.00    -0.014 A 
BRANCH  29  30
ATOM     30  C   UNL A   1      41.325  28.748  30.682  1.00  0.00     0.031 A 
ATOM     31  C   UNL A   1      40.176  29.717  30.719  1.00  0.00     0.074 A 
ATOM     32  C   UNL A   1      42.059  28.516  31.783  1.00  0.00     0.049 A 
ATOM     33  N   UNL A   1      39.833  30.564  31.652  1.00  0.00    -0.248 NA
ATOM     34  C   UNL A   1      39.297  29.731  29.537  1.00  0.00     0.031 C 
ATOM     35  C   UNL A   1      43.135  27.532  31.889  1.00  0.00     0.029 A 
ATOM     36  N   UNL A   1      42.017  29.107  33.019  1.00  0.00    -0.354 N 
ATOM     37  C   UNL A   1      38.722  31.238  31.157  1.00  0.00     0.074 A 
ATOM     38  C   UNL A   1      38.453  30.706  29.840  1.00  0.00     0.031 C 
ATOM     39  C   UNL A   1      43.670  27.605  33.119  1.00  0.00     0.029 A 
ATOM     40  C   UNL A   1      43.008  28.674  33.866  1.00  0.00     0.049 A 
ATOM     41  H   UNL A   1      41.342  29.776  33.276  1.00  0.00     0.167 HD
ATOM     42  C   UNL A   1      37.999  32.217  31.752  1.00  0.00     0.037 A 
ATOM     43  C   UNL A   1      43.367  29.123  35.084  1.00  0.00     0.037 A 
ATOM     44  C   UNL A   1      38.274  32.723  33.070  1.00  0.00     0.049 A 
ATOM     45  C   UNL A   1      42.595  30.259  35.702  1.00  0.00     0.074 A 
ATOM     46  C   UNL A   1      37.612  33.717  33.768  1.00  0.00     0.029 A 
ATOM     47  N   UNL A   1      39.301  32.273  33.890  1.00  0.00    -0.354 N 
ATOM     48  N   UNL A   1      41.571  30.920  35.215  1.00  0.00    -0.248 NA
ATOM     49  C   UNL A   1      43.029  30.716  37.029  1.00  0.00     0.031 C 
ATOM     50  C   UNL A   1      38.264  33.897  34.993  1.00  0.00     0.029 A 
ATOM     51  C   UNL A   1      39.300  32.979  35.080  1.00  0.00     0.049 A 
ATOM     52  H   UNL A   1      39.935  31.557  33.658  1.00  0.00     0.167 HD
ATOM     53  C   UNL A   1      41.218  31.849  36.188  1.00  0.00     0.074 A 
ATOM     54  C   UNL A   1      42.139  31.665  37.291  1.00  0.00     0.031 C 
ATOM     55  C   UNL A   1      40.219  32.767  36.172  1.00  0.00     0.037 A 
BRANCH  42  56
ATOM     56  C   UNL A   1      36.880  32.831  30.956  1.00  0.00     0.058 A 
ATOM     57  C   UNL A   1      37.117  33.748  29.921  1.00  0.00     0.135 A 
ATOM     58  C   UNL A   1      35.547  32.497  31.242  1.00  0.00     0.135 A 
ATOM     59  F   UNL A   1      38.371  34.119  29.618  1.00  0.00    -0.206 F 
ATOM     60  C   UNL A   1      36.069  34.340  29.220  1.00  0.00     0.059 A 
ATOM     61  C   UNL A   1      34.484  33.056  30.537  1.00  0.00     0.059 A 
ATOM     62  F   UNL A   1      35.262  31.628  32.225  1.00  0.00    -0.206 F 
ATOM     63  C   UNL A   1      34.756  33.992  29.541  1.00  0.00     0.060 A 
BRANCH  63  64
ATOM     64  S   UNL A   1      33.405  34.784  28.643  1.00  0.00     0.124 S 
ATOM     65  O   UNL A   1      34.104  35.876  27.973  1.00  0.00    -0.237 OA
ATOM     66  O   UNL A   1      32.932  33.709  27.775  1.00  0.00    -0.237 OA
ATOM     67  O   UNL A   1      32.482  35.184  29.700  1.00  0.00    -0.744 OA
ENDBRANCH  63  64
ENDBRANCH  42  56
BRANCH  43  68
ATOM     68  C   UNL A   1      44.531  28.512  35.780  1.00  0.00     0.058 A 
ATOM     69  C   UNL A   1      44.364  27.449  36.677  1.00  0.00     0.135 A 
ATOM     70  C   UNL A   1      45.839  28.963  35.535  1.00  0.00     0.135 A 
ATOM     71  F   UNL A   1      43.134  26.992  36.955  1.00  0.00    -0.206 F 
ATOM     72  C   UNL A   1      45.451  26.852  37.310  1.00  0.00     0.059 A 
ATOM     73  C   UNL A   1      46.943  28.367  36.136  1.00  0.00     0.059 A 
ATOM     74  F   UNL A   1      46.053  29.974  34.679  1.00  0.00    -0.206 F 
ATOM     75  C   UNL A   1      46.738  27.315  37.027  1.00  0.00     0.060 A 
BRANCH  75  76
ATOM     76  S   UNL A   1      48.146  26.490  37.802  1.00  0.00     0.124 S 
ATOM     77  O   UNL A   1      47.518  25.857  38.955  1.00  0.00    -0.237 OA
ATOM     78  O   UNL A   1      48.594  25.588  36.744  1.00  0.00    -0.237 OA
ATOM     79  O   UNL A   1      49.057  27.591  38.102  1.00  0.00    -0.744 OA
ENDBRANCH  75  76
ENDBRANCH  43  68
BRANCH  55  80
ATOM     80  C   UNL A   1      40.031  33.612  37.403  1.00  0.00     0.058 A 
ATOM     81  C   UNL A   1      40.715  34.823  37.580  1.00  0.00     0.135 A 
ATOM     82  C   UNL A   1      39.095  33.234  38.379  1.00  0.00     0.135 A 
ATOM     83  F   UNL A   1      41.623  35.226  36.679  1.00  0.00    -0.206 F 
ATOM     84  C   UNL A   1      40.484  35.628  38.692  1.00  0.00     0.059 A 
ATOM     85  C   UNL A   1      38.830  34.035  39.485  1.00  0.00     0.059 A 
ATOM     86  F   UNL A   1      38.407  32.089  38.249  1.00  0.00    -0.206 F 
ATOM     87  C   UNL A   1      39.536  35.227  39.636  1.00  0.00     0.060 A 
BRANCH  87  88
ATOM     88  S   UNL A   1      39.209  36.306  41.048  1.00  0.00     0.124 S 
ATOM     89  O   UNL A   1      37.959  35.751  41.558  1.00  0.00    -0.237 OA
ATOM     90  O   UNL A   1      40.386  36.093  41.884  1.00  0.00    -0.237 OA
ATOM     91  O   UNL A   1      39.107  37.632  40.445  1.00  0.00    -0.744 OA
ENDBRANCH  87  88
ENDBRANCH  55  80
ENDBRANCH  29  30
ENDBRANCH  22  24
ENDBRANCH  21  22
ENDBRANCH  20  21
ENDBRANCH   1  20
TORSDOF 18
ENDMDL
MODEL 3
REMARK VINA RESULT:     -10.1      6.849     13.298
REMARK SMILES C[C@@H](NS(=O)(=O)/C=C/c1ccccc1)C(=O)OCCOC(=O)c1ccc(-c2c3nc(c(-c4c(F)cc(S(=O)(=O)[O-])cc4F)c4ccc([nH]4)c(-c4c(F)cc(S(=O)(=O)[O-])cc4F)c4nc(c(-c5c(F)cc(S(=O)(=O)[O-])cc5F)c5ccc2[nH]5)C=C4)C=C3)cc1
REMARK SMILES IDX 18 1 17 2 15 3 16 4 2 5 1 6 3 7 4 9 5 10 6 11 7 12 8 13 9 14
REMARK SMILES IDX 10 15 14 16 11 17 13 18 12 19 19 20 20 21 21 22 22 23 23 24
REMARK SMILES IDX 24 25 88 26 25 27 87 28 26 29 27 30 28 31 81 32 29 33 86 34
REMARK SMILES IDX 80 35 82 36 30 37 85 38 79 39 78 40 31 42 65 43 44 44 64 45
REMARK SMILES IDX 45 46 48 47 63 48 83 49 46 50 47 51 62 53 84 54 49 55 32 56
REMARK SMILES IDX 33 57 42 58 34 59 35 60 41 61 43 62 36 63 37 64 38 65 39 66
REMARK SMILES IDX 40 67 66 68 67 69 76 70 68 71 69 72 75 73 77 74 70 75 71 76
REMARK SMILES IDX 72 77 73 78 74 79 50 80 51 81 60 82 52 83 53 84 59 85 61 86
REMARK SMILES IDX 54 87 55 88 56 89 57 90 58 91
REMARK H PARENT 3 8 82 41 48 52
REMARK Flexibility Score: inf
ROOT
ATOM      1  C   UNL A   1      38.746  21.887  25.766  1.00  0.00     0.274 C 
ENDROOT
BRANCH   1   2
ATOM      2  O   UNL A   1      37.600  22.495  25.143  1.00  0.00    -0.461 OA
BRANCH   2   3
ATOM      3  C   UNL A   1      36.449  21.771  25.189  1.00  0.00     0.324 C 
ATOM      4  O   UNL A   1      36.396  20.554  25.068  1.00  0.00    -0.250 OA
BRANCH   3   5
ATOM      5  C   UNL A   1      35.191  22.613  25.318  1.00  0.00     0.176 C 
ATOM      6  C   UNL A   1      35.481  24.056  25.716  1.00  0.00     0.038 C 
BRANCH   5   7
ATOM      7  N   UNL A   1      34.409  22.582  24.045  1.00  0.00    -0.198 NA
ATOM      8  H   UNL A   1      34.896  21.962  23.396  1.00  0.00     0.142 HD
BRANCH   7   9
ATOM      9  S   UNL A   1      32.787  22.046  24.154  1.00  0.00     0.234 S 
ATOM     10  O   UNL A   1      32.154  22.935  25.099  1.00  0.00    -0.208 OA
ATOM     11  O   UNL A   1      32.342  22.031  22.771  1.00  0.00    -0.208 OA
BRANCH   9  12
ATOM     12  C   UNL A   1      32.751  20.430  24.766  1.00  0.00     0.123 C 
ATOM     13  C   UNL A   1      33.432  19.459  24.142  1.00  0.00     0.021 C 
BRANCH  13  14
ATOM     14  C   UNL A   1      33.571  18.089  24.660  1.00  0.00    -0.025 A 
ATOM     15  C   UNL A   1      34.701  17.300  24.397  1.00  0.00     0.008 A 
ATOM     16  C   UNL A   1      32.490  17.507  25.328  1.00  0.00     0.008 A 
ATOM     17  C   UNL A   1      34.724  15.945  24.735  1.00  0.00     0.001 A 
ATOM     18  C   UNL A   1      32.527  16.160  25.699  1.00  0.00     0.001 A 
ATOM     19  C   UNL A   1      33.634  15.373  25.383  1.00  0.00     0.000 A 
ENDBRANCH  13  14
ENDBRANCH   9  12
ENDBRANCH   7   9
ENDBRANCH   5   7
ENDBRANCH   3   5
ENDBRANCH   2   3
ENDBRANCH   1   2
BRANCH   1  20
ATOM     20  C   UNL A   1      39.654  22.842  26.557  1.00  0.00     0.275 C 
BRANCH  20  21
ATOM     21  O   UNL A   1      39.184  24.201  26.606  1.00  0.00    -0.458 OA
BRANCH  21  22
ATOM     22  C   UNL A   1      40.152  25.134  26.423  1.00  0.00     0.338 C 
ATOM     23  O   UNL A   1      40.691  25.418  25.364  1.00  0.00    -0.246 OA
BRANCH  22  24
ATOM     24  C   UNL A   1      40.375  25.917  27.652  1.00  0.00     0.060 A 
ATOM     25  C   UNL A   1      39.371  25.890  28.629  1.00  0.00     0.016 A 
ATOM     26  C   UNL A   1      41.478  26.756  27.798  1.00  0.00     0.016 A 
ATOM     27  C   UNL A   1      39.437  26.727  29.736  1.00  0.00     0.010 A 
ATOM     28  C   UNL A   1      41.536  27.615  28.901  1.00  0.00     0.010 A 
ATOM     29  C   UNL A   1      40.497  27.629  29.851  1.00  0.00    -0.014 A 
BRANCH  29  30
ATOM     30  C   UNL A   1      40.422  28.716  30.854  1.00  0.00     0.031 A 
ATOM     31  C   UNL A   1      41.346  28.657  32.038  1.00  0.00     0.074 A 
ATOM     32  C   UNL A   1      39.572  29.744  30.700  1.00  0.00     0.049 A 
ATOM     33  N   UNL A   1      41.363  29.396  33.116  1.00  0.00    -0.248 NA
ATOM     34  C   UNL A   1      42.391  27.620  32.000  1.00  0.00     0.031 C 
ATOM     35  C   UNL A   1      38.698  29.953  29.547  1.00  0.00     0.029 A 
ATOM     36  N   UNL A   1      39.296  30.801  31.530  1.00  0.00    -0.354 N 
ATOM     37  C   UNL A   1      42.394  28.891  33.900  1.00  0.00     0.074 A 
ATOM     38  C   UNL A   1      42.974  27.781  33.179  1.00  0.00     0.031 C 
ATOM     39  C   UNL A   1      37.962  31.057  29.755  1.00  0.00     0.029 A 
ATOM     40  C   UNL A   1      38.277  31.601  31.074  1.00  0.00     0.049 A 
ATOM     41  H   UNL A   1      39.781  30.970  32.369  1.00  0.00     0.167 HD
ATOM     42  C   UNL A   1      42.812  29.318  35.116  1.00  0.00     0.037 A 
ATOM     43  C   UNL A   1      37.643  32.626  31.676  1.00  0.00     0.037 A 
ATOM     44  C   UNL A   1      42.231  30.435  35.812  1.00  0.00     0.049 A 
ATOM     45  C   UNL A   1      38.074  33.043  33.058  1.00  0.00     0.074 A 
ATOM     46  C   UNL A   1      42.569  30.950  37.050  1.00  0.00     0.029 A 
ATOM     47  N   UNL A   1      41.185  31.210  35.327  1.00  0.00    -0.354 N 
ATOM     48  N   UNL A   1      39.022  32.538  33.812  1.00  0.00    -0.248 NA
ATOM     49  C   UNL A   1      37.348  34.161  33.673  1.00  0.00     0.031 C 
ATOM     50  C   UNL A   1      41.700  32.010  37.333  1.00  0.00     0.029 A 
ATOM     51  C   UNL A   1      40.856  32.189  36.248  1.00  0.00     0.049 A 
ATOM     52  H   UNL A   1      40.745  31.081  34.457  1.00  0.00     0.167 HD
ATOM     53  C   UNL A   1      39.027  33.297  34.978  1.00  0.00     0.074 A 
ATOM     54  C   UNL A   1      37.987  34.294  34.829  1.00  0.00     0.031 C 
ATOM     55  C   UNL A   1      39.825  33.183  36.070  1.00  0.00     0.037 A 
BRANCH  42  56
ATOM     56  C   UNL A   1      43.911  28.538  35.783  1.00  0.00     0.058 A 
ATOM     57  C   UNL A   1      43.648  27.454  36.634  1.00  0.00     0.135 A 
ATOM     58  C   UNL A   1      45.254  28.888  35.567  1.00  0.00     0.135 A 
ATOM     59  F   UNL A   1      42.382  27.088  36.892  1.00  0.00    -0.206 F 
ATOM     60  C   UNL A   1      44.674  26.768  37.276  1.00  0.00     0.059 A 
ATOM     61  C   UNL A   1      46.299  28.200  36.177  1.00  0.00     0.059 A 
ATOM     62  F   UNL A   1      45.564  29.920  34.765  1.00  0.00    -0.206 F 
ATOM     63  C   UNL A   1      45.997  27.153  37.047  1.00  0.00     0.060 A 
BRANCH  63  64
ATOM     64  S   UNL A   1      47.318  26.271  37.905  1.00  0.00     0.124 S 
ATOM     65  O   UNL A   1      48.054  25.692  36.786  1.00  0.00    -0.237 OA
ATOM     66  O   UNL A   1      47.998  27.346  38.622  1.00  0.00    -0.237 OA
ATOM     67  O   UNL A   1      46.600  25.317  38.744  1.00  0.00    -0.744 OA
ENDBRANCH  63  64
ENDBRANCH  42  56
BRANCH  43  68
ATOM     68  C   UNL A   1      36.515  33.303  30.982  1.00  0.00     0.058 A 
ATOM     69  C   UNL A   1      35.193  33.139  31.414  1.00  0.00     0.135 A 
ATOM     70  C   UNL A   1      36.746  34.154  29.888  1.00  0.00     0.135 A 
ATOM     71  F   UNL A   1      34.920  32.326  32.446  1.00  0.00    -0.206 F 
ATOM     72  C   UNL A   1      34.136  33.793  30.789  1.00  0.00     0.059 A 
ATOM     73  C   UNL A   1      35.709  34.838  29.261  1.00  0.00     0.059 A 
ATOM     74  F   UNL A   1      37.995  34.350  29.439  1.00  0.00    -0.206 F 
ATOM     75  C   UNL A   1      34.406  34.646  29.716  1.00  0.00     0.060 A 
BRANCH  75  76
ATOM     76  S   UNL A   1      33.034  35.541  28.953  1.00  0.00     0.124 S 
ATOM     77  O   UNL A   1      33.719  36.689  28.372  1.00  0.00    -0.237 OA
ATOM     78  O   UNL A   1      32.516  34.560  28.005  1.00  0.00    -0.237 OA
ATOM     79  O   UNL A   1      32.156  35.834  30.082  1.00  0.00    -0.744 OA
ENDBRANCH  75  76
ENDBRANCH  43  68
BRANCH  55  80
ATOM     80  C   UNL A   1      39.643  34.190  37.172  1.00  0.00     0.058 A 
ATOM     81  C   UNL A   1      38.920  33.891  38.337  1.00  0.00     0.135 A 
ATOM     82  C   UNL A   1      40.269  35.444  37.089  1.00  0.00     0.135 A 
ATOM     83  F   UNL A   1      38.299  32.708  38.463  1.00  0.00    -0.206 F 
ATOM     84  C   UNL A   1      38.813  34.808  39.378  1.00  0.00     0.059 A 
ATOM     85  C   UNL A   1      40.196  36.366  38.128  1.00  0.00     0.059 A 
ATOM     86  F   UNL A   1      40.981  35.774  36.000  1.00  0.00    -0.206 F 
ATOM     87  C   UNL A   1      39.460  36.041  39.266  1.00  0.00     0.060 A 
BRANCH  87  88
ATOM     88  S   UNL A   1      39.358  37.202  40.646  1.00  0.00     0.124 S 
ATOM     89  O   UNL A   1      38.547  36.453  41.600  1.00  0.00    -0.237 OA
ATOM     90  O   UNL A   1      40.760  37.382  41.008  1.00  0.00    -0.237 OA
ATOM     91  O   UNL A   1      38.713  38.373  40.057  1.00  0.00    -0.744 OA
ENDBRANCH  87  88
ENDBRANCH  55  80
ENDBRANCH  29  30
ENDBRANCH  22  24
ENDBRANCH  21  22
ENDBRANCH  20  21
ENDBRANCH   1  20
TORSDOF 18
ENDMDL
