MODEL 1
REMARK VINA RESULT:     -11.6      0.000      0.000
REMARK SMILES CC(C)(C)OC(=O)N1CCC[C@@H](CC2CCCCC2)[C@@H]1C(=O)OCCOC(=O)c1ccc(-c2c3nc(c(-c4c(F)cc(S(=O)(=O)[O-])cc4F)c4ccc([nH]4)c(-c4c(F)cc(S(=O)(=O)[O-])cc4F)c4nc(c(-c5c(F)cc(S(=O)(=O)[O-])cc5F)c5ccc2[nH]5)C=C4)C=C3)cc1
REMARK SMILES IDX 24 1 23 2 21 3 22 4 20 5 8 6 9 7 10 8 12 9 11 10 6 11 7 12
REMARK SMILES IDX 5 13 2 14 1 15 3 16 4 17 13 18 14 19 15 20 19 21 16 22 18 23
REMARK SMILES IDX 17 24 25 25 26 26 27 27 28 28 29 29 30 30 94 31 31 32 93 33
REMARK SMILES IDX 32 34 33 35 34 36 87 37 35 38 92 39 86 40 88 41 36 42 91 43
REMARK SMILES IDX 85 44 84 45 37 47 71 48 50 49 70 50 51 51 54 52 69 53 89 54
REMARK SMILES IDX 52 55 53 56 68 58 90 59 55 60 38 61 39 62 48 63 40 64 41 65
REMARK SMILES IDX 47 66 49 67 42 68 43 69 44 70 45 71 46 72 72 73 73 74 82 75
REMARK SMILES IDX 74 76 75 77 81 78 83 79 76 80 77 81 78 82 79 83 80 84 56 85
REMARK SMILES IDX 57 86 66 87 58 88 59 89 65 90 67 91 60 92 61 93 62 94 63 95
REMARK SMILES IDX 64 96
REMARK H PARENT 88 46 54 57
REMARK Flexibility Score: inf
ROOT
ATOM      1  C   UNL A   1      33.329  28.382  26.521  1.00  0.00     0.274 C 
ENDROOT
BRANCH   1   2
ATOM      2  O   UNL A   1      34.028  28.815  25.334  1.00  0.00    -0.461 OA
BRANCH   2   3
ATOM      3  C   UNL A   1      33.538  28.296  24.173  1.00  0.00     0.329 C 
ATOM      4  O   UNL A   1      33.911  28.657  23.060  1.00  0.00    -0.250 OA
BRANCH   3   5
ATOM      5  C   UNL A   1      32.359  27.316  24.367  1.00  0.00     0.201 C 
ATOM      6  N   UNL A   1      32.640  25.891  24.025  1.00  0.00    -0.294 N 
ATOM      7  C   UNL A   1      31.548  24.964  24.266  1.00  0.00     0.124 C 
ATOM      8  C   UNL A   1      30.362  25.336  23.404  1.00  0.00     0.022 C 
ATOM      9  C   UNL A   1      31.001  27.791  23.725  1.00  0.00     0.024 C 
ATOM     10  C   UNL A   1      29.888  26.725  23.798  1.00  0.00     0.008 C 
BRANCH   6  11
ATOM     11  C   UNL A   1      33.836  25.340  23.592  1.00  0.00     0.411 C 
ATOM     12  O   UNL A   1      34.096  25.176  22.406  1.00  0.00    -0.224 OA
BRANCH  11  13
ATOM     13  O   UNL A   1      34.649  24.959  24.599  1.00  0.00    -0.444 OA
BRANCH  13  14
ATOM     14  C   UNL A   1      35.036  23.576  24.804  1.00  0.00     0.106 C 
ATOM     15  C   UNL A   1      36.482  23.471  24.290  1.00  0.00     0.056 C 
ATOM     16  C   UNL A   1      34.132  22.681  23.956  1.00  0.00     0.056 C 
ATOM     17  C   UNL A   1      35.041  23.157  26.280  1.00  0.00     0.056 C 
ENDBRANCH  13  14
ENDBRANCH  11  13
ENDBRANCH   6  11
BRANCH   9  18
ATOM     18  C   UNL A   1      30.449  29.170  24.206  1.00  0.00     0.010 C 
BRANCH  18  19
ATOM     19  C   UNL A   1      29.351  29.947  23.421  1.00  0.00    -0.011 C 
ATOM     20  C   UNL A   1      29.151  31.415  23.856  1.00  0.00     0.003 C 
ATOM     21  C   UNL A   1      29.492  29.861  21.903  1.00  0.00     0.003 C 
ATOM     22  C   UNL A   1      28.030  32.112  23.069  1.00  0.00     0.000 C 
ATOM     23  C   UNL A   1      28.314  30.493  21.179  1.00  0.00     0.000 C 
ATOM     24  C   UNL A   1      28.188  31.958  21.559  1.00  0.00     0.000 C 
ENDBRANCH  18  19
ENDBRANCH   9  18
ENDBRANCH   3   5
ENDBRANCH   2   3
ENDBRANCH   1   2
BRANCH   1  25
ATOM     25  C   UNL A   1      32.973  29.524  27.475  1.00  0.00     0.275 C 
BRANCH  25  26
ATOM     26  O   UNL A   1      33.822  30.667  27.266  1.00  0.00    -0.458 OA
BRANCH  26  27
ATOM     27  C   UNL A   1      34.583  31.028  28.324  1.00  0.00     0.338 C 
ATOM     28  O   UNL A   1      34.311  31.877  29.159  1.00  0.00    -0.246 OA
BRANCH  27  29
ATOM     29  C   UNL A   1      35.827  30.233  28.400  1.00  0.00     0.060 A 
ATOM     30  C   UNL A   1      36.288  29.755  29.619  1.00  0.00     0.016 A 
ATOM     31  C   UNL A   1      36.651  30.147  27.278  1.00  0.00     0.016 A 
ATOM     32  C   UNL A   1      37.617  29.355  29.753  1.00  0.00     0.010 A 
ATOM     33  C   UNL A   1      37.946  29.621  27.394  1.00  0.00     0.010 A 
ATOM     34  C   UNL A   1      38.479  29.281  28.649  1.00  0.00    -0.014 A 
BRANCH  34  35
ATOM     35  C   UNL A   1      39.926  28.929  28.820  1.00  0.00     0.031 A 
ATOM     36  C   UNL A   1      40.914  29.953  29.343  1.00  0.00     0.074 A 
ATOM     37  C   UNL A   1      40.379  27.685  28.549  1.00  0.00     0.049 A 
ATOM     38  N   UNL A   1      42.224  29.919  29.336  1.00  0.00    -0.248 NA
ATOM     39  C   UNL A   1      40.360  31.179  29.942  1.00  0.00     0.031 C 
ATOM     40  C   UNL A   1      39.560  26.560  28.095  1.00  0.00     0.029 A 
ATOM     41  N   UNL A   1      41.646  27.153  28.623  1.00  0.00    -0.354 N 
ATOM     42  C   UNL A   1      42.647  31.146  29.839  1.00  0.00     0.074 A 
ATOM     43  C   UNL A   1      41.453  31.895  30.169  1.00  0.00     0.031 C 
ATOM     44  C   UNL A   1      40.323  25.464  27.997  1.00  0.00     0.029 A 
ATOM     45  C   UNL A   1      41.712  25.836  28.235  1.00  0.00     0.049 A 
ATOM     46  H   UNL A   1      42.430  27.666  28.926  1.00  0.00     0.167 HD
ATOM     47  C   UNL A   1      43.911  31.611  29.997  1.00  0.00     0.037 A 
ATOM     48  C   UNL A   1      42.763  25.023  28.010  1.00  0.00     0.037 A 
ATOM     49  C   UNL A   1      45.098  30.833  29.744  1.00  0.00     0.049 A 
ATOM     50  C   UNL A   1      44.155  25.559  28.165  1.00  0.00     0.074 A 
ATOM     51  C   UNL A   1      46.422  31.208  29.902  1.00  0.00     0.029 A 
ATOM     52  N   UNL A   1      45.109  29.519  29.301  1.00  0.00    -0.354 N 
ATOM     53  N   UNL A   1      44.537  26.756  28.539  1.00  0.00    -0.248 NA
ATOM     54  C   UNL A   1      45.256  24.648  27.832  1.00  0.00     0.031 C 
ATOM     55  C   UNL A   1      47.234  30.135  29.514  1.00  0.00     0.029 A 
ATOM     56  C   UNL A   1      46.416  29.076  29.160  1.00  0.00     0.049 A 
ATOM     57  H   UNL A   1      44.307  28.980  29.113  1.00  0.00     0.167 HD
ATOM     58  C   UNL A   1      45.924  26.747  28.472  1.00  0.00     0.074 A 
ATOM     59  C   UNL A   1      46.315  25.415  28.055  1.00  0.00     0.031 C 
ATOM     60  C   UNL A   1      46.794  27.755  28.723  1.00  0.00     0.037 A 
BRANCH  47  61
ATOM     61  C   UNL A   1      44.090  33.050  30.406  1.00  0.00     0.058 A 
ATOM     62  C   UNL A   1      44.204  33.449  31.745  1.00  0.00     0.135 A 
ATOM     63  C   UNL A   1      44.202  34.045  29.417  1.00  0.00     0.135 A 
ATOM     64  F   UNL A   1      44.091  32.547  32.731  1.00  0.00    -0.206 F 
ATOM     65  C   UNL A   1      44.399  34.785  32.092  1.00  0.00     0.059 A 
ATOM     66  C   UNL A   1      44.424  35.380  29.739  1.00  0.00     0.059 A 
ATOM     67  F   UNL A   1      44.103  33.720  28.119  1.00  0.00    -0.206 F 
ATOM     68  C   UNL A   1      44.508  35.743  31.081  1.00  0.00     0.060 A 
BRANCH  68  69
ATOM     69  S   UNL A   1      44.768  37.471  31.544  1.00  0.00     0.124 S 
ATOM     70  O   UNL A   1      44.438  37.443  32.965  1.00  0.00    -0.237 OA
ATOM     71  O   UNL A   1      46.178  37.671  31.225  1.00  0.00    -0.237 OA
ATOM     72  O   UNL A   1      43.828  38.196  30.695  1.00  0.00    -0.744 OA
ENDBRANCH  68  69
ENDBRANCH  47  61
BRANCH  48  73
ATOM     73  C   UNL A   1      42.519  23.640  27.517  1.00  0.00     0.058 A 
ATOM     74  C   UNL A   1      42.463  23.354  26.146  1.00  0.00     0.135 A 
ATOM     75  C   UNL A   1      42.410  22.566  28.416  1.00  0.00     0.135 A 
ATOM     76  F   UNL A   1      42.541  24.350  25.250  1.00  0.00    -0.206 F 
ATOM     77  C   UNL A   1      42.330  22.049  25.681  1.00  0.00     0.059 A 
ATOM     78  C   UNL A   1      42.310  21.251  27.976  1.00  0.00     0.059 A 
ATOM     79  F   UNL A   1      42.464  22.786  29.739  1.00  0.00    -0.206 F 
ATOM     80  C   UNL A   1      42.270  21.003  26.605  1.00  0.00     0.060 A 
BRANCH  80  81
ATOM     81  S   UNL A   1      42.218  19.303  25.998  1.00  0.00     0.124 S 
ATOM     82  O   UNL A   1      42.759  18.569  27.136  1.00  0.00    -0.237 OA
ATOM     83  O   UNL A   1      40.796  19.112  25.732  1.00  0.00    -0.237 OA
ATOM     84  O   UNL A   1      43.067  19.347  24.810  1.00  0.00    -0.744 OA
ENDBRANCH  80  81
ENDBRANCH  48  73
BRANCH  60  85
ATOM     85  C   UNL A   1      48.256  27.451  28.558  1.00  0.00     0.058 A 
ATOM     86  C   UNL A   1      49.032  26.978  29.628  1.00  0.00     0.135 A 
ATOM     87  C   UNL A   1      48.887  27.626  27.316  1.00  0.00     0.135 A 
ATOM     88  F   UNL A   1      48.479  26.802  30.838  1.00  0.00    -0.206 F 
ATOM     89  C   UNL A   1      50.391  26.720  29.481  1.00  0.00     0.059 A 
ATOM     90  C   UNL A   1      50.238  27.351  27.140  1.00  0.00     0.059 A 
ATOM     91  F   UNL A   1      48.187  28.068  26.259  1.00  0.00    -0.206 F 
ATOM     92  C   UNL A   1      50.987  26.915  28.232  1.00  0.00     0.060 A 
BRANCH  92  93
ATOM     93  S   UNL A   1      52.751  26.580  28.053  1.00  0.00     0.124 S 
ATOM     94  O   UNL A   1      53.118  26.197  29.412  1.00  0.00    -0.237 OA
ATOM     95  O   UNL A   1      52.768  25.505  27.065  1.00  0.00    -0.237 OA
ATOM     96  O   UNL A   1      53.293  27.854  27.591  1.00  0.00    -0.744 OA
ENDBRANCH  92  93
ENDBRANCH  60  85
ENDBRANCH  34  35
ENDBRANCH  27  29
ENDBRANCH  26  27
ENDBRANCH  25  26
ENDBRANCH   1  25
TORSDOF 19
ENDMDL
MODEL 2
REMARK VINA RESULT:     -11.6      1.276      2.011
REMARK SMILES CC(C)(C)OC(=O)N1CCC[C@@H](CC2CCCCC2)[C@@H]1C(=O)OCCOC(=O)c1ccc(-c2c3nc(c(-c4c(F)cc(S(=O)(=O)[O-])cc4F)c4ccc([nH]4)c(-c4c(F)cc(S(=O)(=O)[O-])cc4F)c4nc(c(-c5c(F)cc(S(=O)(=O)[O-])cc5F)c5ccc2[nH]5)C=C4)C=C3)cc1
REMARK SMILES IDX 24 1 23 2 21 3 22 4 20 5 8 6 9 7 10 8 12 9 11 10 6 11 7 12
REMARK SMILES IDX 5 13 2 14 1 15 3 16 4 17 13 18 14 19 15 20 19 21 16 22 18 23
REMARK SMILES IDX 17 24 25 25 26 26 27 27 28 28 29 29 30 30 94 31 31 32 93 33
REMARK SMILES IDX 32 34 33 35 34 36 87 37 35 38 92 39 86 40 88 41 36 42 91 43
REMARK SMILES IDX 85 44 84 45 37 47 71 48 50 49 70 50 51 51 54 52 69 53 89 54
REMARK SMILES IDX 52 55 53 56 68 58 90 59 55 60 38 61 39 62 48 63 40 64 41 65
REMARK SMILES IDX 47 66 49 67 42 68 43 69 44 70 45 71 46 72 72 73 73 74 82 75
REMARK SMILES IDX 74 76 75 77 81 78 83 79 76 80 77 81 78 82 79 83 80 84 56 85
REMARK SMILES IDX 57 86 66 87 58 88 59 89 65 90 67 91 60 92 61 93 62 94 63 95
REMARK SMILES IDX 64 96
REMARK H PARENT 88 46 54 57
REMARK Flexibility Score: inf
ROOT
ATOM      1  C   UNL A   1      33.784  28.967  27.446  1.00  0.00     0.274 C 
ENDROOT
BRANCH   1   2
ATOM      2  O   UNL A   1      33.045  28.376  26.356  1.00  0.00    -0.461 OA
BRANCH   2   3
ATOM      3  C   UNL A   1      31.821  27.888  26.705  1.00  0.00     0.329 C 
ATOM      4  O   UNL A   1      31.398  27.881  27.858  1.00  0.00    -0.250 OA
BRANCH   3   5
ATOM      5  C   UNL A   1      31.061  27.203  25.547  1.00  0.00     0.201 C 
ATOM      6  N   UNL A   1      31.174  25.716  25.489  1.00  0.00    -0.294 N 
ATOM      7  C   UNL A   1      30.409  25.073  24.436  1.00  0.00     0.124 C 
ATOM      8  C   UNL A   1      30.900  25.545  23.086  1.00  0.00     0.022 C 
ATOM      9  C   UNL A   1      31.313  27.843  24.130  1.00  0.00     0.024 C 
ATOM     10  C   UNL A   1      30.669  27.044  22.978  1.00  0.00     0.008 C 
BRANCH   6  11
ATOM     11  C   UNL A   1      31.847  24.880  26.366  1.00  0.00     0.411 C 
ATOM     12  O   UNL A   1      31.279  24.272  27.265  1.00  0.00    -0.224 OA
BRANCH  11  13
ATOM     13  O   UNL A   1      33.181  24.849  26.163  1.00  0.00    -0.444 OA
BRANCH  13  14
ATOM     14  C   UNL A   1      33.834  23.762  25.458  1.00  0.00     0.106 C 
ATOM     15  C   UNL A   1      34.920  23.241  26.415  1.00  0.00     0.056 C 
ATOM     16  C   UNL A   1      34.495  24.321  24.198  1.00  0.00     0.056 C 
ATOM     17  C   UNL A   1      32.896  22.589  25.144  1.00  0.00     0.056 C 
ENDBRANCH  13  14
ENDBRANCH  11  13
ENDBRANCH   6  11
BRANCH   9  18
ATOM     18  C   UNL A   1      30.974  29.359  23.979  1.00  0.00     0.010 C 
BRANCH  18  19
ATOM     19  C   UNL A   1      29.638  29.856  23.351  1.00  0.00    -0.011 C 
ATOM     20  C   UNL A   1      29.029  31.109  24.016  1.00  0.00     0.003 C 
ATOM     21  C   UNL A   1      29.692  30.035  21.836  1.00  0.00     0.003 C 
ATOM     22  C   UNL A   1      27.696  31.524  23.374  1.00  0.00     0.000 C 
ATOM     23  C   UNL A   1      28.329  30.362  21.247  1.00  0.00     0.000 C 
ATOM     24  C   UNL A   1      27.787  31.643  21.855  1.00  0.00     0.000 C 
ENDBRANCH  18  19
ENDBRANCH   9  18
ENDBRANCH   3   5
ENDBRANCH   2   3
ENDBRANCH   1   2
BRANCH   1  25
ATOM     25  C   UNL A   1      33.585  30.478  27.575  1.00  0.00     0.275 C 
BRANCH  25  26
ATOM     26  O   UNL A   1      34.845  31.171  27.637  1.00  0.00    -0.458 OA
BRANCH  26  27
ATOM     27  C   UNL A   1      35.483  31.112  28.828  1.00  0.00     0.338 C 
ATOM     28  O   UNL A   1      35.133  31.648  29.868  1.00  0.00    -0.246 OA
BRANCH  27  29
ATOM     29  C   UNL A   1      36.692  30.263  28.759  1.00  0.00     0.060 A 
ATOM     30  C   UNL A   1      37.279  29.773  29.918  1.00  0.00     0.016 A 
ATOM     31  C   UNL A   1      37.367  30.135  27.546  1.00  0.00     0.016 A 
ATOM     32  C   UNL A   1      38.596  29.317  29.892  1.00  0.00     0.010 A 
ATOM     33  C   UNL A   1      38.643  29.554  27.508  1.00  0.00     0.010 A 
ATOM     34  C   UNL A   1      39.311  29.198  28.692  1.00  0.00    -0.014 A 
BRANCH  34  35
ATOM     35  C   UNL A   1      40.752  28.785  28.687  1.00  0.00     0.031 A 
ATOM     36  C   UNL A   1      41.842  29.775  29.047  1.00  0.00     0.074 A 
ATOM     37  C   UNL A   1      41.113  27.514  28.400  1.00  0.00     0.049 A 
ATOM     38  N   UNL A   1      43.138  29.680  28.874  1.00  0.00    -0.248 NA
ATOM     39  C   UNL A   1      41.422  31.040  29.672  1.00  0.00     0.031 C 
ATOM     40  C   UNL A   1      40.196  26.417  28.091  1.00  0.00     0.029 A 
ATOM     41  N   UNL A   1      42.355  26.926  28.329  1.00  0.00    -0.354 N 
ATOM     42  C   UNL A   1      43.673  30.900  29.279  1.00  0.00     0.074 A 
ATOM     43  C   UNL A   1      42.565  31.710  29.735  1.00  0.00     0.031 C 
ATOM     44  C   UNL A   1      40.893  25.285  27.931  1.00  0.00     0.029 A 
ATOM     45  C   UNL A   1      42.315  25.598  27.978  1.00  0.00     0.049 A 
ATOM     46  H   UNL A   1      43.193  27.411  28.513  1.00  0.00     0.167 HD
ATOM     47  C   UNL A   1      44.966  31.310  29.259  1.00  0.00     0.037 A 
ATOM     48  C   UNL A   1      43.293  24.732  27.646  1.00  0.00     0.037 A 
ATOM     49  C   UNL A   1      46.077  30.471  28.882  1.00  0.00     0.049 A 
ATOM     50  C   UNL A   1      44.714  25.206  27.605  1.00  0.00     0.074 A 
ATOM     51  C   UNL A   1      47.425  30.789  28.857  1.00  0.00     0.029 A 
ATOM     52  N   UNL A   1      45.975  29.147  28.483  1.00  0.00    -0.354 N 
ATOM     53  N   UNL A   1      45.192  26.394  27.889  1.00  0.00    -0.248 NA
ATOM     54  C   UNL A   1      45.724  24.237  27.163  1.00  0.00     0.031 C 
ATOM     55  C   UNL A   1      48.133  29.670  28.403  1.00  0.00     0.029 A 
ATOM     56  C   UNL A   1      47.232  28.641  28.191  1.00  0.00     0.049 A 
ATOM     57  H   UNL A   1      45.133  28.641  28.417  1.00  0.00     0.167 HD
ATOM     58  C   UNL A   1      46.558  26.319  27.645  1.00  0.00     0.074 A 
ATOM     59  C   UNL A   1      46.834  24.960  27.225  1.00  0.00     0.031 C 
ATOM     60  C   UNL A   1      47.495  27.293  27.751  1.00  0.00     0.037 A 
BRANCH  47  61
ATOM     61  C   UNL A   1      45.257  32.749  29.596  1.00  0.00     0.058 A 
ATOM     62  C   UNL A   1      45.146  33.785  28.657  1.00  0.00     0.135 A 
ATOM     63  C   UNL A   1      45.605  33.098  30.913  1.00  0.00     0.135 A 
ATOM     64  F   UNL A   1      44.832  33.510  27.382  1.00  0.00    -0.206 F 
ATOM     65  C   UNL A   1      45.392  35.112  29.005  1.00  0.00     0.059 A 
ATOM     66  C   UNL A   1      45.829  34.419  31.290  1.00  0.00     0.059 A 
ATOM     67  F   UNL A   1      45.723  32.148  31.854  1.00  0.00    -0.206 F 
ATOM     68  C   UNL A   1      45.734  35.418  30.325  1.00  0.00     0.060 A 
BRANCH  68  69
ATOM     69  S   UNL A   1      46.043  37.144  30.765  1.00  0.00     0.124 S 
ATOM     70  O   UNL A   1      47.423  37.313  30.321  1.00  0.00    -0.237 OA
ATOM     71  O   UNL A   1      45.035  37.852  29.983  1.00  0.00    -0.237 OA
ATOM     72  O   UNL A   1      45.841  37.167  32.210  1.00  0.00    -0.744 OA
ENDBRANCH  68  69
ENDBRANCH  47  61
BRANCH  48  73
ATOM     73  C   UNL A   1      42.929  23.349  27.232  1.00  0.00     0.058 A 
ATOM     74  C   UNL A   1      42.787  23.006  25.881  1.00  0.00     0.135 A 
ATOM     75  C   UNL A   1      42.787  22.328  28.187  1.00  0.00     0.135 A 
ATOM     76  F   UNL A   1      42.891  23.952  24.935  1.00  0.00    -0.206 F 
ATOM     77  C   UNL A   1      42.540  21.695  25.487  1.00  0.00     0.059 A 
ATOM     78  C   UNL A   1      42.574  21.005  27.816  1.00  0.00     0.059 A 
ATOM     79  F   UNL A   1      42.920  22.604  29.493  1.00  0.00    -0.206 F 
ATOM     80  C   UNL A   1      42.451  20.699  26.462  1.00  0.00     0.060 A 
BRANCH  80  81
ATOM     81  S   UNL A   1      42.251  18.981  25.942  1.00  0.00     0.124 S 
ATOM     82  O   UNL A   1      42.667  18.261  27.140  1.00  0.00    -0.237 OA
ATOM     83  O   UNL A   1      40.829  18.918  25.620  1.00  0.00    -0.237 OA
ATOM     84  O   UNL A   1      43.148  18.873  24.794  1.00  0.00    -0.744 OA
ENDBRANCH  80  81
ENDBRANCH  48  73
BRANCH  60  85
ATOM     85  C   UNL A   1      48.908  26.918  27.410  1.00  0.00     0.058 A 
ATOM     86  C   UNL A   1      49.398  27.018  26.098  1.00  0.00     0.135 A 
ATOM     87  C   UNL A   1      49.787  26.460  28.406  1.00  0.00     0.135 A 
ATOM     88  F   UNL A   1      48.596  27.442  25.108  1.00  0.00    -0.206 F 
ATOM     89  C   UNL A   1      50.699  26.647  25.778  1.00  0.00     0.059 A 
ATOM     90  C   UNL A   1      51.099  26.107  28.113  1.00  0.00     0.059 A 
ATOM     91  F   UNL A   1      49.371  26.354  29.677  1.00  0.00    -0.206 F 
ATOM     92  C   UNL A   1      51.542  26.186  26.793  1.00  0.00     0.060 A 
BRANCH  92  93
ATOM     93  S   UNL A   1      53.228  25.705  26.367  1.00  0.00     0.124 S 
ATOM     94  O   UNL A   1      53.894  25.789  27.662  1.00  0.00    -0.237 OA
ATOM     95  O   UNL A   1      53.046  24.358  25.833  1.00  0.00    -0.237 OA
ATOM     96  O   UNL A   1      53.631  26.710  25.388  1.00  0.00    -0.744 OA
ENDBRANCH  92  93
ENDBRANCH  60  85
ENDBRANCH  34  35
ENDBRANCH  27  29
ENDBRANCH  26  27
ENDBRANCH  25  26
ENDBRANCH   1  25
TORSDOF 19
ENDMDL
MODEL 3
REMARK VINA RESULT:     -11.3      1.046      3.664
REMARK SMILES CC(C)(C)OC(=O)N1CCC[C@@H](CC2CCCCC2)[C@@H]1C(=O)OCCOC(=O)c1ccc(-c2c3nc(c(-c4c(F)cc(S(=O)(=O)[O-])cc4F)c4ccc([nH]4)c(-c4c(F)cc(S(=O)(=O)[O-])cc4F)c4nc(c(-c5c(F)cc(S(=O)(=O)[O-])cc5F)c5ccc2[nH]5)C=C4)C=C3)cc1
REMARK SMILES IDX 24 1 23 2 21 3 22 4 20 5 8 6 9 7 10 8 12 9 11 10 6 11 7 12
REMARK SMILES IDX 5 13 2 14 1 15 3 16 4 17 13 18 14 19 15 20 19 21 16 22 18 23
REMARK SMILES IDX 17 24 25 25 26 26 27 27 28 28 29 29 30 30 94 31 31 32 93 33
REMARK SMILES IDX 32 34 33 35 34 36 87 37 35 38 92 39 86 40 88 41 36 42 91 43
REMARK SMILES IDX 85 44 84 45 37 47 71 48 50 49 70 50 51 51 54 52 69 53 89 54
REMARK SMILES IDX 52 55 53 56 68 58 90 59 55 60 38 61 39 62 48 63 40 64 41 65
REMARK SMILES IDX 47 66 49 67 42 68 43 69 44 70 45 71 46 72 72 73 73 74 82 75
REMARK SMILES IDX 74 76 75 77 81 78 83 79 76 80 77 81 78 82 79 83 80 84 56 85
REMARK SMILES IDX 57 86 66 87 58 88 59 89 65 90 67 91 60 92 61 93 62 94 63 95
REMARK SMILES IDX 64 96
REMARK H PARENT 88 46 54 57
REMARK Flexibility Score: inf
ROOT
ATOM      1  C   UNL A   1      31.961  30.450  26.248  1.00  0.00     0.274 C 
ENDROOT
BRANCH   1   2
ATOM      2  O   UNL A   1      32.351  29.060  26.204  1.00  0.00    -0.461 OA
BRANCH   2   3
ATOM      3  C   UNL A   1      32.687  28.610  24.962  1.00  0.00     0.329 C 
ATOM      4  O   UNL A   1      33.567  29.118  24.273  1.00  0.00    -0.250 OA
BRANCH   3   5
ATOM      5  C   UNL A   1      31.765  27.493  24.424  1.00  0.00     0.201 C 
ATOM      6  N   UNL A   1      30.712  27.931  23.461  1.00  0.00    -0.294 N 
ATOM      7  C   UNL A   1      29.887  26.869  22.912  1.00  0.00     0.124 C 
ATOM      8  C   UNL A   1      29.125  26.187  24.025  1.00  0.00     0.022 C 
ATOM      9  C   UNL A   1      31.157  26.555  25.533  1.00  0.00     0.024 C 
ATOM     10  C   UNL A   1      30.121  25.553  24.983  1.00  0.00     0.008 C 
BRANCH   6  11
ATOM     11  C   UNL A   1      30.489  29.207  22.968  1.00  0.00     0.411 C 
ATOM     12  O   UNL A   1      31.175  29.703  22.083  1.00  0.00    -0.224 OA
BRANCH  11  13
ATOM     13  O   UNL A   1      29.485  29.858  23.594  1.00  0.00    -0.444 OA
BRANCH  13  14
ATOM     14  C   UNL A   1      28.237  30.183  22.930  1.00  0.00     0.106 C 
ATOM     15  C   UNL A   1      27.795  31.534  23.519  1.00  0.00     0.056 C 
ATOM     16  C   UNL A   1      27.201  29.116  23.280  1.00  0.00     0.056 C 
ATOM     17  C   UNL A   1      28.384  30.368  21.414  1.00  0.00     0.056 C 
ENDBRANCH  13  14
ENDBRANCH  11  13
ENDBRANCH   6  11
BRANCH   9  18
ATOM     18  C   UNL A   1      32.177  25.813  26.453  1.00  0.00     0.010 C 
BRANCH  18  19
ATOM     19  C   UNL A   1      33.085  24.660  25.931  1.00  0.00    -0.011 C 
ATOM     20  C   UNL A   1      34.524  25.078  25.560  1.00  0.00     0.003 C 
ATOM     21  C   UNL A   1      33.109  23.429  26.834  1.00  0.00     0.003 C 
ATOM     22  C   UNL A   1      35.354  23.904  25.018  1.00  0.00     0.000 C 
ATOM     23  C   UNL A   1      33.873  22.273  26.210  1.00  0.00     0.000 C 
ATOM     24  C   UNL A   1      35.309  22.681  25.930  1.00  0.00     0.000 C 
ENDBRANCH  18  19
ENDBRANCH   9  18
ENDBRANCH   3   5
ENDBRANCH   2   3
ENDBRANCH   1   2
BRANCH   1  25
ATOM     25  C   UNL A   1      32.751  31.276  27.265  1.00  0.00     0.275 C 
BRANCH  25  26
ATOM     26  O   UNL A   1      34.147  30.927  27.256  1.00  0.00    -0.458 OA
BRANCH  26  27
ATOM     27  C   UNL A   1      34.807  31.138  28.418  1.00  0.00     0.338 C 
ATOM     28  O   UNL A   1      34.458  31.871  29.329  1.00  0.00    -0.246 OA
BRANCH  27  29
ATOM     29  C   UNL A   1      36.040  30.326  28.501  1.00  0.00     0.060 A 
ATOM     30  C   UNL A   1      36.584  29.989  29.733  1.00  0.00     0.016 A 
ATOM     31  C   UNL A   1      36.777  30.084  27.341  1.00  0.00     0.016 A 
ATOM     32  C   UNL A   1      37.912  29.576  29.818  1.00  0.00     0.010 A 
ATOM     33  C   UNL A   1      38.068  29.544  27.428  1.00  0.00     0.010 A 
ATOM     34  C   UNL A   1      38.688  29.346  28.673  1.00  0.00    -0.014 A 
BRANCH  34  35
ATOM     35  C   UNL A   1      40.138  28.982  28.781  1.00  0.00     0.031 A 
ATOM     36  C   UNL A   1      41.158  29.999  29.253  1.00  0.00     0.074 A 
ATOM     37  C   UNL A   1      40.567  27.732  28.497  1.00  0.00     0.049 A 
ATOM     38  N   UNL A   1      42.466  29.953  29.187  1.00  0.00    -0.248 NA
ATOM     39  C   UNL A   1      40.643  31.234  29.868  1.00  0.00     0.031 C 
ATOM     40  C   UNL A   1      39.719  26.612  28.088  1.00  0.00     0.029 A 
ATOM     41  N   UNL A   1      41.831  27.188  28.518  1.00  0.00    -0.354 N 
ATOM     42  C   UNL A   1      42.922  31.179  29.662  1.00  0.00     0.074 A 
ATOM     43  C   UNL A   1      41.752  31.940  30.041  1.00  0.00     0.031 C 
ATOM     44  C   UNL A   1      40.466  25.508  27.963  1.00  0.00     0.029 A 
ATOM     45  C   UNL A   1      41.868  25.868  28.136  1.00  0.00     0.049 A 
ATOM     46  H   UNL A   1      42.632  27.696  28.783  1.00  0.00     0.167 HD
ATOM     47  C   UNL A   1      44.196  31.633  29.760  1.00  0.00     0.037 A 
ATOM     48  C   UNL A   1      42.900  25.044  27.869  1.00  0.00     0.037 A 
ATOM     49  C   UNL A   1      45.364  30.842  29.460  1.00  0.00     0.049 A 
ATOM     50  C   UNL A   1      44.302  25.568  27.958  1.00  0.00     0.074 A 
ATOM     51  C   UNL A   1      46.697  31.206  29.555  1.00  0.00     0.029 A 
ATOM     52  N   UNL A   1      45.343  29.526  29.024  1.00  0.00    -0.354 N 
ATOM     53  N   UNL A   1      44.712  26.763  28.307  1.00  0.00    -0.248 NA
ATOM     54  C   UNL A   1      45.379  24.644  27.581  1.00  0.00     0.031 C 
ATOM     55  C   UNL A   1      47.481  30.123  29.138  1.00  0.00     0.029 A 
ATOM     56  C   UNL A   1      46.638  29.069  28.828  1.00  0.00     0.049 A 
ATOM     57  H   UNL A   1      44.529  28.993  28.877  1.00  0.00     0.167 HD
ATOM     58  C   UNL A   1      46.095  26.741  28.177  1.00  0.00     0.074 A 
ATOM     59  C   UNL A   1      46.454  25.403  27.752  1.00  0.00     0.031 C 
ATOM     60  C   UNL A   1      46.984  27.743  28.383  1.00  0.00     0.037 A 
BRANCH  47  61
ATOM     61  C   UNL A   1      44.407  33.073  30.152  1.00  0.00     0.058 A 
ATOM     62  C   UNL A   1      44.596  33.477  31.481  1.00  0.00     0.135 A 
ATOM     63  C   UNL A   1      44.471  34.062  29.154  1.00  0.00     0.135 A 
ATOM     64  F   UNL A   1      44.530  32.580  32.476  1.00  0.00    -0.206 F 
ATOM     65  C   UNL A   1      44.819  34.813  31.810  1.00  0.00     0.059 A 
ATOM     66  C   UNL A   1      44.719  35.397  29.456  1.00  0.00     0.059 A 
ATOM     67  F   UNL A   1      44.300  33.732  27.864  1.00  0.00    -0.206 F 
ATOM     68  C   UNL A   1      44.878  35.766  30.790  1.00  0.00     0.060 A 
BRANCH  68  69
ATOM     69  S   UNL A   1      45.175  37.494  31.229  1.00  0.00     0.124 S 
ATOM     70  O   UNL A   1      43.864  38.085  30.983  1.00  0.00    -0.237 OA
ATOM     71  O   UNL A   1      45.574  37.397  32.629  1.00  0.00    -0.237 OA
ATOM     72  O   UNL A   1      46.230  37.902  30.307  1.00  0.00    -0.744 OA
ENDBRANCH  68  69
ENDBRANCH  47  61
BRANCH  48  73
ATOM     73  C   UNL A   1      42.622  23.661  27.396  1.00  0.00     0.058 A 
ATOM     74  C   UNL A   1      42.642  23.339  26.032  1.00  0.00     0.135 A 
ATOM     75  C   UNL A   1      42.401  22.619  28.313  1.00  0.00     0.135 A 
ATOM     76  F   UNL A   1      42.826  24.303  25.118  1.00  0.00    -0.206 F 
ATOM     77  C   UNL A   1      42.475  22.029  25.593  1.00  0.00     0.059 A 
ATOM     78  C   UNL A   1      42.266  21.298  27.901  1.00  0.00     0.059 A 
ATOM     79  F   UNL A   1      42.379  22.875  29.630  1.00  0.00    -0.206 F 
ATOM     80  C   UNL A   1      42.304  21.014  26.537  1.00  0.00     0.060 A 
BRANCH  80  81
ATOM     81  S   UNL A   1      42.209  19.301  25.971  1.00  0.00     0.124 S 
ATOM     82  O   UNL A   1      42.685  18.578  27.145  1.00  0.00    -0.237 OA
ATOM     83  O   UNL A   1      40.790  19.155  25.662  1.00  0.00    -0.237 OA
ATOM     84  O   UNL A   1      43.097  19.283  24.812  1.00  0.00    -0.744 OA
ENDBRANCH  80  81
ENDBRANCH  48  73
BRANCH  60  85
ATOM     85  C   UNL A   1      48.434  27.424  28.154  1.00  0.00     0.058 A 
ATOM     86  C   UNL A   1      49.193  26.730  29.111  1.00  0.00     0.135 A 
ATOM     87  C   UNL A   1      49.071  27.807  26.963  1.00  0.00     0.135 A 
ATOM     88  F   UNL A   1      48.633  26.349  30.270  1.00  0.00    -0.206 F 
ATOM     89  C   UNL A   1      50.541  26.457  28.909  1.00  0.00     0.059 A 
ATOM     90  C   UNL A   1      50.412  27.523  26.730  1.00  0.00     0.059 A 
ATOM     91  F   UNL A   1      48.389  28.465  26.013  1.00  0.00    -0.206 F 
ATOM     92  C   UNL A   1      51.144  26.863  27.716  1.00  0.00     0.060 A 
BRANCH  92  93
ATOM     93  S   UNL A   1      52.895  26.505  27.465  1.00  0.00     0.124 S 
ATOM     94  O   UNL A   1      53.274  27.544  26.514  1.00  0.00    -0.237 OA
ATOM     95  O   UNL A   1      53.442  26.649  28.812  1.00  0.00    -0.237 OA
ATOM     96  O   UNL A   1      52.891  25.144  26.939  1.00  0.00    -0.744 OA
ENDBRANCH  92  93
ENDBRANCH  60  85
ENDBRANCH  34  35
ENDBRANCH  27  29
ENDBRANCH  26  27
ENDBRANCH  25  26
ENDBRANCH   1  25
TORSDOF 19
ENDMDL
