MODEL 1
REMARK VINA RESULT:      -9.3      0.000      0.000
REMARK SMILES CCC[C@@H](C[NH2+]C(C)C)C(=O)OCCOC(=O)c1ccc(-c2c3nc(c(-c4c(F)cc(S(=O)(=O)[O-])cc4F)c4ccc([nH]4)c(-c4c(F)cc(S(=O)(=O)[O-])cc4F)c4nc(c(-c5c(F)cc(S(=O)(=O)[O-])cc5F)c5ccc2[nH]5)C=C4)C=C3)cc1
REMARK SMILES IDX 13 1 12 2 10 3 11 4 4 5 3 6 2 7 1 8 5 9 6 10 7 13 8 14 9 15
REMARK SMILES IDX 14 16 15 17 16 18 17 19 18 20 19 21 83 22 20 23 82 24 21 25
REMARK SMILES IDX 22 26 23 27 76 28 24 29 81 30 75 31 77 32 25 33 80 34 74 35
REMARK SMILES IDX 73 36 26 38 60 39 39 40 59 41 40 42 43 43 58 44 78 45 41 46
REMARK SMILES IDX 42 47 57 49 79 50 44 51 27 52 28 53 37 54 29 55 30 56 36 57
REMARK SMILES IDX 38 58 31 59 32 60 33 61 34 62 35 63 61 64 62 65 71 66 63 67
REMARK SMILES IDX 64 68 70 69 72 70 65 71 66 72 67 73 68 74 69 75 45 76 46 77
REMARK SMILES IDX 55 78 47 79 48 80 54 81 56 82 49 83 50 84 51 85 52 86 53 87
REMARK H PARENT 6 11 6 12 77 37 43 48
REMARK Flexibility Score: inf
ROOT
ATOM      1  C   UNL A   1      31.777  28.909  26.411  1.00  0.00     0.274 C 
ENDROOT
BRANCH   1   2
ATOM      2  O   UNL A   1      31.458  29.297  25.063  1.00  0.00    -0.462 OA
BRANCH   2   3
ATOM      3  C   UNL A   1      31.865  28.445  24.086  1.00  0.00     0.314 C 
ATOM      4  O   UNL A   1      32.980  27.937  24.023  1.00  0.00    -0.252 OA
BRANCH   3   5
ATOM      5  C   UNL A   1      30.791  28.166  23.046  1.00  0.00     0.154 C 
BRANCH   5   6
ATOM      6  C   UNL A   1      29.614  27.321  23.569  1.00  0.00     0.021 C 
BRANCH   6   7
ATOM      7  C   UNL A   1      29.997  25.938  24.107  1.00  0.00    -0.002 C 
ATOM      8  C   UNL A   1      29.833  25.803  25.614  1.00  0.00     0.004 C 
ENDBRANCH   6   7
ENDBRANCH   5   6
BRANCH   5   9
ATOM      9  C   UNL A   1      30.412  29.478  22.349  1.00  0.00     0.276 C 
BRANCH   9  10
ATOM     10  N   UNL A   1      29.659  30.389  23.212  1.00  0.00    -0.344 N 
ATOM     11  H   UNL A   1      30.318  30.998  23.696  1.00  0.00     0.346 HD
ATOM     12  H   UNL A   1      29.121  29.820  23.866  1.00  0.00     0.346 HD
BRANCH  10  13
ATOM     13  C   UNL A   1      28.711  31.222  22.465  1.00  0.00     0.176 C 
ATOM     14  C   UNL A   1      28.093  30.476  21.282  1.00  0.00     0.075 C 
ATOM     15  C   UNL A   1      27.619  31.661  23.441  1.00  0.00     0.075 C 
ENDBRANCH  10  13
ENDBRANCH   9  10
ENDBRANCH   5   9
ENDBRANCH   3   5
ENDBRANCH   2   3
ENDBRANCH   1   2
BRANCH   1  16
ATOM     16  C   UNL A   1      32.527  30.020  27.148  1.00  0.00     0.275 C 
BRANCH  16  17
ATOM     17  O   UNL A   1      33.879  29.632  27.448  1.00  0.00    -0.458 OA
BRANCH  17  18
ATOM     18  C   UNL A   1      34.599  30.543  28.143  1.00  0.00     0.338 C 
ATOM     19  O   UNL A   1      34.202  31.582  28.640  1.00  0.00    -0.246 OA
BRANCH  18  20
ATOM     20  C   UNL A   1      35.972  30.047  28.314  1.00  0.00     0.060 A 
ATOM     21  C   UNL A   1      36.362  29.605  29.580  1.00  0.00     0.016 A 
ATOM     22  C   UNL A   1      36.889  30.102  27.267  1.00  0.00     0.016 A 
ATOM     23  C   UNL A   1      37.678  29.217  29.811  1.00  0.00     0.010 A 
ATOM     24  C   UNL A   1      38.210  29.706  27.496  1.00  0.00     0.010 A 
ATOM     25  C   UNL A   1      38.614  29.272  28.772  1.00  0.00    -0.014 A 
BRANCH  25  26
ATOM     26  C   UNL A   1      40.031  28.929  29.036  1.00  0.00     0.031 A 
ATOM     27  C   UNL A   1      40.939  29.953  29.653  1.00  0.00     0.074 A 
ATOM     28  C   UNL A   1      40.493  27.701  28.737  1.00  0.00     0.049 A 
ATOM     29  N   UNL A   1      42.231  29.902  29.848  1.00  0.00    -0.248 NA
ATOM     30  C   UNL A   1      40.308  31.200  30.111  1.00  0.00     0.031 C 
ATOM     31  C   UNL A   1      39.689  26.605  28.193  1.00  0.00     0.029 A 
ATOM     32  N   UNL A   1      41.753  27.169  28.846  1.00  0.00    -0.354 N 
ATOM     33  C   UNL A   1      42.575  31.118  30.426  1.00  0.00     0.074 A 
ATOM     34  C   UNL A   1      41.354  31.889  30.545  1.00  0.00     0.031 C 
ATOM     35  C   UNL A   1      40.476  25.531  28.017  1.00  0.00     0.029 A 
ATOM     36  C   UNL A   1      41.846  25.879  28.384  1.00  0.00     0.049 A 
ATOM     37  H   UNL A   1      42.516  27.666  29.220  1.00  0.00     0.167 HD
ATOM     38  C   UNL A   1      43.796  31.549  30.820  1.00  0.00     0.037 A 
ATOM     39  C   UNL A   1      42.922  25.081  28.241  1.00  0.00     0.037 A 
ATOM     40  C   UNL A   1      45.001  30.767  30.710  1.00  0.00     0.049 A 
ATOM     41  C   UNL A   1      44.279  25.604  28.625  1.00  0.00     0.074 A 
ATOM     42  C   UNL A   1      46.292  31.115  31.070  1.00  0.00     0.029 A 
ATOM     43  N   UNL A   1      45.061  29.476  30.204  1.00  0.00    -0.354 N 
ATOM     44  N   UNL A   1      44.598  26.771  29.131  1.00  0.00    -0.248 NA
ATOM     45  C   UNL A   1      45.423  24.709  28.404  1.00  0.00     0.031 C 
ATOM     46  C   UNL A   1      47.136  30.044  30.755  1.00  0.00     0.029 A 
ATOM     47  C   UNL A   1      46.368  29.017  30.231  1.00  0.00     0.049 A 
ATOM     48  H   UNL A   1      44.289  28.962  29.875  1.00  0.00     0.167 HD
ATOM     49  C   UNL A   1      45.977  26.747  29.302  1.00  0.00     0.074 A 
ATOM     50  C   UNL A   1      46.430  25.444  28.856  1.00  0.00     0.031 C 
ATOM     51  C   UNL A   1      46.795  27.715  29.783  1.00  0.00     0.037 A 
BRANCH  38  52
ATOM     52  C   UNL A   1      43.890  32.943  31.371  1.00  0.00     0.058 A 
ATOM     53  C   UNL A   1      43.987  34.064  30.534  1.00  0.00     0.135 A 
ATOM     54  C   UNL A   1      43.877  33.158  32.759  1.00  0.00     0.135 A 
ATOM     55  F   UNL A   1      44.022  33.910  29.201  1.00  0.00    -0.206 F 
ATOM     56  C   UNL A   1      44.098  35.350  31.053  1.00  0.00     0.059 A 
ATOM     57  C   UNL A   1      43.967  34.438  33.299  1.00  0.00     0.059 A 
ATOM     58  F   UNL A   1      43.790  32.119  33.604  1.00  0.00    -0.206 F 
ATOM     59  C   UNL A   1      44.096  35.526  32.438  1.00  0.00     0.060 A 
BRANCH  59  60
ATOM     60  S   UNL A   1      44.259  37.197  33.101  1.00  0.00     0.124 S 
ATOM     61  O   UNL A   1      44.578  37.957  31.897  1.00  0.00    -0.237 OA
ATOM     62  O   UNL A   1      42.937  37.442  33.672  1.00  0.00    -0.237 OA
ATOM     63  O   UNL A   1      45.342  37.072  34.071  1.00  0.00    -0.744 OA
ENDBRANCH  59  60
ENDBRANCH  38  52
BRANCH  39  64
ATOM     64  C   UNL A   1      42.759  23.715  27.681  1.00  0.00     0.058 A 
ATOM     65  C   UNL A   1      42.840  23.487  26.299  1.00  0.00     0.135 A 
ATOM     66  C   UNL A   1      42.540  22.608  28.514  1.00  0.00     0.135 A 
ATOM     67  F   UNL A   1      43.037  24.516  25.461  1.00  0.00    -0.206 F 
ATOM     68  C   UNL A   1      42.707  22.211  25.763  1.00  0.00     0.059 A 
ATOM     69  C   UNL A   1      42.426  21.319  28.004  1.00  0.00     0.059 A 
ATOM     70  F   UNL A   1      42.463  22.773  29.845  1.00  0.00    -0.206 F 
ATOM     71  C   UNL A   1      42.503  21.132  26.624  1.00  0.00     0.060 A 
BRANCH  71  72
ATOM     72  S   UNL A   1      42.394  19.469  25.928  1.00  0.00     0.124 S 
ATOM     73  O   UNL A   1      42.920  18.659  27.021  1.00  0.00    -0.237 OA
ATOM     74  O   UNL A   1      40.964  19.335  25.667  1.00  0.00    -0.237 OA
ATOM     75  O   UNL A   1      43.235  19.549  24.737  1.00  0.00    -0.744 OA
ENDBRANCH  71  72
ENDBRANCH  39  64
BRANCH  51  76
ATOM     76  C   UNL A   1      48.259  27.393  29.874  1.00  0.00     0.058 A 
ATOM     77  C   UNL A   1      49.140  27.689  28.823  1.00  0.00     0.135 A 
ATOM     78  C   UNL A   1      48.792  26.830  31.044  1.00  0.00     0.135 A 
ATOM     79  F   UNL A   1      48.676  28.220  27.681  1.00  0.00    -0.206 F 
ATOM     80  C   UNL A   1      50.501  27.421  28.922  1.00  0.00     0.059 A 
ATOM     81  C   UNL A   1      50.152  26.573  31.172  1.00  0.00     0.059 A 
ATOM     82  F   UNL A   1      47.990  26.538  32.079  1.00  0.00    -0.206 F 
ATOM     83  C   UNL A   1      50.998  26.863  30.103  1.00  0.00     0.060 A 
BRANCH  83  84
ATOM     84  S   UNL A   1      52.772  26.554  30.238  1.00  0.00     0.124 S 
ATOM     85  O   UNL A   1      52.811  25.496  31.241  1.00  0.00    -0.237 OA
ATOM     86  O   UNL A   1      53.128  26.154  28.880  1.00  0.00    -0.237 OA
ATOM     87  O   UNL A   1      53.308  27.845  30.662  1.00  0.00    -0.744 OA
ENDBRANCH  83  84
ENDBRANCH  51  76
ENDBRANCH  25  26
ENDBRANCH  18  20
ENDBRANCH  17  18
ENDBRANCH  16  17
ENDBRANCH   1  16
TORSDOF 19
ENDMDL
MODEL 2
REMARK VINA RESULT:      -8.9      1.835      3.088
REMARK SMILES CCC[C@@H](C[NH2+]C(C)C)C(=O)OCCOC(=O)c1ccc(-c2c3nc(c(-c4c(F)cc(S(=O)(=O)[O-])cc4F)c4ccc([nH]4)c(-c4c(F)cc(S(=O)(=O)[O-])cc4F)c4nc(c(-c5c(F)cc(S(=O)(=O)[O-])cc5F)c5ccc2[nH]5)C=C4)C=C3)cc1
REMARK SMILES IDX 13 1 12 2 10 3 11 4 4 5 3 6 2 7 1 8 5 9 6 10 7 13 8 14 9 15
REMARK SMILES IDX 14 16 15 17 16 18 17 19 18 20 19 21 83 22 20 23 82 24 21 25
REMARK SMILES IDX 22 26 23 27 76 28 24 29 81 30 75 31 77 32 25 33 80 34 74 35
REMARK SMILES IDX 73 36 26 38 60 39 39 40 59 41 40 42 43 43 58 44 78 45 41 46
REMARK SMILES IDX 42 47 57 49 79 50 44 51 27 52 28 53 37 54 29 55 30 56 36 57
REMARK SMILES IDX 38 58 31 59 32 60 33 61 34 62 35 63 61 64 62 65 71 66 63 67
REMARK SMILES IDX 64 68 70 69 72 70 65 71 66 72 67 73 68 74 69 75 45 76 46 77
REMARK SMILES IDX 55 78 47 79 48 80 54 81 56 82 49 83 50 84 51 85 52 86 53 87
REMARK H PARENT 6 11 6 12 77 37 43 48
REMARK Flexibility Score: inf
ROOT
ATOM      1  C   UNL A   1      32.226  28.072  25.918  1.00  0.00     0.274 C 
ENDROOT
BRANCH   1   2
ATOM      2  O   UNL A   1      32.760  26.736  25.925  1.00  0.00    -0.462 OA
BRANCH   2   3
ATOM      3  C   UNL A   1      33.240  26.281  24.738  1.00  0.00     0.314 C 
ATOM      4  O   UNL A   1      33.991  26.911  24.001  1.00  0.00    -0.252 OA
BRANCH   3   5
ATOM      5  C   UNL A   1      32.755  24.882  24.390  1.00  0.00     0.154 C 
BRANCH   5   6
ATOM      6  C   UNL A   1      32.843  24.540  22.891  1.00  0.00     0.021 C 
BRANCH   6   7
ATOM      7  C   UNL A   1      33.377  23.140  22.574  1.00  0.00    -0.002 C 
ATOM      8  C   UNL A   1      32.315  22.052  22.640  1.00  0.00     0.004 C 
ENDBRANCH   6   7
ENDBRANCH   5   6
BRANCH   5   9
ATOM      9  C   UNL A   1      33.405  23.872  25.344  1.00  0.00     0.276 C 
BRANCH   9  10
ATOM     10  N   UNL A   1      34.738  24.281  25.790  1.00  0.00    -0.344 N 
ATOM     11  H   UNL A   1      34.728  24.369  26.806  1.00  0.00     0.346 HD
ATOM     12  H   UNL A   1      34.956  25.168  25.336  1.00  0.00     0.346 HD
BRANCH  10  13
ATOM     13  C   UNL A   1      35.780  23.321  25.412  1.00  0.00     0.176 C 
ATOM     14  C   UNL A   1      37.180  23.809  25.788  1.00  0.00     0.075 C 
ATOM     15  C   UNL A   1      35.471  22.004  26.123  1.00  0.00     0.075 C 
ENDBRANCH  10  13
ENDBRANCH   9  10
ENDBRANCH   5   9
ENDBRANCH   3   5
ENDBRANCH   2   3
ENDBRANCH   1   2
BRANCH   1  16
ATOM     16  C   UNL A   1      32.471  28.777  27.253  1.00  0.00     0.275 C 
BRANCH  16  17
ATOM     17  O   UNL A   1      33.864  28.756  27.612  1.00  0.00    -0.458 OA
BRANCH  17  18
ATOM     18  C   UNL A   1      34.389  29.956  27.953  1.00  0.00     0.338 C 
ATOM     19  O   UNL A   1      33.801  31.014  28.085  1.00  0.00    -0.246 OA
BRANCH  18  20
ATOM     20  C   UNL A   1      35.817  29.790  28.255  1.00  0.00     0.060 A 
ATOM     21  C   UNL A   1      36.736  29.947  27.215  1.00  0.00     0.016 A 
ATOM     22  C   UNL A   1      36.239  29.393  29.522  1.00  0.00     0.016 A 
ATOM     23  C   UNL A   1      38.088  29.705  27.433  1.00  0.00     0.010 A 
ATOM     24  C   UNL A   1      37.599  29.156  29.744  1.00  0.00     0.010 A 
ATOM     25  C   UNL A   1      38.529  29.300  28.698  1.00  0.00    -0.014 A 
BRANCH  25  26
ATOM     26  C   UNL A   1      39.959  28.971  28.912  1.00  0.00     0.031 A 
ATOM     27  C   UNL A   1      40.884  30.013  29.469  1.00  0.00     0.074 A 
ATOM     28  C   UNL A   1      40.416  27.738  28.623  1.00  0.00     0.049 A 
ATOM     29  N   UNL A   1      42.183  29.974  29.612  1.00  0.00    -0.248 NA
ATOM     30  C   UNL A   1      40.264  31.268  29.924  1.00  0.00     0.031 C 
ATOM     31  C   UNL A   1      39.597  26.627  28.137  1.00  0.00     0.029 A 
ATOM     32  N   UNL A   1      41.682  27.217  28.693  1.00  0.00    -0.354 N 
ATOM     33  C   UNL A   1      42.542  31.205  30.148  1.00  0.00     0.074 A 
ATOM     34  C   UNL A   1      41.322  31.971  30.299  1.00  0.00     0.031 C 
ATOM     35  C   UNL A   1      40.384  25.553  27.954  1.00  0.00     0.029 A 
ATOM     36  C   UNL A   1      41.765  25.917  28.257  1.00  0.00     0.049 A 
ATOM     37  H   UNL A   1      42.457  27.726  29.024  1.00  0.00     0.167 HD
ATOM     38  C   UNL A   1      43.775  31.651  30.482  1.00  0.00     0.037 A 
ATOM     39  C   UNL A   1      42.839  25.122  28.088  1.00  0.00     0.037 A 
ATOM     40  C   UNL A   1      44.979  30.874  30.341  1.00  0.00     0.049 A 
ATOM     41  C   UNL A   1      44.207  25.660  28.404  1.00  0.00     0.074 A 
ATOM     42  C   UNL A   1      46.282  31.237  30.640  1.00  0.00     0.029 A 
ATOM     43  N   UNL A   1      45.028  29.572  29.862  1.00  0.00    -0.354 N 
ATOM     44  N   UNL A   1      44.539  26.841  28.870  1.00  0.00    -0.248 NA
ATOM     45  C   UNL A   1      45.347  24.767  28.157  1.00  0.00     0.031 C 
ATOM     46  C   UNL A   1      47.120  30.164  30.315  1.00  0.00     0.029 A 
ATOM     47  C   UNL A   1      46.337  29.121  29.846  1.00  0.00     0.049 A 
ATOM     48  H   UNL A   1      44.247  29.047  29.577  1.00  0.00     0.167 HD
ATOM     49  C   UNL A   1      45.924  26.828  28.986  1.00  0.00     0.074 A 
ATOM     50  C   UNL A   1      46.367  25.518  28.551  1.00  0.00     0.031 C 
ATOM     51  C   UNL A   1      46.754  27.812  29.412  1.00  0.00     0.037 A 
BRANCH  38  52
ATOM     52  C   UNL A   1      43.883  33.058  30.997  1.00  0.00     0.058 A 
ATOM     53  C   UNL A   1      43.869  33.345  32.371  1.00  0.00     0.135 A 
ATOM     54  C   UNL A   1      44.008  34.133  30.103  1.00  0.00     0.135 A 
ATOM     55  F   UNL A   1      43.733  32.355  33.266  1.00  0.00    -0.206 F 
ATOM     56  C   UNL A   1      43.944  34.653  32.840  1.00  0.00     0.059 A 
ATOM     57  C   UNL A   1      44.105  35.447  30.550  1.00  0.00     0.059 A 
ATOM     58  F   UNL A   1      44.023  33.913  28.779  1.00  0.00    -0.206 F 
ATOM     59  C   UNL A   1      44.054  35.698  31.921  1.00  0.00     0.060 A 
BRANCH  59  60
ATOM     60  S   UNL A   1      44.133  37.393  32.539  1.00  0.00     0.124 S 
ATOM     61  O   UNL A   1      45.501  37.453  33.046  1.00  0.00    -0.237 OA
ATOM     62  O   UNL A   1      43.868  38.181  31.339  1.00  0.00    -0.237 OA
ATOM     63  O   UNL A   1      43.084  37.433  33.553  1.00  0.00    -0.744 OA
ENDBRANCH  59  60
ENDBRANCH  38  52
BRANCH  39  64
ATOM     64  C   UNL A   1      42.662  23.742  27.566  1.00  0.00     0.058 A 
ATOM     65  C   UNL A   1      42.769  23.471  26.194  1.00  0.00     0.135 A 
ATOM     66  C   UNL A   1      42.405  22.665  28.428  1.00  0.00     0.135 A 
ATOM     67  F   UNL A   1      43.003  24.470  25.330  1.00  0.00    -0.206 F 
ATOM     68  C   UNL A   1      42.623  22.181  25.694  1.00  0.00     0.059 A 
ATOM     69  C   UNL A   1      42.277  21.363  27.955  1.00  0.00     0.059 A 
ATOM     70  F   UNL A   1      42.303  22.873  29.751  1.00  0.00    -0.206 F 
ATOM     71  C   UNL A   1      42.381  21.133  26.583  1.00  0.00     0.060 A 
BRANCH  71  72
ATOM     72  S   UNL A   1      42.255  19.452  25.936  1.00  0.00     0.124 S 
ATOM     73  O   UNL A   1      40.818  19.327  25.722  1.00  0.00    -0.237 OA
ATOM     74  O   UNL A   1      43.075  19.521  24.730  1.00  0.00    -0.237 OA
ATOM     75  O   UNL A   1      42.808  18.636  27.013  1.00  0.00    -0.744 OA
ENDBRANCH  71  72
ENDBRANCH  39  64
BRANCH  51  76
ATOM     76  C   UNL A   1      48.223  27.500  29.450  1.00  0.00     0.058 A 
ATOM     77  C   UNL A   1      49.089  27.927  28.432  1.00  0.00     0.135 A 
ATOM     78  C   UNL A   1      48.775  26.812  30.541  1.00  0.00     0.135 A 
ATOM     79  F   UNL A   1      48.606  28.581  27.364  1.00  0.00    -0.206 F 
ATOM     80  C   UNL A   1      50.454  27.666  28.486  1.00  0.00     0.059 A 
ATOM     81  C   UNL A   1      50.140  26.559  30.625  1.00  0.00     0.059 A 
ATOM     82  F   UNL A   1      47.988  26.391  31.543  1.00  0.00    -0.206 F 
ATOM     83  C   UNL A   1      50.971  26.982  29.589  1.00  0.00     0.060 A 
BRANCH  83  84
ATOM     84  S   UNL A   1      52.749  26.682  29.670  1.00  0.00     0.124 S 
ATOM     85  O   UNL A   1      52.855  25.865  30.874  1.00  0.00    -0.237 OA
ATOM     86  O   UNL A   1      53.011  25.991  28.411  1.00  0.00    -0.237 OA
ATOM     87  O   UNL A   1      53.314  28.025  29.767  1.00  0.00    -0.744 OA
ENDBRANCH  83  84
ENDBRANCH  51  76
ENDBRANCH  25  26
ENDBRANCH  18  20
ENDBRANCH  17  18
ENDBRANCH  16  17
ENDBRANCH   1  16
TORSDOF 19
ENDMDL
MODEL 3
REMARK VINA RESULT:      -8.9      1.042      2.159
REMARK SMILES CCC[C@@H](C[NH2+]C(C)C)C(=O)OCCOC(=O)c1ccc(-c2c3nc(c(-c4c(F)cc(S(=O)(=O)[O-])cc4F)c4ccc([nH]4)c(-c4c(F)cc(S(=O)(=O)[O-])cc4F)c4nc(c(-c5c(F)cc(S(=O)(=O)[O-])cc5F)c5ccc2[nH]5)C=C4)C=C3)cc1
REMARK SMILES IDX 13 1 12 2 10 3 11 4 4 5 3 6 2 7 1 8 5 9 6 10 7 13 8 14 9 15
REMARK SMILES IDX 14 16 15 17 16 18 17 19 18 20 19 21 83 22 20 23 82 24 21 25
REMARK SMILES IDX 22 26 23 27 76 28 24 29 81 30 75 31 77 32 25 33 80 34 74 35
REMARK SMILES IDX 73 36 26 38 60 39 39 40 59 41 40 42 43 43 58 44 78 45 41 46
REMARK SMILES IDX 42 47 57 49 79 50 44 51 27 52 28 53 37 54 29 55 30 56 36 57
REMARK SMILES IDX 38 58 31 59 32 60 33 61 34 62 35 63 61 64 62 65 71 66 63 67
REMARK SMILES IDX 64 68 70 69 72 70 65 71 66 72 67 73 68 74 69 75 45 76 46 77
REMARK SMILES IDX 55 78 47 79 48 80 54 81 56 82 49 83 50 84 51 85 52 86 53 87
REMARK H PARENT 6 11 6 12 77 37 43 48
REMARK Flexibility Score: inf
ROOT
ATOM      1  C   UNL A   1      32.196  27.795  26.068  1.00  0.00     0.274 C 
ENDROOT
BRANCH   1   2
ATOM      2  O   UNL A   1      31.098  28.236  25.251  1.00  0.00    -0.462 OA
BRANCH   2   3
ATOM      3  C   UNL A   1      30.381  27.258  24.638  1.00  0.00     0.314 C 
ATOM      4  O   UNL A   1      30.076  26.189  25.155  1.00  0.00    -0.252 OA
BRANCH   3   5
ATOM      5  C   UNL A   1      29.976  27.612  23.215  1.00  0.00     0.154 C 
BRANCH   5   6
ATOM      6  C   UNL A   1      29.413  29.037  23.058  1.00  0.00     0.021 C 
BRANCH   6   7
ATOM      7  C   UNL A   1      27.986  29.113  22.505  1.00  0.00    -0.002 C 
ATOM      8  C   UNL A   1      26.948  28.458  23.404  1.00  0.00     0.004 C 
ENDBRANCH   6   7
ENDBRANCH   5   6
BRANCH   5   9
ATOM      9  C   UNL A   1      31.115  27.235  22.259  1.00  0.00     0.276 C 
BRANCH   9  10
ATOM     10  N   UNL A   1      32.100  28.305  22.091  1.00  0.00    -0.344 N 
ATOM     11  H   UNL A   1      31.926  29.022  22.795  1.00  0.00     0.346 HD
ATOM     12  H   UNL A   1      31.996  28.673  21.145  1.00  0.00     0.346 HD
BRANCH  10  13
ATOM     13  C   UNL A   1      33.480  27.831  22.234  1.00  0.00     0.176 C 
ATOM     14  C   UNL A   1      34.286  28.682  23.216  1.00  0.00     0.075 C 
ATOM     15  C   UNL A   1      33.420  26.382  22.717  1.00  0.00     0.075 C 
ENDBRANCH  10  13
ENDBRANCH   9  10
ENDBRANCH   5   9
ENDBRANCH   3   5
ENDBRANCH   2   3
ENDBRANCH   1   2
BRANCH   1  16
ATOM     16  C   UNL A   1      32.601  28.865  27.084  1.00  0.00     0.275 C 
BRANCH  16  17
ATOM     17  O   UNL A   1      34.029  28.914  27.254  1.00  0.00    -0.458 OA
BRANCH  17  18
ATOM     18  C   UNL A   1      34.510  30.079  27.748  1.00  0.00     0.338 C 
ATOM     19  O   UNL A   1      33.906  31.125  27.906  1.00  0.00    -0.246 OA
BRANCH  18  20
ATOM     20  C   UNL A   1      35.899  29.883  28.183  1.00  0.00     0.060 A 
ATOM     21  C   UNL A   1      36.915  30.030  27.236  1.00  0.00     0.016 A 
ATOM     22  C   UNL A   1      36.191  29.468  29.481  1.00  0.00     0.016 A 
ATOM     23  C   UNL A   1      38.236  29.759  27.580  1.00  0.00     0.010 A 
ATOM     24  C   UNL A   1      37.519  29.202  29.828  1.00  0.00     0.010 A 
ATOM     25  C   UNL A   1      38.547  29.336  28.877  1.00  0.00    -0.014 A 
BRANCH  25  26
ATOM     26  C   UNL A   1      39.943  28.977  29.222  1.00  0.00     0.031 A 
ATOM     27  C   UNL A   1      40.806  29.969  29.947  1.00  0.00     0.074 A 
ATOM     28  C   UNL A   1      40.424  27.762  28.901  1.00  0.00     0.049 A 
ATOM     29  N   UNL A   1      42.081  29.905  30.228  1.00  0.00    -0.248 NA
ATOM     30  C   UNL A   1      40.144  31.197  30.416  1.00  0.00     0.031 C 
ATOM     31  C   UNL A   1      39.660  26.695  28.253  1.00  0.00     0.029 A 
ATOM     32  N   UNL A   1      41.673  27.223  29.072  1.00  0.00    -0.354 N 
ATOM     33  C   UNL A   1      42.384  31.093  30.883  1.00  0.00     0.074 A 
ATOM     34  C   UNL A   1      41.158  31.861  30.952  1.00  0.00     0.031 C 
ATOM     35  C   UNL A   1      40.458  25.628  28.083  1.00  0.00     0.029 A 
ATOM     36  C   UNL A   1      41.799  25.955  28.559  1.00  0.00     0.049 A 
ATOM     37  H   UNL A   1      42.409  27.699  29.520  1.00  0.00     0.167 HD
ATOM     38  C   UNL A   1      43.575  31.502  31.379  1.00  0.00     0.037 A 
ATOM     39  C   UNL A   1      42.882  25.161  28.455  1.00  0.00     0.037 A 
ATOM     40  C   UNL A   1      44.784  30.722  31.317  1.00  0.00     0.049 A 
ATOM     41  C   UNL A   1      44.209  25.661  28.955  1.00  0.00     0.074 A 
ATOM     42  C   UNL A   1      46.047  31.050  31.781  1.00  0.00     0.029 A 
ATOM     43  N   UNL A   1      44.880  29.456  30.759  1.00  0.00    -0.354 N 
ATOM     44  N   UNL A   1      44.493  26.804  29.534  1.00  0.00    -0.248 NA
ATOM     45  C   UNL A   1      45.366  24.774  28.773  1.00  0.00     0.031 C 
ATOM     46  C   UNL A   1      46.912  29.992  31.477  1.00  0.00     0.029 A 
ATOM     47  C   UNL A   1      46.182  28.992  30.855  1.00  0.00     0.049 A 
ATOM     48  H   UNL A   1      44.133  28.960  30.354  1.00  0.00     0.167 HD
ATOM     49  C   UNL A   1      45.856  26.767  29.798  1.00  0.00     0.074 A 
ATOM     50  C   UNL A   1      46.339  25.485  29.326  1.00  0.00     0.031 C 
ATOM     51  C   UNL A   1      46.639  27.711  30.379  1.00  0.00     0.037 A 
BRANCH  38  52
ATOM     52  C   UNL A   1      43.630  32.869  31.999  1.00  0.00     0.058 A 
ATOM     53  C   UNL A   1      43.777  34.027  31.221  1.00  0.00     0.135 A 
ATOM     54  C   UNL A   1      43.530  33.021  33.391  1.00  0.00     0.135 A 
ATOM     55  F   UNL A   1      43.895  33.935  29.887  1.00  0.00    -0.206 F 
ATOM     56  C   UNL A   1      43.851  35.289  31.804  1.00  0.00     0.059 A 
ATOM     57  C   UNL A   1      43.582  34.274  33.994  1.00  0.00     0.059 A 
ATOM     58  F   UNL A   1      43.393  31.944  34.181  1.00  0.00    -0.206 F 
ATOM     59  C   UNL A   1      43.761  35.401  33.193  1.00  0.00     0.060 A 
BRANCH  59  60
ATOM     60  S   UNL A   1      43.878  37.040  33.941  1.00  0.00     0.124 S 
ATOM     61  O   UNL A   1      45.282  37.078  34.338  1.00  0.00    -0.237 OA
ATOM     62  O   UNL A   1      43.509  37.920  32.836  1.00  0.00    -0.237 OA
ATOM     63  O   UNL A   1      42.916  36.981  35.038  1.00  0.00    -0.744 OA
ENDBRANCH  59  60
ENDBRANCH  38  52
BRANCH  39  64
ATOM     64  C   UNL A   1      42.758  23.821  27.823  1.00  0.00     0.058 A 
ATOM     65  C   UNL A   1      42.855  23.668  26.432  1.00  0.00     0.135 A 
ATOM     66  C   UNL A   1      42.562  22.667  28.596  1.00  0.00     0.135 A 
ATOM     67  F   UNL A   1      43.031  24.744  25.650  1.00  0.00    -0.206 F 
ATOM     68  C   UNL A   1      42.759  22.419  25.830  1.00  0.00     0.059 A 
ATOM     69  C   UNL A   1      42.485  21.404  28.019  1.00  0.00     0.059 A 
ATOM     70  F   UNL A   1      42.472  22.761  29.933  1.00  0.00    -0.206 F 
ATOM     71  C   UNL A   1      42.577  21.291  26.632  1.00  0.00     0.060 A 
BRANCH  71  72
ATOM     72  S   UNL A   1      42.516  19.665  25.850  1.00  0.00     0.124 S 
ATOM     73  O   UNL A   1      43.463  19.831  24.754  1.00  0.00    -0.237 OA
ATOM     74  O   UNL A   1      42.942  18.783  26.932  1.00  0.00    -0.237 OA
ATOM     75  O   UNL A   1      41.114  19.533  25.462  1.00  0.00    -0.744 OA
ENDBRANCH  71  72
ENDBRANCH  39  64
BRANCH  51  76
ATOM     76  C   UNL A   1      48.093  27.380  30.556  1.00  0.00     0.058 A 
ATOM     77  C   UNL A   1      48.557  26.703  31.692  1.00  0.00     0.135 A 
ATOM     78  C   UNL A   1      49.021  27.701  29.553  1.00  0.00     0.135 A 
ATOM     79  F   UNL A   1      47.708  26.382  32.682  1.00  0.00    -0.206 F 
ATOM     80  C   UNL A   1      49.900  26.368  31.839  1.00  0.00     0.059 A 
ATOM     81  C   UNL A   1      50.364  27.358  29.669  1.00  0.00     0.059 A 
ATOM     82  F   UNL A   1      48.624  28.342  28.444  1.00  0.00    -0.206 F 
ATOM     83  C   UNL A   1      50.796  26.700  30.820  1.00  0.00     0.060 A 
BRANCH  83  84
ATOM     84  S   UNL A   1      52.529  26.227  31.000  1.00  0.00     0.124 S 
ATOM     85  O   UNL A   1      52.970  26.193  29.610  1.00  0.00    -0.237 OA
ATOM     86  O   UNL A   1      53.071  27.314  31.810  1.00  0.00    -0.237 OA
ATOM     87  O   UNL A   1      52.458  24.932  31.671  1.00  0.00    -0.744 OA
ENDBRANCH  83  84
ENDBRANCH  51  76
ENDBRANCH  25  26
ENDBRANCH  18  20
ENDBRANCH  17  18
ENDBRANCH  16  17
ENDBRANCH   1  16
TORSDOF 19
ENDMDL
