MODEL 1
REMARK VINA RESULT:     -11.5      0.000      0.000
REMARK SMILES O=C(OCCOC(=O)c1ccsc1NC(=O)c1cc2c(F)cccc2s1)c1ccc(-c2c3nc(c(-c4c(F)cc(S(=O)(=O)[O-])cc4F)c4ccc([nH]4)c(-c4c(F)cc(S(=O)(=O)[O-])cc4F)c4nc(c(-c5c(F)cc(S(=O)(=O)[O-])cc5F)c5ccc2[nH]5)C=C4)C=C3)cc1
REMARK SMILES IDX 4 1 3 2 2 3 1 4 27 5 28 6 92 7 29 8 91 9 30 10 31 11 32 12
REMARK SMILES IDX 85 13 33 14 90 15 84 16 86 17 34 18 89 19 83 20 82 21 35 23
REMARK SMILES IDX 69 24 48 25 68 26 49 27 52 28 67 29 87 30 50 31 51 32 66 34
REMARK SMILES IDX 88 35 53 36 36 37 37 38 46 39 38 40 39 41 45 42 47 43 40 44
REMARK SMILES IDX 41 45 42 46 43 47 44 48 70 49 71 50 80 51 72 52 73 53 79 54
REMARK SMILES IDX 81 55 74 56 75 57 76 58 77 59 78 60 54 61 55 62 64 63 56 64
REMARK SMILES IDX 57 65 63 66 65 67 58 68 59 69 60 70 61 71 62 72 5 73 6 74
REMARK SMILES IDX 7 75 8 76 9 77 10 78 13 79 11 80 12 81 14 82 15 83 16 85
REMARK SMILES IDX 17 86 18 87 26 88 19 89 25 90 20 91 24 92 21 93 22 94 23 95
REMARK H PARENT 86 22 52 33 14 84
REMARK Flexibility Score: inf
ROOT
ATOM      1  C   UNL A   1      42.418  20.921  26.199  1.00  0.00     0.275 C 
ENDROOT
BRANCH   1   2
ATOM      2  O   UNL A   1      41.656  22.141  26.109  1.00  0.00    -0.458 OA
BRANCH   2   3
ATOM      3  C   UNL A   1      40.779  22.436  27.087  1.00  0.00     0.338 C 
ATOM      4  O   UNL A   1      40.166  21.609  27.748  1.00  0.00    -0.246 OA
BRANCH   3   5
ATOM      5  C   UNL A   1      40.766  23.867  27.444  1.00  0.00     0.060 A 
ATOM      6  C   UNL A   1      39.735  24.731  27.079  1.00  0.00     0.016 A 
ATOM      7  C   UNL A   1      41.789  24.311  28.289  1.00  0.00     0.016 A 
ATOM      8  C   UNL A   1      39.759  26.046  27.529  1.00  0.00     0.010 A 
ATOM      9  C   UNL A   1      41.772  25.600  28.797  1.00  0.00     0.010 A 
ATOM     10  C   UNL A   1      40.785  26.484  28.381  1.00  0.00    -0.014 A 
BRANCH  10  11
ATOM     11  C   UNL A   1      40.765  27.865  28.856  1.00  0.00     0.031 A 
ATOM     12  C   UNL A   1      41.808  28.753  28.278  1.00  0.00     0.074 A 
ATOM     13  C   UNL A   1      39.868  28.352  29.737  1.00  0.00     0.049 A 
ATOM     14  N   UNL A   1      42.930  29.089  28.822  1.00  0.00    -0.248 NA
ATOM     15  C   UNL A   1      41.663  29.202  26.888  1.00  0.00     0.031 C 
ATOM     16  C   UNL A   1      38.634  27.736  30.234  1.00  0.00     0.029 A 
ATOM     17  N   UNL A   1      39.877  29.562  30.368  1.00  0.00    -0.354 N 
ATOM     18  C   UNL A   1      43.535  29.987  27.947  1.00  0.00     0.074 A 
ATOM     19  C   UNL A   1      42.804  29.877  26.711  1.00  0.00     0.031 C 
ATOM     20  C   UNL A   1      37.925  28.646  30.941  1.00  0.00     0.029 A 
ATOM     21  C   UNL A   1      38.727  29.846  31.094  1.00  0.00     0.049 A 
ATOM     22  H   UNL A   1      40.638  30.184  30.312  1.00  0.00     0.167 HD
ATOM     23  C   UNL A   1      44.444  30.899  28.399  1.00  0.00     0.037 A 
ATOM     24  C   UNL A   1      38.462  30.972  31.803  1.00  0.00     0.037 A 
ATOM     25  C   UNL A   1      44.918  30.541  29.717  1.00  0.00     0.049 A 
ATOM     26  C   UNL A   1      39.775  31.562  32.165  1.00  0.00     0.074 A 
ATOM     27  C   UNL A   1      45.576  29.451  30.255  1.00  0.00     0.029 A 
ATOM     28  N   UNL A   1      44.390  31.217  30.790  1.00  0.00    -0.354 N 
ATOM     29  N   UNL A   1      40.624  30.997  32.981  1.00  0.00    -0.248 NA
ATOM     30  C   UNL A   1      40.338  32.565  31.276  1.00  0.00     0.031 C 
ATOM     31  C   UNL A   1      44.993  29.265  31.543  1.00  0.00     0.029 A 
ATOM     32  C   UNL A   1      44.065  30.290  31.746  1.00  0.00     0.049 A 
ATOM     33  H   UNL A   1      44.267  32.192  30.861  1.00  0.00     0.167 HD
ATOM     34  C   UNL A   1      41.870  31.247  32.424  1.00  0.00     0.074 A 
ATOM     35  C   UNL A   1      41.637  32.292  31.431  1.00  0.00     0.031 C 
ATOM     36  C   UNL A   1      42.923  30.400  32.630  1.00  0.00     0.037 A 
BRANCH  23  37
ATOM     37  C   UNL A   1      44.637  32.296  27.841  1.00  0.00     0.058 A 
ATOM     38  C   UNL A   1      45.840  32.606  27.167  1.00  0.00     0.135 A 
ATOM     39  C   UNL A   1      43.837  33.408  28.184  1.00  0.00     0.135 A 
ATOM     40  F   UNL A   1      46.679  31.633  26.776  1.00  0.00    -0.206 F 
ATOM     41  C   UNL A   1      46.264  33.918  26.947  1.00  0.00     0.059 A 
ATOM     42  C   UNL A   1      44.218  34.723  27.928  1.00  0.00     0.059 A 
ATOM     43  F   UNL A   1      42.693  33.288  28.863  1.00  0.00    -0.206 F 
ATOM     44  C   UNL A   1      45.452  34.971  27.352  1.00  0.00     0.060 A 
BRANCH  44  45
ATOM     45  S   UNL A   1      46.045  36.661  27.171  1.00  0.00     0.124 S 
ATOM     46  O   UNL A   1      44.823  37.424  27.395  1.00  0.00    -0.237 OA
ATOM     47  O   UNL A   1      47.050  36.741  28.226  1.00  0.00    -0.237 OA
ATOM     48  O   UNL A   1      46.569  36.690  25.809  1.00  0.00    -0.744 OA
ENDBRANCH  44  45
ENDBRANCH  23  37
BRANCH  24  49
ATOM     49  C   UNL A   1      37.186  31.736  31.875  1.00  0.00     0.058 A 
ATOM     50  C   UNL A   1      36.648  32.134  33.115  1.00  0.00     0.135 A 
ATOM     51  C   UNL A   1      36.631  32.350  30.736  1.00  0.00     0.135 A 
ATOM     52  F   UNL A   1      37.118  31.609  34.256  1.00  0.00    -0.206 F 
ATOM     53  C   UNL A   1      35.673  33.133  33.221  1.00  0.00     0.059 A 
ATOM     54  C   UNL A   1      35.654  33.342  30.816  1.00  0.00     0.059 A 
ATOM     55  F   UNL A   1      37.091  32.070  29.508  1.00  0.00    -0.206 F 
ATOM     56  C   UNL A   1      35.201  33.752  32.064  1.00  0.00     0.060 A 
BRANCH  56  57
ATOM     57  S   UNL A   1      34.087  35.170  32.209  1.00  0.00     0.124 S 
ATOM     58  O   UNL A   1      33.955  35.596  30.821  1.00  0.00    -0.237 OA
ATOM     59  O   UNL A   1      32.899  34.569  32.806  1.00  0.00    -0.237 OA
ATOM     60  O   UNL A   1      34.819  36.091  33.076  1.00  0.00    -0.744 OA
ENDBRANCH  56  57
ENDBRANCH  24  49
BRANCH  36  61
ATOM     61  C   UNL A   1      42.805  29.348  33.706  1.00  0.00     0.058 A 
ATOM     62  C   UNL A   1      43.087  29.567  35.066  1.00  0.00     0.135 A 
ATOM     63  C   UNL A   1      42.204  28.126  33.369  1.00  0.00     0.135 A 
ATOM     64  F   UNL A   1      43.581  30.739  35.489  1.00  0.00    -0.206 F 
ATOM     65  C   UNL A   1      42.794  28.610  36.042  1.00  0.00     0.059 A 
ATOM     66  C   UNL A   1      41.877  27.170  34.328  1.00  0.00     0.059 A 
ATOM     67  F   UNL A   1      41.861  27.874  32.094  1.00  0.00    -0.206 F 
ATOM     68  C   UNL A   1      42.177  27.419  35.665  1.00  0.00     0.060 A 
BRANCH  68  69
ATOM     69  S   UNL A   1      41.690  26.237  36.942  1.00  0.00     0.124 S 
ATOM     70  O   UNL A   1      42.850  26.240  37.827  1.00  0.00    -0.237 OA
ATOM     71  O   UNL A   1      40.476  26.841  37.484  1.00  0.00    -0.237 OA
ATOM     72  O   UNL A   1      41.478  24.997  36.198  1.00  0.00    -0.744 OA
ENDBRANCH  68  69
ENDBRANCH  36  61
ENDBRANCH  10  11
ENDBRANCH   3   5
ENDBRANCH   2   3
ENDBRANCH   1   2
BRANCH   1  73
ATOM     73  C   UNL A   1      43.758  20.889  25.463  1.00  0.00     0.275 C 
BRANCH  73  74
ATOM     74  O   UNL A   1      44.382  22.171  25.587  1.00  0.00    -0.458 OA
BRANCH  74  75
ATOM     75  C   UNL A   1      44.360  23.017  24.527  1.00  0.00     0.341 C 
ATOM     76  O   UNL A   1      44.369  22.705  23.337  1.00  0.00    -0.246 OA
BRANCH  75  77
ATOM     77  C   UNL A   1      44.363  24.365  25.029  1.00  0.00     0.094 A 
ATOM     78  C   UNL A   1      43.194  25.195  25.089  1.00  0.00     0.029 A 
ATOM     79  C   UNL A   1      45.469  25.051  25.499  1.00  0.00     0.110 A 
ATOM     80  C   UNL A   1      43.510  26.512  25.329  1.00  0.00     0.068 A 
ATOM     81  S   UNL A   1      45.207  26.736  25.256  1.00  0.00    -0.126 S 
BRANCH  79  82
ATOM     82  N   UNL A   1      46.702  24.574  25.921  1.00  0.00    -0.312 N 
ATOM     83  C   UNL A   1      47.302  24.657  27.178  1.00  0.00     0.266 C 
ATOM     84  H   UNL A   1      47.230  24.107  25.233  1.00  0.00     0.171 HD
ATOM     85  O   UNL A   1      48.499  24.373  27.271  1.00  0.00    -0.268 OA
BRANCH  83  86
ATOM     86  C   UNL A   1      46.473  24.865  28.351  1.00  0.00     0.094 A 
ATOM     87  C   UNL A   1      45.650  23.949  28.958  1.00  0.00     0.037 A 
ATOM     88  S   UNL A   1      46.558  26.291  29.302  1.00  0.00    -0.130 S 
ATOM     89  C   UNL A   1      45.002  24.425  30.111  1.00  0.00     0.029 A 
ATOM     90  C   UNL A   1      45.725  25.507  30.602  1.00  0.00     0.038 A 
ATOM     91  C   UNL A   1      44.100  23.737  30.924  1.00  0.00     0.131 A 
ATOM     92  C   UNL A   1      45.755  25.757  31.977  1.00  0.00     0.020 A 
ATOM     93  F   UNL A   1      43.308  22.783  30.411  1.00  0.00    -0.206 F 
ATOM     94  C   UNL A   1      44.284  23.833  32.288  1.00  0.00     0.040 A 
ATOM     95  C   UNL A   1      45.150  24.796  32.804  1.00  0.00     0.005 A 
ENDBRANCH  83  86
ENDBRANCH  79  82
ENDBRANCH  75  77
ENDBRANCH  74  75
ENDBRANCH  73  74
ENDBRANCH   1  73
TORSDOF 16
ENDMDL
MODEL 2
REMARK VINA RESULT:     -11.2      2.519     11.346
REMARK SMILES O=C(OCCOC(=O)c1ccsc1NC(=O)c1cc2c(F)cccc2s1)c1ccc(-c2c3nc(c(-c4c(F)cc(S(=O)(=O)[O-])cc4F)c4ccc([nH]4)c(-c4c(F)cc(S(=O)(=O)[O-])cc4F)c4nc(c(-c5c(F)cc(S(=O)(=O)[O-])cc5F)c5ccc2[nH]5)C=C4)C=C3)cc1
REMARK SMILES IDX 4 1 3 2 2 3 1 4 27 5 28 6 92 7 29 8 91 9 30 10 31 11 32 12
REMARK SMILES IDX 85 13 33 14 90 15 84 16 86 17 34 18 89 19 83 20 82 21 35 23
REMARK SMILES IDX 69 24 48 25 68 26 49 27 52 28 67 29 87 30 50 31 51 32 66 34
REMARK SMILES IDX 88 35 53 36 36 37 37 38 46 39 38 40 39 41 45 42 47 43 40 44
REMARK SMILES IDX 41 45 42 46 43 47 44 48 70 49 71 50 80 51 72 52 73 53 79 54
REMARK SMILES IDX 81 55 74 56 75 57 76 58 77 59 78 60 54 61 55 62 64 63 56 64
REMARK SMILES IDX 57 65 63 66 65 67 58 68 59 69 60 70 61 71 62 72 5 73 6 74
REMARK SMILES IDX 7 75 8 76 9 77 10 78 13 79 11 80 12 81 14 82 15 83 16 85
REMARK SMILES IDX 17 86 18 87 26 88 19 89 25 90 20 91 24 92 21 93 22 94 23 95
REMARK H PARENT 86 22 52 33 14 84
REMARK Flexibility Score: inf
ROOT
ATOM      1  C   UNL A   1      34.221  34.171  29.920  1.00  0.00     0.275 C 
ENDROOT
BRANCH   1   2
ATOM      2  O   UNL A   1      34.644  32.797  29.818  1.00  0.00    -0.458 OA
BRANCH   2   3
ATOM      3  C   UNL A   1      35.296  32.395  28.711  1.00  0.00     0.338 C 
ATOM      4  O   UNL A   1      35.136  32.871  27.595  1.00  0.00    -0.246 OA
BRANCH   3   5
ATOM      5  C   UNL A   1      36.391  31.449  28.992  1.00  0.00     0.060 A 
ATOM      6  C   UNL A   1      36.278  30.074  28.785  1.00  0.00     0.016 A 
ATOM      7  C   UNL A   1      37.619  32.005  29.364  1.00  0.00     0.016 A 
ATOM      8  C   UNL A   1      37.387  29.263  28.996  1.00  0.00     0.010 A 
ATOM      9  C   UNL A   1      38.741  31.204  29.502  1.00  0.00     0.010 A 
ATOM     10  C   UNL A   1      38.619  29.827  29.364  1.00  0.00    -0.014 A 
BRANCH  10  11
ATOM     11  C   UNL A   1      39.769  28.947  29.551  1.00  0.00     0.031 A 
ATOM     12  C   UNL A   1      40.146  28.683  30.965  1.00  0.00     0.074 A 
ATOM     13  C   UNL A   1      40.457  28.373  28.544  1.00  0.00     0.049 A 
ATOM     14  N   UNL A   1      41.085  29.259  31.638  1.00  0.00    -0.248 NA
ATOM     15  C   UNL A   1      39.301  27.790  31.766  1.00  0.00     0.031 C 
ATOM     16  C   UNL A   1      40.118  28.298  27.119  1.00  0.00     0.029 A 
ATOM     17  N   UNL A   1      41.637  27.691  28.610  1.00  0.00    -0.354 N 
ATOM     18  C   UNL A   1      41.113  28.635  32.883  1.00  0.00     0.074 A 
ATOM     19  C   UNL A   1      39.890  27.876  32.964  1.00  0.00     0.031 C 
ATOM     20  C   UNL A   1      40.972  27.456  26.493  1.00  0.00     0.029 A 
ATOM     21  C   UNL A   1      42.016  27.070  27.426  1.00  0.00     0.049 A 
ATOM     22  H   UNL A   1      42.176  27.642  29.432  1.00  0.00     0.167 HD
ATOM     23  C   UNL A   1      42.250  28.628  33.637  1.00  0.00     0.037 A 
ATOM     24  C   UNL A   1      43.126  26.321  27.211  1.00  0.00     0.037 A 
ATOM     25  C   UNL A   1      43.189  29.617  33.157  1.00  0.00     0.049 A 
ATOM     26  C   UNL A   1      44.128  26.754  28.217  1.00  0.00     0.074 A 
ATOM     27  C   UNL A   1      43.166  30.989  33.001  1.00  0.00     0.029 A 
ATOM     28  N   UNL A   1      44.241  29.177  32.390  1.00  0.00    -0.354 N 
ATOM     29  N   UNL A   1      44.677  27.940  28.230  1.00  0.00    -0.248 NA
ATOM     30  C   UNL A   1      44.193  26.024  29.471  1.00  0.00     0.031 C 
ATOM     31  C   UNL A   1      43.871  31.235  31.785  1.00  0.00     0.029 A 
ATOM     32  C   UNL A   1      44.341  30.010  31.306  1.00  0.00     0.049 A 
ATOM     33  H   UNL A   1      44.820  28.403  32.584  1.00  0.00     0.167 HD
ATOM     34  C   UNL A   1      44.763  28.275  29.574  1.00  0.00     0.074 A 
ATOM     35  C   UNL A   1      44.537  27.021  30.290  1.00  0.00     0.031 C 
ATOM     36  C   UNL A   1      44.743  29.578  29.984  1.00  0.00     0.037 A 
BRANCH  23  37
ATOM     37  C   UNL A   1      42.683  27.505  34.558  1.00  0.00     0.058 A 
ATOM     38  C   UNL A   1      42.734  27.740  35.951  1.00  0.00     0.135 A 
ATOM     39  C   UNL A   1      43.322  26.321  34.127  1.00  0.00     0.135 A 
ATOM     40  F   UNL A   1      42.151  28.825  36.486  1.00  0.00    -0.206 F 
ATOM     41  C   UNL A   1      43.450  26.923  36.828  1.00  0.00     0.059 A 
ATOM     42  C   UNL A   1      43.999  25.466  34.992  1.00  0.00     0.059 A 
ATOM     43  F   UNL A   1      43.403  25.978  32.837  1.00  0.00    -0.206 F 
ATOM     44  C   UNL A   1      44.097  25.797  36.332  1.00  0.00     0.060 A 
BRANCH  44  45
ATOM     45  S   UNL A   1      45.112  24.805  37.440  1.00  0.00     0.124 S 
ATOM     46  O   UNL A   1      46.432  25.387  37.224  1.00  0.00    -0.237 OA
ATOM     47  O   UNL A   1      44.497  25.077  38.735  1.00  0.00    -0.237 OA
ATOM     48  O   UNL A   1      44.930  23.447  36.937  1.00  0.00    -0.744 OA
ENDBRANCH  44  45
ENDBRANCH  23  37
BRANCH  24  49
ATOM     49  C   UNL A   1      43.245  25.047  26.450  1.00  0.00     0.058 A 
ATOM     50  C   UNL A   1      44.174  24.913  25.400  1.00  0.00     0.135 A 
ATOM     51  C   UNL A   1      42.674  23.850  26.926  1.00  0.00     0.135 A 
ATOM     52  F   UNL A   1      44.774  25.997  24.886  1.00  0.00    -0.206 F 
ATOM     53  C   UNL A   1      44.567  23.664  24.904  1.00  0.00     0.059 A 
ATOM     54  C   UNL A   1      43.045  22.596  26.442  1.00  0.00     0.059 A 
ATOM     55  F   UNL A   1      41.803  23.858  27.945  1.00  0.00    -0.206 F 
ATOM     56  C   UNL A   1      44.016  22.507  25.452  1.00  0.00     0.060 A 
BRANCH  56  57
ATOM     57  S   UNL A   1      44.661  20.893  24.949  1.00  0.00     0.124 S 
ATOM     58  O   UNL A   1      44.527  20.952  23.498  1.00  0.00    -0.237 OA
ATOM     59  O   UNL A   1      46.025  20.932  25.465  1.00  0.00    -0.237 OA
ATOM     60  O   UNL A   1      43.770  19.948  25.618  1.00  0.00    -0.744 OA
ENDBRANCH  56  57
ENDBRANCH  24  49
BRANCH  36  61
ATOM     61  C   UNL A   1      44.924  30.664  28.951  1.00  0.00     0.058 A 
ATOM     62  C   UNL A   1      43.877  31.231  28.202  1.00  0.00     0.135 A 
ATOM     63  C   UNL A   1      46.181  31.280  28.856  1.00  0.00     0.135 A 
ATOM     64  F   UNL A   1      42.626  30.761  28.298  1.00  0.00    -0.206 F 
ATOM     65  C   UNL A   1      44.076  32.351  27.389  1.00  0.00     0.059 A 
ATOM     66  C   UNL A   1      46.396  32.414  28.076  1.00  0.00     0.059 A 
ATOM     67  F   UNL A   1      47.212  30.820  29.587  1.00  0.00    -0.206 F 
ATOM     68  C   UNL A   1      45.337  32.944  27.342  1.00  0.00     0.060 A 
BRANCH  68  69
ATOM     69  S   UNL A   1      45.562  34.461  26.387  1.00  0.00     0.124 S 
ATOM     70  O   UNL A   1      44.216  34.711  25.880  1.00  0.00    -0.237 OA
ATOM     71  O   UNL A   1      46.044  35.400  27.396  1.00  0.00    -0.237 OA
ATOM     72  O   UNL A   1      46.549  34.087  25.377  1.00  0.00    -0.744 OA
ENDBRANCH  68  69
ENDBRANCH  36  61
ENDBRANCH  10  11
ENDBRANCH   3   5
ENDBRANCH   2   3
ENDBRANCH   1   2
BRANCH   1  73
ATOM     73  C   UNL A   1      34.131  34.763  31.327  1.00  0.00     0.275 C 
BRANCH  73  74
ATOM     74  O   UNL A   1      35.200  34.234  32.118  1.00  0.00    -0.458 OA
BRANCH  74  75
ATOM     75  C   UNL A   1      34.933  33.247  33.008  1.00  0.00     0.341 C 
ATOM     76  O   UNL A   1      33.882  33.079  33.626  1.00  0.00    -0.246 OA
BRANCH  75  77
ATOM     77  C   UNL A   1      36.112  32.433  33.145  1.00  0.00     0.094 A 
ATOM     78  C   UNL A   1      36.283  31.165  32.494  1.00  0.00     0.029 A 
ATOM     79  C   UNL A   1      37.219  32.736  33.917  1.00  0.00     0.110 A 
ATOM     80  C   UNL A   1      37.350  30.465  33.007  1.00  0.00     0.068 A 
ATOM     81  S   UNL A   1      37.969  31.261  34.393  1.00  0.00    -0.126 S 
BRANCH  79  82
ATOM     82  N   UNL A   1      37.633  33.951  34.446  1.00  0.00    -0.312 N 
ATOM     83  C   UNL A   1      38.823  34.649  34.237  1.00  0.00     0.266 C 
ATOM     84  H   UNL A   1      36.993  34.383  35.057  1.00  0.00     0.171 HD
ATOM     85  O   UNL A   1      39.083  35.592  34.990  1.00  0.00    -0.268 OA
BRANCH  83  86
ATOM     86  C   UNL A   1      39.602  34.390  33.041  1.00  0.00     0.094 A 
ATOM     87  C   UNL A   1      39.277  34.728  31.751  1.00  0.00     0.037 A 
ATOM     88  S   UNL A   1      41.200  33.768  33.095  1.00  0.00    -0.130 S 
ATOM     89  C   UNL A   1      40.252  34.385  30.798  1.00  0.00     0.029 A 
ATOM     90  C   UNL A   1      41.471  34.246  31.453  1.00  0.00     0.038 A 
ATOM     91  C   UNL A   1      40.198  34.586  29.417  1.00  0.00     0.131 A 
ATOM     92  C   UNL A   1      42.659  34.562  30.786  1.00  0.00     0.020 A 
ATOM     93  F   UNL A   1      39.022  34.585  28.772  1.00  0.00    -0.206 F 
ATOM     94  C   UNL A   1      41.325  35.102  28.813  1.00  0.00     0.040 A 
ATOM     95  C   UNL A   1      42.530  35.143  29.515  1.00  0.00     0.005 A 
ENDBRANCH  83  86
ENDBRANCH  79  82
ENDBRANCH  75  77
ENDBRANCH  74  75
ENDBRANCH  73  74
ENDBRANCH   1  73
TORSDOF 16
ENDMDL
MODEL 3
REMARK VINA RESULT:     -11.2      4.690     11.466
REMARK SMILES O=C(OCCOC(=O)c1ccsc1NC(=O)c1cc2c(F)cccc2s1)c1ccc(-c2c3nc(c(-c4c(F)cc(S(=O)(=O)[O-])cc4F)c4ccc([nH]4)c(-c4c(F)cc(S(=O)(=O)[O-])cc4F)c4nc(c(-c5c(F)cc(S(=O)(=O)[O-])cc5F)c5ccc2[nH]5)C=C4)C=C3)cc1
REMARK SMILES IDX 4 1 3 2 2 3 1 4 27 5 28 6 92 7 29 8 91 9 30 10 31 11 32 12
REMARK SMILES IDX 85 13 33 14 90 15 84 16 86 17 34 18 89 19 83 20 82 21 35 23
REMARK SMILES IDX 69 24 48 25 68 26 49 27 52 28 67 29 87 30 50 31 51 32 66 34
REMARK SMILES IDX 88 35 53 36 36 37 37 38 46 39 38 40 39 41 45 42 47 43 40 44
REMARK SMILES IDX 41 45 42 46 43 47 44 48 70 49 71 50 80 51 72 52 73 53 79 54
REMARK SMILES IDX 81 55 74 56 75 57 76 58 77 59 78 60 54 61 55 62 64 63 56 64
REMARK SMILES IDX 57 65 63 66 65 67 58 68 59 69 60 70 61 71 62 72 5 73 6 74
REMARK SMILES IDX 7 75 8 76 9 77 10 78 13 79 11 80 12 81 14 82 15 83 16 85
REMARK SMILES IDX 17 86 18 87 26 88 19 89 25 90 20 91 24 92 21 93 22 94 23 95
REMARK H PARENT 86 22 52 33 14 84
REMARK Flexibility Score: inf
ROOT
ATOM      1  C   UNL A   1      33.164  31.528  26.999  1.00  0.00     0.275 C 
ENDROOT
BRANCH   1   2
ATOM      2  O   UNL A   1      34.070  31.549  28.119  1.00  0.00    -0.458 OA
BRANCH   2   3
ATOM      3  C   UNL A   1      35.289  32.098  27.961  1.00  0.00     0.338 C 
ATOM      4  O   UNL A   1      35.497  33.281  27.728  1.00  0.00    -0.246 OA
BRANCH   3   5
ATOM      5  C   UNL A   1      36.390  31.177  28.297  1.00  0.00     0.060 A 
ATOM      6  C   UNL A   1      36.360  29.816  27.996  1.00  0.00     0.016 A 
ATOM      7  C   UNL A   1      37.548  31.753  28.831  1.00  0.00     0.016 A 
ATOM      8  C   UNL A   1      37.476  29.034  28.272  1.00  0.00     0.010 A 
ATOM      9  C   UNL A   1      38.684  30.988  29.036  1.00  0.00     0.010 A 
ATOM     10  C   UNL A   1      38.637  29.619  28.802  1.00  0.00    -0.014 A 
BRANCH  10  11
ATOM     11  C   UNL A   1      39.800  28.772  29.056  1.00  0.00     0.031 A 
ATOM     12  C   UNL A   1      40.155  28.589  30.487  1.00  0.00     0.074 A 
ATOM     13  C   UNL A   1      40.518  28.161  28.092  1.00  0.00     0.049 A 
ATOM     14  N   UNL A   1      41.070  29.217  31.147  1.00  0.00    -0.248 NA
ATOM     15  C   UNL A   1      39.311  27.721  31.319  1.00  0.00     0.031 C 
ATOM     16  C   UNL A   1      40.207  28.006  26.667  1.00  0.00     0.029 A 
ATOM     17  N   UNL A   1      41.708  27.506  28.215  1.00  0.00    -0.354 N 
ATOM     18  C   UNL A   1      41.085  28.658  32.422  1.00  0.00     0.074 A 
ATOM     19  C   UNL A   1      39.876  27.881  32.521  1.00  0.00     0.031 C 
ATOM     20  C   UNL A   1      41.088  27.149  26.100  1.00  0.00     0.029 A 
ATOM     21  C   UNL A   1      42.121  26.833  27.071  1.00  0.00     0.049 A 
ATOM     22  H   UNL A   1      42.233  27.509  29.048  1.00  0.00     0.167 HD
ATOM     23  C   UNL A   1      42.208  28.712  33.196  1.00  0.00     0.037 A 
ATOM     24  C   UNL A   1      43.248  26.095  26.915  1.00  0.00     0.037 A 
ATOM     25  C   UNL A   1      43.137  29.692  32.683  1.00  0.00     0.049 A 
ATOM     26  C   UNL A   1      44.224  26.599  27.915  1.00  0.00     0.074 A 
ATOM     27  C   UNL A   1      43.093  31.055  32.456  1.00  0.00     0.029 A 
ATOM     28  N   UNL A   1      44.212  29.234  31.959  1.00  0.00    -0.354 N 
ATOM     29  N   UNL A   1      44.749  27.794  27.877  1.00  0.00    -0.248 NA
ATOM     30  C   UNL A   1      44.277  25.935  29.207  1.00  0.00     0.031 C 
ATOM     31  C   UNL A   1      43.815  31.252  31.242  1.00  0.00     0.029 A 
ATOM     32  C   UNL A   1      44.317  30.013  30.836  1.00  0.00     0.049 A 
ATOM     33  H   UNL A   1      44.801  28.483  32.203  1.00  0.00     0.167 HD
ATOM     34  C   UNL A   1      44.804  28.199  29.203  1.00  0.00     0.074 A 
ATOM     35  C   UNL A   1      44.588  26.980  29.979  1.00  0.00     0.031 C 
ATOM     36  C   UNL A   1      44.752  29.521  29.545  1.00  0.00     0.037 A 
BRANCH  23  37
ATOM     37  C   UNL A   1      42.644  27.646  34.182  1.00  0.00     0.058 A 
ATOM     38  C   UNL A   1      42.608  27.934  35.566  1.00  0.00     0.135 A 
ATOM     39  C   UNL A   1      43.362  26.481  33.831  1.00  0.00     0.135 A 
ATOM     40  F   UNL A   1      41.945  29.007  36.026  1.00  0.00    -0.206 F 
ATOM     41  C   UNL A   1      43.314  27.187  36.510  1.00  0.00     0.059 A 
ATOM     42  C   UNL A   1      44.031  25.693  34.764  1.00  0.00     0.059 A 
ATOM     43  F   UNL A   1      43.529  26.096  32.562  1.00  0.00    -0.206 F 
ATOM     44  C   UNL A   1      44.040  26.077  36.093  1.00  0.00     0.060 A 
BRANCH  44  45
ATOM     45  S   UNL A   1      45.040  25.178  37.290  1.00  0.00     0.124 S 
ATOM     46  O   UNL A   1      44.880  23.804  36.829  1.00  0.00    -0.237 OA
ATOM     47  O   UNL A   1      46.358  25.771  37.087  1.00  0.00    -0.237 OA
ATOM     48  O   UNL A   1      44.405  25.496  38.565  1.00  0.00    -0.744 OA
ENDBRANCH  44  45
ENDBRANCH  23  37
BRANCH  24  49
ATOM     49  C   UNL A   1      43.405  24.786  26.224  1.00  0.00     0.058 A 
ATOM     50  C   UNL A   1      44.418  24.589  25.265  1.00  0.00     0.135 A 
ATOM     51  C   UNL A   1      42.770  23.622  26.700  1.00  0.00     0.135 A 
ATOM     52  F   UNL A   1      45.083  25.638  24.759  1.00  0.00    -0.206 F 
ATOM     53  C   UNL A   1      44.826  23.313  24.859  1.00  0.00     0.059 A 
ATOM     54  C   UNL A   1      43.155  22.341  26.305  1.00  0.00     0.059 A 
ATOM     55  F   UNL A   1      41.815  23.691  27.638  1.00  0.00    -0.206 F 
ATOM     56  C   UNL A   1      44.206  22.191  25.408  1.00  0.00     0.060 A 
BRANCH  56  57
ATOM     57  S   UNL A   1      44.857  20.545  25.033  1.00  0.00     0.124 S 
ATOM     58  O   UNL A   1      44.670  20.466  23.588  1.00  0.00    -0.237 OA
ATOM     59  O   UNL A   1      46.237  20.648  25.493  1.00  0.00    -0.237 OA
ATOM     60  O   UNL A   1      44.005  19.655  25.820  1.00  0.00    -0.744 OA
ENDBRANCH  56  57
ENDBRANCH  24  49
BRANCH  36  61
ATOM     61  C   UNL A   1      44.933  30.556  28.461  1.00  0.00     0.058 A 
ATOM     62  C   UNL A   1      43.910  30.991  27.599  1.00  0.00     0.135 A 
ATOM     63  C   UNL A   1      46.143  31.265  28.422  1.00  0.00     0.135 A 
ATOM     64  F   UNL A   1      42.694  30.428  27.629  1.00  0.00    -0.206 F 
ATOM     65  C   UNL A   1      44.088  32.074  26.733  1.00  0.00     0.059 A 
ATOM     66  C   UNL A   1      46.333  32.365  27.589  1.00  0.00     0.059 A 
ATOM     67  F   UNL A   1      47.143  30.934  29.257  1.00  0.00    -0.206 F 
ATOM     68  C   UNL A   1      45.299  32.763  26.744  1.00  0.00     0.060 A 
BRANCH  68  69
ATOM     69  S   UNL A   1      45.484  34.236  25.712  1.00  0.00     0.124 S 
ATOM     70  O   UNL A   1      46.925  34.277  25.485  1.00  0.00    -0.237 OA
ATOM     71  O   UNL A   1      44.666  33.909  24.548  1.00  0.00    -0.237 OA
ATOM     72  O   UNL A   1      44.955  35.309  26.550  1.00  0.00    -0.744 OA
ENDBRANCH  68  69
ENDBRANCH  36  61
ENDBRANCH  10  11
ENDBRANCH   3   5
ENDBRANCH   2   3
ENDBRANCH   1   2
BRANCH   1  73
ATOM     73  C   UNL A   1      32.007  30.530  27.066  1.00  0.00     0.275 C 
BRANCH  73  74
ATOM     74  O   UNL A   1      32.488  29.241  26.671  1.00  0.00    -0.458 OA
BRANCH  74  75
ATOM     75  C   UNL A   1      31.738  28.146  26.951  1.00  0.00     0.341 C 
ATOM     76  O   UNL A   1      31.357  27.780  28.062  1.00  0.00    -0.246 OA
BRANCH  75  77
ATOM     77  C   UNL A   1      31.485  27.447  25.719  1.00  0.00     0.094 A 
ATOM     78  C   UNL A   1      31.964  27.890  24.440  1.00  0.00     0.029 A 
ATOM     79  C   UNL A   1      30.748  26.284  25.585  1.00  0.00     0.110 A 
ATOM     80  C   UNL A   1      31.354  27.222  23.404  1.00  0.00     0.068 A 
ATOM     81  S   UNL A   1      30.078  26.247  23.999  1.00  0.00    -0.126 S 
BRANCH  79  82
ATOM     82  N   UNL A   1      30.377  25.347  26.539  1.00  0.00    -0.312 N 
ATOM     83  C   UNL A   1      30.720  23.998  26.638  1.00  0.00     0.266 C 
ATOM     84  H   UNL A   1      29.786  25.684  27.251  1.00  0.00     0.171 HD
ATOM     85  O   UNL A   1      30.090  23.295  27.432  1.00  0.00    -0.268 OA
BRANCH  83  86
ATOM     86  C   UNL A   1      31.918  23.517  25.975  1.00  0.00     0.094 A 
ATOM     87  C   UNL A   1      33.218  23.848  26.269  1.00  0.00     0.037 A 
ATOM     88  S   UNL A   1      31.887  22.261  24.807  1.00  0.00    -0.130 S 
ATOM     89  C   UNL A   1      34.177  23.187  25.483  1.00  0.00     0.029 A 
ATOM     90  C   UNL A   1      33.597  22.033  24.966  1.00  0.00     0.038 A 
ATOM     91  C   UNL A   1      35.565  23.329  25.538  1.00  0.00     0.131 A 
ATOM     92  C   UNL A   1      34.384  20.901  24.736  1.00  0.00     0.020 A 
ATOM     93  F   UNL A   1      36.119  24.492  25.911  1.00  0.00    -0.206 F 
ATOM     94  C   UNL A   1      36.316  22.172  25.522  1.00  0.00     0.040 A 
ATOM     95  C   UNL A   1      35.715  20.960  25.181  1.00  0.00     0.005 A 
ENDBRANCH  83  86
ENDBRANCH  79  82
ENDBRANCH  75  77
ENDBRANCH  74  75
ENDBRANCH  73  74
ENDBRANCH   1  73
TORSDOF 16
ENDMDL
