MODEL 1
REMARK VINA RESULT:      -9.8      0.000      0.000
REMARK SMILES CC[C@@H](C(=O)OCCOC(=O)c1ccc(-c2c3nc(c(-c4c(F)cc(S(=O)(=O)[O-])cc4F)c4ccc([nH]4)c(-c4c(F)cc(S(=O)(=O)[O-])cc4F)c4nc(c(-c5c(F)cc(S(=O)(=O)[O-])cc5F)c5ccc2[nH]5)C=C4)C=C3)cc1)[N@@H+](C)[C@@H](C)Cc1cccs1
REMARK SMILES IDX 7 1 6 2 4 3 5 4 3 5 2 6 1 7 78 8 79 9 80 11 81 12 82 13
REMARK SMILES IDX 83 14 84 15 87 16 85 17 86 18 8 19 9 20 10 21 11 22 12 23
REMARK SMILES IDX 13 24 77 25 14 26 76 27 15 28 16 29 17 30 70 31 18 32 75 33
REMARK SMILES IDX 69 34 71 35 19 36 74 37 68 38 67 39 20 41 54 42 33 43 53 44
REMARK SMILES IDX 34 45 37 46 52 47 72 48 35 49 36 50 51 52 73 53 38 54 21 55
REMARK SMILES IDX 22 56 31 57 23 58 24 59 30 60 32 61 25 62 26 63 27 64 28 65
REMARK SMILES IDX 29 66 55 67 56 68 65 69 57 70 58 71 64 72 66 73 59 74 60 75
REMARK SMILES IDX 61 76 62 77 63 78 39 79 40 80 49 81 41 82 42 83 48 84 50 85
REMARK SMILES IDX 43 86 44 87 45 88 46 89 47 90
REMARK H PARENT 78 10 71 40 37 51
REMARK Flexibility Score: inf
ROOT
ATOM      1  C   UNL A   1      31.701  28.208  27.452  1.00  0.00     0.274 C 
ENDROOT
BRANCH   1   2
ATOM      2  O   UNL A   1      31.479  27.572  26.170  1.00  0.00    -0.458 OA
BRANCH   2   3
ATOM      3  C   UNL A   1      31.704  26.227  26.095  1.00  0.00     0.365 C 
ATOM      4  O   UNL A   1      31.223  25.413  26.877  1.00  0.00    -0.245 OA
BRANCH   3   5
ATOM      5  C   UNL A   1      32.629  25.827  24.911  1.00  0.00     0.294 C 
BRANCH   5   6
ATOM      6  C   UNL A   1      32.683  26.797  23.718  1.00  0.00     0.074 C 
ATOM      7  C   UNL A   1      33.810  27.817  23.798  1.00  0.00     0.011 C 
ENDBRANCH   5   6
BRANCH   5   8
ATOM      8  N   UNL A   1      32.473  24.409  24.464  1.00  0.00    -0.323 N 
ATOM      9  C   UNL A   1      31.382  24.264  23.489  1.00  0.00     0.333 C 
ATOM     10  H   UNL A   1      32.248  23.973  25.359  1.00  0.00     0.348 HD
BRANCH   8  11
ATOM     11  C   UNL A   1      33.656  23.601  24.074  1.00  0.00     0.186 C 
ATOM     12  C   UNL A   1      33.591  22.991  22.679  1.00  0.00     0.075 C 
BRANCH  11  13
ATOM     13  C   UNL A   1      35.026  24.310  24.153  1.00  0.00     0.111 C 
BRANCH  13  14
ATOM     14  C   UNL A   1      36.128  23.575  24.842  1.00  0.00     0.010 A 
ATOM     15  C   UNL A   1      36.907  24.033  25.885  1.00  0.00     0.015 A 
ATOM     16  S   UNL A   1      36.661  22.051  24.276  1.00  0.00    -0.149 S 
ATOM     17  C   UNL A   1      37.982  23.152  26.184  1.00  0.00     0.012 A 
ATOM     18  C   UNL A   1      37.970  22.036  25.377  1.00  0.00     0.065 A 
ENDBRANCH  13  14
ENDBRANCH  11  13
ENDBRANCH   8  11
ENDBRANCH   5   8
ENDBRANCH   3   5
ENDBRANCH   2   3
ENDBRANCH   1   2
BRANCH   1  19
ATOM     19  C   UNL A   1      32.271  29.617  27.259  1.00  0.00     0.275 C 
BRANCH  19  20
ATOM     20  O   UNL A   1      33.702  29.535  27.153  1.00  0.00    -0.458 OA
BRANCH  20  21
ATOM     21  C   UNL A   1      34.402  30.432  27.893  1.00  0.00     0.338 C 
ATOM     22  O   UNL A   1      33.935  31.436  28.416  1.00  0.00    -0.246 OA
BRANCH  21  23
ATOM     23  C   UNL A   1      35.791  29.933  28.126  1.00  0.00     0.060 A 
ATOM     24  C   UNL A   1      36.196  29.475  29.384  1.00  0.00     0.016 A 
ATOM     25  C   UNL A   1      36.757  30.086  27.125  1.00  0.00     0.016 A 
ATOM     26  C   UNL A   1      37.552  29.312  29.672  1.00  0.00     0.010 A 
ATOM     27  C   UNL A   1      38.103  29.778  27.385  1.00  0.00     0.010 A 
ATOM     28  C   UNL A   1      38.528  29.396  28.669  1.00  0.00    -0.014 A 
BRANCH  28  29
ATOM     29  C   UNL A   1      39.958  29.033  28.938  1.00  0.00     0.031 A 
ATOM     30  C   UNL A   1      40.956  30.068  29.406  1.00  0.00     0.074 A 
ATOM     31  C   UNL A   1      40.399  27.775  28.712  1.00  0.00     0.049 A 
ATOM     32  N   UNL A   1      42.264  30.044  29.343  1.00  0.00    -0.248 NA
ATOM     33  C   UNL A   1      40.411  31.294  30.009  1.00  0.00     0.031 C 
ATOM     34  C   UNL A   1      39.570  26.633  28.317  1.00  0.00     0.029 A 
ATOM     35  N   UNL A   1      41.668  27.244  28.765  1.00  0.00    -0.354 N 
ATOM     36  C   UNL A   1      42.698  31.276  29.824  1.00  0.00     0.074 A 
ATOM     37  C   UNL A   1      41.510  32.016  30.198  1.00  0.00     0.031 C 
ATOM     38  C   UNL A   1      40.335  25.540  28.203  1.00  0.00     0.029 A 
ATOM     39  C   UNL A   1      41.727  25.927  28.367  1.00  0.00     0.049 A 
ATOM     40  H   UNL A   1      42.456  27.756  29.060  1.00  0.00     0.167 HD
ATOM     41  C   UNL A   1      43.968  31.746  29.927  1.00  0.00     0.037 A 
ATOM     42  C   UNL A   1      42.770  25.129  28.069  1.00  0.00     0.037 A 
ATOM     43  C   UNL A   1      45.148  30.971  29.619  1.00  0.00     0.049 A 
ATOM     44  C   UNL A   1      44.162  25.679  28.136  1.00  0.00     0.074 A 
ATOM     45  C   UNL A   1      46.476  31.357  29.700  1.00  0.00     0.029 A 
ATOM     46  N   UNL A   1      45.145  29.651  29.195  1.00  0.00    -0.354 N 
ATOM     47  N   UNL A   1      44.554  26.881  28.478  1.00  0.00    -0.248 NA
ATOM     48  C   UNL A   1      45.250  24.773  27.748  1.00  0.00     0.031 C 
ATOM     49  C   UNL A   1      47.275  30.282  29.292  1.00  0.00     0.029 A 
ATOM     50  C   UNL A   1      46.446  29.210  29.001  1.00  0.00     0.049 A 
ATOM     51  H   UNL A   1      44.338  29.105  29.052  1.00  0.00     0.167 HD
ATOM     52  C   UNL A   1      45.937  26.875  28.355  1.00  0.00     0.074 A 
ATOM     53  C   UNL A   1      46.314  25.543  27.925  1.00  0.00     0.031 C 
ATOM     54  C   UNL A   1      46.814  27.884  28.576  1.00  0.00     0.037 A 
BRANCH  41  55
ATOM     55  C   UNL A   1      44.166  33.180  30.346  1.00  0.00     0.058 A 
ATOM     56  C   UNL A   1      44.157  34.242  29.430  1.00  0.00     0.135 A 
ATOM     57  C   UNL A   1      44.292  33.500  31.711  1.00  0.00     0.135 A 
ATOM     58  F   UNL A   1      44.047  33.998  28.115  1.00  0.00    -0.206 F 
ATOM     59  C   UNL A   1      44.289  35.566  29.847  1.00  0.00     0.059 A 
ATOM     60  C   UNL A   1      44.397  34.815  32.152  1.00  0.00     0.059 A 
ATOM     61  F   UNL A   1      44.299  32.525  32.635  1.00  0.00    -0.206 F 
ATOM     62  C   UNL A   1      44.408  35.843  31.211  1.00  0.00     0.060 A 
BRANCH  62  63
ATOM     63  S   UNL A   1      44.568  37.563  31.738  1.00  0.00     0.124 S 
ATOM     64  O   UNL A   1      44.074  37.494  33.110  1.00  0.00    -0.237 OA
ATOM     65  O   UNL A   1      45.999  37.805  31.593  1.00  0.00    -0.237 OA
ATOM     66  O   UNL A   1      43.715  38.287  30.801  1.00  0.00    -0.744 OA
ENDBRANCH  62  63
ENDBRANCH  41  55
BRANCH  42  67
ATOM     67  C   UNL A   1      42.516  23.744  27.589  1.00  0.00     0.058 A 
ATOM     68  C   UNL A   1      42.354  23.470  26.224  1.00  0.00     0.135 A 
ATOM     69  C   UNL A   1      42.478  22.660  28.483  1.00  0.00     0.135 A 
ATOM     70  F   UNL A   1      42.369  24.473  25.334  1.00  0.00    -0.206 F 
ATOM     71  C   UNL A   1      42.167  22.172  25.761  1.00  0.00     0.059 A 
ATOM     72  C   UNL A   1      42.325  21.351  28.041  1.00  0.00     0.059 A 
ATOM     73  F   UNL A   1      42.642  22.868  29.800  1.00  0.00    -0.206 F 
ATOM     74  C   UNL A   1      42.163  21.118  26.677  1.00  0.00     0.060 A 
BRANCH  74  75
ATOM     75  S   UNL A   1      41.998  19.430  26.061  1.00  0.00     0.124 S 
ATOM     76  O   UNL A   1      42.391  18.652  27.230  1.00  0.00    -0.237 OA
ATOM     77  O   UNL A   1      40.587  19.370  25.696  1.00  0.00    -0.237 OA
ATOM     78  O   UNL A   1      42.929  19.393  24.936  1.00  0.00    -0.744 OA
ENDBRANCH  74  75
ENDBRANCH  42  67
BRANCH  54  79
ATOM     79  C   UNL A   1      48.273  27.573  28.395  1.00  0.00     0.058 A 
ATOM     80  C   UNL A   1      49.052  27.057  29.441  1.00  0.00     0.135 A 
ATOM     81  C   UNL A   1      48.893  27.779  27.153  1.00  0.00     0.135 A 
ATOM     82  F   UNL A   1      48.510  26.855  30.653  1.00  0.00    -0.206 F 
ATOM     83  C   UNL A   1      50.405  26.780  29.270  1.00  0.00     0.059 A 
ATOM     84  C   UNL A   1      50.238  27.485  26.951  1.00  0.00     0.059 A 
ATOM     85  F   UNL A   1      48.190  28.265  26.118  1.00  0.00    -0.206 F 
ATOM     86  C   UNL A   1      50.989  26.999  28.021  1.00  0.00     0.060 A 
BRANCH  86  87
ATOM     87  S   UNL A   1      52.741  26.618  27.803  1.00  0.00     0.124 S 
ATOM     88  O   UNL A   1      52.679  25.392  27.016  1.00  0.00    -0.237 OA
ATOM     89  O   UNL A   1      53.233  27.799  27.101  1.00  0.00    -0.237 OA
ATOM     90  O   UNL A   1      53.227  26.462  29.171  1.00  0.00    -0.744 OA
ENDBRANCH  86  87
ENDBRANCH  54  79
ENDBRANCH  28  29
ENDBRANCH  21  23
ENDBRANCH  20  21
ENDBRANCH  19  20
ENDBRANCH   1  19
TORSDOF 19
ENDMDL
MODEL 2
REMARK VINA RESULT:      -9.7      1.045      2.066
REMARK SMILES CC[C@@H](C(=O)OCCOC(=O)c1ccc(-c2c3nc(c(-c4c(F)cc(S(=O)(=O)[O-])cc4F)c4ccc([nH]4)c(-c4c(F)cc(S(=O)(=O)[O-])cc4F)c4nc(c(-c5c(F)cc(S(=O)(=O)[O-])cc5F)c5ccc2[nH]5)C=C4)C=C3)cc1)[N@@H+](C)[C@@H](C)Cc1cccs1
REMARK SMILES IDX 7 1 6 2 4 3 5 4 3 5 2 6 1 7 78 8 79 9 80 11 81 12 82 13
REMARK SMILES IDX 83 14 84 15 87 16 85 17 86 18 8 19 9 20 10 21 11 22 12 23
REMARK SMILES IDX 13 24 77 25 14 26 76 27 15 28 16 29 17 30 70 31 18 32 75 33
REMARK SMILES IDX 69 34 71 35 19 36 74 37 68 38 67 39 20 41 54 42 33 43 53 44
REMARK SMILES IDX 34 45 37 46 52 47 72 48 35 49 36 50 51 52 73 53 38 54 21 55
REMARK SMILES IDX 22 56 31 57 23 58 24 59 30 60 32 61 25 62 26 63 27 64 28 65
REMARK SMILES IDX 29 66 55 67 56 68 65 69 57 70 58 71 64 72 66 73 59 74 60 75
REMARK SMILES IDX 61 76 62 77 63 78 39 79 40 80 49 81 41 82 42 83 48 84 50 85
REMARK SMILES IDX 43 86 44 87 45 88 46 89 47 90
REMARK H PARENT 78 10 71 40 37 51
REMARK Flexibility Score: inf
ROOT
ATOM      1  C   UNL A   1      31.942  27.875  27.696  1.00  0.00     0.274 C 
ENDROOT
BRANCH   1   2
ATOM      2  O   UNL A   1      30.932  27.300  26.832  1.00  0.00    -0.458 OA
BRANCH   2   3
ATOM      3  C   UNL A   1      31.216  26.094  26.259  1.00  0.00     0.365 C 
ATOM      4  O   UNL A   1      31.216  25.032  26.876  1.00  0.00    -0.245 OA
BRANCH   3   5
ATOM      5  C   UNL A   1      31.533  26.197  24.741  1.00  0.00     0.294 C 
BRANCH   5   6
ATOM      6  C   UNL A   1      30.418  25.769  23.772  1.00  0.00     0.074 C 
ATOM      7  C   UNL A   1      29.096  26.494  23.987  1.00  0.00     0.011 C 
ENDBRANCH   5   6
BRANCH   5   8
ATOM      8  N   UNL A   1      32.856  25.620  24.351  1.00  0.00    -0.323 N 
ATOM      9  C   UNL A   1      33.923  26.038  25.272  1.00  0.00     0.333 C 
ATOM     10  H   UNL A   1      32.960  26.043  23.428  1.00  0.00     0.348 HD
BRANCH   8  11
ATOM     11  C   UNL A   1      32.984  24.185  23.995  1.00  0.00     0.186 C 
ATOM     12  C   UNL A   1      33.295  23.906  22.529  1.00  0.00     0.075 C 
BRANCH  11  13
ATOM     13  C   UNL A   1      34.018  23.368  24.800  1.00  0.00     0.111 C 
BRANCH  13  14
ATOM     14  C   UNL A   1      33.774  21.900  24.921  1.00  0.00     0.010 A 
ATOM     15  C   UNL A   1      34.702  20.888  24.776  1.00  0.00     0.015 A 
ATOM     16  S   UNL A   1      32.191  21.282  25.121  1.00  0.00    -0.149 S 
ATOM     17  C   UNL A   1      34.101  19.600  24.775  1.00  0.00     0.012 A 
ATOM     18  C   UNL A   1      32.736  19.670  24.947  1.00  0.00     0.065 A 
ENDBRANCH  13  14
ENDBRANCH  11  13
ENDBRANCH   8  11
ENDBRANCH   5   8
ENDBRANCH   3   5
ENDBRANCH   2   3
ENDBRANCH   1   2
BRANCH   1  19
ATOM     19  C   UNL A   1      32.497  29.166  27.086  1.00  0.00     0.275 C 
BRANCH  19  20
ATOM     20  O   UNL A   1      33.925  29.185  27.247  1.00  0.00    -0.458 OA
BRANCH  20  21
ATOM     21  C   UNL A   1      34.434  30.272  27.881  1.00  0.00     0.338 C 
ATOM     22  O   UNL A   1      33.782  31.228  28.281  1.00  0.00    -0.246 OA
BRANCH  21  23
ATOM     23  C   UNL A   1      35.884  30.062  28.177  1.00  0.00     0.060 A 
ATOM     24  C   UNL A   1      36.852  30.168  27.173  1.00  0.00     0.016 A 
ATOM     25  C   UNL A   1      36.270  29.581  29.433  1.00  0.00     0.016 A 
ATOM     26  C   UNL A   1      38.139  29.670  27.380  1.00  0.00     0.010 A 
ATOM     27  C   UNL A   1      37.606  29.220  29.674  1.00  0.00     0.010 A 
ATOM     28  C   UNL A   1      38.565  29.246  28.647  1.00  0.00    -0.014 A 
BRANCH  28  29
ATOM     29  C   UNL A   1      39.998  28.894  28.912  1.00  0.00     0.031 A 
ATOM     30  C   UNL A   1      40.987  29.935  29.384  1.00  0.00     0.074 A 
ATOM     31  C   UNL A   1      40.450  27.642  28.678  1.00  0.00     0.049 A 
ATOM     32  N   UNL A   1      42.296  29.924  29.319  1.00  0.00    -0.248 NA
ATOM     33  C   UNL A   1      40.433  31.153  29.995  1.00  0.00     0.031 C 
ATOM     34  C   UNL A   1      39.630  26.495  28.277  1.00  0.00     0.029 A 
ATOM     35  N   UNL A   1      41.724  27.122  28.725  1.00  0.00    -0.354 N 
ATOM     36  C   UNL A   1      42.720  31.157  29.807  1.00  0.00     0.074 A 
ATOM     37  C   UNL A   1      41.526  31.884  30.187  1.00  0.00     0.031 C 
ATOM     38  C   UNL A   1      40.405  25.410  28.155  1.00  0.00     0.029 A 
ATOM     39  C   UNL A   1      41.794  25.808  28.319  1.00  0.00     0.049 A 
ATOM     40  H   UNL A   1      42.508  27.639  29.021  1.00  0.00     0.167 HD
ATOM     41  C   UNL A   1      43.986  31.637  29.910  1.00  0.00     0.037 A 
ATOM     42  C   UNL A   1      42.843  25.021  28.014  1.00  0.00     0.037 A 
ATOM     43  C   UNL A   1      45.172  30.875  29.596  1.00  0.00     0.049 A 
ATOM     44  C   UNL A   1      44.230  25.583  28.082  1.00  0.00     0.074 A 
ATOM     45  C   UNL A   1      46.497  31.272  29.676  1.00  0.00     0.029 A 
ATOM     46  N   UNL A   1      45.180  29.558  29.163  1.00  0.00    -0.354 N 
ATOM     47  N   UNL A   1      44.612  26.787  28.431  1.00  0.00    -0.248 NA
ATOM     48  C   UNL A   1      45.326  24.689  27.687  1.00  0.00     0.031 C 
ATOM     49  C   UNL A   1      47.304  30.206  29.260  1.00  0.00     0.029 A 
ATOM     50  C   UNL A   1      46.485  29.129  28.965  1.00  0.00     0.049 A 
ATOM     51  H   UNL A   1      44.378  29.005  29.019  1.00  0.00     0.167 HD
ATOM     52  C   UNL A   1      45.995  26.793  28.305  1.00  0.00     0.074 A 
ATOM     53  C   UNL A   1      46.383  25.468  27.866  1.00  0.00     0.031 C 
ATOM     54  C   UNL A   1      46.864  27.809  28.530  1.00  0.00     0.037 A 
BRANCH  41  55
ATOM     55  C   UNL A   1      44.172  33.070  30.337  1.00  0.00     0.058 A 
ATOM     56  C   UNL A   1      44.426  33.434  31.668  1.00  0.00     0.135 A 
ATOM     57  C   UNL A   1      44.168  34.094  29.372  1.00  0.00     0.135 A 
ATOM     58  F   UNL A   1      44.434  32.503  32.633  1.00  0.00    -0.206 F 
ATOM     59  C   UNL A   1      44.648  34.762  32.031  1.00  0.00     0.059 A 
ATOM     60  C   UNL A   1      44.414  35.423  29.707  1.00  0.00     0.059 A 
ATOM     61  F   UNL A   1      43.938  33.805  28.081  1.00  0.00    -0.206 F 
ATOM     62  C   UNL A   1      44.640  35.750  31.042  1.00  0.00     0.060 A 
BRANCH  62  63
ATOM     63  S   UNL A   1      44.939  37.464  31.525  1.00  0.00     0.124 S 
ATOM     64  O   UNL A   1      46.206  37.349  32.240  1.00  0.00    -0.237 OA
ATOM     65  O   UNL A   1      44.999  38.149  30.238  1.00  0.00    -0.237 OA
ATOM     66  O   UNL A   1      43.781  37.792  32.352  1.00  0.00    -0.744 OA
ENDBRANCH  62  63
ENDBRANCH  41  55
BRANCH  42  67
ATOM     67  C   UNL A   1      42.601  23.637  27.526  1.00  0.00     0.058 A 
ATOM     68  C   UNL A   1      42.501  23.360  26.156  1.00  0.00     0.135 A 
ATOM     69  C   UNL A   1      42.512  22.556  28.421  1.00  0.00     0.135 A 
ATOM     70  F   UNL A   1      42.565  24.361  25.265  1.00  0.00    -0.206 F 
ATOM     71  C   UNL A   1      42.325  22.063  25.688  1.00  0.00     0.059 A 
ATOM     72  C   UNL A   1      42.369  21.247  27.975  1.00  0.00     0.059 A 
ATOM     73  F   UNL A   1      42.615  22.766  29.743  1.00  0.00    -0.206 F 
ATOM     74  C   UNL A   1      42.269  21.011  26.605  1.00  0.00     0.060 A 
BRANCH  74  75
ATOM     75  S   UNL A   1      42.120  19.322  25.986  1.00  0.00     0.124 S 
ATOM     76  O   UNL A   1      42.945  19.378  24.784  1.00  0.00    -0.237 OA
ATOM     77  O   UNL A   1      42.655  18.538  27.094  1.00  0.00    -0.237 OA
ATOM     78  O   UNL A   1      40.684  19.175  25.761  1.00  0.00    -0.744 OA
ENDBRANCH  74  75
ENDBRANCH  42  67
BRANCH  54  79
ATOM     79  C   UNL A   1      48.325  27.512  28.345  1.00  0.00     0.058 A 
ATOM     80  C   UNL A   1      48.985  27.782  27.136  1.00  0.00     0.135 A 
ATOM     81  C   UNL A   1      49.076  26.965  29.397  1.00  0.00     0.135 A 
ATOM     82  F   UNL A   1      48.308  28.293  26.095  1.00  0.00    -0.206 F 
ATOM     83  C   UNL A   1      50.336  27.495  26.968  1.00  0.00     0.059 A 
ATOM     84  C   UNL A   1      50.433  26.693  29.259  1.00  0.00     0.059 A 
ATOM     85  F   UNL A   1      48.492  26.693  30.574  1.00  0.00    -0.206 F 
ATOM     86  C   UNL A   1      51.052  26.949  28.035  1.00  0.00     0.060 A 
BRANCH  86  87
ATOM     87  S   UNL A   1      52.809  26.598  27.813  1.00  0.00     0.124 S 
ATOM     88  O   UNL A   1      53.275  27.827  27.180  1.00  0.00    -0.237 OA
ATOM     89  O   UNL A   1      53.261  26.380  29.184  1.00  0.00    -0.237 OA
ATOM     90  O   UNL A   1      52.814  25.412  26.963  1.00  0.00    -0.744 OA
ENDBRANCH  86  87
ENDBRANCH  54  79
ENDBRANCH  28  29
ENDBRANCH  21  23
ENDBRANCH  20  21
ENDBRANCH  19  20
ENDBRANCH   1  19
TORSDOF 19
ENDMDL
MODEL 3
REMARK VINA RESULT:      -9.5      1.156      2.699
REMARK SMILES CC[C@@H](C(=O)OCCOC(=O)c1ccc(-c2c3nc(c(-c4c(F)cc(S(=O)(=O)[O-])cc4F)c4ccc([nH]4)c(-c4c(F)cc(S(=O)(=O)[O-])cc4F)c4nc(c(-c5c(F)cc(S(=O)(=O)[O-])cc5F)c5ccc2[nH]5)C=C4)C=C3)cc1)[N@@H+](C)[C@@H](C)Cc1cccs1
REMARK SMILES IDX 7 1 6 2 4 3 5 4 3 5 2 6 1 7 78 8 79 9 80 11 81 12 82 13
REMARK SMILES IDX 83 14 84 15 87 16 85 17 86 18 8 19 9 20 10 21 11 22 12 23
REMARK SMILES IDX 13 24 77 25 14 26 76 27 15 28 16 29 17 30 70 31 18 32 75 33
REMARK SMILES IDX 69 34 71 35 19 36 74 37 68 38 67 39 20 41 54 42 33 43 53 44
REMARK SMILES IDX 34 45 37 46 52 47 72 48 35 49 36 50 51 52 73 53 38 54 21 55
REMARK SMILES IDX 22 56 31 57 23 58 24 59 30 60 32 61 25 62 26 63 27 64 28 65
REMARK SMILES IDX 29 66 55 67 56 68 65 69 57 70 58 71 64 72 66 73 59 74 60 75
REMARK SMILES IDX 61 76 62 77 63 78 39 79 40 80 49 81 41 82 42 83 48 84 50 85
REMARK SMILES IDX 43 86 44 87 45 88 46 89 47 90
REMARK H PARENT 78 10 71 40 37 51
REMARK Flexibility Score: inf
ROOT
ATOM      1  C   UNL A   1      31.882  27.608  26.814  1.00  0.00     0.274 C 
ENDROOT
BRANCH   1   2
ATOM      2  O   UNL A   1      32.331  26.485  26.018  1.00  0.00    -0.458 OA
BRANCH   2   3
ATOM      3  C   UNL A   1      31.581  25.346  26.067  1.00  0.00     0.365 C 
ATOM      4  O   UNL A   1      30.486  25.277  26.619  1.00  0.00    -0.245 OA
BRANCH   3   5
ATOM      5  C   UNL A   1      32.248  24.141  25.345  1.00  0.00     0.294 C 
BRANCH   5   6
ATOM      6  C   UNL A   1      32.105  22.767  26.021  1.00  0.00     0.074 C 
ATOM      7  C   UNL A   1      31.841  21.623  25.051  1.00  0.00     0.011 C 
ENDBRANCH   5   6
BRANCH   5   8
ATOM      8  N   UNL A   1      33.651  24.396  24.898  1.00  0.00    -0.323 N 
ATOM      9  C   UNL A   1      34.621  23.624  25.690  1.00  0.00     0.333 C 
ATOM     10  H   UNL A   1      33.711  25.396  25.089  1.00  0.00     0.348 HD
BRANCH   8  11
ATOM     11  C   UNL A   1      34.003  24.384  23.457  1.00  0.00     0.186 C 
ATOM     12  C   UNL A   1      34.348  23.014  22.885  1.00  0.00     0.075 C 
BRANCH  11  13
ATOM     13  C   UNL A   1      32.958  24.985  22.491  1.00  0.00     0.111 C 
BRANCH  13  14
ATOM     14  C   UNL A   1      32.749  26.462  22.556  1.00  0.00     0.010 A 
ATOM     15  C   UNL A   1      33.722  27.435  22.673  1.00  0.00     0.015 A 
ATOM     16  S   UNL A   1      31.176  27.128  22.640  1.00  0.00    -0.149 S 
ATOM     17  C   UNL A   1      33.170  28.727  22.888  1.00  0.00     0.012 A 
ATOM     18  C   UNL A   1      31.793  28.702  22.900  1.00  0.00     0.065 A 
ENDBRANCH  13  14
ENDBRANCH  11  13
ENDBRANCH   8  11
ENDBRANCH   5   8
ENDBRANCH   3   5
ENDBRANCH   2   3
ENDBRANCH   1   2
BRANCH   1  19
ATOM     19  C   UNL A   1      32.782  28.825  26.579  1.00  0.00     0.275 C 
BRANCH  19  20
ATOM     20  O   UNL A   1      33.732  28.921  27.655  1.00  0.00    -0.458 OA
BRANCH  20  21
ATOM     21  C   UNL A   1      34.288  30.144  27.844  1.00  0.00     0.338 C 
ATOM     22  O   UNL A   1      33.675  31.203  27.886  1.00  0.00    -0.246 OA
BRANCH  21  23
ATOM     23  C   UNL A   1      35.741  30.003  28.166  1.00  0.00     0.060 A 
ATOM     24  C   UNL A   1      36.720  30.154  27.179  1.00  0.00     0.016 A 
ATOM     25  C   UNL A   1      36.126  29.541  29.429  1.00  0.00     0.016 A 
ATOM     26  C   UNL A   1      38.026  29.717  27.410  1.00  0.00     0.010 A 
ATOM     27  C   UNL A   1      37.474  29.243  29.694  1.00  0.00     0.010 A 
ATOM     28  C   UNL A   1      38.448  29.314  28.685  1.00  0.00    -0.014 A 
BRANCH  28  29
ATOM     29  C   UNL A   1      39.892  29.030  28.975  1.00  0.00     0.031 A 
ATOM     30  C   UNL A   1      40.823  30.118  29.461  1.00  0.00     0.074 A 
ATOM     31  C   UNL A   1      40.405  27.799  28.753  1.00  0.00     0.049 A 
ATOM     32  N   UNL A   1      42.132  30.167  29.418  1.00  0.00    -0.248 NA
ATOM     33  C   UNL A   1      40.202  31.310  30.058  1.00  0.00     0.031 C 
ATOM     34  C   UNL A   1      39.647  26.615  28.343  1.00  0.00     0.029 A 
ATOM     35  N   UNL A   1      41.701  27.340  28.825  1.00  0.00    -0.354 N 
ATOM     36  C   UNL A   1      42.489  31.419  29.909  1.00  0.00     0.074 A 
ATOM     37  C   UNL A   1      41.256  32.091  30.266  1.00  0.00     0.031 C 
ATOM     38  C   UNL A   1      40.473  25.566  28.238  1.00  0.00     0.029 A 
ATOM     39  C   UNL A   1      41.840  26.029  28.425  1.00  0.00     0.049 A 
ATOM     40  H   UNL A   1      42.455  27.894  29.132  1.00  0.00     0.167 HD
ATOM     41  C   UNL A   1      43.729  31.958  30.032  1.00  0.00     0.037 A 
ATOM     42  C   UNL A   1      42.929  25.291  28.140  1.00  0.00     0.037 A 
ATOM     43  C   UNL A   1      44.955  31.251  29.741  1.00  0.00     0.049 A 
ATOM     44  C   UNL A   1      44.287  25.918  28.231  1.00  0.00     0.074 A 
ATOM     45  C   UNL A   1      46.259  31.710  29.843  1.00  0.00     0.029 A 
ATOM     46  N   UNL A   1      45.032  29.935  29.314  1.00  0.00    -0.354 N 
ATOM     47  N   UNL A   1      44.607  27.139  28.581  1.00  0.00    -0.248 NA
ATOM     48  C   UNL A   1      45.430  25.075  27.857  1.00  0.00     0.031 C 
ATOM     49  C   UNL A   1      47.122  30.682  29.445  1.00  0.00     0.029 A 
ATOM     50  C   UNL A   1      46.359  29.567  29.139  1.00  0.00     0.049 A 
ATOM     51  H   UNL A   1      44.259  29.345  29.157  1.00  0.00     0.167 HD
ATOM     52  C   UNL A   1      45.990  27.209  28.480  1.00  0.00     0.074 A 
ATOM     53  C   UNL A   1      46.447  25.902  28.052  1.00  0.00     0.031 C 
ATOM     54  C   UNL A   1      46.806  28.265  28.716  1.00  0.00     0.037 A 
BRANCH  41  55
ATOM     55  C   UNL A   1      43.841  33.400  30.457  1.00  0.00     0.058 A 
ATOM     56  C   UNL A   1      44.059  33.779  31.790  1.00  0.00     0.135 A 
ATOM     57  C   UNL A   1      43.802  34.421  29.489  1.00  0.00     0.135 A 
ATOM     58  F   UNL A   1      44.098  32.851  32.758  1.00  0.00    -0.206 F 
ATOM     59  C   UNL A   1      44.212  35.117  32.152  1.00  0.00     0.059 A 
ATOM     60  C   UNL A   1      43.980  35.760  29.823  1.00  0.00     0.059 A 
ATOM     61  F   UNL A   1      43.605  34.117  28.196  1.00  0.00    -0.206 F 
ATOM     62  C   UNL A   1      44.172  36.101  31.161  1.00  0.00     0.060 A 
BRANCH  62  63
ATOM     63  S   UNL A   1      44.382  37.829  31.642  1.00  0.00     0.124 S 
ATOM     64  O   UNL A   1      43.591  37.888  32.867  1.00  0.00    -0.237 OA
ATOM     65  O   UNL A   1      45.827  37.934  31.816  1.00  0.00    -0.237 OA
ATOM     66  O   UNL A   1      43.835  38.568  30.508  1.00  0.00    -0.744 OA
ENDBRANCH  62  63
ENDBRANCH  41  55
BRANCH  42  67
ATOM     67  C   UNL A   1      42.760  23.896  27.653  1.00  0.00     0.058 A 
ATOM     68  C   UNL A   1      42.611  22.830  28.551  1.00  0.00     0.135 A 
ATOM     69  C   UNL A   1      42.698  23.608  26.279  1.00  0.00     0.135 A 
ATOM     70  F   UNL A   1      42.678  23.053  29.872  1.00  0.00    -0.206 F 
ATOM     71  C   UNL A   1      42.403  21.529  28.106  1.00  0.00     0.059 A 
ATOM     72  C   UNL A   1      42.457  22.322  25.811  1.00  0.00     0.059 A 
ATOM     73  F   UNL A   1      42.821  24.596  25.377  1.00  0.00    -0.206 F 
ATOM     74  C   UNL A   1      42.318  21.287  26.733  1.00  0.00     0.060 A 
BRANCH  74  75
ATOM     75  S   UNL A   1      41.968  19.609  26.166  1.00  0.00     0.124 S 
ATOM     76  O   UNL A   1      42.463  18.814  27.283  1.00  0.00    -0.237 OA
ATOM     77  O   UNL A   1      40.520  19.637  25.991  1.00  0.00    -0.237 OA
ATOM     78  O   UNL A   1      42.737  19.508  24.928  1.00  0.00    -0.744 OA
ENDBRANCH  74  75
ENDBRANCH  42  67
BRANCH  54  79
ATOM     79  C   UNL A   1      48.282  28.036  28.557  1.00  0.00     0.058 A 
ATOM     80  C   UNL A   1      48.941  28.283  27.342  1.00  0.00     0.135 A 
ATOM     81  C   UNL A   1      49.049  27.578  29.639  1.00  0.00     0.135 A 
ATOM     82  F   UNL A   1      48.250  28.710  26.273  1.00  0.00    -0.206 F 
ATOM     83  C   UNL A   1      50.307  28.060  27.199  1.00  0.00     0.059 A 
ATOM     84  C   UNL A   1      50.420  27.371  29.526  1.00  0.00     0.059 A 
ATOM     85  F   UNL A   1      48.468  27.331  30.824  1.00  0.00    -0.206 F 
ATOM     86  C   UNL A   1      51.038  27.602  28.297  1.00  0.00     0.060 A 
BRANCH  86  87
ATOM     87  S   UNL A   1      52.813  27.332  28.105  1.00  0.00     0.124 S 
ATOM     88  O   UNL A   1      53.344  28.050  29.259  1.00  0.00    -0.237 OA
ATOM     89  O   UNL A   1      52.917  25.877  28.161  1.00  0.00    -0.237 OA
ATOM     90  O   UNL A   1      53.109  27.926  26.805  1.00  0.00    -0.744 OA
ENDBRANCH  86  87
ENDBRANCH  54  79
ENDBRANCH  28  29
ENDBRANCH  21  23
ENDBRANCH  20  21
ENDBRANCH  19  20
ENDBRANCH   1  19
TORSDOF 19
ENDMDL
