MODEL 1
REMARK VINA RESULT:     -12.1      0.000      0.000
REMARK SMILES O=C(OCCOC(=O)c1ccc(-c2c3nc(c(-c4c(F)cc(S(=O)(=O)[O-])cc4F)c4ccc([nH]4)c(-c4c(F)cc(S(=O)(=O)[O-])cc4F)c4nc(c(-c5c(F)cc(S(=O)(=O)[O-])cc5F)c5ccc2[nH]5)C=C4)C=C3)cc1)C1=Cc2c(ccc(Cl)c2-c2ccccc2)O[C@H]1C(F)(F)F
REMARK SMILES IDX 5 1 4 2 3 3 2 4 1 5 75 6 76 7 91 8 77 9 90 10 78 11 83 12
REMARK SMILES IDX 79 13 81 14 80 15 82 16 92 17 93 18 94 19 95 20 84 21 85 22
REMARK SMILES IDX 89 23 86 24 88 25 87 26 6 27 7 28 8 29 9 30 10 31 74 32
REMARK SMILES IDX 11 33 73 34 12 35 13 36 14 37 67 38 15 39 72 40 66 41 68 42
REMARK SMILES IDX 16 43 71 44 65 45 64 46 17 48 51 49 30 50 50 51 31 52 34 53
REMARK SMILES IDX 49 54 69 55 32 56 33 57 48 59 70 60 35 61 18 62 19 63 28 64
REMARK SMILES IDX 20 65 21 66 27 67 29 68 22 69 23 70 24 71 25 72 26 73 52 74
REMARK SMILES IDX 53 75 62 76 54 77 55 78 61 79 63 80 56 81 57 82 58 83 59 84
REMARK SMILES IDX 60 85 36 86 37 87 46 88 38 89 39 90 45 91 47 92 40 93 41 94
REMARK SMILES IDX 42 95 43 96 44 97
REMARK H PARENT 68 47 34 58
REMARK Flexibility Score: inf
ROOT
ATOM      1  C   UNL A   1      33.234  31.694  27.060  1.00  0.00     0.275 C 
ENDROOT
BRANCH   1   2
ATOM      2  C   UNL A   1      31.832  31.329  26.593  1.00  0.00     0.275 C 
BRANCH   2   3
ATOM      3  O   UNL A   1      31.906  30.319  25.567  1.00  0.00    -0.459 OA
BRANCH   3   4
ATOM      4  C   UNL A   1      31.482  29.040  25.701  1.00  0.00     0.338 C 
ATOM      5  O   UNL A   1      31.506  28.511  26.808  1.00  0.00    -0.246 OA
BRANCH   4   6
ATOM      6  C   UNL A   1      30.997  28.242  24.543  1.00  0.00     0.087 C 
ATOM      7  C   UNL A   1      30.774  26.917  24.524  1.00  0.00     0.028 C 
ATOM      8  C   UNL A   1      30.875  29.019  23.251  1.00  0.00     0.316 C 
ATOM      9  C   UNL A   1      31.495  26.230  23.437  1.00  0.00     0.027 A 
ATOM     10  O   UNL A   1      31.080  28.199  22.055  1.00  0.00    -0.475 OA
ATOM     11  C   UNL A   1      31.619  26.949  22.237  1.00  0.00     0.128 A 
ATOM     12  C   UNL A   1      32.065  24.933  23.602  1.00  0.00     0.011 A 
ATOM     13  C   UNL A   1      32.292  26.385  21.164  1.00  0.00     0.049 A 
ATOM     14  C   UNL A   1      32.751  24.399  22.497  1.00  0.00     0.049 A 
ATOM     15  C   UNL A   1      32.862  25.118  21.297  1.00  0.00     0.025 A 
ATOM     16  Cl  UNL A   1      33.507  22.841  22.557  1.00  0.00    -0.084 Cl
BRANCH   8  17
ATOM     17  C   UNL A   1      29.499  29.718  23.197  1.00  0.00     0.430 C 
ATOM     18  F   UNL A   1      29.247  30.274  21.989  1.00  0.00    -0.167 F 
ATOM     19  F   UNL A   1      28.493  28.858  23.467  1.00  0.00    -0.167 F 
ATOM     20  F   UNL A   1      29.434  30.726  24.105  1.00  0.00    -0.167 F 
ENDBRANCH   8  17
BRANCH  12  21
ATOM     21  C   UNL A   1      32.018  24.210  24.899  1.00  0.00    -0.016 A 
ATOM     22  C   UNL A   1      30.899  23.418  25.225  1.00  0.00     0.009 A 
ATOM     23  C   UNL A   1      33.092  24.227  25.806  1.00  0.00     0.009 A 
ATOM     24  C   UNL A   1      30.898  22.585  26.351  1.00  0.00     0.001 A 
ATOM     25  C   UNL A   1      33.085  23.403  26.944  1.00  0.00     0.001 A 
ATOM     26  C   UNL A   1      32.002  22.560  27.198  1.00  0.00     0.000 A 
ENDBRANCH  12  21
ENDBRANCH   4   6
ENDBRANCH   3   4
ENDBRANCH   2   3
ENDBRANCH   1   2
BRANCH   1  27
ATOM     27  O   UNL A   1      33.832  30.658  27.839  1.00  0.00    -0.458 OA
BRANCH  27  28
ATOM     28  C   UNL A   1      34.733  31.048  28.767  1.00  0.00     0.338 C 
ATOM     29  O   UNL A   1      34.524  31.974  29.532  1.00  0.00    -0.246 OA
BRANCH  28  30
ATOM     30  C   UNL A   1      35.999  30.281  28.760  1.00  0.00     0.060 A 
ATOM     31  C   UNL A   1      36.395  29.689  29.956  1.00  0.00     0.016 A 
ATOM     32  C   UNL A   1      36.790  30.172  27.601  1.00  0.00     0.016 A 
ATOM     33  C   UNL A   1      37.644  29.092  30.029  1.00  0.00     0.010 A 
ATOM     34  C   UNL A   1      37.992  29.481  27.648  1.00  0.00     0.010 A 
ATOM     35  C   UNL A   1      38.467  29.054  28.893  1.00  0.00    -0.014 A 
BRANCH  35  36
ATOM     36  C   UNL A   1      39.920  28.888  29.090  1.00  0.00     0.031 A 
ATOM     37  C   UNL A   1      40.535  27.579  28.661  1.00  0.00     0.074 A 
ATOM     38  C   UNL A   1      40.662  29.907  29.549  1.00  0.00     0.049 A 
ATOM     39  N   UNL A   1      41.785  27.205  28.668  1.00  0.00    -0.248 NA
ATOM     40  C   UNL A   1      39.609  26.537  28.176  1.00  0.00     0.031 C 
ATOM     41  C   UNL A   1      40.137  31.203  29.980  1.00  0.00     0.029 A 
ATOM     42  N   UNL A   1      42.015  30.017  29.708  1.00  0.00    -0.354 N 
ATOM     43  C   UNL A   1      41.785  25.891  28.209  1.00  0.00     0.074 A 
ATOM     44  C   UNL A   1      40.413  25.503  28.005  1.00  0.00     0.031 C 
ATOM     45  C   UNL A   1      41.166  31.988  30.344  1.00  0.00     0.029 A 
ATOM     46  C   UNL A   1      42.411  31.240  30.186  1.00  0.00     0.049 A 
ATOM     47  H   UNL A   1      42.643  29.288  29.501  1.00  0.00     0.167 HD
ATOM     48  C   UNL A   1      42.842  25.090  27.945  1.00  0.00     0.037 A 
ATOM     49  C   UNL A   1      43.649  31.694  30.462  1.00  0.00     0.037 A 
ATOM     50  C   UNL A   1      44.200  25.519  28.122  1.00  0.00     0.049 A 
ATOM     51  C   UNL A   1      44.816  30.796  30.158  1.00  0.00     0.074 A 
ATOM     52  C   UNL A   1      45.367  24.827  27.872  1.00  0.00     0.029 A 
ATOM     53  N   UNL A   1      44.563  26.773  28.600  1.00  0.00    -0.354 N 
ATOM     54  N   UNL A   1      44.809  29.569  29.687  1.00  0.00    -0.248 NA
ATOM     55  C   UNL A   1      46.157  31.339  30.401  1.00  0.00     0.031 C 
ATOM     56  C   UNL A   1      46.438  25.649  28.240  1.00  0.00     0.029 A 
ATOM     57  C   UNL A   1      45.938  26.871  28.670  1.00  0.00     0.049 A 
ATOM     58  H   UNL A   1      43.932  27.486  28.851  1.00  0.00     0.167 HD
ATOM     59  C   UNL A   1      46.142  29.202  29.551  1.00  0.00     0.074 A 
ATOM     60  C   UNL A   1      46.928  30.340  29.990  1.00  0.00     0.031 C 
ATOM     61  C   UNL A   1      46.674  28.036  29.101  1.00  0.00     0.037 A 
BRANCH  48  62
ATOM     62  C   UNL A   1      42.545  23.689  27.477  1.00  0.00     0.058 A 
ATOM     63  C   UNL A   1      42.354  22.625  28.377  1.00  0.00     0.135 A 
ATOM     64  C   UNL A   1      42.521  23.392  26.105  1.00  0.00     0.135 A 
ATOM     65  F   UNL A   1      42.390  22.842  29.701  1.00  0.00    -0.206 F 
ATOM     66  C   UNL A   1      42.216  21.311  27.935  1.00  0.00     0.059 A 
ATOM     67  C   UNL A   1      42.350  22.090  25.640  1.00  0.00     0.059 A 
ATOM     68  F   UNL A   1      42.700  24.366  25.200  1.00  0.00    -0.206 F 
ATOM     69  C   UNL A   1      42.229  21.053  26.564  1.00  0.00     0.060 A 
BRANCH  69  70
ATOM     70  S   UNL A   1      42.115  19.340  26.002  1.00  0.00     0.124 S 
ATOM     71  O   UNL A   1      43.031  19.345  24.865  1.00  0.00    -0.237 OA
ATOM     72  O   UNL A   1      42.563  18.594  27.173  1.00  0.00    -0.237 OA
ATOM     73  O   UNL A   1      40.702  19.187  25.668  1.00  0.00    -0.744 OA
ENDBRANCH  69  70
ENDBRANCH  48  62
BRANCH  49  74
ATOM     74  C   UNL A   1      43.812  33.060  31.023  1.00  0.00     0.058 A 
ATOM     75  C   UNL A   1      43.963  33.274  32.400  1.00  0.00     0.135 A 
ATOM     76  C   UNL A   1      43.911  34.175  30.175  1.00  0.00     0.135 A 
ATOM     77  F   UNL A   1      43.875  32.243  33.253  1.00  0.00    -0.206 F 
ATOM     78  C   UNL A   1      44.211  34.544  32.917  1.00  0.00     0.059 A 
ATOM     79  C   UNL A   1      44.180  35.449  30.665  1.00  0.00     0.059 A 
ATOM     80  F   UNL A   1      43.792  34.021  28.846  1.00  0.00    -0.206 F 
ATOM     81  C   UNL A   1      44.328  35.624  32.040  1.00  0.00     0.060 A 
BRANCH  81  82
ATOM     82  S   UNL A   1      44.734  37.250  32.714  1.00  0.00     0.124 S 
ATOM     83  O   UNL A   1      45.553  36.896  33.867  1.00  0.00    -0.237 OA
ATOM     84  O   UNL A   1      45.438  37.876  31.599  1.00  0.00    -0.237 OA
ATOM     85  O   UNL A   1      43.427  37.823  33.021  1.00  0.00    -0.744 OA
ENDBRANCH  81  82
ENDBRANCH  49  74
BRANCH  61  86
ATOM     86  C   UNL A   1      48.169  27.944  29.024  1.00  0.00     0.058 A 
ATOM     87  C   UNL A   1      48.926  27.406  30.073  1.00  0.00     0.135 A 
ATOM     88  C   UNL A   1      48.833  28.293  27.836  1.00  0.00     0.135 A 
ATOM     89  F   UNL A   1      48.333  27.063  31.228  1.00  0.00    -0.206 F 
ATOM     90  C   UNL A   1      50.297  27.219  29.950  1.00  0.00     0.059 A 
ATOM     91  C   UNL A   1      50.199  28.090  27.682  1.00  0.00     0.059 A 
ATOM     92  F   UNL A   1      48.145  28.798  26.800  1.00  0.00    -0.206 F 
ATOM     93  C   UNL A   1      50.922  27.554  28.747  1.00  0.00     0.060 A 
BRANCH  93  94
ATOM     94  S   UNL A   1      52.689  27.232  28.574  1.00  0.00     0.124 S 
ATOM     95  O   UNL A   1      52.687  25.996  27.799  1.00  0.00    -0.237 OA
ATOM     96  O   UNL A   1      53.155  28.423  27.869  1.00  0.00    -0.237 OA
ATOM     97  O   UNL A   1      53.149  27.108  29.954  1.00  0.00    -0.744 OA
ENDBRANCH  93  94
ENDBRANCH  61  86
ENDBRANCH  35  36
ENDBRANCH  28  30
ENDBRANCH  27  28
ENDBRANCH   1  27
TORSDOF 16
ENDMDL
MODEL 2
REMARK VINA RESULT:     -12.0      4.782      9.603
REMARK SMILES O=C(OCCOC(=O)c1ccc(-c2c3nc(c(-c4c(F)cc(S(=O)(=O)[O-])cc4F)c4ccc([nH]4)c(-c4c(F)cc(S(=O)(=O)[O-])cc4F)c4nc(c(-c5c(F)cc(S(=O)(=O)[O-])cc5F)c5ccc2[nH]5)C=C4)C=C3)cc1)C1=Cc2c(ccc(Cl)c2-c2ccccc2)O[C@H]1C(F)(F)F
REMARK SMILES IDX 5 1 4 2 3 3 2 4 1 5 75 6 76 7 91 8 77 9 90 10 78 11 83 12
REMARK SMILES IDX 79 13 81 14 80 15 82 16 92 17 93 18 94 19 95 20 84 21 85 22
REMARK SMILES IDX 89 23 86 24 88 25 87 26 6 27 7 28 8 29 9 30 10 31 74 32
REMARK SMILES IDX 11 33 73 34 12 35 13 36 14 37 67 38 15 39 72 40 66 41 68 42
REMARK SMILES IDX 16 43 71 44 65 45 64 46 17 48 51 49 30 50 50 51 31 52 34 53
REMARK SMILES IDX 49 54 69 55 32 56 33 57 48 59 70 60 35 61 18 62 19 63 28 64
REMARK SMILES IDX 20 65 21 66 27 67 29 68 22 69 23 70 24 71 25 72 26 73 52 74
REMARK SMILES IDX 53 75 62 76 54 77 55 78 61 79 63 80 56 81 57 82 58 83 59 84
REMARK SMILES IDX 60 85 36 86 37 87 46 88 38 89 39 90 45 91 47 92 40 93 41 94
REMARK SMILES IDX 42 95 43 96 44 97
REMARK H PARENT 68 47 34 58
REMARK Flexibility Score: inf
ROOT
ATOM      1  C   UNL A   1      33.123  31.388  27.255  1.00  0.00     0.275 C 
ENDROOT
BRANCH   1   2
ATOM      2  C   UNL A   1      31.775  31.266  26.558  1.00  0.00     0.275 C 
BRANCH   2   3
ATOM      3  O   UNL A   1      31.849  30.263  25.523  1.00  0.00    -0.459 OA
BRANCH   3   4
ATOM      4  C   UNL A   1      31.436  28.980  25.652  1.00  0.00     0.338 C 
ATOM      5  O   UNL A   1      31.453  28.450  26.759  1.00  0.00    -0.246 OA
BRANCH   4   6
ATOM      6  C   UNL A   1      30.972  28.178  24.488  1.00  0.00     0.087 C 
ATOM      7  C   UNL A   1      30.764  26.851  24.465  1.00  0.00     0.028 C 
ATOM      8  C   UNL A   1      30.857  28.956  23.195  1.00  0.00     0.316 C 
ATOM      9  C   UNL A   1      31.503  26.172  23.385  1.00  0.00     0.027 A 
ATOM     10  O   UNL A   1      31.084  28.139  22.001  1.00  0.00    -0.475 OA
ATOM     11  C   UNL A   1      31.633  26.894  22.188  1.00  0.00     0.128 A 
ATOM     12  C   UNL A   1      32.085  24.882  23.556  1.00  0.00     0.011 A 
ATOM     13  C   UNL A   1      32.324  26.338  21.122  1.00  0.00     0.049 A 
ATOM     14  C   UNL A   1      32.789  24.356  22.458  1.00  0.00     0.049 A 
ATOM     15  C   UNL A   1      32.905  25.076  21.260  1.00  0.00     0.025 A 
ATOM     16  Cl  UNL A   1      33.560  22.805  22.525  1.00  0.00    -0.084 Cl
BRANCH   8  17
ATOM     17  C   UNL A   1      29.474  29.640  23.127  1.00  0.00     0.430 C 
ATOM     18  F   UNL A   1      29.393  30.725  23.932  1.00  0.00    -0.167 F 
ATOM     19  F   UNL A   1      29.179  30.042  21.872  1.00  0.00    -0.167 F 
ATOM     20  F   UNL A   1      28.495  28.790  23.529  1.00  0.00    -0.167 F 
ENDBRANCH   8  17
BRANCH  12  21
ATOM     21  C   UNL A   1      32.031  24.156  24.852  1.00  0.00    -0.016 A 
ATOM     22  C   UNL A   1      30.970  23.269  25.120  1.00  0.00     0.009 A 
ATOM     23  C   UNL A   1      33.048  24.268  25.816  1.00  0.00     0.009 A 
ATOM     24  C   UNL A   1      30.981  22.439  26.248  1.00  0.00     0.001 A 
ATOM     25  C   UNL A   1      33.052  23.446  26.956  1.00  0.00     0.001 A 
ATOM     26  C   UNL A   1      32.035  22.511  27.154  1.00  0.00     0.000 A 
ENDBRANCH  12  21
ENDBRANCH   4   6
ENDBRANCH   3   4
ENDBRANCH   2   3
ENDBRANCH   1   2
BRANCH   1  27
ATOM     27  O   UNL A   1      33.691  32.690  27.110  1.00  0.00    -0.458 OA
BRANCH  27  28
ATOM     28  C   UNL A   1      33.542  33.530  28.158  1.00  0.00     0.338 C 
ATOM     29  O   UNL A   1      32.613  34.316  28.239  1.00  0.00    -0.246 OA
BRANCH  28  30
ATOM     30  C   UNL A   1      34.608  33.437  29.181  1.00  0.00     0.060 A 
ATOM     31  C   UNL A   1      35.836  34.020  28.881  1.00  0.00     0.016 A 
ATOM     32  C   UNL A   1      34.403  32.766  30.401  1.00  0.00     0.016 A 
ATOM     33  C   UNL A   1      36.902  33.824  29.745  1.00  0.00     0.010 A 
ATOM     34  C   UNL A   1      35.442  32.664  31.315  1.00  0.00     0.010 A 
ATOM     35  C   UNL A   1      36.718  33.086  30.924  1.00  0.00    -0.014 A 
BRANCH  35  36
ATOM     36  C   UNL A   1      37.903  32.474  31.555  1.00  0.00     0.031 A 
ATOM     37  C   UNL A   1      38.302  32.976  32.920  1.00  0.00     0.074 A 
ATOM     38  C   UNL A   1      38.532  31.449  30.961  1.00  0.00     0.049 A 
ATOM     39  N   UNL A   1      39.256  32.568  33.711  1.00  0.00    -0.248 NA
ATOM     40  C   UNL A   1      37.530  34.112  33.463  1.00  0.00     0.031 C 
ATOM     41  C   UNL A   1      38.201  30.907  29.642  1.00  0.00     0.029 A 
ATOM     42  N   UNL A   1      39.567  30.670  31.400  1.00  0.00    -0.354 N 
ATOM     43  C   UNL A   1      39.205  33.405  34.822  1.00  0.00     0.074 A 
ATOM     44  C   UNL A   1      38.183  34.389  34.576  1.00  0.00     0.031 C 
ATOM     45  C   UNL A   1      39.013  29.868  29.385  1.00  0.00     0.029 A 
ATOM     46  C   UNL A   1      39.927  29.689  30.511  1.00  0.00     0.049 A 
ATOM     47  H   UNL A   1      40.011  30.802  32.268  1.00  0.00     0.167 HD
ATOM     48  C   UNL A   1      39.925  33.334  35.965  1.00  0.00     0.037 A 
ATOM     49  C   UNL A   1      40.891  28.754  30.609  1.00  0.00     0.037 A 
ATOM     50  C   UNL A   1      40.910  32.318  36.195  1.00  0.00     0.049 A 
ATOM     51  C   UNL A   1      41.680  28.682  31.887  1.00  0.00     0.074 A 
ATOM     52  C   UNL A   1      41.695  32.108  37.311  1.00  0.00     0.029 A 
ATOM     53  N   UNL A   1      41.241  31.331  35.272  1.00  0.00    -0.354 N 
ATOM     54  N   UNL A   1      41.598  29.453  32.949  1.00  0.00    -0.248 NA
ATOM     55  C   UNL A   1      42.676  27.611  31.997  1.00  0.00     0.031 C 
ATOM     56  C   UNL A   1      42.532  31.019  37.046  1.00  0.00     0.029 A 
ATOM     57  C   UNL A   1      42.232  30.518  35.786  1.00  0.00     0.049 A 
ATOM     58  H   UNL A   1      40.829  31.228  34.384  1.00  0.00     0.167 HD
ATOM     59  C   UNL A   1      42.511  28.944  33.864  1.00  0.00     0.074 A 
ATOM     60  C   UNL A   1      43.134  27.798  33.228  1.00  0.00     0.031 C 
ATOM     61  C   UNL A   1      42.809  29.377  35.116  1.00  0.00     0.037 A 
BRANCH  48  62
ATOM     62  C   UNL A   1      39.677  34.399  37.002  1.00  0.00     0.058 A 
ATOM     63  C   UNL A   1      40.265  35.674  36.920  1.00  0.00     0.135 A 
ATOM     64  C   UNL A   1      38.895  34.115  38.132  1.00  0.00     0.135 A 
ATOM     65  F   UNL A   1      41.043  35.996  35.875  1.00  0.00    -0.206 F 
ATOM     66  C   UNL A   1      40.141  36.603  37.951  1.00  0.00     0.059 A 
ATOM     67  C   UNL A   1      38.728  35.042  39.159  1.00  0.00     0.059 A 
ATOM     68  F   UNL A   1      38.311  32.915  38.267  1.00  0.00    -0.206 F 
ATOM     69  C   UNL A   1      39.380  36.271  39.073  1.00  0.00     0.060 A 
BRANCH  69  70
ATOM     70  S   UNL A   1      39.278  37.456  40.432  1.00  0.00     0.124 S 
ATOM     71  O   UNL A   1      38.241  38.364  39.948  1.00  0.00    -0.237 OA
ATOM     72  O   UNL A   1      38.902  36.610  41.560  1.00  0.00    -0.237 OA
ATOM     73  O   UNL A   1      40.624  38.018  40.494  1.00  0.00    -0.744 OA
ENDBRANCH  69  70
ENDBRANCH  48  62
BRANCH  49  74
ATOM     74  C   UNL A   1      41.116  27.823  29.473  1.00  0.00     0.058 A 
ATOM     75  C   UNL A   1      42.242  27.934  28.645  1.00  0.00     0.135 A 
ATOM     76  C   UNL A   1      40.248  26.741  29.252  1.00  0.00     0.135 A 
ATOM     77  F   UNL A   1      43.101  28.950  28.815  1.00  0.00    -0.206 F 
ATOM     78  C   UNL A   1      42.502  27.004  27.641  1.00  0.00     0.059 A 
ATOM     79  C   UNL A   1      40.498  25.788  28.271  1.00  0.00     0.059 A 
ATOM     80  F   UNL A   1      39.165  26.579  30.030  1.00  0.00    -0.206 F 
ATOM     81  C   UNL A   1      41.629  25.928  27.468  1.00  0.00     0.060 A 
BRANCH  81  82
ATOM     82  S   UNL A   1      42.022  24.683  26.219  1.00  0.00     0.124 S 
ATOM     83  O   UNL A   1      40.881  23.781  26.333  1.00  0.00    -0.237 OA
ATOM     84  O   UNL A   1      42.084  25.482  25.000  1.00  0.00    -0.237 OA
ATOM     85  O   UNL A   1      43.300  24.142  26.672  1.00  0.00    -0.744 OA
ENDBRANCH  81  82
ENDBRANCH  49  74
BRANCH  61  86
ATOM     86  C   UNL A   1      43.821  28.591  35.896  1.00  0.00     0.058 A 
ATOM     87  C   UNL A   1      43.455  27.469  36.652  1.00  0.00     0.135 A 
ATOM     88  C   UNL A   1      45.186  28.902  35.786  1.00  0.00     0.135 A 
ATOM     89  F   UNL A   1      42.160  27.138  36.788  1.00  0.00    -0.206 F 
ATOM     90  C   UNL A   1      44.410  26.680  37.279  1.00  0.00     0.059 A 
ATOM     91  C   UNL A   1      46.160  28.111  36.384  1.00  0.00     0.059 A 
ATOM     92  F   UNL A   1      45.583  29.958  35.061  1.00  0.00    -0.206 F 
ATOM     93  C   UNL A   1      45.761  27.003  37.131  1.00  0.00     0.060 A 
BRANCH  93  94
ATOM     94  S   UNL A   1      46.994  25.924  37.885  1.00  0.00     0.124 S 
ATOM     95  O   UNL A   1      46.433  24.605  37.616  1.00  0.00    -0.237 OA
ATOM     96  O   UNL A   1      48.203  26.264  37.139  1.00  0.00    -0.237 OA
ATOM     97  O   UNL A   1      46.994  26.335  39.286  1.00  0.00    -0.744 OA
ENDBRANCH  93  94
ENDBRANCH  61  86
ENDBRANCH  35  36
ENDBRANCH  28  30
ENDBRANCH  27  28
ENDBRANCH   1  27
TORSDOF 16
ENDMDL
MODEL 3
REMARK VINA RESULT:     -11.8      4.266      9.755
REMARK SMILES O=C(OCCOC(=O)c1ccc(-c2c3nc(c(-c4c(F)cc(S(=O)(=O)[O-])cc4F)c4ccc([nH]4)c(-c4c(F)cc(S(=O)(=O)[O-])cc4F)c4nc(c(-c5c(F)cc(S(=O)(=O)[O-])cc5F)c5ccc2[nH]5)C=C4)C=C3)cc1)C1=Cc2c(ccc(Cl)c2-c2ccccc2)O[C@H]1C(F)(F)F
REMARK SMILES IDX 5 1 4 2 3 3 2 4 1 5 75 6 76 7 91 8 77 9 90 10 78 11 83 12
REMARK SMILES IDX 79 13 81 14 80 15 82 16 92 17 93 18 94 19 95 20 84 21 85 22
REMARK SMILES IDX 89 23 86 24 88 25 87 26 6 27 7 28 8 29 9 30 10 31 74 32
REMARK SMILES IDX 11 33 73 34 12 35 13 36 14 37 67 38 15 39 72 40 66 41 68 42
REMARK SMILES IDX 16 43 71 44 65 45 64 46 17 48 51 49 30 50 50 51 31 52 34 53
REMARK SMILES IDX 49 54 69 55 32 56 33 57 48 59 70 60 35 61 18 62 19 63 28 64
REMARK SMILES IDX 20 65 21 66 27 67 29 68 22 69 23 70 24 71 25 72 26 73 52 74
REMARK SMILES IDX 53 75 62 76 54 77 55 78 61 79 63 80 56 81 57 82 58 83 59 84
REMARK SMILES IDX 60 85 36 86 37 87 46 88 38 89 39 90 45 91 47 92 40 93 41 94
REMARK SMILES IDX 42 95 43 96 44 97
REMARK H PARENT 68 47 34 58
REMARK Flexibility Score: inf
ROOT
ATOM      1  C   UNL A   1      38.538  21.453  25.227  1.00  0.00     0.275 C 
ENDROOT
BRANCH   1   2
ATOM      2  C   UNL A   1      37.155  20.832  25.371  1.00  0.00     0.275 C 
BRANCH   2   3
ATOM      3  O   UNL A   1      36.378  21.587  26.324  1.00  0.00    -0.459 OA
BRANCH   3   4
ATOM      4  C   UNL A   1      35.588  22.644  26.020  1.00  0.00     0.338 C 
ATOM      5  O   UNL A   1      36.042  23.781  26.113  1.00  0.00    -0.246 OA
BRANCH   4   6
ATOM      6  C   UNL A   1      34.174  22.477  25.589  1.00  0.00     0.087 C 
ATOM      7  C   UNL A   1      33.479  21.329  25.557  1.00  0.00     0.028 C 
ATOM      8  C   UNL A   1      33.539  23.729  25.023  1.00  0.00     0.316 C 
ATOM      9  C   UNL A   1      32.882  21.054  24.237  1.00  0.00     0.027 A 
ATOM     10  O   UNL A   1      32.504  23.456  24.023  1.00  0.00    -0.475 OA
ATOM     11  C   UNL A   1      32.434  22.178  23.524  1.00  0.00     0.128 A 
ATOM     12  C   UNL A   1      32.800  19.737  23.698  1.00  0.00     0.011 A 
ATOM     13  C   UNL A   1      31.870  22.016  22.268  1.00  0.00     0.049 A 
ATOM     14  C   UNL A   1      32.235  19.613  22.416  1.00  0.00     0.049 A 
ATOM     15  C   UNL A   1      31.778  20.738  21.714  1.00  0.00     0.025 A 
ATOM     16  Cl  UNL A   1      32.084  18.076  21.630  1.00  0.00    -0.084 Cl
BRANCH   8  17
ATOM     17  C   UNL A   1      32.966  24.582  26.174  1.00  0.00     0.430 C 
ATOM     18  F   UNL A   1      33.038  23.953  27.371  1.00  0.00    -0.167 F 
ATOM     19  F   UNL A   1      33.617  25.759  26.294  1.00  0.00    -0.167 F 
ATOM     20  F   UNL A   1      31.653  24.858  25.964  1.00  0.00    -0.167 F 
ENDBRANCH   8  17
BRANCH  12  21
ATOM     21  C   UNL A   1      33.360  18.557  24.408  1.00  0.00    -0.016 A 
ATOM     22  C   UNL A   1      32.526  17.759  25.215  1.00  0.00     0.009 A 
ATOM     23  C   UNL A   1      34.698  18.154  24.253  1.00  0.00     0.009 A 
ATOM     24  C   UNL A   1      32.975  16.546  25.752  1.00  0.00     0.001 A 
ATOM     25  C   UNL A   1      35.153  16.945  24.804  1.00  0.00     0.001 A 
ATOM     26  C   UNL A   1      34.283  16.127  25.525  1.00  0.00     0.000 A 
ENDBRANCH  12  21
ENDBRANCH   4   6
ENDBRANCH   3   4
ENDBRANCH   2   3
ENDBRANCH   1   2
BRANCH   1  27
ATOM     27  O   UNL A   1      38.962  22.113  26.420  1.00  0.00    -0.458 OA
BRANCH  27  28
ATOM     28  C   UNL A   1      40.104  22.830  26.337  1.00  0.00     0.338 C 
ATOM     29  O   UNL A   1      41.114  22.392  25.812  1.00  0.00    -0.246 OA
BRANCH  28  30
ATOM     30  C   UNL A   1      40.038  24.173  26.956  1.00  0.00     0.060 A 
ATOM     31  C   UNL A   1      40.893  25.151  26.455  1.00  0.00     0.016 A 
ATOM     32  C   UNL A   1      39.165  24.451  28.025  1.00  0.00     0.016 A 
ATOM     33  C   UNL A   1      40.968  26.374  27.105  1.00  0.00     0.010 A 
ATOM     34  C   UNL A   1      39.165  25.711  28.606  1.00  0.00     0.010 A 
ATOM     35  C   UNL A   1      40.155  26.622  28.221  1.00  0.00    -0.014 A 
BRANCH  35  36
ATOM     36  C   UNL A   1      40.578  27.669  29.172  1.00  0.00     0.031 A 
ATOM     37  C   UNL A   1      39.646  28.836  29.381  1.00  0.00     0.074 A 
ATOM     38  C   UNL A   1      41.708  27.522  29.881  1.00  0.00     0.049 A 
ATOM     39  N   UNL A   1      39.750  29.848  30.199  1.00  0.00    -0.248 NA
ATOM     40  C   UNL A   1      38.437  28.881  28.536  1.00  0.00     0.031 C 
ATOM     41  C   UNL A   1      42.657  26.418  29.735  1.00  0.00     0.029 A 
ATOM     42  N   UNL A   1      42.235  28.296  30.877  1.00  0.00    -0.354 N 
ATOM     43  C   UNL A   1      38.638  30.646  29.950  1.00  0.00     0.074 A 
ATOM     44  C   UNL A   1      37.912  30.049  28.858  1.00  0.00     0.031 C 
ATOM     45  C   UNL A   1      43.649  26.580  30.627  1.00  0.00     0.029 A 
ATOM     46  C   UNL A   1      43.410  27.804  31.387  1.00  0.00     0.049 A 
ATOM     47  H   UNL A   1      41.812  29.126  31.196  1.00  0.00     0.167 HD
ATOM     48  C   UNL A   1      38.238  31.762  30.601  1.00  0.00     0.037 A 
ATOM     49  C   UNL A   1      44.196  28.299  32.362  1.00  0.00     0.037 A 
ATOM     50  C   UNL A   1      38.963  32.311  31.710  1.00  0.00     0.049 A 
ATOM     51  C   UNL A   1      43.737  29.536  33.082  1.00  0.00     0.074 A 
ATOM     52  C   UNL A   1      38.664  33.417  32.479  1.00  0.00     0.029 A 
ATOM     53  N   UNL A   1      40.147  31.777  32.205  1.00  0.00    -0.354 N 
ATOM     54  N   UNL A   1      42.663  30.263  32.866  1.00  0.00    -0.248 NA
ATOM     55  C   UNL A   1      44.575  30.015  34.186  1.00  0.00     0.031 C 
ATOM     56  C   UNL A   1      39.691  33.577  33.414  1.00  0.00     0.029 A 
ATOM     57  C   UNL A   1      40.604  32.541  33.261  1.00  0.00     0.049 A 
ATOM     58  H   UNL A   1      40.594  30.973  31.855  1.00  0.00     0.167 HD
ATOM     59  C   UNL A   1      42.680  31.269  33.825  1.00  0.00     0.074 A 
ATOM     60  C   UNL A   1      43.874  31.055  34.621  1.00  0.00     0.031 C 
ATOM     61  C   UNL A   1      41.794  32.276  34.034  1.00  0.00     0.037 A 
BRANCH  48  62
ATOM     62  C   UNL A   1      36.993  32.445  30.096  1.00  0.00     0.058 A 
ATOM     63  C   UNL A   1      37.040  33.465  29.128  1.00  0.00     0.135 A 
ATOM     64  C   UNL A   1      35.740  32.124  30.641  1.00  0.00     0.135 A 
ATOM     65  F   UNL A   1      38.213  33.832  28.587  1.00  0.00    -0.206 F 
ATOM     66  C   UNL A   1      35.902  34.183  28.768  1.00  0.00     0.059 A 
ATOM     67  C   UNL A   1      34.583  32.807  30.270  1.00  0.00     0.059 A 
ATOM     68  F   UNL A   1      35.633  31.162  31.569  1.00  0.00    -0.206 F 
ATOM     69  C   UNL A   1      34.680  33.854  29.356  1.00  0.00     0.060 A 
BRANCH  69  70
ATOM     70  S   UNL A   1      33.223  34.833  28.932  1.00  0.00     0.124 S 
ATOM     71  O   UNL A   1      33.833  36.038  28.379  1.00  0.00    -0.237 OA
ATOM     72  O   UNL A   1      32.535  33.975  27.974  1.00  0.00    -0.237 OA
ATOM     73  O   UNL A   1      32.546  35.006  30.214  1.00  0.00    -0.744 OA
ENDBRANCH  69  70
ENDBRANCH  48  62
BRANCH  49  74
ATOM     74  C   UNL A   1      45.459  27.594  32.702  1.00  0.00     0.058 A 
ATOM     75  C   UNL A   1      46.683  27.965  32.128  1.00  0.00     0.135 A 
ATOM     76  C   UNL A   1      45.477  26.590  33.683  1.00  0.00     0.135 A 
ATOM     77  F   UNL A   1      46.721  28.918  31.185  1.00  0.00    -0.206 F 
ATOM     78  C   UNL A   1      47.880  27.369  32.518  1.00  0.00     0.059 A 
ATOM     79  C   UNL A   1      46.661  25.996  34.104  1.00  0.00     0.059 A 
ATOM     80  F   UNL A   1      44.333  26.212  34.277  1.00  0.00    -0.206 F 
ATOM     81  C   UNL A   1      47.860  26.392  33.515  1.00  0.00     0.060 A 
BRANCH  81  82
ATOM     82  S   UNL A   1      49.428  25.686  34.071  1.00  0.00     0.124 S 
ATOM     83  O   UNL A   1      49.300  24.301  33.632  1.00  0.00    -0.237 OA
ATOM     84  O   UNL A   1      50.402  26.497  33.348  1.00  0.00    -0.237 OA
ATOM     85  O   UNL A   1      49.398  25.895  35.516  1.00  0.00    -0.744 OA
ENDBRANCH  81  82
ENDBRANCH  49  74
BRANCH  61  86
ATOM     86  C   UNL A   1      42.056  33.198  35.188  1.00  0.00     0.058 A 
ATOM     87  C   UNL A   1      42.752  34.403  35.020  1.00  0.00     0.135 A 
ATOM     88  C   UNL A   1      41.501  32.920  36.448  1.00  0.00     0.135 A 
ATOM     89  F   UNL A   1      43.302  34.707  33.834  1.00  0.00    -0.206 F 
ATOM     90  C   UNL A   1      42.892  35.305  36.067  1.00  0.00     0.059 A 
ATOM     91  C   UNL A   1      41.608  33.820  37.501  1.00  0.00     0.059 A 
ATOM     92  F   UNL A   1      40.816  31.784  36.649  1.00  0.00    -0.206 F 
ATOM     93  C   UNL A   1      42.308  35.009  37.301  1.00  0.00     0.060 A 
BRANCH  93  94
ATOM     94  S   UNL A   1      42.431  36.224  38.628  1.00  0.00     0.124 S 
ATOM     95  O   UNL A   1      43.618  36.973  38.231  1.00  0.00    -0.237 OA
ATOM     96  O   UNL A   1      41.162  36.939  38.515  1.00  0.00    -0.237 OA
ATOM     97  O   UNL A   1      42.576  35.404  39.827  1.00  0.00    -0.744 OA
ENDBRANCH  93  94
ENDBRANCH  61  86
ENDBRANCH  35  36
ENDBRANCH  28  30
ENDBRANCH  27  28
ENDBRANCH   1  27
TORSDOF 16
ENDMDL
