MODEL 1
REMARK VINA RESULT:     -11.2      0.000      0.000
REMARK SMILES O=C(OCCOC(=O)c1cccc(Nc2nc(-c3ccc(F)cc3F)cs2)c1)c1ccc(-c2c3nc(c(-c4c(F)cc(S(=O)(=O)[O-])cc4F)c4ccc([nH]4)c(-c4c(F)cc(S(=O)(=O)[O-])cc4F)c4nc(c(-c5c(F)cc(S(=O)(=O)[O-])cc5F)c5ccc2[nH]5)C=C4)C=C3)cc1
REMARK SMILES IDX 4 1 3 2 2 3 1 4 29 5 30 6 94 7 31 8 93 9 32 10 33 11 34 12
REMARK SMILES IDX 87 13 35 14 92 15 86 16 88 17 36 18 91 19 85 20 84 21 37 23
REMARK SMILES IDX 71 24 50 25 70 26 51 27 54 28 69 29 89 30 52 31 53 32 68 34
REMARK SMILES IDX 90 35 55 36 38 37 39 38 48 39 40 40 41 41 47 42 49 43 42 44
REMARK SMILES IDX 43 45 44 46 45 47 46 48 72 49 73 50 82 51 74 52 75 53 81 54
REMARK SMILES IDX 83 55 76 56 77 57 78 58 79 59 80 60 56 61 57 62 66 63 58 64
REMARK SMILES IDX 59 65 65 66 67 67 60 68 61 69 62 70 63 71 64 72 5 73 6 74
REMARK SMILES IDX 7 75 8 76 9 77 10 78 28 79 11 80 13 81 12 82 14 83 15 85
REMARK SMILES IDX 16 86 27 87 17 88 26 89 18 90 19 91 24 92 20 93 23 94 25 95
REMARK SMILES IDX 21 96 22 97
REMARK H PARENT 88 22 54 33 14 84
REMARK Flexibility Score: inf
ROOT
ATOM      1  C   UNL A   1      40.808  22.136  27.751  1.00  0.00     0.275 C 
ENDROOT
BRANCH   1   2
ATOM      2  O   UNL A   1      40.582  23.300  26.938  1.00  0.00    -0.458 OA
BRANCH   2   3
ATOM      3  C   UNL A   1      41.311  24.441  26.862  1.00  0.00     0.338 C 
ATOM      4  O   UNL A   1      42.214  24.512  26.031  1.00  0.00    -0.246 OA
BRANCH   3   5
ATOM      5  C   UNL A   1      41.191  25.551  27.858  1.00  0.00     0.060 A 
ATOM      6  C   UNL A   1      42.173  26.498  28.151  1.00  0.00     0.016 A 
ATOM      7  C   UNL A   1      39.977  25.620  28.568  1.00  0.00     0.016 A 
ATOM      8  C   UNL A   1      41.926  27.535  29.053  1.00  0.00     0.010 A 
ATOM      9  C   UNL A   1      39.719  26.660  29.466  1.00  0.00     0.010 A 
ATOM     10  C   UNL A   1      40.699  27.625  29.715  1.00  0.00    -0.014 A 
BRANCH  10  11
ATOM     11  C   UNL A   1      40.528  28.626  30.789  1.00  0.00     0.031 A 
ATOM     12  C   UNL A   1      41.376  28.492  32.022  1.00  0.00     0.074 A 
ATOM     13  C   UNL A   1      39.698  29.674  30.631  1.00  0.00     0.049 A 
ATOM     14  N   UNL A   1      41.437  29.265  33.071  1.00  0.00    -0.248 NA
ATOM     15  C   UNL A   1      42.303  27.346  32.062  1.00  0.00     0.031 C 
ATOM     16  C   UNL A   1      38.884  29.936  29.444  1.00  0.00     0.029 A 
ATOM     17  N   UNL A   1      39.393  30.710  31.476  1.00  0.00    -0.354 N 
ATOM     18  C   UNL A   1      42.437  28.730  33.872  1.00  0.00     0.074 A 
ATOM     19  C   UNL A   1      42.908  27.527  33.226  1.00  0.00     0.031 C 
ATOM     20  C   UNL A   1      38.126  31.027  29.659  1.00  0.00     0.029 A 
ATOM     21  C   UNL A   1      38.401  31.536  30.998  1.00  0.00     0.049 A 
ATOM     22  H   UNL A   1      39.840  30.849  32.342  1.00  0.00     0.167 HD
ATOM     23  C   UNL A   1      42.941  29.224  35.026  1.00  0.00     0.037 A 
ATOM     24  C   UNL A   1      37.770  32.564  31.595  1.00  0.00     0.037 A 
ATOM     25  C   UNL A   1      42.433  30.401  35.673  1.00  0.00     0.049 A 
ATOM     26  C   UNL A   1      38.206  32.972  32.972  1.00  0.00     0.074 A 
ATOM     27  C   UNL A   1      42.860  30.996  36.846  1.00  0.00     0.029 A 
ATOM     28  N   UNL A   1      41.364  31.156  35.205  1.00  0.00    -0.354 N 
ATOM     29  N   UNL A   1      39.170  32.475  33.711  1.00  0.00    -0.248 NA
ATOM     30  C   UNL A   1      37.489  34.095  33.588  1.00  0.00     0.031 C 
ATOM     31  C   UNL A   1      42.022  32.084  37.110  1.00  0.00     0.029 A 
ATOM     32  C   UNL A   1      41.101  32.195  36.078  1.00  0.00     0.049 A 
ATOM     33  H   UNL A   1      40.868  30.976  34.374  1.00  0.00     0.167 HD
ATOM     34  C   UNL A   1      39.207  33.253  34.859  1.00  0.00     0.074 A 
ATOM     35  C   UNL A   1      38.156  34.243  34.725  1.00  0.00     0.031 C 
ATOM     36  C   UNL A   1      40.055  33.174  35.913  1.00  0.00     0.037 A 
BRANCH  23  37
ATOM     37  C   UNL A   1      44.089  28.480  35.643  1.00  0.00     0.058 A 
ATOM     38  C   UNL A   1      43.875  27.461  36.586  1.00  0.00     0.135 A 
ATOM     39  C   UNL A   1      45.414  28.793  35.305  1.00  0.00     0.135 A 
ATOM     40  F   UNL A   1      42.628  27.138  36.964  1.00  0.00    -0.206 F 
ATOM     41  C   UNL A   1      44.936  26.798  37.194  1.00  0.00     0.059 A 
ATOM     42  C   UNL A   1      46.491  28.127  35.885  1.00  0.00     0.059 A 
ATOM     43  F   UNL A   1      45.673  29.765  34.417  1.00  0.00    -0.206 F 
ATOM     44  C   UNL A   1      46.241  27.142  36.840  1.00  0.00     0.060 A 
BRANCH  44  45
ATOM     45  S   UNL A   1      47.609  26.282  37.647  1.00  0.00     0.124 S 
ATOM     46  O   UNL A   1      48.578  26.192  36.560  1.00  0.00    -0.237 OA
ATOM     47  O   UNL A   1      47.956  27.195  38.731  1.00  0.00    -0.237 OA
ATOM     48  O   UNL A   1      47.015  25.016  38.065  1.00  0.00    -0.744 OA
ENDBRANCH  44  45
ENDBRANCH  23  37
BRANCH  24  49
ATOM     49  C   UNL A   1      36.618  33.230  30.934  1.00  0.00     0.058 A 
ATOM     50  C   UNL A   1      35.291  33.015  31.321  1.00  0.00     0.135 A 
ATOM     51  C   UNL A   1      36.846  34.099  29.859  1.00  0.00     0.135 A 
ATOM     52  F   UNL A   1      35.013  32.165  32.320  1.00  0.00    -0.206 F 
ATOM     53  C   UNL A   1      34.232  33.653  30.674  1.00  0.00     0.059 A 
ATOM     54  C   UNL A   1      35.813  34.766  29.211  1.00  0.00     0.059 A 
ATOM     55  F   UNL A   1      38.093  34.294  29.422  1.00  0.00    -0.206 F 
ATOM     56  C   UNL A   1      34.506  34.533  29.623  1.00  0.00     0.060 A 
BRANCH  56  57
ATOM     57  S   UNL A   1      33.147  35.412  28.821  1.00  0.00     0.124 S 
ATOM     58  O   UNL A   1      32.403  35.916  29.970  1.00  0.00    -0.237 OA
ATOM     59  O   UNL A   1      33.851  36.412  28.025  1.00  0.00    -0.237 OA
ATOM     60  O   UNL A   1      32.484  34.364  28.050  1.00  0.00    -0.744 OA
ENDBRANCH  56  57
ENDBRANCH  24  49
BRANCH  36  61
ATOM     61  C   UNL A   1      39.929  34.233  36.967  1.00  0.00     0.058 A 
ATOM     62  C   UNL A   1      40.506  35.501  36.818  1.00  0.00     0.135 A 
ATOM     63  C   UNL A   1      39.175  33.979  38.124  1.00  0.00     0.135 A 
ATOM     64  F   UNL A   1      41.247  35.784  35.735  1.00  0.00    -0.206 F 
ATOM     65  C   UNL A   1      40.354  36.481  37.793  1.00  0.00     0.059 A 
ATOM     66  C   UNL A   1      38.988  34.950  39.099  1.00  0.00     0.059 A 
ATOM     67  F   UNL A   1      38.599  32.780  38.307  1.00  0.00    -0.206 F 
ATOM     68  C   UNL A   1      39.590  36.196  38.928  1.00  0.00     0.060 A 
BRANCH  68  69
ATOM     69  S   UNL A   1      39.365  37.486  40.169  1.00  0.00     0.124 S 
ATOM     70  O   UNL A   1      40.716  38.026  40.279  1.00  0.00    -0.237 OA
ATOM     71  O   UNL A   1      38.382  38.361  39.536  1.00  0.00    -0.237 OA
ATOM     72  O   UNL A   1      38.882  36.753  41.336  1.00  0.00    -0.744 OA
ENDBRANCH  68  69
ENDBRANCH  36  61
ENDBRANCH  10  11
ENDBRANCH   3   5
ENDBRANCH   2   3
ENDBRANCH   1   2
BRANCH   1  73
ATOM     73  C   UNL A   1      40.728  20.802  27.002  1.00  0.00     0.275 C 
BRANCH  73  74
ATOM     74  O   UNL A   1      41.613  20.726  25.874  1.00  0.00    -0.458 OA
BRANCH  74  75
ATOM     75  C   UNL A   1      42.293  19.557  25.765  1.00  0.00     0.338 C 
ATOM     76  O   UNL A   1      41.817  18.432  25.756  1.00  0.00    -0.246 OA
BRANCH  75  77
ATOM     77  C   UNL A   1      43.717  19.827  25.494  1.00  0.00     0.062 A 
ATOM     78  C   UNL A   1      44.575  18.729  25.406  1.00  0.00     0.016 A 
ATOM     79  C   UNL A   1      44.213  21.130  25.353  1.00  0.00     0.041 A 
ATOM     80  C   UNL A   1      45.916  18.930  25.092  1.00  0.00     0.003 A 
ATOM     81  C   UNL A   1      45.585  21.344  25.123  1.00  0.00     0.041 A 
ATOM     82  C   UNL A   1      46.408  20.226  24.933  1.00  0.00     0.026 A 
BRANCH  81  83
ATOM     83  N   UNL A   1      46.079  22.661  25.102  1.00  0.00    -0.332 N 
ATOM     84  H   UNL A   1      46.666  22.895  24.346  1.00  0.00     0.169 HD
BRANCH  83  85
ATOM     85  C   UNL A   1      45.842  23.647  26.004  1.00  0.00     0.187 A 
ATOM     86  N   UNL A   1      45.561  23.519  27.286  1.00  0.00    -0.220 NA
ATOM     87  S   UNL A   1      45.891  25.283  25.439  1.00  0.00    -0.105 S 
ATOM     88  C   UNL A   1      45.523  24.766  27.890  1.00  0.00     0.086 A 
ATOM     89  C   UNL A   1      45.594  25.840  27.026  1.00  0.00     0.097 A 
BRANCH  88  90
ATOM     90  C   UNL A   1      45.439  24.952  29.327  1.00  0.00     0.037 A 
ATOM     91  C   UNL A   1      46.407  25.715  29.997  1.00  0.00     0.016 A 
ATOM     92  C   UNL A   1      44.452  24.299  30.079  1.00  0.00     0.135 A 
ATOM     93  C   UNL A   1      46.387  25.803  31.391  1.00  0.00     0.040 A 
ATOM     94  C   UNL A   1      44.431  24.381  31.469  1.00  0.00     0.079 A 
ATOM     95  F   UNL A   1      43.527  23.536  29.480  1.00  0.00    -0.206 F 
ATOM     96  C   UNL A   1      45.404  25.132  32.113  1.00  0.00     0.126 A 
ATOM     97  F   UNL A   1      45.412  25.206  33.451  1.00  0.00    -0.207 F 
ENDBRANCH  88  90
ENDBRANCH  83  85
ENDBRANCH  81  83
ENDBRANCH  75  77
ENDBRANCH  74  75
ENDBRANCH  73  74
ENDBRANCH   1  73
TORSDOF 17
ENDMDL
MODEL 2
REMARK VINA RESULT:     -11.1      5.565     11.870
REMARK SMILES O=C(OCCOC(=O)c1cccc(Nc2nc(-c3ccc(F)cc3F)cs2)c1)c1ccc(-c2c3nc(c(-c4c(F)cc(S(=O)(=O)[O-])cc4F)c4ccc([nH]4)c(-c4c(F)cc(S(=O)(=O)[O-])cc4F)c4nc(c(-c5c(F)cc(S(=O)(=O)[O-])cc5F)c5ccc2[nH]5)C=C4)C=C3)cc1
REMARK SMILES IDX 4 1 3 2 2 3 1 4 29 5 30 6 94 7 31 8 93 9 32 10 33 11 34 12
REMARK SMILES IDX 87 13 35 14 92 15 86 16 88 17 36 18 91 19 85 20 84 21 37 23
REMARK SMILES IDX 71 24 50 25 70 26 51 27 54 28 69 29 89 30 52 31 53 32 68 34
REMARK SMILES IDX 90 35 55 36 38 37 39 38 48 39 40 40 41 41 47 42 49 43 42 44
REMARK SMILES IDX 43 45 44 46 45 47 46 48 72 49 73 50 82 51 74 52 75 53 81 54
REMARK SMILES IDX 83 55 76 56 77 57 78 58 79 59 80 60 56 61 57 62 66 63 58 64
REMARK SMILES IDX 59 65 65 66 67 67 60 68 61 69 62 70 63 71 64 72 5 73 6 74
REMARK SMILES IDX 7 75 8 76 9 77 10 78 28 79 11 80 13 81 12 82 14 83 15 85
REMARK SMILES IDX 16 86 27 87 17 88 26 89 18 90 19 91 24 92 20 93 23 94 25 95
REMARK SMILES IDX 21 96 22 97
REMARK H PARENT 88 22 54 33 14 84
REMARK Flexibility Score: inf
ROOT
ATOM      1  C   UNL A   1      33.609  29.037  26.126  1.00  0.00     0.275 C 
ENDROOT
BRANCH   1   2
ATOM      2  O   UNL A   1      33.556  29.729  27.385  1.00  0.00    -0.458 OA
BRANCH   2   3
ATOM      3  C   UNL A   1      34.494  30.520  27.962  1.00  0.00     0.338 C 
ATOM      4  O   UNL A   1      34.260  31.721  28.086  1.00  0.00    -0.246 OA
BRANCH   3   5
ATOM      5  C   UNL A   1      35.871  30.039  28.294  1.00  0.00     0.060 A 
ATOM      6  C   UNL A   1      36.290  29.545  29.530  1.00  0.00     0.016 A 
ATOM      7  C   UNL A   1      36.822  30.116  27.258  1.00  0.00     0.016 A 
ATOM      8  C   UNL A   1      37.587  29.058  29.707  1.00  0.00     0.010 A 
ATOM      9  C   UNL A   1      38.119  29.622  27.426  1.00  0.00     0.010 A 
ATOM     10  C   UNL A   1      38.509  29.091  28.659  1.00  0.00    -0.014 A 
BRANCH  10  11
ATOM     11  C   UNL A   1      39.918  28.733  28.923  1.00  0.00     0.031 A 
ATOM     12  C   UNL A   1      40.813  29.779  29.524  1.00  0.00     0.074 A 
ATOM     13  C   UNL A   1      40.365  27.481  28.709  1.00  0.00     0.049 A 
ATOM     14  N   UNL A   1      42.064  29.688  29.884  1.00  0.00    -0.248 NA
ATOM     15  C   UNL A   1      40.204  31.096  29.784  1.00  0.00     0.031 C 
ATOM     16  C   UNL A   1      39.559  26.372  28.195  1.00  0.00     0.029 A 
ATOM     17  N   UNL A   1      41.608  26.930  28.886  1.00  0.00    -0.354 N 
ATOM     18  C   UNL A   1      42.379  30.915  30.454  1.00  0.00     0.074 A 
ATOM     19  C   UNL A   1      41.212  31.758  30.329  1.00  0.00     0.031 C 
ATOM     20  C   UNL A   1      40.343  25.290  28.041  1.00  0.00     0.029 A 
ATOM     21  C   UNL A   1      41.703  25.630  28.444  1.00  0.00     0.049 A 
ATOM     22  H   UNL A   1      42.361  27.418  29.291  1.00  0.00     0.167 HD
ATOM     23  C   UNL A   1      43.529  31.287  31.061  1.00  0.00     0.037 A 
ATOM     24  C   UNL A   1      42.778  24.826  28.348  1.00  0.00     0.037 A 
ATOM     25  C   UNL A   1      44.690  30.447  31.141  1.00  0.00     0.049 A 
ATOM     26  C   UNL A   1      44.101  25.335  28.841  1.00  0.00     0.074 A 
ATOM     27  C   UNL A   1      45.913  30.716  31.728  1.00  0.00     0.029 A 
ATOM     28  N   UNL A   1      44.777  29.171  30.597  1.00  0.00    -0.354 N 
ATOM     29  N   UNL A   1      44.383  26.489  29.400  1.00  0.00    -0.248 NA
ATOM     30  C   UNL A   1      45.248  24.428  28.713  1.00  0.00     0.031 C 
ATOM     31  C   UNL A   1      46.753  29.621  31.500  1.00  0.00     0.029 A 
ATOM     32  C   UNL A   1      46.040  28.651  30.811  1.00  0.00     0.049 A 
ATOM     33  H   UNL A   1      44.047  28.708  30.127  1.00  0.00     0.167 HD
ATOM     34  C   UNL A   1      45.728  26.428  29.735  1.00  0.00     0.074 A 
ATOM     35  C   UNL A   1      46.209  25.132  29.298  1.00  0.00     0.031 C 
ATOM     36  C   UNL A   1      46.488  27.351  30.374  1.00  0.00     0.037 A 
BRANCH  23  37
ATOM     37  C   UNL A   1      43.565  32.658  31.671  1.00  0.00     0.058 A 
ATOM     38  C   UNL A   1      43.136  32.880  32.991  1.00  0.00     0.135 A 
ATOM     39  C   UNL A   1      44.016  33.762  30.934  1.00  0.00     0.135 A 
ATOM     40  F   UNL A   1      42.671  31.861  33.732  1.00  0.00    -0.206 F 
ATOM     41  C   UNL A   1      43.125  34.154  33.548  1.00  0.00     0.059 A 
ATOM     42  C   UNL A   1      44.035  35.044  31.478  1.00  0.00     0.059 A 
ATOM     43  F   UNL A   1      44.427  33.607  29.666  1.00  0.00    -0.206 F 
ATOM     44  C   UNL A   1      43.573  35.231  32.781  1.00  0.00     0.060 A 
BRANCH  44  45
ATOM     45  S   UNL A   1      43.542  36.882  33.513  1.00  0.00     0.124 S 
ATOM     46  O   UNL A   1      43.539  37.728  32.324  1.00  0.00    -0.237 OA
ATOM     47  O   UNL A   1      42.298  36.861  34.277  1.00  0.00    -0.237 OA
ATOM     48  O   UNL A   1      44.762  36.923  34.311  1.00  0.00    -0.744 OA
ENDBRANCH  44  45
ENDBRANCH  23  37
BRANCH  24  49
ATOM     49  C   UNL A   1      42.669  23.494  27.699  1.00  0.00     0.058 A 
ATOM     50  C   UNL A   1      42.796  23.307  26.319  1.00  0.00     0.135 A 
ATOM     51  C   UNL A   1      42.407  22.363  28.483  1.00  0.00     0.135 A 
ATOM     52  F   UNL A   1      43.011  24.361  25.516  1.00  0.00    -0.206 F 
ATOM     53  C   UNL A   1      42.682  22.042  25.742  1.00  0.00     0.059 A 
ATOM     54  C   UNL A   1      42.312  21.088  27.940  1.00  0.00     0.059 A 
ATOM     55  F   UNL A   1      42.228  22.501  29.800  1.00  0.00    -0.206 F 
ATOM     56  C   UNL A   1      42.447  20.937  26.564  1.00  0.00     0.060 A 
BRANCH  56  57
ATOM     57  S   UNL A   1      42.362  19.287  25.834  1.00  0.00     0.124 S 
ATOM     58  O   UNL A   1      43.237  19.430  24.677  1.00  0.00    -0.237 OA
ATOM     59  O   UNL A   1      42.862  18.443  26.915  1.00  0.00    -0.237 OA
ATOM     60  O   UNL A   1      40.941  19.129  25.536  1.00  0.00    -0.744 OA
ENDBRANCH  56  57
ENDBRANCH  24  49
BRANCH  36  61
ATOM     61  C   UNL A   1      47.896  26.959  30.707  1.00  0.00     0.058 A 
ATOM     62  C   UNL A   1      48.961  27.202  29.828  1.00  0.00     0.135 A 
ATOM     63  C   UNL A   1      48.181  26.372  31.950  1.00  0.00     0.135 A 
ATOM     64  F   UNL A   1      48.733  27.748  28.624  1.00  0.00    -0.206 F 
ATOM     65  C   UNL A   1      50.265  26.859  30.166  1.00  0.00     0.059 A 
ATOM     66  C   UNL A   1      49.480  26.045  32.319  1.00  0.00     0.059 A 
ATOM     67  F   UNL A   1      47.193  26.127  32.825  1.00  0.00    -0.206 F 
ATOM     68  C   UNL A   1      50.515  26.284  31.415  1.00  0.00     0.060 A 
BRANCH  68  69
ATOM     69  S   UNL A   1      52.215  25.879  31.861  1.00  0.00     0.124 S 
ATOM     70  O   UNL A   1      52.406  26.690  33.058  1.00  0.00    -0.237 OA
ATOM     71  O   UNL A   1      52.147  24.436  32.077  1.00  0.00    -0.237 OA
ATOM     72  O   UNL A   1      52.981  26.295  30.689  1.00  0.00    -0.744 OA
ENDBRANCH  68  69
ENDBRANCH  36  61
ENDBRANCH  10  11
ENDBRANCH   3   5
ENDBRANCH   2   3
ENDBRANCH   1   2
BRANCH   1  73
ATOM     73  C   UNL A   1      32.851  29.719  24.983  1.00  0.00     0.275 C 
BRANCH  73  74
ATOM     74  O   UNL A   1      32.891  28.982  23.751  1.00  0.00    -0.458 OA
BRANCH  74  75
ATOM     75  C   UNL A   1      31.689  28.845  23.134  1.00  0.00     0.338 C 
ATOM     76  O   UNL A   1      31.132  29.671  22.427  1.00  0.00    -0.246 OA
BRANCH  75  77
ATOM     77  C   UNL A   1      31.194  27.467  23.301  1.00  0.00     0.062 A 
ATOM     78  C   UNL A   1      30.097  27.276  24.143  1.00  0.00     0.016 A 
ATOM     79  C   UNL A   1      31.802  26.376  22.668  1.00  0.00     0.041 A 
ATOM     80  C   UNL A   1      29.556  26.002  24.287  1.00  0.00     0.003 A 
ATOM     81  C   UNL A   1      31.314  25.072  22.878  1.00  0.00     0.041 A 
ATOM     82  C   UNL A   1      30.150  24.916  23.642  1.00  0.00     0.026 A 
BRANCH  81  83
ATOM     83  N   UNL A   1      32.011  23.981  22.328  1.00  0.00    -0.332 N 
ATOM     84  H   UNL A   1      31.828  23.780  21.381  1.00  0.00     0.169 HD
BRANCH  83  85
ATOM     85  C   UNL A   1      32.905  23.173  22.951  1.00  0.00     0.187 A 
ATOM     86  N   UNL A   1      34.167  23.431  23.233  1.00  0.00    -0.220 NA
ATOM     87  S   UNL A   1      32.367  21.600  23.435  1.00  0.00    -0.105 S 
ATOM     88  C   UNL A   1      34.702  22.404  23.995  1.00  0.00     0.086 A 
ATOM     89  C   UNL A   1      33.897  21.291  24.129  1.00  0.00     0.097 A 
BRANCH  88  90
ATOM     90  C   UNL A   1      36.003  22.481  24.636  1.00  0.00     0.037 A 
ATOM     91  C   UNL A   1      36.853  21.366  24.642  1.00  0.00     0.016 A 
ATOM     92  C   UNL A   1      36.390  23.632  25.338  1.00  0.00     0.135 A 
ATOM     93  C   UNL A   1      38.055  21.406  25.351  1.00  0.00     0.040 A 
ATOM     94  C   UNL A   1      37.585  23.675  26.051  1.00  0.00     0.079 A 
ATOM     95  F   UNL A   1      35.592  24.708  25.383  1.00  0.00    -0.206 F 
ATOM     96  C   UNL A   1      38.407  22.557  26.053  1.00  0.00     0.126 A 
ATOM     97  F   UNL A   1      39.552  22.573  26.748  1.00  0.00    -0.207 F 
ENDBRANCH  88  90
ENDBRANCH  83  85
ENDBRANCH  81  83
ENDBRANCH  75  77
ENDBRANCH  74  75
ENDBRANCH  73  74
ENDBRANCH   1  73
TORSDOF 17
ENDMDL
MODEL 3
REMARK VINA RESULT:     -10.8      5.000      7.554
REMARK SMILES O=C(OCCOC(=O)c1cccc(Nc2nc(-c3ccc(F)cc3F)cs2)c1)c1ccc(-c2c3nc(c(-c4c(F)cc(S(=O)(=O)[O-])cc4F)c4ccc([nH]4)c(-c4c(F)cc(S(=O)(=O)[O-])cc4F)c4nc(c(-c5c(F)cc(S(=O)(=O)[O-])cc5F)c5ccc2[nH]5)C=C4)C=C3)cc1
REMARK SMILES IDX 4 1 3 2 2 3 1 4 29 5 30 6 94 7 31 8 93 9 32 10 33 11 34 12
REMARK SMILES IDX 87 13 35 14 92 15 86 16 88 17 36 18 91 19 85 20 84 21 37 23
REMARK SMILES IDX 71 24 50 25 70 26 51 27 54 28 69 29 89 30 52 31 53 32 68 34
REMARK SMILES IDX 90 35 55 36 38 37 39 38 48 39 40 40 41 41 47 42 49 43 42 44
REMARK SMILES IDX 43 45 44 46 45 47 46 48 72 49 73 50 82 51 74 52 75 53 81 54
REMARK SMILES IDX 83 55 76 56 77 57 78 58 79 59 80 60 56 61 57 62 66 63 58 64
REMARK SMILES IDX 59 65 65 66 67 67 60 68 61 69 62 70 63 71 64 72 5 73 6 74
REMARK SMILES IDX 7 75 8 76 9 77 10 78 28 79 11 80 13 81 12 82 14 83 15 85
REMARK SMILES IDX 16 86 27 87 17 88 26 89 18 90 19 91 24 92 20 93 23 94 25 95
REMARK SMILES IDX 21 96 22 97
REMARK H PARENT 88 22 54 33 14 84
REMARK Flexibility Score: inf
ROOT
ATOM      1  C   UNL A   1      36.948  21.452  25.870  1.00  0.00     0.275 C 
ENDROOT
BRANCH   1   2
ATOM      2  O   UNL A   1      37.681  22.679  25.720  1.00  0.00    -0.458 OA
BRANCH   2   3
ATOM      3  C   UNL A   1      38.965  22.952  26.061  1.00  0.00     0.338 C 
ATOM      4  O   UNL A   1      39.809  22.064  25.947  1.00  0.00    -0.246 OA
BRANCH   3   5
ATOM      5  C   UNL A   1      39.375  24.222  26.737  1.00  0.00     0.060 A 
ATOM      6  C   UNL A   1      40.190  25.214  26.190  1.00  0.00     0.016 A 
ATOM      7  C   UNL A   1      38.900  24.409  28.049  1.00  0.00     0.016 A 
ATOM      8  C   UNL A   1      40.453  26.395  26.889  1.00  0.00     0.010 A 
ATOM      9  C   UNL A   1      39.151  25.592  28.751  1.00  0.00     0.010 A 
ATOM     10  C   UNL A   1      39.935  26.593  28.171  1.00  0.00    -0.014 A 
BRANCH  10  11
ATOM     11  C   UNL A   1      40.369  27.769  28.953  1.00  0.00     0.031 A 
ATOM     12  C   UNL A   1      41.724  27.727  29.600  1.00  0.00     0.074 A 
ATOM     13  C   UNL A   1      39.609  28.879  29.013  1.00  0.00     0.049 A 
ATOM     14  N   UNL A   1      42.338  28.647  30.294  1.00  0.00    -0.248 NA
ATOM     15  C   UNL A   1      42.505  26.490  29.413  1.00  0.00     0.031 C 
ATOM     16  C   UNL A   1      38.310  29.050  28.361  1.00  0.00     0.029 A 
ATOM     17  N   UNL A   1      39.811  30.070  29.660  1.00  0.00    -0.354 N 
ATOM     18  C   UNL A   1      43.590  28.121  30.585  1.00  0.00     0.074 A 
ATOM     19  C   UNL A   1      43.625  26.777  30.057  1.00  0.00     0.031 C 
ATOM     20  C   UNL A   1      37.804  30.251  28.690  1.00  0.00     0.029 A 
ATOM     21  C   UNL A   1      38.741  30.932  29.577  1.00  0.00     0.049 A 
ATOM     22  H   UNL A   1      40.643  30.288  30.140  1.00  0.00     0.167 HD
ATOM     23  C   UNL A   1      44.629  28.725  31.205  1.00  0.00     0.037 A 
ATOM     24  C   UNL A   1      38.537  32.118  30.179  1.00  0.00     0.037 A 
ATOM     25  C   UNL A   1      44.561  30.050  31.757  1.00  0.00     0.049 A 
ATOM     26  C   UNL A   1      39.630  32.684  31.038  1.00  0.00     0.074 A 
ATOM     27  C   UNL A   1      45.547  30.766  32.410  1.00  0.00     0.029 A 
ATOM     28  N   UNL A   1      43.427  30.853  31.735  1.00  0.00    -0.354 N 
ATOM     29  N   UNL A   1      40.820  32.190  31.288  1.00  0.00    -0.248 NA
ATOM     30  C   UNL A   1      39.364  33.977  31.680  1.00  0.00     0.031 C 
ATOM     31  C   UNL A   1      44.996  31.984  32.822  1.00  0.00     0.029 A 
ATOM     32  C   UNL A   1      43.681  32.047  32.385  1.00  0.00     0.049 A 
ATOM     33  H   UNL A   1      42.570  30.608  31.318  1.00  0.00     0.167 HD
ATOM     34  C   UNL A   1      41.464  33.134  32.075  1.00  0.00     0.074 A 
ATOM     35  C   UNL A   1      40.524  34.219  32.277  1.00  0.00     0.031 C 
ATOM     36  C   UNL A   1      42.729  33.116  32.561  1.00  0.00     0.037 A 
BRANCH  23  37
ATOM     37  C   UNL A   1      45.907  27.946  31.311  1.00  0.00     0.058 A 
ATOM     38  C   UNL A   1      46.204  27.185  32.454  1.00  0.00     0.135 A 
ATOM     39  C   UNL A   1      46.852  27.969  30.275  1.00  0.00     0.135 A 
ATOM     40  F   UNL A   1      45.345  27.148  33.486  1.00  0.00    -0.206 F 
ATOM     41  C   UNL A   1      47.406  26.496  32.577  1.00  0.00     0.059 A 
ATOM     42  C   UNL A   1      48.052  27.270  30.367  1.00  0.00     0.059 A 
ATOM     43  F   UNL A   1      46.621  28.690  29.166  1.00  0.00    -0.206 F 
ATOM     44  C   UNL A   1      48.326  26.549  31.529  1.00  0.00     0.060 A 
BRANCH  44  45
ATOM     45  S   UNL A   1      49.888  25.660  31.708  1.00  0.00     0.124 S 
ATOM     46  O   UNL A   1      50.785  26.731  32.134  1.00  0.00    -0.237 OA
ATOM     47  O   UNL A   1      49.566  24.664  32.724  1.00  0.00    -0.237 OA
ATOM     48  O   UNL A   1      50.134  25.130  30.371  1.00  0.00    -0.744 OA
ENDBRANCH  44  45
ENDBRANCH  23  37
BRANCH  24  49
ATOM     49  C   UNL A   1      37.230  32.814  30.053  1.00  0.00     0.058 A 
ATOM     50  C   UNL A   1      36.150  32.562  30.905  1.00  0.00     0.135 A 
ATOM     51  C   UNL A   1      37.043  33.753  29.031  1.00  0.00     0.135 A 
ATOM     52  F   UNL A   1      36.262  31.645  31.878  1.00  0.00    -0.206 F 
ATOM     53  C   UNL A   1      34.934  33.229  30.755  1.00  0.00     0.059 A 
ATOM     54  C   UNL A   1      35.852  34.450  28.872  1.00  0.00     0.059 A 
ATOM     55  F   UNL A   1      38.030  33.988  28.163  1.00  0.00    -0.206 F 
ATOM     56  C   UNL A   1      34.798  34.179  29.738  1.00  0.00     0.060 A 
BRANCH  56  57
ATOM     57  S   UNL A   1      33.250  35.094  29.576  1.00  0.00     0.124 S 
ATOM     58  O   UNL A   1      33.730  36.431  29.249  1.00  0.00    -0.237 OA
ATOM     59  O   UNL A   1      32.576  34.375  28.500  1.00  0.00    -0.237 OA
ATOM     60  O   UNL A   1      32.637  34.947  30.894  1.00  0.00    -0.744 OA
ENDBRANCH  56  57
ENDBRANCH  24  49
BRANCH  36  61
ATOM     61  C   UNL A   1      43.193  34.340  33.291  1.00  0.00     0.058 A 
ATOM     62  C   UNL A   1      43.712  35.454  32.618  1.00  0.00     0.135 A 
ATOM     63  C   UNL A   1      43.071  34.406  34.688  1.00  0.00     0.135 A 
ATOM     64  F   UNL A   1      43.860  35.430  31.284  1.00  0.00    -0.206 F 
ATOM     65  C   UNL A   1      44.110  36.593  33.309  1.00  0.00     0.059 A 
ATOM     66  C   UNL A   1      43.438  35.543  35.397  1.00  0.00     0.059 A 
ATOM     67  F   UNL A   1      42.575  33.365  35.374  1.00  0.00    -0.206 F 
ATOM     68  C   UNL A   1      43.966  36.628  34.699  1.00  0.00     0.060 A 
BRANCH  68  69
ATOM     69  S   UNL A   1      44.449  38.124  35.584  1.00  0.00     0.124 S 
ATOM     70  O   UNL A   1      43.855  39.163  34.750  1.00  0.00    -0.237 OA
ATOM     71  O   UNL A   1      43.828  37.928  36.892  1.00  0.00    -0.237 OA
ATOM     72  O   UNL A   1      45.908  38.067  35.576  1.00  0.00    -0.744 OA
ENDBRANCH  68  69
ENDBRANCH  36  61
ENDBRANCH  10  11
ENDBRANCH   3   5
ENDBRANCH   2   3
ENDBRANCH   1   2
BRANCH   1  73
ATOM     73  C   UNL A   1      35.425  21.598  25.797  1.00  0.00     0.275 C 
BRANCH  73  74
ATOM     74  O   UNL A   1      34.792  20.585  24.999  1.00  0.00    -0.458 OA
BRANCH  74  75
ATOM     75  C   UNL A   1      33.489  20.357  25.303  1.00  0.00     0.338 C 
ATOM     76  O   UNL A   1      33.057  19.545  26.107  1.00  0.00    -0.246 OA
BRANCH  75  77
ATOM     77  C   UNL A   1      32.635  21.354  24.632  1.00  0.00     0.062 A 
ATOM     78  C   UNL A   1      32.631  21.360  23.235  1.00  0.00     0.016 A 
ATOM     79  C   UNL A   1      31.873  22.284  25.349  1.00  0.00     0.041 A 
ATOM     80  C   UNL A   1      31.796  22.243  22.556  1.00  0.00     0.003 A 
ATOM     81  C   UNL A   1      31.094  23.238  24.668  1.00  0.00     0.041 A 
ATOM     82  C   UNL A   1      31.021  23.158  23.270  1.00  0.00     0.026 A 
BRANCH  81  83
ATOM     83  N   UNL A   1      30.429  24.235  25.404  1.00  0.00    -0.332 N 
ATOM     84  H   UNL A   1      29.715  23.927  26.009  1.00  0.00     0.169 HD
BRANCH  83  85
ATOM     85  C   UNL A   1      30.658  25.572  25.378  1.00  0.00     0.187 A 
ATOM     86  N   UNL A   1      31.380  26.285  26.219  1.00  0.00    -0.220 NA
ATOM     87  S   UNL A   1      29.918  26.490  24.110  1.00  0.00    -0.105 S 
ATOM     88  C   UNL A   1      31.479  27.592  25.770  1.00  0.00     0.086 A 
ATOM     89  C   UNL A   1      30.679  27.904  24.689  1.00  0.00     0.097 A 
BRANCH  88  90
ATOM     90  C   UNL A   1      32.370  28.574  26.363  1.00  0.00     0.037 A 
ATOM     91  C   UNL A   1      31.886  29.841  26.719  1.00  0.00     0.016 A 
ATOM     92  C   UNL A   1      33.740  28.308  26.501  1.00  0.00     0.135 A 
ATOM     93  C   UNL A   1      32.766  30.820  27.187  1.00  0.00     0.040 A 
ATOM     94  C   UNL A   1      34.622  29.282  26.963  1.00  0.00     0.079 A 
ATOM     95  F   UNL A   1      34.247  27.120  26.144  1.00  0.00    -0.206 F 
ATOM     96  C   UNL A   1      34.124  30.533  27.299  1.00  0.00     0.126 A 
ATOM     97  F   UNL A   1      34.960  31.490  27.727  1.00  0.00    -0.207 F 
ENDBRANCH  88  90
ENDBRANCH  83  85
ENDBRANCH  81  83
ENDBRANCH  75  77
ENDBRANCH  74  75
ENDBRANCH  73  74
ENDBRANCH   1  73
TORSDOF 17
ENDMDL
