MODEL 1
REMARK VINA RESULT:     -10.1      0.000      0.000
REMARK SMILES CCc1cccc(-c2ccc([C@@H](C)C(=O)OCCOC(=O)c3ccc(-c4c5nc(c(-c6c(F)cc(S(=O)(=O)[O-])cc6F)c6ccc([nH]6)c(-c6c(F)cc(S(=O)(=O)[O-])cc6F)c6nc(c(-c7c(F)cc(S(=O)(=O)[O-])cc7F)c7ccc4[nH]7)C=C6)C=C5)cc3)cc2)c1
REMARK SMILES IDX 17 1 16 2 14 3 15 4 12 5 13 6 11 7 8 8 9 9 89 10 10 11 88 12
REMARK SMILES IDX 7 13 3 14 4 15 90 16 5 17 6 18 2 19 1 20 18 21 19 22 20 23
REMARK SMILES IDX 21 24 22 25 23 26 87 27 24 28 86 29 25 30 26 31 27 32 80 33
REMARK SMILES IDX 28 34 85 35 79 36 81 37 29 38 84 39 78 40 77 41 30 43 64 44
REMARK SMILES IDX 43 45 63 46 44 47 47 48 62 49 82 50 45 51 46 52 61 54 83 55
REMARK SMILES IDX 48 56 31 57 32 58 41 59 33 60 34 61 40 62 42 63 35 64 36 65
REMARK SMILES IDX 37 66 38 67 39 68 65 69 66 70 75 71 67 72 68 73 74 74 76 75
REMARK SMILES IDX 69 76 70 77 71 78 72 79 73 80 49 81 50 82 59 83 51 84 52 85
REMARK SMILES IDX 58 86 60 87 53 88 54 89 55 90 56 91 57 92
REMARK H PARENT 81 42 47 53
REMARK Flexibility Score: inf
ROOT
ATOM      1  C   UNL A   1      33.842  34.359  28.687  1.00  0.00     0.274 C 
ENDROOT
BRANCH   1   2
ATOM      2  O   UNL A   1      32.820  34.590  29.676  1.00  0.00    -0.462 OA
BRANCH   2   3
ATOM      3  C   UNL A   1      33.014  35.639  30.519  1.00  0.00     0.313 C 
ATOM      4  O   UNL A   1      33.122  36.806  30.152  1.00  0.00    -0.252 OA
BRANCH   3   5
ATOM      5  C   UNL A   1      33.156  35.236  31.982  1.00  0.00     0.126 C 
ATOM      6  C   UNL A   1      32.988  36.466  32.873  1.00  0.00     0.025 C 
BRANCH   5   7
ATOM      7  C   UNL A   1      34.395  34.425  32.336  1.00  0.00    -0.034 A 
ATOM      8  C   UNL A   1      36.757  32.965  32.960  1.00  0.00    -0.018 A 
ATOM      9  C   UNL A   1      35.605  32.318  32.487  1.00  0.00     0.009 A 
ATOM     10  C   UNL A   1      36.700  34.354  33.132  1.00  0.00     0.009 A 
ATOM     11  C   UNL A   1      34.444  33.035  32.177  1.00  0.00     0.005 A 
ATOM     12  C   UNL A   1      35.542  35.074  32.819  1.00  0.00     0.005 A 
BRANCH   8  13
ATOM     13  C   UNL A   1      37.997  32.216  33.229  1.00  0.00    -0.018 A 
ATOM     14  C   UNL A   1      39.303  30.135  33.154  1.00  0.00    -0.048 A 
ATOM     15  C   UNL A   1      40.355  30.797  33.806  1.00  0.00     0.004 A 
ATOM     16  C   UNL A   1      38.131  30.859  32.873  1.00  0.00     0.012 A 
ATOM     17  C   UNL A   1      40.244  32.137  34.165  1.00  0.00     0.001 A 
ATOM     18  C   UNL A   1      39.074  32.839  33.879  1.00  0.00     0.009 A 
BRANCH  14  19
ATOM     19  C   UNL A   1      39.491  28.674  32.815  1.00  0.00     0.032 C 
ATOM     20  C   UNL A   1      38.238  27.856  32.532  1.00  0.00     0.009 C 
ENDBRANCH  14  19
ENDBRANCH   8  13
ENDBRANCH   5   7
ENDBRANCH   3   5
ENDBRANCH   2   3
ENDBRANCH   1   2
BRANCH   1  21
ATOM     21  C   UNL A   1      33.645  33.010  27.996  1.00  0.00     0.275 C 
BRANCH  21  22
ATOM     22  O   UNL A   1      34.198  31.942  28.785  1.00  0.00    -0.458 OA
BRANCH  22  23
ATOM     23  C   UNL A   1      34.314  30.755  28.147  1.00  0.00     0.338 C 
ATOM     24  O   UNL A   1      33.471  30.189  27.474  1.00  0.00    -0.246 OA
BRANCH  23  25
ATOM     25  C   UNL A   1      35.690  30.259  28.287  1.00  0.00     0.060 A 
ATOM     26  C   UNL A   1      36.100  29.809  29.542  1.00  0.00     0.016 A 
ATOM     27  C   UNL A   1      36.594  30.322  27.226  1.00  0.00     0.016 A 
ATOM     28  C   UNL A   1      37.424  29.439  29.754  1.00  0.00     0.010 A 
ATOM     29  C   UNL A   1      37.923  29.934  27.435  1.00  0.00     0.010 A 
ATOM     30  C   UNL A   1      38.350  29.508  28.705  1.00  0.00    -0.014 A 
BRANCH  30  31
ATOM     31  C   UNL A   1      39.770  29.168  28.967  1.00  0.00     0.031 A 
ATOM     32  C   UNL A   1      40.676  30.177  29.617  1.00  0.00     0.074 A 
ATOM     33  C   UNL A   1      40.227  27.935  28.676  1.00  0.00     0.049 A 
ATOM     34  N   UNL A   1      41.949  30.080  29.904  1.00  0.00    -0.248 NA
ATOM     35  C   UNL A   1      40.071  31.464  29.997  1.00  0.00     0.031 C 
ATOM     36  C   UNL A   1      39.432  26.859  28.080  1.00  0.00     0.029 A 
ATOM     37  N   UNL A   1      41.467  27.376  28.848  1.00  0.00    -0.354 N 
ATOM     38  C   UNL A   1      42.300  31.289  30.492  1.00  0.00     0.074 A 
ATOM     39  C   UNL A   1      41.111  32.115  30.500  1.00  0.00     0.031 C 
ATOM     40  C   UNL A   1      40.203  25.767  27.947  1.00  0.00     0.029 A 
ATOM     41  C   UNL A   1      41.552  26.076  28.412  1.00  0.00     0.049 A 
ATOM     42  H   UNL A   1      42.226  27.861  29.247  1.00  0.00     0.167 HD
ATOM     43  C   UNL A   1      43.501  31.670  30.988  1.00  0.00     0.037 A 
ATOM     44  C   UNL A   1      42.603  25.234  28.377  1.00  0.00     0.037 A 
ATOM     45  C   UNL A   1      44.681  30.843  30.986  1.00  0.00     0.049 A 
ATOM     46  C   UNL A   1      43.937  25.702  28.892  1.00  0.00     0.074 A 
ATOM     47  C   UNL A   1      45.951  31.151  31.443  1.00  0.00     0.029 A 
ATOM     48  N   UNL A   1      44.733  29.541  30.513  1.00  0.00    -0.354 N 
ATOM     49  N   UNL A   1      44.258  26.859  29.420  1.00  0.00    -0.248 NA
ATOM     50  C   UNL A   1      45.053  24.750  28.804  1.00  0.00     0.031 C 
ATOM     51  C   UNL A   1      46.777  30.043  31.225  1.00  0.00     0.029 A 
ATOM     52  C   UNL A   1      46.013  29.033  30.663  1.00  0.00     0.049 A 
ATOM     53  H   UNL A   1      43.972  29.050  30.127  1.00  0.00     0.167 HD
ATOM     54  C   UNL A   1      45.608  26.768  29.740  1.00  0.00     0.074 A 
ATOM     55  C   UNL A   1      46.038  25.437  29.366  1.00  0.00     0.031 C 
ATOM     56  C   UNL A   1      46.420  27.703  30.289  1.00  0.00     0.037 A 
BRANCH  43  57
ATOM     57  C   UNL A   1      43.608  33.050  31.572  1.00  0.00     0.058 A 
ATOM     58  C   UNL A   1      43.729  34.184  30.752  1.00  0.00     0.135 A 
ATOM     59  C   UNL A   1      43.535  33.248  32.960  1.00  0.00     0.135 A 
ATOM     60  F   UNL A   1      43.823  34.047  29.421  1.00  0.00    -0.206 F 
ATOM     61  C   UNL A   1      43.783  35.465  31.290  1.00  0.00     0.059 A 
ATOM     62  C   UNL A   1      43.568  34.523  33.519  1.00  0.00     0.059 A 
ATOM     63  F   UNL A   1      43.422  32.196  33.787  1.00  0.00    -0.206 F 
ATOM     64  C   UNL A   1      43.701  35.625  32.675  1.00  0.00     0.060 A 
BRANCH  64  65
ATOM     65  S   UNL A   1      43.749  37.296  33.358  1.00  0.00     0.124 S 
ATOM     66  O   UNL A   1      44.919  37.221  34.227  1.00  0.00    -0.237 OA
ATOM     67  O   UNL A   1      43.901  38.120  32.162  1.00  0.00    -0.237 OA
ATOM     68  O   UNL A   1      42.466  37.421  34.042  1.00  0.00    -0.744 OA
ENDBRANCH  64  65
ENDBRANCH  43  57
BRANCH  44  69
ATOM     69  C   UNL A   1      42.451  23.867  27.811  1.00  0.00     0.058 A 
ATOM     70  C   UNL A   1      42.367  22.743  28.644  1.00  0.00     0.135 A 
ATOM     71  C   UNL A   1      42.420  23.659  26.423  1.00  0.00     0.135 A 
ATOM     72  F   UNL A   1      42.400  22.892  29.977  1.00  0.00    -0.206 F 
ATOM     73  C   UNL A   1      42.286  21.456  28.123  1.00  0.00     0.059 A 
ATOM     74  C   UNL A   1      42.316  22.384  25.879  1.00  0.00     0.059 A 
ATOM     75  F   UNL A   1      42.485  24.705  25.584  1.00  0.00    -0.206 F 
ATOM     76  C   UNL A   1      42.268  21.286  26.738  1.00  0.00     0.060 A 
BRANCH  76  77
ATOM     77  S   UNL A   1      42.149  19.617  26.060  1.00  0.00     0.124 S 
ATOM     78  O   UNL A   1      43.073  19.693  24.933  1.00  0.00    -0.237 OA
ATOM     79  O   UNL A   1      42.579  18.791  27.184  1.00  0.00    -0.237 OA
ATOM     80  O   UNL A   1      40.735  19.499  25.714  1.00  0.00    -0.744 OA
ENDBRANCH  76  77
ENDBRANCH  44  69
BRANCH  56  81
ATOM     81  C   UNL A   1      47.846  27.306  30.540  1.00  0.00     0.058 A 
ATOM     82  C   UNL A   1      48.848  27.525  29.583  1.00  0.00     0.135 A 
ATOM     83  C   UNL A   1      48.218  26.713  31.757  1.00  0.00     0.135 A 
ATOM     84  F   UNL A   1      48.541  28.084  28.400  1.00  0.00    -0.206 F 
ATOM     85  C   UNL A   1      50.166  27.144  29.811  1.00  0.00     0.059 A 
ATOM     86  C   UNL A   1      49.534  26.343  32.015  1.00  0.00     0.059 A 
ATOM     87  F   UNL A   1      47.298  26.491  32.710  1.00  0.00    -0.206 F 
ATOM     88  C   UNL A   1      50.498  26.548  31.028  1.00  0.00     0.060 A 
BRANCH  88  89
ATOM     89  S   UNL A   1      52.213  26.065  31.322  1.00  0.00     0.124 S 
ATOM     90  O   UNL A   1      52.630  27.054  32.310  1.00  0.00    -0.237 OA
ATOM     91  O   UNL A   1      52.078  24.698  31.813  1.00  0.00    -0.237 OA
ATOM     92  O   UNL A   1      52.829  26.191  30.004  1.00  0.00    -0.744 OA
ENDBRANCH  88  89
ENDBRANCH  56  81
ENDBRANCH  30  31
ENDBRANCH  23  25
ENDBRANCH  22  23
ENDBRANCH  21  22
ENDBRANCH   1  21
TORSDOF 17
ENDMDL
MODEL 2
REMARK VINA RESULT:      -9.9      4.301     11.735
REMARK SMILES CCc1cccc(-c2ccc([C@@H](C)C(=O)OCCOC(=O)c3ccc(-c4c5nc(c(-c6c(F)cc(S(=O)(=O)[O-])cc6F)c6ccc([nH]6)c(-c6c(F)cc(S(=O)(=O)[O-])cc6F)c6nc(c(-c7c(F)cc(S(=O)(=O)[O-])cc7F)c7ccc4[nH]7)C=C6)C=C5)cc3)cc2)c1
REMARK SMILES IDX 17 1 16 2 14 3 15 4 12 5 13 6 11 7 8 8 9 9 89 10 10 11 88 12
REMARK SMILES IDX 7 13 3 14 4 15 90 16 5 17 6 18 2 19 1 20 18 21 19 22 20 23
REMARK SMILES IDX 21 24 22 25 23 26 87 27 24 28 86 29 25 30 26 31 27 32 80 33
REMARK SMILES IDX 28 34 85 35 79 36 81 37 29 38 84 39 78 40 77 41 30 43 64 44
REMARK SMILES IDX 43 45 63 46 44 47 47 48 62 49 82 50 45 51 46 52 61 54 83 55
REMARK SMILES IDX 48 56 31 57 32 58 41 59 33 60 34 61 40 62 42 63 35 64 36 65
REMARK SMILES IDX 37 66 38 67 39 68 65 69 66 70 75 71 67 72 68 73 74 74 76 75
REMARK SMILES IDX 69 76 70 77 71 78 72 79 73 80 49 81 50 82 59 83 51 84 52 85
REMARK SMILES IDX 58 86 60 87 53 88 54 89 55 90 56 91 57 92
REMARK H PARENT 81 42 47 53
REMARK Flexibility Score: inf
ROOT
ATOM      1  C   UNL A   1      44.140  22.594  26.167  1.00  0.00     0.274 C 
ENDROOT
BRANCH   1   2
ATOM      2  O   UNL A   1      45.120  23.528  25.676  1.00  0.00    -0.462 OA
BRANCH   2   3
ATOM      3  C   UNL A   1      45.943  24.091  26.601  1.00  0.00     0.313 C 
ATOM      4  O   UNL A   1      47.084  23.703  26.834  1.00  0.00    -0.252 OA
BRANCH   3   5
ATOM      5  C   UNL A   1      45.297  25.225  27.390  1.00  0.00     0.126 C 
ATOM      6  C   UNL A   1      46.032  26.533  27.103  1.00  0.00     0.025 C 
BRANCH   5   7
ATOM      7  C   UNL A   1      45.105  24.979  28.880  1.00  0.00    -0.034 A 
ATOM      8  C   UNL A   1      44.826  24.510  31.673  1.00  0.00    -0.018 A 
ATOM      9  C   UNL A   1      43.957  23.916  30.745  1.00  0.00     0.009 A 
ATOM     10  C   UNL A   1      45.828  25.356  31.179  1.00  0.00     0.009 A 
ATOM     11  C   UNL A   1      44.094  24.144  29.371  1.00  0.00     0.005 A 
ATOM     12  C   UNL A   1      45.969  25.582  29.806  1.00  0.00     0.005 A 
BRANCH   8  13
ATOM     13  C   UNL A   1      44.716  24.221  33.114  1.00  0.00    -0.018 A 
ATOM     14  C   UNL A   1      43.377  24.025  35.164  1.00  0.00    -0.048 A 
ATOM     15  C   UNL A   1      44.548  23.720  35.876  1.00  0.00     0.004 A 
ATOM     16  C   UNL A   1      43.479  24.272  33.785  1.00  0.00     0.012 A 
ATOM     17  C   UNL A   1      45.781  23.663  35.232  1.00  0.00     0.001 A 
ATOM     18  C   UNL A   1      45.863  23.912  33.863  1.00  0.00     0.009 A 
BRANCH  14  19
ATOM     19  C   UNL A   1      42.078  24.088  35.937  1.00  0.00     0.032 C 
ATOM     20  C   UNL A   1      41.113  25.214  35.589  1.00  0.00     0.009 C 
ENDBRANCH  14  19
ENDBRANCH   8  13
ENDBRANCH   5   7
ENDBRANCH   3   5
ENDBRANCH   2   3
ENDBRANCH   1   2
BRANCH   1  21
ATOM     21  C   UNL A   1      42.750  22.915  25.618  1.00  0.00     0.275 C 
BRANCH  21  22
ATOM     22  O   UNL A   1      42.080  23.881  26.448  1.00  0.00    -0.458 OA
BRANCH  22  23
ATOM     23  C   UNL A   1      42.120  25.155  25.994  1.00  0.00     0.338 C 
ATOM     24  O   UNL A   1      42.356  25.532  24.860  1.00  0.00    -0.246 OA
BRANCH  23  25
ATOM     25  C   UNL A   1      41.718  26.069  27.073  1.00  0.00     0.060 A 
ATOM     26  C   UNL A   1      42.256  27.356  27.075  1.00  0.00     0.016 A 
ATOM     27  C   UNL A   1      40.901  25.639  28.118  1.00  0.00     0.016 A 
ATOM     28  C   UNL A   1      41.999  28.218  28.136  1.00  0.00     0.010 A 
ATOM     29  C   UNL A   1      40.629  26.513  29.178  1.00  0.00     0.010 A 
ATOM     30  C   UNL A   1      41.190  27.802  29.202  1.00  0.00    -0.014 A 
BRANCH  30  31
ATOM     31  C   UNL A   1      40.979  28.715  30.352  1.00  0.00     0.031 A 
ATOM     32  C   UNL A   1      41.899  28.652  31.540  1.00  0.00     0.074 A 
ATOM     33  C   UNL A   1      39.999  29.637  30.302  1.00  0.00     0.049 A 
ATOM     34  N   UNL A   1      41.863  29.344  32.649  1.00  0.00    -0.248 NA
ATOM     35  C   UNL A   1      43.007  27.685  31.470  1.00  0.00     0.031 C 
ATOM     36  C   UNL A   1      39.068  29.820  29.186  1.00  0.00     0.029 A 
ATOM     37  N   UNL A   1      39.627  30.598  31.206  1.00  0.00    -0.354 N 
ATOM     38  C   UNL A   1      42.936  28.897  33.412  1.00  0.00     0.074 A 
ATOM     39  C   UNL A   1      43.591  27.857  32.648  1.00  0.00     0.031 C 
ATOM     40  C   UNL A   1      38.240  30.839  29.469  1.00  0.00     0.029 A 
ATOM     41  C   UNL A   1      38.556  31.356  30.797  1.00  0.00     0.049 A 
ATOM     42  H   UNL A   1      40.084  30.733  32.067  1.00  0.00     0.167 HD
ATOM     43  C   UNL A   1      43.342  29.324  34.631  1.00  0.00     0.037 A 
ATOM     44  C   UNL A   1      37.893  32.344  31.429  1.00  0.00     0.037 A 
ATOM     45  C   UNL A   1      42.693  30.366  35.385  1.00  0.00     0.049 A 
ATOM     46  C   UNL A   1      38.338  32.764  32.804  1.00  0.00     0.074 A 
ATOM     47  C   UNL A   1      43.014  30.850  36.642  1.00  0.00     0.029 A 
ATOM     48  N   UNL A   1      41.595  31.092  34.948  1.00  0.00    -0.354 N 
ATOM     49  N   UNL A   1      39.338  32.311  33.522  1.00  0.00    -0.248 NA
ATOM     50  C   UNL A   1      37.562  33.828  33.456  1.00  0.00     0.031 C 
ATOM     51  C   UNL A   1      42.098  31.853  36.974  1.00  0.00     0.029 A 
ATOM     52  C   UNL A   1      41.225  32.017  35.911  1.00  0.00     0.049 A 
ATOM     53  H   UNL A   1      41.145  30.968  34.082  1.00  0.00     0.167 HD
ATOM     54  C   UNL A   1      39.320  33.045  34.703  1.00  0.00     0.074 A 
ATOM     55  C   UNL A   1      38.224  33.985  34.595  1.00  0.00     0.031 C 
ATOM     56  C   UNL A   1      40.134  32.947  35.782  1.00  0.00     0.037 A 
BRANCH  43  57
ATOM     57  C   UNL A   1      44.544  28.658  35.238  1.00  0.00     0.058 A 
ATOM     58  C   UNL A   1      45.848  29.063  34.910  1.00  0.00     0.135 A 
ATOM     59  C   UNL A   1      44.393  27.643  36.196  1.00  0.00     0.135 A 
ATOM     60  F   UNL A   1      46.046  30.015  33.986  1.00  0.00    -0.206 F 
ATOM     61  C   UNL A   1      46.961  28.478  35.505  1.00  0.00     0.059 A 
ATOM     62  C   UNL A   1      45.492  27.056  36.818  1.00  0.00     0.059 A 
ATOM     63  F   UNL A   1      43.167  27.218  36.542  1.00  0.00    -0.206 F 
ATOM     64  C   UNL A   1      46.773  27.476  36.458  1.00  0.00     0.060 A 
BRANCH  64  65
ATOM     65  S   UNL A   1      48.225  26.741  37.239  1.00  0.00     0.124 S 
ATOM     66  O   UNL A   1      47.691  26.356  38.543  1.00  0.00    -0.237 OA
ATOM     67  O   UNL A   1      48.544  25.639  36.336  1.00  0.00    -0.237 OA
ATOM     68  O   UNL A   1      49.193  27.833  37.255  1.00  0.00    -0.744 OA
ENDBRANCH  64  65
ENDBRANCH  43  57
BRANCH  44  69
ATOM     69  C   UNL A   1      36.720  32.992  30.786  1.00  0.00     0.058 A 
ATOM     70  C   UNL A   1      36.884  33.920  29.749  1.00  0.00     0.135 A 
ATOM     71  C   UNL A   1      35.414  32.718  31.221  1.00  0.00     0.135 A 
ATOM     72  F   UNL A   1      38.114  34.220  29.305  1.00  0.00    -0.206 F 
ATOM     73  C   UNL A   1      35.797  34.578  29.182  1.00  0.00     0.059 A 
ATOM     74  C   UNL A   1      34.311  33.344  30.654  1.00  0.00     0.059 A 
ATOM     75  F   UNL A   1      35.205  31.827  32.203  1.00  0.00    -0.206 F 
ATOM     76  C   UNL A   1      34.513  34.287  29.646  1.00  0.00     0.060 A 
BRANCH  76  77
ATOM     77  S   UNL A   1      33.100  35.129  28.902  1.00  0.00     0.124 S 
ATOM     78  O   UNL A   1      32.276  35.407  30.073  1.00  0.00    -0.237 OA
ATOM     79  O   UNL A   1      33.723  36.288  28.270  1.00  0.00    -0.237 OA
ATOM     80  O   UNL A   1      32.569  34.132  27.976  1.00  0.00    -0.744 OA
ENDBRANCH  76  77
ENDBRANCH  44  69
BRANCH  56  81
ATOM     81  C   UNL A   1      39.880  33.899  36.916  1.00  0.00     0.058 A 
ATOM     82  C   UNL A   1      39.109  33.527  38.027  1.00  0.00     0.135 A 
ATOM     83  C   UNL A   1      40.429  35.191  36.898  1.00  0.00     0.135 A 
ATOM     84  F   UNL A   1      38.558  32.304  38.088  1.00  0.00    -0.206 F 
ATOM     85  C   UNL A   1      38.864  34.414  39.070  1.00  0.00     0.059 A 
ATOM     86  C   UNL A   1      40.214  36.088  37.940  1.00  0.00     0.059 A 
ATOM     87  F   UNL A   1      41.183  35.592  35.862  1.00  0.00    -0.206 F 
ATOM     88  C   UNL A   1      39.416  35.695  39.014  1.00  0.00     0.060 A 
BRANCH  88  89
ATOM     89  S   UNL A   1      39.102  36.838  40.376  1.00  0.00     0.124 S 
ATOM     90  O   UNL A   1      38.156  36.077  41.185  1.00  0.00    -0.237 OA
ATOM     91  O   UNL A   1      40.430  37.016  40.953  1.00  0.00    -0.237 OA
ATOM     92  O   UNL A   1      38.555  38.016  39.708  1.00  0.00    -0.744 OA
ENDBRANCH  88  89
ENDBRANCH  56  81
ENDBRANCH  30  31
ENDBRANCH  23  25
ENDBRANCH  22  23
ENDBRANCH  21  22
ENDBRANCH   1  21
TORSDOF 17
ENDMDL
MODEL 3
REMARK VINA RESULT:      -9.7      4.976     11.889
REMARK SMILES CCc1cccc(-c2ccc([C@@H](C)C(=O)OCCOC(=O)c3ccc(-c4c5nc(c(-c6c(F)cc(S(=O)(=O)[O-])cc6F)c6ccc([nH]6)c(-c6c(F)cc(S(=O)(=O)[O-])cc6F)c6nc(c(-c7c(F)cc(S(=O)(=O)[O-])cc7F)c7ccc4[nH]7)C=C6)C=C5)cc3)cc2)c1
REMARK SMILES IDX 17 1 16 2 14 3 15 4 12 5 13 6 11 7 8 8 9 9 89 10 10 11 88 12
REMARK SMILES IDX 7 13 3 14 4 15 90 16 5 17 6 18 2 19 1 20 18 21 19 22 20 23
REMARK SMILES IDX 21 24 22 25 23 26 87 27 24 28 86 29 25 30 26 31 27 32 80 33
REMARK SMILES IDX 28 34 85 35 79 36 81 37 29 38 84 39 78 40 77 41 30 43 64 44
REMARK SMILES IDX 43 45 63 46 44 47 47 48 62 49 82 50 45 51 46 52 61 54 83 55
REMARK SMILES IDX 48 56 31 57 32 58 41 59 33 60 34 61 40 62 42 63 35 64 36 65
REMARK SMILES IDX 37 66 38 67 39 68 65 69 66 70 75 71 67 72 68 73 74 74 76 75
REMARK SMILES IDX 69 76 70 77 71 78 72 79 73 80 49 81 50 82 59 83 51 84 52 85
REMARK SMILES IDX 58 86 60 87 53 88 54 89 55 90 56 91 57 92
REMARK H PARENT 81 42 47 53
REMARK Flexibility Score: inf
ROOT
ATOM      1  C   UNL A   1      43.907  22.644  25.149  1.00  0.00     0.274 C 
ENDROOT
BRANCH   1   2
ATOM      2  O   UNL A   1      42.591  22.071  25.028  1.00  0.00    -0.462 OA
BRANCH   2   3
ATOM      3  C   UNL A   1      42.028  21.591  26.170  1.00  0.00     0.313 C 
ATOM      4  O   UNL A   1      42.218  20.460  26.607  1.00  0.00    -0.252 OA
BRANCH   3   5
ATOM      5  C   UNL A   1      41.069  22.567  26.841  1.00  0.00     0.126 C 
ATOM      6  C   UNL A   1      41.130  22.386  28.357  1.00  0.00     0.025 C 
BRANCH   5   7
ATOM      7  C   UNL A   1      39.642  22.575  26.312  1.00  0.00    -0.034 A 
ATOM      8  C   UNL A   1      36.999  22.551  25.256  1.00  0.00    -0.018 A 
ATOM      9  C   UNL A   1      37.538  23.707  25.840  1.00  0.00     0.009 A 
ATOM     10  C   UNL A   1      37.800  21.402  25.225  1.00  0.00     0.009 A 
ATOM     11  C   UNL A   1      38.839  23.722  26.358  1.00  0.00     0.005 A 
ATOM     12  C   UNL A   1      39.101  21.415  25.737  1.00  0.00     0.005 A 
BRANCH   8  13
ATOM     13  C   UNL A   1      35.652  22.556  24.659  1.00  0.00    -0.018 A 
ATOM     14  C   UNL A   1      33.502  21.453  24.210  1.00  0.00    -0.048 A 
ATOM     15  C   UNL A   1      33.108  22.572  23.460  1.00  0.00     0.004 A 
ATOM     16  C   UNL A   1      34.777  21.461  24.803  1.00  0.00     0.012 A 
ATOM     17  C   UNL A   1      33.957  23.665  23.307  1.00  0.00     0.001 A 
ATOM     18  C   UNL A   1      35.217  23.655  23.901  1.00  0.00     0.009 A 
BRANCH  14  19
ATOM     19  C   UNL A   1      32.533  20.297  24.314  1.00  0.00     0.032 C 
ATOM     20  C   UNL A   1      32.922  19.140  25.225  1.00  0.00     0.009 C 
ENDBRANCH  14  19
ENDBRANCH   8  13
ENDBRANCH   5   7
ENDBRANCH   3   5
ENDBRANCH   2   3
ENDBRANCH   1   2
BRANCH   1  21
ATOM     21  C   UNL A   1      43.885  24.142  24.844  1.00  0.00     0.275 C 
BRANCH  21  22
ATOM     22  O   UNL A   1      43.599  24.904  26.030  1.00  0.00    -0.458 OA
BRANCH  22  23
ATOM     23  C   UNL A   1      42.547  25.750  25.930  1.00  0.00     0.338 C 
ATOM     24  O   UNL A   1      41.745  25.832  25.018  1.00  0.00    -0.246 OA
BRANCH  23  25
ATOM     25  C   UNL A   1      42.427  26.526  27.172  1.00  0.00     0.060 A 
ATOM     26  C   UNL A   1      41.503  26.097  28.125  1.00  0.00     0.016 A 
ATOM     27  C   UNL A   1      43.140  27.710  27.358  1.00  0.00     0.016 A 
ATOM     28  C   UNL A   1      41.269  26.861  29.264  1.00  0.00     0.010 A 
ATOM     29  C   UNL A   1      42.916  28.470  28.513  1.00  0.00     0.010 A 
ATOM     30  C   UNL A   1      41.966  28.059  29.464  1.00  0.00    -0.014 A 
BRANCH  30  31
ATOM     31  C   UNL A   1      41.656  28.889  30.653  1.00  0.00     0.031 A 
ATOM     32  C   UNL A   1      40.483  29.830  30.629  1.00  0.00     0.074 A 
ATOM     33  C   UNL A   1      42.392  28.754  31.773  1.00  0.00     0.049 A 
ATOM     34  N   UNL A   1      40.067  30.656  31.554  1.00  0.00    -0.248 NA
ATOM     35  C   UNL A   1      39.669  29.843  29.403  1.00  0.00     0.031 C 
ATOM     36  C   UNL A   1      43.530  27.845  31.930  1.00  0.00     0.029 A 
ATOM     37  N   UNL A   1      42.290  29.372  32.993  1.00  0.00    -0.354 N 
ATOM     38  C   UNL A   1      38.948  31.289  31.026  1.00  0.00     0.074 A 
ATOM     39  C   UNL A   1      38.764  30.769  29.687  1.00  0.00     0.031 C 
ATOM     40  C   UNL A   1      44.012  27.958  33.179  1.00  0.00     0.029 A 
ATOM     41  C   UNL A   1      43.244  28.971  33.896  1.00  0.00     0.049 A 
ATOM     42  H   UNL A   1      41.597  30.040  33.201  1.00  0.00     0.167 HD
ATOM     43  C   UNL A   1      38.145  32.210  31.607  1.00  0.00     0.037 A 
ATOM     44  C   UNL A   1      43.482  29.387  35.156  1.00  0.00     0.037 A 
ATOM     45  C   UNL A   1      38.326  32.719  32.942  1.00  0.00     0.049 A 
ATOM     46  C   UNL A   1      42.601  30.446  35.759  1.00  0.00     0.074 A 
ATOM     47  C   UNL A   1      37.579  33.675  33.611  1.00  0.00     0.029 A 
ATOM     48  N   UNL A   1      39.319  32.308  33.818  1.00  0.00    -0.354 N 
ATOM     49  N   UNL A   1      41.564  31.055  35.233  1.00  0.00    -0.248 NA
ATOM     50  C   UNL A   1      42.925  30.880  37.126  1.00  0.00     0.031 C 
ATOM     51  C   UNL A   1      38.134  33.857  34.882  1.00  0.00     0.029 A 
ATOM     52  C   UNL A   1      39.207  32.992  35.017  1.00  0.00     0.049 A 
ATOM     53  H   UNL A   1      40.004  31.630  33.616  1.00  0.00     0.167 HD
ATOM     54  C   UNL A   1      41.103  31.930  36.211  1.00  0.00     0.074 A 
ATOM     55  C   UNL A   1      41.961  31.758  37.365  1.00  0.00     0.031 C 
ATOM     56  C   UNL A   1      40.067  32.802  36.157  1.00  0.00     0.037 A 
BRANCH  43  57
ATOM     57  C   UNL A   1      36.994  32.740  30.800  1.00  0.00     0.058 A 
ATOM     58  C   UNL A   1      35.686  32.267  30.992  1.00  0.00     0.135 A 
ATOM     59  C   UNL A   1      37.189  33.768  29.864  1.00  0.00     0.135 A 
ATOM     60  F   UNL A   1      35.449  31.272  31.861  1.00  0.00    -0.206 F 
ATOM     61  C   UNL A   1      34.613  32.788  30.277  1.00  0.00     0.059 A 
ATOM     62  C   UNL A   1      36.128  34.318  29.151  1.00  0.00     0.059 A 
ATOM     63  F   UNL A   1      38.421  34.254  29.641  1.00  0.00    -0.206 F 
ATOM     64  C   UNL A   1      34.844  33.815  29.359  1.00  0.00     0.060 A 
BRANCH  64  65
ATOM     65  S   UNL A   1      33.439  34.498  28.455  1.00  0.00     0.124 S 
ATOM     66  O   UNL A   1      33.010  33.346  27.668  1.00  0.00    -0.237 OA
ATOM     67  O   UNL A   1      32.538  34.901  29.531  1.00  0.00    -0.237 OA
ATOM     68  O   UNL A   1      34.026  35.595  27.691  1.00  0.00    -0.744 OA
ENDBRANCH  64  65
ENDBRANCH  43  57
BRANCH  44  69
ATOM     69  C   UNL A   1      44.620  28.822  35.930  1.00  0.00     0.058 A 
ATOM     70  C   UNL A   1      45.905  29.373  35.833  1.00  0.00     0.135 A 
ATOM     71  C   UNL A   1      44.447  27.701  36.755  1.00  0.00     0.135 A 
ATOM     72  F   UNL A   1      46.121  30.441  35.050  1.00  0.00    -0.206 F 
ATOM     73  C   UNL A   1      46.988  28.815  36.506  1.00  0.00     0.059 A 
ATOM     74  C   UNL A   1      45.508  27.141  37.456  1.00  0.00     0.059 A 
ATOM     75  F   UNL A   1      43.232  27.146  36.890  1.00  0.00    -0.206 F 
ATOM     76  C   UNL A   1      46.780  27.694  37.310  1.00  0.00     0.060 A 
BRANCH  76  77
ATOM     77  S   UNL A   1      48.182  26.977  38.195  1.00  0.00     0.124 S 
ATOM     78  O   UNL A   1      47.564  25.818  38.831  1.00  0.00    -0.237 OA
ATOM     79  O   UNL A   1      49.119  26.688  37.114  1.00  0.00    -0.237 OA
ATOM     80  O   UNL A   1      48.590  28.052  39.096  1.00  0.00    -0.744 OA
ENDBRANCH  76  77
ENDBRANCH  44  69
BRANCH  56  81
ATOM     81  C   UNL A   1      39.793  33.613  37.391  1.00  0.00     0.058 A 
ATOM     82  C   UNL A   1      38.883  33.179  38.366  1.00  0.00     0.135 A 
ATOM     83  C   UNL A   1      40.460  34.829  37.607  1.00  0.00     0.135 A 
ATOM     84  F   UNL A   1      38.216  32.025  38.202  1.00  0.00    -0.206 F 
ATOM     85  C   UNL A   1      38.620  33.937  39.502  1.00  0.00     0.059 A 
ATOM     86  C   UNL A   1      40.227  35.594  38.745  1.00  0.00     0.059 A 
ATOM     87  F   UNL A   1      41.348  35.283  36.708  1.00  0.00    -0.206 F 
ATOM     88  C   UNL A   1      39.293  35.147  39.680  1.00  0.00     0.060 A 
BRANCH  88  89
ATOM     89  S   UNL A   1      38.955  36.122  41.161  1.00  0.00     0.124 S 
ATOM     90  O   UNL A   1      40.212  35.994  41.889  1.00  0.00    -0.237 OA
ATOM     91  O   UNL A   1      38.672  37.445  40.613  1.00  0.00    -0.237 OA
ATOM     92  O   UNL A   1      37.809  35.442  41.758  1.00  0.00    -0.744 OA
ENDBRANCH  88  89
ENDBRANCH  56  81
ENDBRANCH  30  31
ENDBRANCH  23  25
ENDBRANCH  22  23
ENDBRANCH  21  22
ENDBRANCH   1  21
TORSDOF 17
ENDMDL
