MODEL 1
REMARK VINA RESULT:     -11.4      0.000      0.000
REMARK SMILES CC1=C[C@@H](CNS(=O)(=O)c2cccs2)[C@H](C(C)C)C[C@H]1CC(=O)OCCOC(=O)c1ccc(-c2c3nc(c(-c4c(F)cc(S(=O)(=O)[O-])cc4F)c4ccc([nH]4)c(-c4c(F)cc(S(=O)(=O)[O-])cc4F)c4nc(c(-c5c(F)cc(S(=O)(=O)[O-])cc5F)c5ccc2[nH]5)C=C4)C=C3)cc1
REMARK SMILES IDX 25 1 24 2 22 3 23 4 21 5 20 6 1 7 2 8 3 9 4 10 19 11 15 12
REMARK SMILES IDX 5 13 6 14 7 16 8 17 9 18 10 19 11 20 14 21 12 22 13 23 16 24
REMARK SMILES IDX 17 25 18 26 26 27 27 28 28 29 29 30 30 31 31 32 95 33 32 34
REMARK SMILES IDX 94 35 33 36 34 37 35 38 88 39 36 40 93 41 87 42 89 43 37 44
REMARK SMILES IDX 92 45 86 46 85 47 38 49 72 50 51 51 71 52 52 53 55 54 70 55
REMARK SMILES IDX 90 56 53 57 54 58 69 60 91 61 56 62 39 63 40 64 49 65 41 66
REMARK SMILES IDX 42 67 48 68 50 69 43 70 44 71 45 72 46 73 47 74 73 75 74 76
REMARK SMILES IDX 83 77 75 78 76 79 82 80 84 81 77 82 78 83 79 84 80 85 81 86
REMARK SMILES IDX 57 87 58 88 67 89 59 90 60 91 66 92 68 93 61 94 62 95 63 96
REMARK SMILES IDX 64 97 65 98
REMARK H PARENT 6 15 89 48 55 59
REMARK Flexibility Score: inf
ROOT
ATOM      1  C   UNL A   1      33.594  29.979  27.048  1.00  0.00     0.274 C 
ENDROOT
BRANCH   1   2
ATOM      2  O   UNL A   1      33.667  28.571  27.334  1.00  0.00    -0.462 OA
BRANCH   2   3
ATOM      3  C   UNL A   1      32.579  27.811  27.077  1.00  0.00     0.306 C 
ATOM      4  O   UNL A   1      31.549  27.828  27.740  1.00  0.00    -0.252 OA
BRANCH   3   5
ATOM      5  C   UNL A   1      32.797  26.853  25.925  1.00  0.00     0.130 C 
BRANCH   5   6
ATOM      6  C   UNL A   1      32.583  25.344  26.212  1.00  0.00     0.026 C 
ATOM      7  C   UNL A   1      29.979  25.264  26.092  1.00  0.00     0.039 C 
ATOM      8  C   UNL A   1      31.309  24.781  25.583  1.00  0.00    -0.073 C 
ATOM      9  C   UNL A   1      31.323  23.805  24.659  1.00  0.00    -0.023 C 
ATOM     10  C   UNL A   1      32.566  23.111  24.181  1.00  0.00     0.030 C 
ATOM     11  C   UNL A   1      33.870  24.579  25.765  1.00  0.00     0.013 C 
ATOM     12  C   UNL A   1      33.644  23.116  25.307  1.00  0.00     0.000 C 
BRANCH  10  13
ATOM     13  C   UNL A   1      33.106  23.714  22.861  1.00  0.00     0.107 C 
BRANCH  13  14
ATOM     14  N   UNL A   1      32.043  24.390  22.088  1.00  0.00    -0.210 NA
ATOM     15  H   UNL A   1      31.230  24.480  22.697  1.00  0.00     0.141 HD
BRANCH  14  16
ATOM     16  S   UNL A   1      32.391  25.927  21.479  1.00  0.00     0.250 S 
ATOM     17  O   UNL A   1      33.791  26.182  21.745  1.00  0.00    -0.206 OA
ATOM     18  O   UNL A   1      31.865  25.941  20.132  1.00  0.00    -0.206 OA
BRANCH  16  19
ATOM     19  C   UNL A   1      31.509  27.156  22.430  1.00  0.00     0.134 A 
ATOM     20  C   UNL A   1      30.278  27.135  23.063  1.00  0.00     0.033 A 
ATOM     21  S   UNL A   1      32.312  28.644  22.712  1.00  0.00    -0.131 S 
ATOM     22  C   UNL A   1      29.983  28.350  23.747  1.00  0.00     0.013 A 
ATOM     23  C   UNL A   1      31.017  29.252  23.650  1.00  0.00     0.066 A 
ENDBRANCH  16  19
ENDBRANCH  14  16
ENDBRANCH  13  14
ENDBRANCH  10  13
BRANCH  12  24
ATOM     24  C   UNL A   1      33.323  22.171  26.515  1.00  0.00    -0.014 C 
ATOM     25  C   UNL A   1      33.364  20.684  26.136  1.00  0.00     0.007 C 
ATOM     26  C   UNL A   1      34.307  22.391  27.676  1.00  0.00     0.007 C 
ENDBRANCH  12  24
ENDBRANCH   5   6
ENDBRANCH   3   5
ENDBRANCH   2   3
ENDBRANCH   1   2
BRANCH   1  27
ATOM     27  C   UNL A   1      34.545  30.763  27.952  1.00  0.00     0.275 C 
BRANCH  27  28
ATOM     28  O   UNL A   1      35.491  29.878  28.571  1.00  0.00    -0.458 OA
BRANCH  28  29
ATOM     29  C   UNL A   1      36.344  30.454  29.449  1.00  0.00     0.338 C 
ATOM     30  O   UNL A   1      36.064  31.162  30.401  1.00  0.00    -0.246 OA
BRANCH  29  31
ATOM     31  C   UNL A   1      37.702  29.980  29.156  1.00  0.00     0.060 A 
ATOM     32  C   UNL A   1      38.593  29.794  30.217  1.00  0.00     0.016 A 
ATOM     33  C   UNL A   1      38.096  29.740  27.838  1.00  0.00     0.016 A 
ATOM     34  C   UNL A   1      39.887  29.350  29.965  1.00  0.00     0.010 A 
ATOM     35  C   UNL A   1      39.395  29.296  27.588  1.00  0.00     0.010 A 
ATOM     36  C   UNL A   1      40.298  29.103  28.647  1.00  0.00    -0.014 A 
BRANCH  36  37
ATOM     37  C   UNL A   1      41.688  28.680  28.365  1.00  0.00     0.031 A 
ATOM     38  C   UNL A   1      42.784  29.706  28.353  1.00  0.00     0.074 A 
ATOM     39  C   UNL A   1      41.954  27.388  28.105  1.00  0.00     0.049 A 
ATOM     40  N   UNL A   1      44.044  29.566  28.038  1.00  0.00    -0.248 NA
ATOM     41  C   UNL A   1      42.406  31.074  28.742  1.00  0.00     0.031 C 
ATOM     42  C   UNL A   1      40.969  26.305  28.116  1.00  0.00     0.029 A 
ATOM     43  N   UNL A   1      43.130  26.768  27.768  1.00  0.00    -0.354 N 
ATOM     44  C   UNL A   1      44.610  30.826  28.175  1.00  0.00     0.074 A 
ATOM     45  C   UNL A   1      43.549  31.725  28.578  1.00  0.00     0.031 C 
ATOM     46  C   UNL A   1      41.582  25.154  27.793  1.00  0.00     0.029 A 
ATOM     47  C   UNL A   1      42.989  25.425  27.512  1.00  0.00     0.049 A 
ATOM     48  H   UNL A   1      43.992  27.241  27.713  1.00  0.00     0.167 HD
ATOM     49  C   UNL A   1      45.899  31.197  27.984  1.00  0.00     0.037 A 
ATOM     50  C   UNL A   1      43.890  24.523  27.074  1.00  0.00     0.037 A 
ATOM     51  C   UNL A   1      46.943  30.290  27.581  1.00  0.00     0.049 A 
ATOM     52  C   UNL A   1      45.304  24.969  26.817  1.00  0.00     0.074 A 
ATOM     53  C   UNL A   1      48.285  30.558  27.376  1.00  0.00     0.029 A 
ATOM     54  N   UNL A   1      46.761  28.940  27.316  1.00  0.00    -0.354 N 
ATOM     55  N   UNL A   1      45.831  26.163  26.961  1.00  0.00    -0.248 NA
ATOM     56  C   UNL A   1      46.244  23.951  26.332  1.00  0.00     0.031 C 
ATOM     57  C   UNL A   1      48.905  29.381  26.944  1.00  0.00     0.029 A 
ATOM     58  C   UNL A   1      47.960  28.366  26.928  1.00  0.00     0.049 A 
ATOM     59  H   UNL A   1      45.905  28.461  27.394  1.00  0.00     0.167 HD
ATOM     60  C   UNL A   1      47.170  26.033  26.608  1.00  0.00     0.074 A 
ATOM     61  C   UNL A   1      47.373  24.643  26.252  1.00  0.00     0.031 C 
ATOM     62  C   UNL A   1      48.142  26.979  26.580  1.00  0.00     0.037 A 
BRANCH  49  63
ATOM     63  C   UNL A   1      46.239  32.649  28.179  1.00  0.00     0.058 A 
ATOM     64  C   UNL A   1      46.147  33.578  27.130  1.00  0.00     0.135 A 
ATOM     65  C   UNL A   1      46.648  33.121  29.436  1.00  0.00     0.135 A 
ATOM     66  F   UNL A   1      45.777  33.177  25.903  1.00  0.00    -0.206 F 
ATOM     67  C   UNL A   1      46.480  34.915  27.312  1.00  0.00     0.059 A 
ATOM     68  C   UNL A   1      46.962  34.460  29.648  1.00  0.00     0.059 A 
ATOM     69  F   UNL A   1      46.756  32.276  30.474  1.00  0.00    -0.206 F 
ATOM     70  C   UNL A   1      46.892  35.347  28.575  1.00  0.00     0.060 A 
BRANCH  70  71
ATOM     71  S   UNL A   1      47.335  37.084  28.793  1.00  0.00     0.124 S 
ATOM     72  O   UNL A   1      47.971  37.058  30.106  1.00  0.00    -0.237 OA
ATOM     73  O   UNL A   1      48.228  37.322  27.662  1.00  0.00    -0.237 OA
ATOM     74  O   UNL A   1      46.051  37.773  28.730  1.00  0.00    -0.744 OA
ENDBRANCH  70  71
ENDBRANCH  49  63
BRANCH  50  75
ATOM     75  C   UNL A   1      43.475  23.114  26.845  1.00  0.00     0.058 A 
ATOM     76  C   UNL A   1      43.353  22.598  25.546  1.00  0.00     0.135 A 
ATOM     77  C   UNL A   1      43.212  22.248  27.918  1.00  0.00     0.135 A 
ATOM     78  F   UNL A   1      43.584  23.388  24.487  1.00  0.00    -0.206 F 
ATOM     79  C   UNL A   1      42.979  21.277  25.319  1.00  0.00     0.059 A 
ATOM     80  C   UNL A   1      42.860  20.917  27.717  1.00  0.00     0.059 A 
ATOM     81  F   UNL A   1      43.324  22.690  29.181  1.00  0.00    -0.206 F 
ATOM     82  C   UNL A   1      42.739  20.443  26.412  1.00  0.00     0.060 A 
BRANCH  82  83
ATOM     83  S   UNL A   1      42.313  18.715  26.106  1.00  0.00     0.124 S 
ATOM     84  O   UNL A   1      40.920  18.825  25.691  1.00  0.00    -0.237 OA
ATOM     85  O   UNL A   1      43.264  18.344  25.062  1.00  0.00    -0.237 OA
ATOM     86  O   UNL A   1      42.538  18.080  27.402  1.00  0.00    -0.744 OA
ENDBRANCH  82  83
ENDBRANCH  50  75
BRANCH  62  87
ATOM     87  C   UNL A   1      49.521  26.535  26.177  1.00  0.00     0.058 A 
ATOM     88  C   UNL A   1      50.007  26.728  24.874  1.00  0.00     0.135 A 
ATOM     89  C   UNL A   1      50.385  25.956  27.121  1.00  0.00     0.135 A 
ATOM     90  F   UNL A   1      49.218  27.270  23.932  1.00  0.00    -0.206 F 
ATOM     91  C   UNL A   1      51.295  26.343  24.516  1.00  0.00     0.059 A 
ATOM     92  C   UNL A   1      51.686  25.588  26.792  1.00  0.00     0.059 A 
ATOM     93  F   UNL A   1      49.973  25.760  28.384  1.00  0.00    -0.206 F 
ATOM     94  C   UNL A   1      52.127  25.775  25.483  1.00  0.00     0.060 A 
BRANCH  94  95
ATOM     95  S   UNL A   1      53.808  25.311  25.014  1.00  0.00     0.124 S 
ATOM     96  O   UNL A   1      53.970  26.026  23.753  1.00  0.00    -0.237 OA
ATOM     97  O   UNL A   1      54.596  25.815  26.135  1.00  0.00    -0.237 OA
ATOM     98  O   UNL A   1      53.741  23.856  24.908  1.00  0.00    -0.744 OA
ENDBRANCH  94  95
ENDBRANCH  62  87
ENDBRANCH  36  37
ENDBRANCH  29  31
ENDBRANCH  28  29
ENDBRANCH  27  28
ENDBRANCH   1  27
TORSDOF 20
ENDMDL
MODEL 2
REMARK VINA RESULT:     -11.1      6.710     12.155
REMARK SMILES CC1=C[C@@H](CNS(=O)(=O)c2cccs2)[C@H](C(C)C)C[C@H]1CC(=O)OCCOC(=O)c1ccc(-c2c3nc(c(-c4c(F)cc(S(=O)(=O)[O-])cc4F)c4ccc([nH]4)c(-c4c(F)cc(S(=O)(=O)[O-])cc4F)c4nc(c(-c5c(F)cc(S(=O)(=O)[O-])cc5F)c5ccc2[nH]5)C=C4)C=C3)cc1
REMARK SMILES IDX 25 1 24 2 22 3 23 4 21 5 20 6 1 7 2 8 3 9 4 10 19 11 15 12
REMARK SMILES IDX 5 13 6 14 7 16 8 17 9 18 10 19 11 20 14 21 12 22 13 23 16 24
REMARK SMILES IDX 17 25 18 26 26 27 27 28 28 29 29 30 30 31 31 32 95 33 32 34
REMARK SMILES IDX 94 35 33 36 34 37 35 38 88 39 36 40 93 41 87 42 89 43 37 44
REMARK SMILES IDX 92 45 86 46 85 47 38 49 72 50 51 51 71 52 52 53 55 54 70 55
REMARK SMILES IDX 90 56 53 57 54 58 69 60 91 61 56 62 39 63 40 64 49 65 41 66
REMARK SMILES IDX 42 67 48 68 50 69 43 70 44 71 45 72 46 73 47 74 73 75 74 76
REMARK SMILES IDX 83 77 75 78 76 79 82 80 84 81 77 82 78 83 79 84 80 85 81 86
REMARK SMILES IDX 57 87 58 88 67 89 59 90 60 91 66 92 68 93 61 94 62 95 63 96
REMARK SMILES IDX 64 97 65 98
REMARK H PARENT 6 15 89 48 55 59
REMARK Flexibility Score: inf
ROOT
ATOM      1  C   UNL A   1      37.328  23.380  25.977  1.00  0.00     0.274 C 
ENDROOT
BRANCH   1   2
ATOM      2  O   UNL A   1      36.905  22.617  24.833  1.00  0.00    -0.462 OA
BRANCH   2   3
ATOM      3  C   UNL A   1      36.182  23.245  23.880  1.00  0.00     0.306 C 
ATOM      4  O   UNL A   1      36.547  23.401  22.721  1.00  0.00    -0.252 OA
BRANCH   3   5
ATOM      5  C   UNL A   1      34.893  23.831  24.419  1.00  0.00     0.130 C 
BRANCH   5   6
ATOM      6  C   UNL A   1      34.203  24.925  23.564  1.00  0.00     0.026 C 
ATOM      7  C   UNL A   1      33.287  23.427  21.636  1.00  0.00     0.039 C 
ATOM      8  C   UNL A   1      33.020  24.402  22.749  1.00  0.00    -0.073 C 
ATOM      9  C   UNL A   1      31.763  24.845  22.922  1.00  0.00    -0.023 C 
ATOM     10  C   UNL A   1      31.376  25.936  23.878  1.00  0.00     0.030 C 
ATOM     11  C   UNL A   1      33.813  26.104  24.511  1.00  0.00     0.013 C 
ATOM     12  C   UNL A   1      32.570  26.920  24.073  1.00  0.00     0.000 C 
BRANCH  10  13
ATOM     13  C   UNL A   1      30.859  25.381  25.228  1.00  0.00     0.107 C 
BRANCH  13  14
ATOM     14  N   UNL A   1      30.450  23.965  25.121  1.00  0.00    -0.210 NA
ATOM     15  H   UNL A   1      30.895  23.578  24.288  1.00  0.00     0.141 HD
BRANCH  14  16
ATOM     16  S   UNL A   1      30.832  22.951  26.416  1.00  0.00     0.250 S 
ATOM     17  O   UNL A   1      31.317  23.795  27.487  1.00  0.00    -0.206 OA
ATOM     18  O   UNL A   1      29.681  22.094  26.595  1.00  0.00    -0.206 OA
BRANCH  16  19
ATOM     19  C   UNL A   1      32.224  21.922  25.974  1.00  0.00     0.134 A 
ATOM     20  C   UNL A   1      33.380  21.576  26.653  1.00  0.00     0.033 A 
ATOM     21  S   UNL A   1      32.147  21.120  24.460  1.00  0.00    -0.131 S 
ATOM     22  C   UNL A   1      34.213  20.685  25.918  1.00  0.00     0.013 A 
ATOM     23  C   UNL A   1      33.650  20.342  24.711  1.00  0.00     0.066 A 
ENDBRANCH  16  19
ENDBRANCH  14  16
ENDBRANCH  13  14
ENDBRANCH  10  13
BRANCH  12  24
ATOM     24  C   UNL A   1      32.875  27.824  22.830  1.00  0.00    -0.014 C 
ATOM     25  C   UNL A   1      31.737  28.804  22.512  1.00  0.00     0.007 C 
ATOM     26  C   UNL A   1      34.161  28.641  23.033  1.00  0.00     0.007 C 
ENDBRANCH  12  24
ENDBRANCH   5   6
ENDBRANCH   3   5
ENDBRANCH   2   3
ENDBRANCH   1   2
BRANCH   1  27
ATOM     27  C   UNL A   1      38.834  23.239  26.194  1.00  0.00     0.275 C 
BRANCH  27  28
ATOM     28  O   UNL A   1      39.457  24.533  26.234  1.00  0.00    -0.458 OA
BRANCH  28  29
ATOM     29  C   UNL A   1      40.632  24.595  26.902  1.00  0.00     0.338 C 
ATOM     30  O   UNL A   1      41.654  23.973  26.668  1.00  0.00    -0.246 OA
BRANCH  29  31
ATOM     31  C   UNL A   1      40.537  25.658  27.911  1.00  0.00     0.060 A 
ATOM     32  C   UNL A   1      41.589  26.572  28.026  1.00  0.00     0.016 A 
ATOM     33  C   UNL A   1      39.422  25.739  28.747  1.00  0.00     0.016 A 
ATOM     34  C   UNL A   1      41.525  27.585  28.977  1.00  0.00     0.010 A 
ATOM     35  C   UNL A   1      39.360  26.755  29.701  1.00  0.00     0.010 A 
ATOM     36  C   UNL A   1      40.411  27.680  29.824  1.00  0.00    -0.014 A 
BRANCH  36  37
ATOM     37  C   UNL A   1      40.358  28.723  30.872  1.00  0.00     0.031 A 
ATOM     38  C   UNL A   1      41.261  28.617  32.067  1.00  0.00     0.074 A 
ATOM     39  C   UNL A   1      39.491  29.746  30.756  1.00  0.00     0.049 A 
ATOM     40  N   UNL A   1      41.307  29.365  33.137  1.00  0.00    -0.248 NA
ATOM     41  C   UNL A   1      42.236  27.516  32.056  1.00  0.00     0.031 C 
ATOM     42  C   UNL A   1      38.587  29.959  29.624  1.00  0.00     0.029 A 
ATOM     43  N   UNL A   1      39.219  30.788  31.604  1.00  0.00    -0.354 N 
ATOM     44  C   UNL A   1      42.304  28.820  33.936  1.00  0.00     0.074 A 
ATOM     45  C   UNL A   1      42.821  27.663  33.236  1.00  0.00     0.031 C 
ATOM     46  C   UNL A   1      37.855  31.062  29.852  1.00  0.00     0.029 A 
ATOM     47  C   UNL A   1      38.208  31.607  31.160  1.00  0.00     0.049 A 
ATOM     48  H   UNL A   1      39.702  30.935  32.449  1.00  0.00     0.167 HD
ATOM     49  C   UNL A   1      42.748  29.251  35.141  1.00  0.00     0.037 A 
ATOM     50  C   UNL A   1      37.616  32.660  31.758  1.00  0.00     0.037 A 
ATOM     51  C   UNL A   1      42.223  30.405  35.824  1.00  0.00     0.049 A 
ATOM     52  C   UNL A   1      38.090  33.088  33.121  1.00  0.00     0.074 A 
ATOM     53  C   UNL A   1      42.612  30.937  37.041  1.00  0.00     0.029 A 
ATOM     54  N   UNL A   1      41.188  31.201  35.353  1.00  0.00    -0.354 N 
ATOM     55  N   UNL A   1      39.043  32.572  33.861  1.00  0.00    -0.248 NA
ATOM     56  C   UNL A   1      37.407  34.235  33.732  1.00  0.00     0.031 C 
ATOM     57  C   UNL A   1      41.785  32.028  37.325  1.00  0.00     0.029 A 
ATOM     58  C   UNL A   1      40.911  32.207  36.263  1.00  0.00     0.049 A 
ATOM     59  H   UNL A   1      40.721  31.070  34.497  1.00  0.00     0.167 HD
ATOM     60  C   UNL A   1      39.089  33.346  35.016  1.00  0.00     0.074 A 
ATOM     61  C   UNL A   1      38.075  34.371  34.870  1.00  0.00     0.031 C 
ATOM     62  C   UNL A   1      39.897  33.219  36.098  1.00  0.00     0.037 A 
BRANCH  49  63
ATOM     63  C   UNL A   1      43.834  28.451  35.805  1.00  0.00     0.058 A 
ATOM     64  C   UNL A   1      45.194  28.723  35.587  1.00  0.00     0.135 A 
ATOM     65  C   UNL A   1      43.510  27.404  36.685  1.00  0.00     0.135 A 
ATOM     66  F   UNL A   1      45.560  29.702  34.744  1.00  0.00    -0.206 F 
ATOM     67  C   UNL A   1      46.193  27.967  36.191  1.00  0.00     0.059 A 
ATOM     68  C   UNL A   1      44.493  26.651  37.319  1.00  0.00     0.059 A 
ATOM     69  F   UNL A   1      42.226  27.098  36.927  1.00  0.00    -0.206 F 
ATOM     70  C   UNL A   1      45.833  26.929  37.052  1.00  0.00     0.060 A 
BRANCH  70  71
ATOM     71  S   UNL A   1      47.141  25.947  37.817  1.00  0.00     0.124 S 
ATOM     72  O   UNL A   1      47.258  26.586  39.123  1.00  0.00    -0.237 OA
ATOM     73  O   UNL A   1      46.564  24.605  37.818  1.00  0.00    -0.237 OA
ATOM     74  O   UNL A   1      48.276  26.136  36.921  1.00  0.00    -0.744 OA
ENDBRANCH  70  71
ENDBRANCH  49  63
BRANCH  50  75
ATOM     75  C   UNL A   1      36.507  33.373  31.071  1.00  0.00     0.058 A 
ATOM     76  C   UNL A   1      36.756  34.223  29.985  1.00  0.00     0.135 A 
ATOM     77  C   UNL A   1      35.172  33.201  31.473  1.00  0.00     0.135 A 
ATOM     78  F   UNL A   1      38.014  34.427  29.569  1.00  0.00    -0.206 F 
ATOM     79  C   UNL A   1      35.724  34.885  29.325  1.00  0.00     0.059 A 
ATOM     80  C   UNL A   1      34.122  33.833  30.815  1.00  0.00     0.059 A 
ATOM     81  F   UNL A   1      34.879  32.390  32.502  1.00  0.00    -0.206 F 
ATOM     82  C   UNL A   1      34.410  34.679  29.746  1.00  0.00     0.060 A 
BRANCH  82  83
ATOM     83  S   UNL A   1      33.074  35.495  28.844  1.00  0.00     0.124 S 
ATOM     84  O   UNL A   1      32.479  34.377  28.124  1.00  0.00    -0.237 OA
ATOM     85  O   UNL A   1      32.272  36.058  29.926  1.00  0.00    -0.237 OA
ATOM     86  O   UNL A   1      33.777  36.476  28.021  1.00  0.00    -0.744 OA
ENDBRANCH  82  83
ENDBRANCH  50  75
BRANCH  62  87
ATOM     87  C   UNL A   1      39.736  34.232  37.199  1.00  0.00     0.058 A 
ATOM     88  C   UNL A   1      38.988  33.954  38.353  1.00  0.00     0.135 A 
ATOM     89  C   UNL A   1      40.382  35.477  37.118  1.00  0.00     0.135 A 
ATOM     90  F   UNL A   1      38.345  32.782  38.475  1.00  0.00    -0.206 F 
ATOM     91  C   UNL A   1      38.868  34.884  39.381  1.00  0.00     0.059 A 
ATOM     92  C   UNL A   1      40.298  36.411  38.146  1.00  0.00     0.059 A 
ATOM     93  F   UNL A   1      41.119  35.788  36.040  1.00  0.00    -0.206 F 
ATOM     94  C   UNL A   1      39.528  36.109  39.268  1.00  0.00     0.060 A 
BRANCH  94  95
ATOM     95  S   UNL A   1      39.393  37.294  40.624  1.00  0.00     0.124 S 
ATOM     96  O   UNL A   1      38.883  36.453  41.701  1.00  0.00    -0.237 OA
ATOM     97  O   UNL A   1      40.770  37.754  40.777  1.00  0.00    -0.237 OA
ATOM     98  O   UNL A   1      38.460  38.293  40.110  1.00  0.00    -0.744 OA
ENDBRANCH  94  95
ENDBRANCH  62  87
ENDBRANCH  36  37
ENDBRANCH  29  31
ENDBRANCH  28  29
ENDBRANCH  27  28
ENDBRANCH   1  27
TORSDOF 20
ENDMDL
MODEL 3
REMARK VINA RESULT:     -10.9      6.729     12.047
REMARK SMILES CC1=C[C@@H](CNS(=O)(=O)c2cccs2)[C@H](C(C)C)C[C@H]1CC(=O)OCCOC(=O)c1ccc(-c2c3nc(c(-c4c(F)cc(S(=O)(=O)[O-])cc4F)c4ccc([nH]4)c(-c4c(F)cc(S(=O)(=O)[O-])cc4F)c4nc(c(-c5c(F)cc(S(=O)(=O)[O-])cc5F)c5ccc2[nH]5)C=C4)C=C3)cc1
REMARK SMILES IDX 25 1 24 2 22 3 23 4 21 5 20 6 1 7 2 8 3 9 4 10 19 11 15 12
REMARK SMILES IDX 5 13 6 14 7 16 8 17 9 18 10 19 11 20 14 21 12 22 13 23 16 24
REMARK SMILES IDX 17 25 18 26 26 27 27 28 28 29 29 30 30 31 31 32 95 33 32 34
REMARK SMILES IDX 94 35 33 36 34 37 35 38 88 39 36 40 93 41 87 42 89 43 37 44
REMARK SMILES IDX 92 45 86 46 85 47 38 49 72 50 51 51 71 52 52 53 55 54 70 55
REMARK SMILES IDX 90 56 53 57 54 58 69 60 91 61 56 62 39 63 40 64 49 65 41 66
REMARK SMILES IDX 42 67 48 68 50 69 43 70 44 71 45 72 46 73 47 74 73 75 74 76
REMARK SMILES IDX 83 77 75 78 76 79 82 80 84 81 77 82 78 83 79 84 80 85 81 86
REMARK SMILES IDX 57 87 58 88 67 89 59 90 60 91 66 92 68 93 61 94 62 95 63 96
REMARK SMILES IDX 64 97 65 98
REMARK H PARENT 6 15 89 48 55 59
REMARK Flexibility Score: inf
ROOT
ATOM      1  C   UNL A   1      37.838  22.463  25.931  1.00  0.00     0.274 C 
ENDROOT
BRANCH   1   2
ATOM      2  O   UNL A   1      37.664  22.009  24.577  1.00  0.00    -0.462 OA
BRANCH   2   3
ATOM      3  C   UNL A   1      36.669  22.557  23.845  1.00  0.00     0.306 C 
ATOM      4  O   UNL A   1      36.810  23.023  22.722  1.00  0.00    -0.252 OA
BRANCH   3   5
ATOM      5  C   UNL A   1      35.359  22.624  24.602  1.00  0.00     0.130 C 
BRANCH   5   6
ATOM      6  C   UNL A   1      34.126  23.168  23.835  1.00  0.00     0.026 C 
ATOM      7  C   UNL A   1      32.542  21.111  24.083  1.00  0.00     0.039 C 
ATOM      8  C   UNL A   1      32.801  22.573  24.314  1.00  0.00    -0.073 C 
ATOM      9  C   UNL A   1      31.820  23.319  24.849  1.00  0.00    -0.023 C 
ATOM     10  C   UNL A   1      31.872  24.814  24.984  1.00  0.00     0.030 C 
ATOM     11  C   UNL A   1      34.156  24.727  23.914  1.00  0.00     0.013 C 
ATOM     12  C   UNL A   1      32.770  25.419  23.861  1.00  0.00     0.000 C 
BRANCH  10  13
ATOM     13  C   UNL A   1      32.330  25.262  26.393  1.00  0.00     0.107 C 
BRANCH  13  14
ATOM     14  N   UNL A   1      33.050  26.552  26.356  1.00  0.00    -0.210 NA
ATOM     15  H   UNL A   1      33.432  26.664  25.417  1.00  0.00     0.141 HD
BRANCH  14  16
ATOM     16  S   UNL A   1      32.159  27.943  26.709  1.00  0.00     0.250 S 
ATOM     17  O   UNL A   1      31.543  28.378  25.473  1.00  0.00    -0.206 OA
ATOM     18  O   UNL A   1      31.364  27.613  27.871  1.00  0.00    -0.206 OA
BRANCH  16  19
ATOM     19  C   UNL A   1      33.274  29.265  27.158  1.00  0.00     0.134 A 
ATOM     20  C   UNL A   1      34.614  29.274  27.506  1.00  0.00     0.033 A 
ATOM     21  S   UNL A   1      32.652  30.861  27.099  1.00  0.00    -0.131 S 
ATOM     22  C   UNL A   1      35.116  30.583  27.756  1.00  0.00     0.013 A 
ATOM     23  C   UNL A   1      34.153  31.544  27.553  1.00  0.00     0.066 A 
ENDBRANCH  16  19
ENDBRANCH  14  16
ENDBRANCH  13  14
ENDBRANCH  10  13
BRANCH  12  24
ATOM     24  C   UNL A   1      32.143  25.356  22.426  1.00  0.00    -0.014 C 
ATOM     25  C   UNL A   1      30.852  26.178  22.303  1.00  0.00     0.007 C 
ATOM     26  C   UNL A   1      33.128  25.861  21.361  1.00  0.00     0.007 C 
ENDBRANCH  12  24
ENDBRANCH   5   6
ENDBRANCH   3   5
ENDBRANCH   2   3
ENDBRANCH   1   2
BRANCH   1  27
ATOM     27  C   UNL A   1      39.318  22.461  26.315  1.00  0.00     0.275 C 
BRANCH  27  28
ATOM     28  O   UNL A   1      39.585  23.486  27.285  1.00  0.00    -0.458 OA
BRANCH  28  29
ATOM     29  C   UNL A   1      40.370  24.503  26.860  1.00  0.00     0.338 C 
ATOM     30  O   UNL A   1      40.903  24.624  25.771  1.00  0.00    -0.246 OA
BRANCH  29  31
ATOM     31  C   UNL A   1      40.381  25.544  27.896  1.00  0.00     0.060 A 
ATOM     32  C   UNL A   1      39.277  25.658  28.746  1.00  0.00     0.016 A 
ATOM     33  C   UNL A   1      41.469  26.411  28.011  1.00  0.00     0.016 A 
ATOM     34  C   UNL A   1      39.261  26.640  29.732  1.00  0.00     0.010 A 
ATOM     35  C   UNL A   1      41.450  27.396  29.000  1.00  0.00     0.010 A 
ATOM     36  C   UNL A   1      40.347  27.518  29.861  1.00  0.00    -0.014 A 
BRANCH  36  37
ATOM     37  C   UNL A   1      40.316  28.597  30.873  1.00  0.00     0.031 A 
ATOM     38  C   UNL A   1      41.235  28.525  32.059  1.00  0.00     0.074 A 
ATOM     39  C   UNL A   1      39.455  29.622  30.734  1.00  0.00     0.049 A 
ATOM     40  N   UNL A   1      41.302  29.309  33.102  1.00  0.00    -0.248 NA
ATOM     41  C   UNL A   1      42.202  27.417  32.071  1.00  0.00     0.031 C 
ATOM     42  C   UNL A   1      38.537  29.804  29.609  1.00  0.00     0.029 A 
ATOM     43  N   UNL A   1      39.203  30.695  31.550  1.00  0.00    -0.354 N 
ATOM     44  C   UNL A   1      42.306  28.784  33.904  1.00  0.00     0.074 A 
ATOM     45  C   UNL A   1      42.805  27.599  33.238  1.00  0.00     0.031 C 
ATOM     46  C   UNL A   1      37.816  30.920  29.809  1.00  0.00     0.029 A 
ATOM     47  C   UNL A   1      38.191  31.506  31.093  1.00  0.00     0.049 A 
ATOM     48  H   UNL A   1      39.698  30.867  32.383  1.00  0.00     0.167 HD
ATOM     49  C   UNL A   1      42.770  29.253  35.088  1.00  0.00     0.037 A 
ATOM     50  C   UNL A   1      37.616  32.583  31.662  1.00  0.00     0.037 A 
ATOM     51  C   UNL A   1      42.263  30.433  35.738  1.00  0.00     0.049 A 
ATOM     52  C   UNL A   1      38.112  33.054  33.002  1.00  0.00     0.074 A 
ATOM     53  C   UNL A   1      42.674  31.004  36.930  1.00  0.00     0.029 A 
ATOM     54  N   UNL A   1      41.228  31.221  35.254  1.00  0.00    -0.354 N 
ATOM     55  N   UNL A   1      39.072  32.556  33.747  1.00  0.00    -0.248 NA
ATOM     56  C   UNL A   1      37.446  34.227  33.584  1.00  0.00     0.031 C 
ATOM     57  C   UNL A   1      41.858  32.110  37.189  1.00  0.00     0.029 A 
ATOM     58  C   UNL A   1      40.971  32.260  36.134  1.00  0.00     0.049 A 
ATOM     59  H   UNL A   1      40.747  31.064  34.410  1.00  0.00     0.167 HD
ATOM     60  C   UNL A   1      39.140  33.369  34.874  1.00  0.00     0.074 A 
ATOM     61  C   UNL A   1      38.131  34.396  34.707  1.00  0.00     0.031 C 
ATOM     62  C   UNL A   1      39.962  33.273  35.948  1.00  0.00     0.037 A 
BRANCH  49  63
ATOM     63  C   UNL A   1      43.860  28.467  35.764  1.00  0.00     0.058 A 
ATOM     64  C   UNL A   1      45.218  28.720  35.517  1.00  0.00     0.135 A 
ATOM     65  C   UNL A   1      43.541  27.454  36.684  1.00  0.00     0.135 A 
ATOM     66  F   UNL A   1      45.580  29.665  34.634  1.00  0.00    -0.206 F 
ATOM     67  C   UNL A   1      46.220  27.978  36.132  1.00  0.00     0.059 A 
ATOM     68  C   UNL A   1      44.527  26.716  37.330  1.00  0.00     0.059 A 
ATOM     69  F   UNL A   1      42.258  27.168  36.956  1.00  0.00    -0.206 F 
ATOM     70  C   UNL A   1      45.865  26.973  37.035  1.00  0.00     0.060 A 
BRANCH  70  71
ATOM     71  S   UNL A   1      47.176  26.007  37.814  1.00  0.00     0.124 S 
ATOM     72  O   UNL A   1      48.103  25.826  36.702  1.00  0.00    -0.237 OA
ATOM     73  O   UNL A   1      47.630  26.899  38.878  1.00  0.00    -0.237 OA
ATOM     74  O   UNL A   1      46.489  24.801  38.262  1.00  0.00    -0.744 OA
ENDBRANCH  70  71
ENDBRANCH  49  63
BRANCH  50  75
ATOM     75  C   UNL A   1      36.502  33.281  30.967  1.00  0.00     0.058 A 
ATOM     76  C   UNL A   1      35.188  33.207  31.451  1.00  0.00     0.135 A 
ATOM     77  C   UNL A   1      36.731  34.054  29.818  1.00  0.00     0.135 A 
ATOM     78  F   UNL A   1      34.916  32.473  32.540  1.00  0.00    -0.206 F 
ATOM     79  C   UNL A   1      34.139  33.866  30.817  1.00  0.00     0.059 A 
ATOM     80  C   UNL A   1      35.704  34.742  29.180  1.00  0.00     0.059 A 
ATOM     81  F   UNL A   1      37.973  34.166  29.319  1.00  0.00    -0.206 F 
ATOM     82  C   UNL A   1      34.409  34.636  29.685  1.00  0.00     0.060 A 
BRANCH  82  83
ATOM     83  S   UNL A   1      33.051  35.536  28.906  1.00  0.00     0.124 S 
ATOM     84  O   UNL A   1      32.464  34.507  28.057  1.00  0.00    -0.237 OA
ATOM     85  O   UNL A   1      32.253  35.946  30.058  1.00  0.00    -0.237 OA
ATOM     86  O   UNL A   1      33.728  36.623  28.205  1.00  0.00    -0.744 OA
ENDBRANCH  82  83
ENDBRANCH  50  75
BRANCH  62  87
ATOM     87  C   UNL A   1      39.825  34.324  37.015  1.00  0.00     0.058 A 
ATOM     88  C   UNL A   1      39.075  34.099  38.180  1.00  0.00     0.135 A 
ATOM     89  C   UNL A   1      40.494  35.553  36.892  1.00  0.00     0.135 A 
ATOM     90  F   UNL A   1      38.409  32.944  38.342  1.00  0.00    -0.206 F 
ATOM     91  C   UNL A   1      38.976  35.064  39.177  1.00  0.00     0.059 A 
ATOM     92  C   UNL A   1      40.432  36.521  37.889  1.00  0.00     0.059 A 
ATOM     93  F   UNL A   1      41.234  35.814  35.803  1.00  0.00    -0.206 F 
ATOM     94  C   UNL A   1      39.660  36.272  39.023  1.00  0.00     0.060 A 
BRANCH  94  95
ATOM     95  S   UNL A   1      39.552  37.503  40.339  1.00  0.00     0.124 S 
ATOM     96  O   UNL A   1      40.957  37.694  40.679  1.00  0.00    -0.237 OA
ATOM     97  O   UNL A   1      38.904  38.625  39.667  1.00  0.00    -0.237 OA
ATOM     98  O   UNL A   1      38.743  36.840  41.358  1.00  0.00    -0.744 OA
ENDBRANCH  94  95
ENDBRANCH  62  87
ENDBRANCH  36  37
ENDBRANCH  29  31
ENDBRANCH  28  29
ENDBRANCH  27  28
ENDBRANCH   1  27
TORSDOF 20
ENDMDL
