MODEL 1
REMARK VINA RESULT:      -9.4      0.000      0.000
REMARK SMILES Cc1ccc(C)c(OCc2ccc(C(=O)OCCOC(=O)c3ccc(-c4c5nc(c(-c6c(F)cc(S(=O)(=O)[O-])cc6F)c6ccc([nH]6)c(-c6c(F)cc(S(=O)(=O)[O-])cc6F)c6nc(c(-c7c(F)cc(S(=O)(=O)[O-])cc7F)c7ccc4[nH]7)C=C6)C=C5)cc3)cc2)c1C
REMARK SMILES IDX 17 1 16 2 14 3 15 4 13 5 10 6 11 7 89 8 12 9 88 10 9 11 8 12
REMARK SMILES IDX 7 13 1 14 2 15 3 16 90 17 4 18 91 19 5 20 6 21 18 22 19 23
REMARK SMILES IDX 20 24 21 25 22 26 23 27 87 28 24 29 86 30 25 31 26 32 27 33
REMARK SMILES IDX 80 34 28 35 85 36 79 37 81 38 29 39 84 40 78 41 77 42 30 44
REMARK SMILES IDX 64 45 43 46 63 47 44 48 47 49 62 50 82 51 45 52 46 53 61 55
REMARK SMILES IDX 83 56 48 57 31 58 32 59 41 60 33 61 34 62 40 63 42 64 35 65
REMARK SMILES IDX 36 66 37 67 38 68 39 69 65 70 66 71 75 72 67 73 68 74 74 75
REMARK SMILES IDX 76 76 69 77 70 78 71 79 72 80 73 81 49 82 50 83 59 84 51 85
REMARK SMILES IDX 52 86 58 87 60 88 53 89 54 90 55 91 56 92 57 93
REMARK H PARENT 81 43 47 54
REMARK Flexibility Score: inf
ROOT
ATOM      1  C   UNL A   1      40.987  19.919  26.156  1.00  0.00     0.275 C 
ENDROOT
BRANCH   1   2
ATOM      2  O   UNL A   1      42.071  20.713  26.675  1.00  0.00    -0.458 OA
BRANCH   2   3
ATOM      3  C   UNL A   1      43.105  20.871  25.820  1.00  0.00     0.338 C 
ATOM      4  O   UNL A   1      43.552  20.050  25.035  1.00  0.00    -0.246 OA
BRANCH   3   5
ATOM      5  C   UNL A   1      43.661  22.225  25.922  1.00  0.00     0.060 A 
ATOM      6  C   UNL A   1      45.015  24.547  26.710  1.00  0.00    -0.011 A 
ATOM      7  C   UNL A   1      45.632  23.616  25.867  1.00  0.00     0.008 A 
ATOM      8  C   UNL A   1      43.661  24.348  27.050  1.00  0.00     0.008 A 
ATOM      9  C   UNL A   1      44.962  22.456  25.480  1.00  0.00     0.016 A 
ATOM     10  C   UNL A   1      42.986  23.188  26.668  1.00  0.00     0.016 A 
BRANCH   6  11
ATOM     11  C   UNL A   1      45.752  25.704  27.366  1.00  0.00     0.265 C 
BRANCH  11  12
ATOM     12  O   UNL A   1      45.808  26.962  26.702  1.00  0.00    -0.488 OA
BRANCH  12  13
ATOM     13  C   UNL A   1      44.895  27.969  26.883  1.00  0.00     0.125 A 
ATOM     14  C   UNL A   1      44.786  30.888  29.405  1.00  0.00     0.045 C 
ATOM     15  C   UNL A   1      44.425  29.917  28.313  1.00  0.00    -0.044 A 
ATOM     16  C   UNL A   1      43.185  30.045  27.687  1.00  0.00     0.004 A 
ATOM     17  C   UNL A   1      45.298  28.888  27.896  1.00  0.00    -0.006 A 
ATOM     18  C   UNL A   1      42.822  29.186  26.651  1.00  0.00     0.007 A 
ATOM     19  C   UNL A   1      46.653  28.706  28.542  1.00  0.00     0.049 C 
ATOM     20  C   UNL A   1      43.673  28.153  26.214  1.00  0.00    -0.009 A 
ATOM     21  C   UNL A   1      43.193  27.345  25.044  1.00  0.00     0.048 C 
ENDBRANCH  12  13
ENDBRANCH  11  12
ENDBRANCH   6  11
ENDBRANCH   3   5
ENDBRANCH   2   3
ENDBRANCH   1   2
BRANCH   1  22
ATOM     22  C   UNL A   1      39.685  20.717  26.151  1.00  0.00     0.275 C 
BRANCH  22  23
ATOM     23  O   UNL A   1      39.888  22.049  26.659  1.00  0.00    -0.458 OA
BRANCH  23  24
ATOM     24  C   UNL A   1      38.991  22.967  26.233  1.00  0.00     0.338 C 
ATOM     25  O   UNL A   1      38.103  22.808  25.411  1.00  0.00    -0.246 OA
BRANCH  24  26
ATOM     26  C   UNL A   1      39.235  24.266  26.877  1.00  0.00     0.060 A 
ATOM     27  C   UNL A   1      40.011  25.241  26.245  1.00  0.00     0.016 A 
ATOM     28  C   UNL A   1      38.816  24.441  28.196  1.00  0.00     0.016 A 
ATOM     29  C   UNL A   1      40.430  26.364  26.965  1.00  0.00     0.010 A 
ATOM     30  C   UNL A   1      39.171  25.602  28.884  1.00  0.00     0.010 A 
ATOM     31  C   UNL A   1      40.009  26.563  28.289  1.00  0.00    -0.014 A 
BRANCH  31  32
ATOM     32  C   UNL A   1      40.436  27.747  29.088  1.00  0.00     0.031 A 
ATOM     33  C   UNL A   1      41.723  27.701  29.870  1.00  0.00     0.074 A 
ATOM     34  C   UNL A   1      39.649  28.837  29.175  1.00  0.00     0.049 A 
ATOM     35  N   UNL A   1      42.130  28.474  30.845  1.00  0.00    -0.248 NA
ATOM     36  C   UNL A   1      42.669  26.628  29.521  1.00  0.00     0.031 C 
ATOM     37  C   UNL A   1      38.399  29.042  28.443  1.00  0.00     0.029 A 
ATOM     38  N   UNL A   1      39.776  29.971  29.941  1.00  0.00    -0.354 N 
ATOM     39  C   UNL A   1      43.342  27.943  31.272  1.00  0.00     0.074 A 
ATOM     40  C   UNL A   1      43.614  26.791  30.438  1.00  0.00     0.031 C 
ATOM     41  C   UNL A   1      37.877  30.230  28.788  1.00  0.00     0.029 A 
ATOM     42  C   UNL A   1      38.710  30.832  29.824  1.00  0.00     0.049 A 
ATOM     43  H   UNL A   1      40.554  30.150  30.516  1.00  0.00     0.167 HD
ATOM     44  C   UNL A   1      44.145  28.373  32.277  1.00  0.00     0.037 A 
ATOM     45  C   UNL A   1      38.403  31.951  30.510  1.00  0.00     0.037 A 
ATOM     46  C   UNL A   1      43.895  29.552  33.066  1.00  0.00     0.049 A 
ATOM     47  C   UNL A   1      39.307  32.413  31.618  1.00  0.00     0.074 A 
ATOM     48  C   UNL A   1      44.652  30.073  34.102  1.00  0.00     0.029 A 
ATOM     49  N   UNL A   1      42.817  30.407  32.891  1.00  0.00    -0.354 N 
ATOM     50  N   UNL A   1      40.410  31.862  32.062  1.00  0.00    -0.248 NA
ATOM     51  C   UNL A   1      38.914  33.637  32.331  1.00  0.00     0.031 C 
ATOM     52  C   UNL A   1      44.021  31.233  34.566  1.00  0.00     0.029 A 
ATOM     53  C   UNL A   1      42.891  31.453  33.796  1.00  0.00     0.049 A 
ATOM     54  H   UNL A   1      42.105  30.288  32.223  1.00  0.00     0.167 HD
ATOM     55  C   UNL A   1      40.853  32.679  33.095  1.00  0.00     0.074 A 
ATOM     56  C   UNL A   1      39.902  33.766  33.208  1.00  0.00     0.031 C 
ATOM     57  C   UNL A   1      41.947  32.539  33.882  1.00  0.00     0.037 A 
BRANCH  44  58
ATOM     58  C   UNL A   1      45.355  27.544  32.607  1.00  0.00     0.058 A 
ATOM     59  C   UNL A   1      45.257  26.321  33.285  1.00  0.00     0.135 A 
ATOM     60  C   UNL A   1      46.632  27.966  32.199  1.00  0.00     0.135 A 
ATOM     61  F   UNL A   1      44.064  25.878  33.712  1.00  0.00    -0.206 F 
ATOM     62  C   UNL A   1      46.385  25.555  33.568  1.00  0.00     0.059 A 
ATOM     63  C   UNL A   1      47.770  27.208  32.452  1.00  0.00     0.059 A 
ATOM     64  F   UNL A   1      46.782  29.130  31.544  1.00  0.00    -0.206 F 
ATOM     65  C   UNL A   1      47.638  26.009  33.152  1.00  0.00     0.060 A 
BRANCH  65  66
ATOM     66  S   UNL A   1      49.095  25.009  33.526  1.00  0.00     0.124 S 
ATOM     67  O   UNL A   1      49.653  24.802  32.193  1.00  0.00    -0.237 OA
ATOM     68  O   UNL A   1      49.863  25.886  34.404  1.00  0.00    -0.237 OA
ATOM     69  O   UNL A   1      48.537  23.822  34.164  1.00  0.00    -0.744 OA
ENDBRANCH  65  66
ENDBRANCH  44  58
BRANCH  45  70
ATOM     70  C   UNL A   1      37.156  32.691  30.182  1.00  0.00     0.058 A 
ATOM     71  C   UNL A   1      37.167  33.739  29.251  1.00  0.00     0.135 A 
ATOM     72  C   UNL A   1      35.927  32.339  30.761  1.00  0.00     0.135 A 
ATOM     73  F   UNL A   1      38.321  34.118  28.682  1.00  0.00    -0.206 F 
ATOM     74  C   UNL A   1      36.001  34.412  28.902  1.00  0.00     0.059 A 
ATOM     75  C   UNL A   1      34.746  32.981  30.411  1.00  0.00     0.059 A 
ATOM     76  F   UNL A   1      35.866  31.334  31.648  1.00  0.00    -0.206 F 
ATOM     77  C   UNL A   1      34.794  34.022  29.483  1.00  0.00     0.060 A 
BRANCH  77  78
ATOM     78  S   UNL A   1      33.271  34.845  28.968  1.00  0.00     0.124 S 
ATOM     79  O   UNL A   1      32.561  34.967  30.236  1.00  0.00    -0.237 OA
ATOM     80  O   UNL A   1      33.770  36.091  28.394  1.00  0.00    -0.237 OA
ATOM     81  O   UNL A   1      32.697  33.910  28.006  1.00  0.00    -0.744 OA
ENDBRANCH  77  78
ENDBRANCH  45  70
BRANCH  57  82
ATOM     82  C   UNL A   1      42.208  33.607  34.903  1.00  0.00     0.058 A 
ATOM     83  C   UNL A   1      41.756  33.488  36.225  1.00  0.00     0.135 A 
ATOM     84  C   UNL A   1      42.975  34.734  34.567  1.00  0.00     0.135 A 
ATOM     85  F   UNL A   1      41.013  32.432  36.591  1.00  0.00    -0.206 F 
ATOM     86  C   UNL A   1      42.050  34.454  37.181  1.00  0.00     0.059 A 
ATOM     87  C   UNL A   1      43.295  35.704  35.510  1.00  0.00     0.059 A 
ATOM     88  F   UNL A   1      43.434  34.890  33.314  1.00  0.00    -0.206 F 
ATOM     89  C   UNL A   1      42.823  35.559  36.814  1.00  0.00     0.060 A 
BRANCH  89  90
ATOM     90  S   UNL A   1      43.245  36.783  38.073  1.00  0.00     0.124 S 
ATOM     91  O   UNL A   1      41.933  37.100  38.625  1.00  0.00    -0.237 OA
ATOM     92  O   UNL A   1      44.140  36.036  38.953  1.00  0.00    -0.237 OA
ATOM     93  O   UNL A   1      43.880  37.851  37.306  1.00  0.00    -0.744 OA
ENDBRANCH  89  90
ENDBRANCH  57  82
ENDBRANCH  31  32
ENDBRANCH  24  26
ENDBRANCH  23  24
ENDBRANCH  22  23
ENDBRANCH   1  22
TORSDOF 17
ENDMDL
MODEL 2
REMARK VINA RESULT:      -9.4      5.004     11.888
REMARK SMILES Cc1ccc(C)c(OCc2ccc(C(=O)OCCOC(=O)c3ccc(-c4c5nc(c(-c6c(F)cc(S(=O)(=O)[O-])cc6F)c6ccc([nH]6)c(-c6c(F)cc(S(=O)(=O)[O-])cc6F)c6nc(c(-c7c(F)cc(S(=O)(=O)[O-])cc7F)c7ccc4[nH]7)C=C6)C=C5)cc3)cc2)c1C
REMARK SMILES IDX 17 1 16 2 14 3 15 4 13 5 10 6 11 7 89 8 12 9 88 10 9 11 8 12
REMARK SMILES IDX 7 13 1 14 2 15 3 16 90 17 4 18 91 19 5 20 6 21 18 22 19 23
REMARK SMILES IDX 20 24 21 25 22 26 23 27 87 28 24 29 86 30 25 31 26 32 27 33
REMARK SMILES IDX 80 34 28 35 85 36 79 37 81 38 29 39 84 40 78 41 77 42 30 44
REMARK SMILES IDX 64 45 43 46 63 47 44 48 47 49 62 50 82 51 45 52 46 53 61 55
REMARK SMILES IDX 83 56 48 57 31 58 32 59 41 60 33 61 34 62 40 63 42 64 35 65
REMARK SMILES IDX 36 66 37 67 38 68 39 69 65 70 66 71 75 72 67 73 68 74 74 75
REMARK SMILES IDX 76 76 69 77 70 78 71 79 72 80 73 81 49 82 50 83 59 84 51 85
REMARK SMILES IDX 52 86 58 87 60 88 53 89 54 90 55 91 56 92 57 93
REMARK H PARENT 81 43 47 54
REMARK Flexibility Score: inf
ROOT
ATOM      1  C   UNL A   1      32.417  30.310  27.258  1.00  0.00     0.275 C 
ENDROOT
BRANCH   1   2
ATOM      2  O   UNL A   1      32.273  29.247  26.298  1.00  0.00    -0.458 OA
BRANCH   2   3
ATOM      3  C   UNL A   1      31.951  28.050  26.835  1.00  0.00     0.338 C 
ATOM      4  O   UNL A   1      31.366  27.841  27.886  1.00  0.00    -0.246 OA
BRANCH   3   5
ATOM      5  C   UNL A   1      32.384  26.954  25.961  1.00  0.00     0.060 A 
ATOM      6  C   UNL A   1      33.058  25.331  23.779  1.00  0.00    -0.011 A 
ATOM      7  C   UNL A   1      34.022  26.146  24.384  1.00  0.00     0.008 A 
ATOM      8  C   UNL A   1      31.779  25.256  24.369  1.00  0.00     0.008 A 
ATOM      9  C   UNL A   1      33.687  26.959  25.465  1.00  0.00     0.016 A 
ATOM     10  C   UNL A   1      31.437  26.071  25.450  1.00  0.00     0.016 A 
BRANCH   6  11
ATOM     11  C   UNL A   1      33.279  24.605  22.462  1.00  0.00     0.265 C 
BRANCH  11  12
ATOM     12  O   UNL A   1      34.222  23.540  22.401  1.00  0.00    -0.488 OA
BRANCH  12  13
ATOM     13  C   UNL A   1      34.270  22.503  23.295  1.00  0.00     0.125 A 
ATOM     14  C   UNL A   1      37.210  20.980  25.278  1.00  0.00     0.045 C 
ATOM     15  C   UNL A   1      35.844  21.230  24.695  1.00  0.00    -0.044 A 
ATOM     16  C   UNL A   1      34.812  20.343  25.005  1.00  0.00     0.004 A 
ATOM     17  C   UNL A   1      35.570  22.330  23.854  1.00  0.00    -0.006 A 
ATOM     18  C   UNL A   1      33.526  20.553  24.511  1.00  0.00     0.007 A 
ATOM     19  C   UNL A   1      36.653  23.319  23.487  1.00  0.00     0.049 C 
ATOM     20  C   UNL A   1      33.224  21.642  23.673  1.00  0.00    -0.009 A 
ATOM     21  C   UNL A   1      31.787  21.793  23.268  1.00  0.00     0.048 C 
ENDBRANCH  12  13
ENDBRANCH  11  12
ENDBRANCH   6  11
ENDBRANCH   3   5
ENDBRANCH   2   3
ENDBRANCH   1   2
BRANCH   1  22
ATOM     22  C   UNL A   1      33.849  30.841  27.269  1.00  0.00     0.275 C 
BRANCH  22  23
ATOM     23  O   UNL A   1      34.727  29.958  27.994  1.00  0.00    -0.458 OA
BRANCH  23  24
ATOM     24  C   UNL A   1      35.595  30.573  28.828  1.00  0.00     0.338 C 
ATOM     25  O   UNL A   1      35.378  31.542  29.538  1.00  0.00    -0.246 OA
BRANCH  24  26
ATOM     26  C   UNL A   1      36.916  29.934  28.762  1.00  0.00     0.060 A 
ATOM     27  C   UNL A   1      37.560  29.505  29.925  1.00  0.00     0.016 A 
ATOM     28  C   UNL A   1      37.582  29.914  27.536  1.00  0.00     0.016 A 
ATOM     29  C   UNL A   1      38.905  29.124  29.870  1.00  0.00     0.010 A 
ATOM     30  C   UNL A   1      38.900  29.457  27.474  1.00  0.00     0.010 A 
ATOM     31  C   UNL A   1      39.588  29.087  28.644  1.00  0.00    -0.014 A 
BRANCH  31  32
ATOM     32  C   UNL A   1      41.021  28.686  28.546  1.00  0.00     0.031 A 
ATOM     33  C   UNL A   1      42.102  29.730  28.660  1.00  0.00     0.074 A 
ATOM     34  C   UNL A   1      41.361  27.409  28.287  1.00  0.00     0.049 A 
ATOM     35  N   UNL A   1      43.362  29.660  28.315  1.00  0.00    -0.248 NA
ATOM     36  C   UNL A   1      41.704  31.033  29.219  1.00  0.00     0.031 C 
ATOM     37  C   UNL A   1      40.429  26.284  28.193  1.00  0.00     0.029 A 
ATOM     38  N   UNL A   1      42.589  26.846  28.031  1.00  0.00    -0.354 N 
ATOM     39  C   UNL A   1      43.892  30.925  28.548  1.00  0.00     0.074 A 
ATOM     40  C   UNL A   1      42.820  31.738  29.082  1.00  0.00     0.031 C 
ATOM     41  C   UNL A   1      41.116  25.167  27.908  1.00  0.00     0.029 A 
ATOM     42  C   UNL A   1      42.522  25.508  27.717  1.00  0.00     0.049 A 
ATOM     43  H   UNL A   1      43.432  27.351  28.069  1.00  0.00     0.167 HD
ATOM     44  C   UNL A   1      45.155  31.366  28.324  1.00  0.00     0.037 A 
ATOM     45  C   UNL A   1      43.471  24.661  27.272  1.00  0.00     0.037 A 
ATOM     46  C   UNL A   1      46.230  30.536  27.844  1.00  0.00     0.049 A 
ATOM     47  C   UNL A   1      44.864  25.168  27.032  1.00  0.00     0.074 A 
ATOM     48  C   UNL A   1      47.545  30.889  27.590  1.00  0.00     0.029 A 
ATOM     49  N   UNL A   1      46.121  29.181  27.567  1.00  0.00    -0.354 N 
ATOM     50  N   UNL A   1      45.336  26.382  27.185  1.00  0.00    -0.248 NA
ATOM     51  C   UNL A   1      45.852  24.196  26.541  1.00  0.00     0.031 C 
ATOM     52  C   UNL A   1      48.226  29.751  27.143  1.00  0.00     0.029 A 
ATOM     53  C   UNL A   1      47.344  28.683  27.151  1.00  0.00     0.049 A 
ATOM     54  H   UNL A   1      45.295  28.652  27.654  1.00  0.00     0.167 HD
ATOM     55  C   UNL A   1      46.676  26.317  26.825  1.00  0.00     0.074 A 
ATOM     56  C   UNL A   1      46.945  24.944  26.452  1.00  0.00     0.031 C 
ATOM     57  C   UNL A   1      47.600  27.308  26.802  1.00  0.00     0.037 A 
BRANCH  44  58
ATOM     58  C   UNL A   1      45.438  32.823  28.561  1.00  0.00     0.058 A 
ATOM     59  C   UNL A   1      45.953  33.293  29.778  1.00  0.00     0.135 A 
ATOM     60  C   UNL A   1      45.227  33.759  27.534  1.00  0.00     0.135 A 
ATOM     61  F   UNL A   1      46.159  32.444  30.797  1.00  0.00    -0.206 F 
ATOM     62  C   UNL A   1      46.228  34.643  29.977  1.00  0.00     0.059 A 
ATOM     63  C   UNL A   1      45.513  35.110  27.704  1.00  0.00     0.059 A 
ATOM     64  F   UNL A   1      44.736  33.362  26.348  1.00  0.00    -0.206 F 
ATOM     65  C   UNL A   1      46.001  35.545  28.936  1.00  0.00     0.060 A 
BRANCH  65  66
ATOM     66  S   UNL A   1      46.358  37.295  29.205  1.00  0.00     0.124 S 
ATOM     67  O   UNL A   1      46.554  37.763  27.836  1.00  0.00    -0.237 OA
ATOM     68  O   UNL A   1      45.147  37.766  29.868  1.00  0.00    -0.237 OA
ATOM     69  O   UNL A   1      47.556  37.272  30.038  1.00  0.00    -0.744 OA
ENDBRANCH  65  66
ENDBRANCH  44  58
BRANCH  45  70
ATOM     70  C   UNL A   1      43.114  23.246  26.991  1.00  0.00     0.058 A 
ATOM     71  C   UNL A   1      42.996  22.783  25.674  1.00  0.00     0.135 A 
ATOM     72  C   UNL A   1      42.925  22.323  28.032  1.00  0.00     0.135 A 
ATOM     73  F   UNL A   1      43.156  23.632  24.647  1.00  0.00    -0.206 F 
ATOM     74  C   UNL A   1      42.705  21.451  25.395  1.00  0.00     0.059 A 
ATOM     75  C   UNL A   1      42.657  20.983  27.778  1.00  0.00     0.059 A 
ATOM     76  F   UNL A   1      43.041  22.718  29.309  1.00  0.00    -0.206 F 
ATOM     77  C   UNL A   1      42.543  20.557  26.455  1.00  0.00     0.060 A 
BRANCH  77  78
ATOM     78  S   UNL A   1      42.245  18.814  26.088  1.00  0.00     0.124 S 
ATOM     79  O   UNL A   1      40.825  18.824  25.753  1.00  0.00    -0.237 OA
ATOM     80  O   UNL A   1      43.161  18.569  24.978  1.00  0.00    -0.237 OA
ATOM     81  O   UNL A   1      42.597  18.147  27.337  1.00  0.00    -0.744 OA
ENDBRANCH  77  78
ENDBRANCH  45  70
BRANCH  57  82
ATOM     82  C   UNL A   1      49.000  26.941  26.407  1.00  0.00     0.058 A 
ATOM     83  C   UNL A   1      49.919  26.435  27.338  1.00  0.00     0.135 A 
ATOM     84  C   UNL A   1      49.405  27.038  25.067  1.00  0.00     0.135 A 
ATOM     85  F   UNL A   1      49.580  26.330  28.632  1.00  0.00    -0.206 F 
ATOM     86  C   UNL A   1      51.197  26.041  26.954  1.00  0.00     0.059 A 
ATOM     87  C   UNL A   1      50.672  26.637  24.657  1.00  0.00     0.059 A 
ATOM     88  F   UNL A   1      48.558  27.513  24.138  1.00  0.00    -0.206 F 
ATOM     89  C   UNL A   1      51.563  26.145  25.610  1.00  0.00     0.060 A 
BRANCH  89  90
ATOM     90  S   UNL A   1      53.206  25.585  25.110  1.00  0.00     0.124 S 
ATOM     91  O   UNL A   1      54.065  26.534  25.809  1.00  0.00    -0.237 OA
ATOM     92  O   UNL A   1      53.238  24.213  25.610  1.00  0.00    -0.237 OA
ATOM     93  O   UNL A   1      53.179  25.713  23.656  1.00  0.00    -0.744 OA
ENDBRANCH  89  90
ENDBRANCH  57  82
ENDBRANCH  31  32
ENDBRANCH  24  26
ENDBRANCH  23  24
ENDBRANCH  22  23
ENDBRANCH   1  22
TORSDOF 17
ENDMDL
MODEL 3
REMARK VINA RESULT:      -9.3      4.491     11.428
REMARK SMILES Cc1ccc(C)c(OCc2ccc(C(=O)OCCOC(=O)c3ccc(-c4c5nc(c(-c6c(F)cc(S(=O)(=O)[O-])cc6F)c6ccc([nH]6)c(-c6c(F)cc(S(=O)(=O)[O-])cc6F)c6nc(c(-c7c(F)cc(S(=O)(=O)[O-])cc7F)c7ccc4[nH]7)C=C6)C=C5)cc3)cc2)c1C
REMARK SMILES IDX 17 1 16 2 14 3 15 4 13 5 10 6 11 7 89 8 12 9 88 10 9 11 8 12
REMARK SMILES IDX 7 13 1 14 2 15 3 16 90 17 4 18 91 19 5 20 6 21 18 22 19 23
REMARK SMILES IDX 20 24 21 25 22 26 23 27 87 28 24 29 86 30 25 31 26 32 27 33
REMARK SMILES IDX 80 34 28 35 85 36 79 37 81 38 29 39 84 40 78 41 77 42 30 44
REMARK SMILES IDX 64 45 43 46 63 47 44 48 47 49 62 50 82 51 45 52 46 53 61 55
REMARK SMILES IDX 83 56 48 57 31 58 32 59 41 60 33 61 34 62 40 63 42 64 35 65
REMARK SMILES IDX 36 66 37 67 38 68 39 69 65 70 66 71 75 72 67 73 68 74 74 75
REMARK SMILES IDX 76 76 69 77 70 78 71 79 72 80 73 81 49 82 50 83 59 84 51 85
REMARK SMILES IDX 52 86 58 87 60 88 53 89 54 90 55 91 56 92 57 93
REMARK H PARENT 81 43 47 54
REMARK Flexibility Score: inf
ROOT
ATOM      1  C   UNL A   1      31.776  29.690  26.646  1.00  0.00     0.275 C 
ENDROOT
BRANCH   1   2
ATOM      2  O   UNL A   1      32.233  28.999  25.468  1.00  0.00    -0.458 OA
BRANCH   2   3
ATOM      3  C   UNL A   1      31.251  28.659  24.606  1.00  0.00     0.338 C 
ATOM      4  O   UNL A   1      30.542  29.408  23.954  1.00  0.00    -0.246 OA
BRANCH   3   5
ATOM      5  C   UNL A   1      31.128  27.200  24.508  1.00  0.00     0.060 A 
ATOM      6  C   UNL A   1      31.562  24.433  24.562  1.00  0.00    -0.011 A 
ATOM      7  C   UNL A   1      31.031  25.091  25.677  1.00  0.00     0.008 A 
ATOM      8  C   UNL A   1      31.757  25.173  23.378  1.00  0.00     0.008 A 
ATOM      9  C   UNL A   1      30.820  26.469  25.654  1.00  0.00     0.016 A 
ATOM     10  C   UNL A   1      31.551  26.554  23.349  1.00  0.00     0.016 A 
BRANCH   6  11
ATOM     11  C   UNL A   1      32.041  22.990  24.589  1.00  0.00     0.265 C 
BRANCH  11  12
ATOM     12  O   UNL A   1      32.994  22.588  25.567  1.00  0.00    -0.488 OA
BRANCH  12  13
ATOM     13  C   UNL A   1      34.352  22.681  25.402  1.00  0.00     0.125 A 
ATOM     14  C   UNL A   1      37.040  19.976  24.810  1.00  0.00     0.045 C 
ATOM     15  C   UNL A   1      36.356  21.294  25.058  1.00  0.00    -0.044 A 
ATOM     16  C   UNL A   1      37.142  22.436  25.217  1.00  0.00     0.004 A 
ATOM     17  C   UNL A   1      34.951  21.417  25.127  1.00  0.00    -0.006 A 
ATOM     18  C   UNL A   1      36.550  23.681  25.418  1.00  0.00     0.007 A 
ATOM     19  C   UNL A   1      34.054  20.211  24.962  1.00  0.00     0.049 C 
ATOM     20  C   UNL A   1      35.153  23.834  25.490  1.00  0.00    -0.009 A 
ATOM     21  C   UNL A   1      34.642  25.236  25.639  1.00  0.00     0.048 C 
ENDBRANCH  12  13
ENDBRANCH  11  12
ENDBRANCH   6  11
ENDBRANCH   3   5
ENDBRANCH   2   3
ENDBRANCH   1   2
BRANCH   1  22
ATOM     22  C   UNL A   1      32.845  30.652  27.159  1.00  0.00     0.275 C 
BRANCH  22  23
ATOM     23  O   UNL A   1      33.971  29.939  27.704  1.00  0.00    -0.458 OA
BRANCH  23  24
ATOM     24  C   UNL A   1      34.755  30.657  28.538  1.00  0.00     0.338 C 
ATOM     25  O   UNL A   1      34.463  31.687  29.125  1.00  0.00    -0.246 OA
BRANCH  24  26
ATOM     26  C   UNL A   1      36.089  30.050  28.645  1.00  0.00     0.060 A 
ATOM     27  C   UNL A   1      36.570  29.598  29.877  1.00  0.00     0.016 A 
ATOM     28  C   UNL A   1      36.924  30.083  27.529  1.00  0.00     0.016 A 
ATOM     29  C   UNL A   1      37.918  29.249  30.006  1.00  0.00     0.010 A 
ATOM     30  C   UNL A   1      38.249  29.657  27.645  1.00  0.00     0.010 A 
ATOM     31  C   UNL A   1      38.771  29.265  28.891  1.00  0.00    -0.014 A 
BRANCH  31  32
ATOM     32  C   UNL A   1      40.213  28.900  28.990  1.00  0.00     0.031 A 
ATOM     33  C   UNL A   1      41.232  29.952  29.343  1.00  0.00     0.074 A 
ATOM     34  C   UNL A   1      40.627  27.651  28.700  1.00  0.00     0.049 A 
ATOM     35  N   UNL A   1      42.532  29.931  29.194  1.00  0.00    -0.248 NA
ATOM     36  C   UNL A   1      40.715  31.204  29.922  1.00  0.00     0.031 C 
ATOM     37  C   UNL A   1      39.755  26.519  28.384  1.00  0.00     0.029 A 
ATOM     38  N   UNL A   1      41.895  27.131  28.599  1.00  0.00    -0.354 N 
ATOM     39  C   UNL A   1      42.982  31.185  29.593  1.00  0.00     0.074 A 
ATOM     40  C   UNL A   1      41.817  31.937  30.009  1.00  0.00     0.031 C 
ATOM     41  C   UNL A   1      40.510  25.439  28.133  1.00  0.00     0.029 A 
ATOM     42  C   UNL A   1      41.918  25.819  28.187  1.00  0.00     0.049 A 
ATOM     43  H   UNL A   1      42.708  27.647  28.803  1.00  0.00     0.167 HD
ATOM     44  C   UNL A   1      44.251  31.665  29.600  1.00  0.00     0.037 A 
ATOM     45  C   UNL A   1      42.948  25.024  27.837  1.00  0.00     0.037 A 
ATOM     46  C   UNL A   1      45.411  30.892  29.237  1.00  0.00     0.049 A 
ATOM     47  C   UNL A   1      44.347  25.573  27.854  1.00  0.00     0.074 A 
ATOM     48  C   UNL A   1      46.738  31.287  29.216  1.00  0.00     0.029 A 
ATOM     49  N   UNL A   1      45.386  29.559  28.854  1.00  0.00    -0.354 N 
ATOM     50  N   UNL A   1      44.752  26.781  28.161  1.00  0.00    -0.248 NA
ATOM     51  C   UNL A   1      45.426  24.658  27.456  1.00  0.00     0.031 C 
ATOM     52  C   UNL A   1      47.514  30.197  28.803  1.00  0.00     0.029 A 
ATOM     53  C   UNL A   1      46.673  29.115  28.600  1.00  0.00     0.049 A 
ATOM     54  H   UNL A   1      44.573  29.010  28.774  1.00  0.00     0.167 HD
ATOM     55  C   UNL A   1      46.133  26.767  28.011  1.00  0.00     0.074 A 
ATOM     56  C   UNL A   1      46.497  25.430  27.590  1.00  0.00     0.031 C 
ATOM     57  C   UNL A   1      47.020  27.775  28.201  1.00  0.00     0.037 A 
BRANCH  44  58
ATOM     58  C   UNL A   1      44.451  33.106  29.978  1.00  0.00     0.058 A 
ATOM     59  C   UNL A   1      44.485  34.129  29.020  1.00  0.00     0.135 A 
ATOM     60  C   UNL A   1      44.569  33.470  31.331  1.00  0.00     0.135 A 
ATOM     61  F   UNL A   1      44.393  33.835  27.713  1.00  0.00    -0.206 F 
ATOM     62  C   UNL A   1      44.652  35.462  29.386  1.00  0.00     0.059 A 
ATOM     63  C   UNL A   1      44.716  34.797  31.721  1.00  0.00     0.059 A 
ATOM     64  F   UNL A   1      44.541  32.530  32.289  1.00  0.00    -0.206 F 
ATOM     65  C   UNL A   1      44.772  35.786  30.739  1.00  0.00     0.060 A 
BRANCH  65  66
ATOM     66  S   UNL A   1      44.991  37.517  31.205  1.00  0.00     0.124 S 
ATOM     67  O   UNL A   1      44.613  37.488  32.614  1.00  0.00    -0.237 OA
ATOM     68  O   UNL A   1      46.408  37.740  30.933  1.00  0.00    -0.237 OA
ATOM     69  O   UNL A   1      44.070  38.225  30.322  1.00  0.00    -0.744 OA
ENDBRANCH  65  66
ENDBRANCH  44  58
BRANCH  45  70
ATOM     70  C   UNL A   1      42.681  23.627  27.407  1.00  0.00     0.058 A 
ATOM     71  C   UNL A   1      42.624  23.292  26.048  1.00  0.00     0.135 A 
ATOM     72  C   UNL A   1      42.519  22.595  28.346  1.00  0.00     0.135 A 
ATOM     73  F   UNL A   1      42.762  24.247  25.116  1.00  0.00    -0.206 F 
ATOM     74  C   UNL A   1      42.418  21.982  25.630  1.00  0.00     0.059 A 
ATOM     75  C   UNL A   1      42.335  21.275  27.953  1.00  0.00     0.059 A 
ATOM     76  F   UNL A   1      42.578  22.866  29.659  1.00  0.00    -0.206 F 
ATOM     77  C   UNL A   1      42.280  20.978  26.591  1.00  0.00     0.060 A 
BRANCH  77  78
ATOM     78  S   UNL A   1      42.093  19.267  26.045  1.00  0.00     0.124 S 
ATOM     79  O   UNL A   1      42.497  18.533  27.239  1.00  0.00    -0.237 OA
ATOM     80  O   UNL A   1      40.674  19.202  25.707  1.00  0.00    -0.237 OA
ATOM     81  O   UNL A   1      43.003  19.179  24.908  1.00  0.00    -0.744 OA
ENDBRANCH  77  78
ENDBRANCH  45  70
BRANCH  57  82
ATOM     82  C   UNL A   1      48.475  27.463  28.004  1.00  0.00     0.058 A 
ATOM     83  C   UNL A   1      49.267  26.960  29.046  1.00  0.00     0.135 A 
ATOM     84  C   UNL A   1      49.064  27.611  26.739  1.00  0.00     0.135 A 
ATOM     85  F   UNL A   1      48.750  26.808  30.275  1.00  0.00    -0.206 F 
ATOM     86  C   UNL A   1      50.601  26.619  28.842  1.00  0.00     0.059 A 
ATOM     87  C   UNL A   1      50.391  27.261  26.508  1.00  0.00     0.059 A 
ATOM     88  F   UNL A   1      48.344  28.085  25.709  1.00  0.00    -0.206 F 
ATOM     89  C   UNL A   1      51.153  26.771  27.568  1.00  0.00     0.060 A 
BRANCH  89  90
ATOM     90  S   UNL A   1      52.869  26.278  27.298  1.00  0.00     0.124 S 
ATOM     91  O   UNL A   1      53.381  26.236  28.663  1.00  0.00    -0.237 OA
ATOM     92  O   UNL A   1      52.726  24.985  26.634  1.00  0.00    -0.237 OA
ATOM     93  O   UNL A   1      53.400  27.349  26.459  1.00  0.00    -0.744 OA
ENDBRANCH  89  90
ENDBRANCH  57  82
ENDBRANCH  31  32
ENDBRANCH  24  26
ENDBRANCH  23  24
ENDBRANCH  22  23
ENDBRANCH   1  22
TORSDOF 17
ENDMDL
