MODEL 1
REMARK VINA RESULT:      -9.4      0.000      0.000
REMARK SMILES O=C(OCCOC(=O)c1ccc(-c2c3nc(c(-c4c(F)cc(S(=O)(=O)[O-])cc4F)c4ccc([nH]4)c(-c4c(F)cc(S(=O)(=O)[O-])cc4F)c4nc(c(-c5c(F)cc(S(=O)(=O)[O-])cc5F)c5ccc2[nH]5)C=C4)C=C3)cc1)/C(=C/c1ccsc1)c1ccccc1
REMARK SMILES IDX 5 1 4 2 3 3 2 4 1 5 75 6 76 7 82 8 83 9 87 10 84 11 86 12
REMARK SMILES IDX 85 13 77 14 78 15 81 16 79 17 80 18 6 19 7 20 8 21 9 22
REMARK SMILES IDX 10 23 74 24 11 25 73 26 12 27 13 28 14 29 67 30 15 31 72 32
REMARK SMILES IDX 66 33 68 34 16 35 71 36 65 37 64 38 17 40 51 41 30 42 50 43
REMARK SMILES IDX 31 44 34 45 49 46 69 47 32 48 33 49 48 51 70 52 35 53 18 54
REMARK SMILES IDX 19 55 28 56 20 57 21 58 27 59 29 60 22 61 23 62 24 63 25 64
REMARK SMILES IDX 26 65 52 66 53 67 62 68 54 69 55 70 61 71 63 72 56 73 57 74
REMARK SMILES IDX 58 75 59 76 60 77 36 78 37 79 46 80 38 81 39 82 45 83 47 84
REMARK SMILES IDX 40 85 41 86 42 87 43 88 44 89
REMARK H PARENT 68 39 34 50
REMARK Flexibility Score: inf
ROOT
ATOM      1  C   UNL A   1      39.917  20.565  26.320  1.00  0.00     0.275 C 
ENDROOT
BRANCH   1   2
ATOM      2  C   UNL A   1      41.133  19.706  25.965  1.00  0.00     0.275 C 
BRANCH   2   3
ATOM      3  O   UNL A   1      42.384  20.284  26.371  1.00  0.00    -0.458 OA
BRANCH   3   4
ATOM      4  C   UNL A   1      43.289  20.996  25.662  1.00  0.00     0.338 C 
ATOM      5  O   UNL A   1      43.752  20.474  24.645  1.00  0.00    -0.246 OA
BRANCH   4   6
ATOM      6  C   UNL A   1      43.801  22.335  26.089  1.00  0.00     0.067 C 
ATOM      7  C   UNL A   1      44.063  23.169  25.049  1.00  0.00     0.025 C 
BRANCH   6   8
ATOM      8  C   UNL A   1      43.785  22.893  27.460  1.00  0.00    -0.011 A 
ATOM      9  C   UNL A   1      45.006  23.214  28.074  1.00  0.00     0.009 A 
ATOM     10  C   UNL A   1      42.632  22.895  28.257  1.00  0.00     0.009 A 
ATOM     11  C   UNL A   1      45.066  23.516  29.438  1.00  0.00     0.001 A 
ATOM     12  C   UNL A   1      42.678  23.263  29.603  1.00  0.00     0.001 A 
ATOM     13  C   UNL A   1      43.899  23.555  30.197  1.00  0.00     0.000 A 
ENDBRANCH   6   8
BRANCH   7  14
ATOM     14  C   UNL A   1      44.453  24.553  25.098  1.00  0.00    -0.014 A 
ATOM     15  C   UNL A   1      45.786  25.063  25.152  1.00  0.00     0.020 A 
ATOM     16  C   UNL A   1      43.527  25.574  25.070  1.00  0.00     0.073 A 
ATOM     17  C   UNL A   1      45.826  26.439  25.142  1.00  0.00     0.065 A 
ATOM     18  S   UNL A   1      44.262  27.123  25.117  1.00  0.00    -0.152 S 
ENDBRANCH   7  14
ENDBRANCH   4   6
ENDBRANCH   3   4
ENDBRANCH   2   3
ENDBRANCH   1   2
BRANCH   1  19
ATOM     19  O   UNL A   1      40.174  21.966  26.123  1.00  0.00    -0.458 OA
BRANCH  19  20
ATOM     20  C   UNL A   1      39.085  22.773  26.200  1.00  0.00     0.338 C 
ATOM     21  O   UNL A   1      37.948  22.474  25.870  1.00  0.00    -0.246 OA
BRANCH  20  22
ATOM     22  C   UNL A   1      39.429  24.055  26.864  1.00  0.00     0.060 A 
ATOM     23  C   UNL A   1      40.048  25.040  26.086  1.00  0.00     0.016 A 
ATOM     24  C   UNL A   1      39.154  24.313  28.211  1.00  0.00     0.016 A 
ATOM     25  C   UNL A   1      40.431  26.259  26.655  1.00  0.00     0.010 A 
ATOM     26  C   UNL A   1      39.514  25.549  28.770  1.00  0.00     0.010 A 
ATOM     27  C   UNL A   1      40.192  26.520  28.010  1.00  0.00    -0.014 A 
BRANCH  27  28
ATOM     28  C   UNL A   1      40.804  27.722  28.653  1.00  0.00     0.031 A 
ATOM     29  C   UNL A   1      42.305  27.780  28.799  1.00  0.00     0.074 A 
ATOM     30  C   UNL A   1      40.071  28.780  29.054  1.00  0.00     0.049 A 
ATOM     31  N   UNL A   1      43.060  28.773  29.196  1.00  0.00    -0.248 NA
ATOM     32  C   UNL A   1      43.055  26.567  28.438  1.00  0.00     0.031 C 
ATOM     33  C   UNL A   1      38.619  28.893  28.958  1.00  0.00     0.029 A 
ATOM     34  N   UNL A   1      40.453  29.971  29.630  1.00  0.00    -0.354 N 
ATOM     35  C   UNL A   1      44.368  28.316  29.095  1.00  0.00     0.074 A 
ATOM     36  C   UNL A   1      44.302  26.930  28.694  1.00  0.00     0.031 C 
ATOM     37  C   UNL A   1      38.226  30.063  29.492  1.00  0.00     0.029 A 
ATOM     38  C   UNL A   1      39.402  30.804  29.942  1.00  0.00     0.049 A 
ATOM     39  H   UNL A   1      41.394  30.207  29.802  1.00  0.00     0.167 HD
ATOM     40  C   UNL A   1      45.525  28.997  29.265  1.00  0.00     0.037 A 
ATOM     41  C   UNL A   1      39.386  32.031  30.503  1.00  0.00     0.037 A 
ATOM     42  C   UNL A   1      45.607  30.374  29.669  1.00  0.00     0.049 A 
ATOM     43  C   UNL A   1      40.687  32.742  30.778  1.00  0.00     0.074 A 
ATOM     44  C   UNL A   1      46.736  31.159  29.824  1.00  0.00     0.029 A 
ATOM     45  N   UNL A   1      44.520  31.167  30.001  1.00  0.00    -0.354 N 
ATOM     46  N   UNL A   1      41.915  32.331  30.570  1.00  0.00    -0.248 NA
ATOM     47  C   UNL A   1      40.599  34.107  31.320  1.00  0.00     0.031 C 
ATOM     48  C   UNL A   1      46.336  32.410  30.305  1.00  0.00     0.029 A 
ATOM     49  C   UNL A   1      44.954  32.424  30.390  1.00  0.00     0.049 A 
ATOM     50  H   UNL A   1      43.578  30.880  29.965  1.00  0.00     0.167 HD
ATOM     51  C   UNL A   1      42.738  33.410  30.883  1.00  0.00     0.074 A 
ATOM     52  C   UNL A   1      41.870  34.485  31.314  1.00  0.00     0.031 C 
ATOM     53  C   UNL A   1      44.089  33.505  30.795  1.00  0.00     0.037 A 
BRANCH  40  54
ATOM     54  C   UNL A   1      46.800  28.245  29.005  1.00  0.00     0.058 A 
ATOM     55  C   UNL A   1      47.457  28.318  27.765  1.00  0.00     0.135 A 
ATOM     56  C   UNL A   1      47.368  27.436  30.001  1.00  0.00     0.135 A 
ATOM     57  F   UNL A   1      46.946  29.063  26.771  1.00  0.00    -0.206 F 
ATOM     58  C   UNL A   1      48.606  27.579  27.506  1.00  0.00     0.059 A 
ATOM     59  C   UNL A   1      48.534  26.712  29.774  1.00  0.00     0.059 A 
ATOM     60  F   UNL A   1      46.781  27.330  31.203  1.00  0.00    -0.206 F 
ATOM     61  C   UNL A   1      49.133  26.774  28.516  1.00  0.00     0.060 A 
BRANCH  61  62
ATOM     62  S   UNL A   1      50.608  25.798  28.157  1.00  0.00     0.124 S 
ATOM     63  O   UNL A   1      51.132  26.488  26.982  1.00  0.00    -0.237 OA
ATOM     64  O   UNL A   1      51.389  25.950  29.380  1.00  0.00    -0.237 OA
ATOM     65  O   UNL A   1      50.079  24.460  27.915  1.00  0.00    -0.744 OA
ENDBRANCH  61  62
ENDBRANCH  40  54
BRANCH  41  66
ATOM     66  C   UNL A   1      38.090  32.713  30.784  1.00  0.00     0.058 A 
ATOM     67  C   UNL A   1      37.458  32.588  32.029  1.00  0.00     0.135 A 
ATOM     68  C   UNL A   1      37.441  33.473  29.797  1.00  0.00     0.135 A 
ATOM     69  F   UNL A   1      38.030  31.860  33.001  1.00  0.00    -0.206 F 
ATOM     70  C   UNL A   1      36.218  33.168  32.283  1.00  0.00     0.059 A 
ATOM     71  C   UNL A   1      36.211  34.082  30.033  1.00  0.00     0.059 A 
ATOM     72  F   UNL A   1      38.004  33.626  28.588  1.00  0.00    -0.206 F 
ATOM     73  C   UNL A   1      35.601  33.914  31.276  1.00  0.00     0.060 A 
BRANCH  73  74
ATOM     74  S   UNL A   1      34.005  34.684  31.628  1.00  0.00     0.124 S 
ATOM     75  O   UNL A   1      33.338  34.586  30.334  1.00  0.00    -0.237 OA
ATOM     76  O   UNL A   1      33.478  33.825  32.684  1.00  0.00    -0.237 OA
ATOM     77  O   UNL A   1      34.366  36.033  32.048  1.00  0.00    -0.744 OA
ENDBRANCH  73  74
ENDBRANCH  41  66
BRANCH  53  78
ATOM     78  C   UNL A   1      44.723  34.839  31.088  1.00  0.00     0.058 A 
ATOM     79  C   UNL A   1      44.914  35.815  30.097  1.00  0.00     0.135 A 
ATOM     80  C   UNL A   1      45.105  35.161  32.401  1.00  0.00     0.135 A 
ATOM     81  F   UNL A   1      44.568  35.563  28.824  1.00  0.00    -0.206 F 
ATOM     82  C   UNL A   1      45.490  37.048  30.391  1.00  0.00     0.059 A 
ATOM     83  C   UNL A   1      45.653  36.399  32.724  1.00  0.00     0.059 A 
ATOM     84  F   UNL A   1      44.933  34.273  33.393  1.00  0.00    -0.206 F 
ATOM     85  C   UNL A   1      45.858  37.331  31.709  1.00  0.00     0.060 A 
BRANCH  85  86
ATOM     86  S   UNL A   1      46.584  38.940  32.083  1.00  0.00     0.124 S 
ATOM     87  O   UNL A   1      46.133  39.154  33.455  1.00  0.00    -0.237 OA
ATOM     88  O   UNL A   1      48.011  38.687  31.918  1.00  0.00    -0.237 OA
ATOM     89  O   UNL A   1      45.990  39.823  31.083  1.00  0.00    -0.744 OA
ENDBRANCH  85  86
ENDBRANCH  53  78
ENDBRANCH  27  28
ENDBRANCH  20  22
ENDBRANCH  19  20
ENDBRANCH   1  19
TORSDOF 16
ENDMDL
MODEL 2
REMARK VINA RESULT:      -9.3      5.421      7.479
REMARK SMILES O=C(OCCOC(=O)c1ccc(-c2c3nc(c(-c4c(F)cc(S(=O)(=O)[O-])cc4F)c4ccc([nH]4)c(-c4c(F)cc(S(=O)(=O)[O-])cc4F)c4nc(c(-c5c(F)cc(S(=O)(=O)[O-])cc5F)c5ccc2[nH]5)C=C4)C=C3)cc1)/C(=C/c1ccsc1)c1ccccc1
REMARK SMILES IDX 5 1 4 2 3 3 2 4 1 5 75 6 76 7 82 8 83 9 87 10 84 11 86 12
REMARK SMILES IDX 85 13 77 14 78 15 81 16 79 17 80 18 6 19 7 20 8 21 9 22
REMARK SMILES IDX 10 23 74 24 11 25 73 26 12 27 13 28 14 29 67 30 15 31 72 32
REMARK SMILES IDX 66 33 68 34 16 35 71 36 65 37 64 38 17 40 51 41 30 42 50 43
REMARK SMILES IDX 31 44 34 45 49 46 69 47 32 48 33 49 48 51 70 52 35 53 18 54
REMARK SMILES IDX 19 55 28 56 20 57 21 58 27 59 29 60 22 61 23 62 24 63 25 64
REMARK SMILES IDX 26 65 52 66 53 67 62 68 54 69 55 70 61 71 63 72 56 73 57 74
REMARK SMILES IDX 58 75 59 76 60 77 36 78 37 79 46 80 38 81 39 82 45 83 47 84
REMARK SMILES IDX 40 85 41 86 42 87 43 88 44 89
REMARK H PARENT 68 39 34 50
REMARK Flexibility Score: inf
ROOT
ATOM      1  C   UNL A   1      40.332  23.225  26.399  1.00  0.00     0.275 C 
ENDROOT
BRANCH   1   2
ATOM      2  C   UNL A   1      39.181  22.223  26.274  1.00  0.00     0.275 C 
BRANCH   2   3
ATOM      3  O   UNL A   1      37.947  22.817  25.838  1.00  0.00    -0.458 OA
BRANCH   3   4
ATOM      4  C   UNL A   1      37.025  22.371  24.955  1.00  0.00     0.338 C 
ATOM      5  O   UNL A   1      37.396  21.551  24.111  1.00  0.00    -0.246 OA
BRANCH   4   6
ATOM      6  C   UNL A   1      35.618  22.874  24.909  1.00  0.00     0.067 C 
ATOM      7  C   UNL A   1      35.445  24.052  25.564  1.00  0.00     0.025 C 
BRANCH   6   8
ATOM      8  C   UNL A   1      34.529  22.380  24.037  1.00  0.00    -0.011 A 
ATOM      9  C   UNL A   1      34.227  23.090  22.863  1.00  0.00     0.009 A 
ATOM     10  C   UNL A   1      33.634  21.380  24.443  1.00  0.00     0.009 A 
ATOM     11  C   UNL A   1      33.068  22.811  22.134  1.00  0.00     0.001 A 
ATOM     12  C   UNL A   1      32.513  21.053  23.681  1.00  0.00     0.001 A 
ATOM     13  C   UNL A   1      32.220  21.782  22.535  1.00  0.00     0.000 A 
ENDBRANCH   6   8
BRANCH   7  14
ATOM     14  C   UNL A   1      34.262  24.870  25.623  1.00  0.00    -0.014 A 
ATOM     15  C   UNL A   1      34.034  26.091  24.920  1.00  0.00     0.020 A 
ATOM     16  C   UNL A   1      33.169  24.519  26.386  1.00  0.00     0.073 A 
ATOM     17  C   UNL A   1      32.780  26.610  25.154  1.00  0.00     0.065 A 
ATOM     18  S   UNL A   1      31.892  25.657  26.258  1.00  0.00    -0.152 S 
ENDBRANCH   7  14
ENDBRANCH   4   6
ENDBRANCH   3   4
ENDBRANCH   2   3
ENDBRANCH   1   2
BRANCH   1  19
ATOM     19  O   UNL A   1      39.899  24.574  26.155  1.00  0.00    -0.458 OA
BRANCH  19  20
ATOM     20  C   UNL A   1      40.882  25.509  26.164  1.00  0.00     0.338 C 
ATOM     21  O   UNL A   1      41.659  25.741  25.252  1.00  0.00    -0.246 OA
BRANCH  20  22
ATOM     22  C   UNL A   1      40.821  26.320  27.406  1.00  0.00     0.060 A 
ATOM     23  C   UNL A   1      39.832  25.996  28.342  1.00  0.00     0.016 A 
ATOM     24  C   UNL A   1      41.706  27.371  27.674  1.00  0.00     0.016 A 
ATOM     25  C   UNL A   1      39.696  26.741  29.518  1.00  0.00     0.010 A 
ATOM     26  C   UNL A   1      41.583  28.096  28.870  1.00  0.00     0.010 A 
ATOM     27  C   UNL A   1      40.552  27.815  29.786  1.00  0.00    -0.014 A 
BRANCH  27  28
ATOM     28  C   UNL A   1      40.255  28.736  30.925  1.00  0.00     0.031 A 
ATOM     29  C   UNL A   1      41.032  28.575  32.208  1.00  0.00     0.074 A 
ATOM     30  C   UNL A   1      39.361  29.741  30.828  1.00  0.00     0.049 A 
ATOM     31  N   UNL A   1      41.042  29.340  33.271  1.00  0.00    -0.248 NA
ATOM     32  C   UNL A   1      41.925  27.409  32.303  1.00  0.00     0.031 C 
ATOM     33  C   UNL A   1      38.552  30.048  29.653  1.00  0.00     0.029 A 
ATOM     34  N   UNL A   1      38.980  30.696  31.744  1.00  0.00    -0.354 N 
ATOM     35  C   UNL A   1      41.965  28.769  34.137  1.00  0.00     0.074 A 
ATOM     36  C   UNL A   1      42.422  27.545  33.522  1.00  0.00     0.031 C 
ATOM     37  C   UNL A   1      37.742  31.086  29.927  1.00  0.00     0.029 A 
ATOM     38  C   UNL A   1      37.995  31.545  31.291  1.00  0.00     0.049 A 
ATOM     39  H   UNL A   1      39.378  30.766  32.643  1.00  0.00     0.167 HD
ATOM     40  C   UNL A   1      42.437  29.242  35.315  1.00  0.00     0.037 A 
ATOM     41  C   UNL A   1      37.383  32.586  31.892  1.00  0.00     0.037 A 
ATOM     42  C   UNL A   1      41.988  30.454  35.942  1.00  0.00     0.049 A 
ATOM     43  C   UNL A   1      37.854  33.044  33.250  1.00  0.00     0.074 A 
ATOM     44  C   UNL A   1      42.440  31.034  37.115  1.00  0.00     0.029 A 
ATOM     45  N   UNL A   1      40.970  31.264  35.463  1.00  0.00    -0.354 N 
ATOM     46  N   UNL A   1      38.807  32.553  34.005  1.00  0.00    -0.248 NA
ATOM     47  C   UNL A   1      37.195  34.231  33.818  1.00  0.00     0.031 C 
ATOM     48  C   UNL A   1      41.657  32.164  37.374  1.00  0.00     0.029 A 
ATOM     49  C   UNL A   1      40.759  32.323  36.331  1.00  0.00     0.049 A 
ATOM     50  H   UNL A   1      40.471  31.110  34.627  1.00  0.00     0.167 HD
ATOM     51  C   UNL A   1      38.913  33.413  35.095  1.00  0.00     0.074 A 
ATOM     52  C   UNL A   1      37.913  34.443  34.912  1.00  0.00     0.031 C 
ATOM     53  C   UNL A   1      39.780  33.364  36.137  1.00  0.00     0.037 A 
BRANCH  40  54
ATOM     54  C   UNL A   1      43.504  28.431  35.994  1.00  0.00     0.058 A 
ATOM     55  C   UNL A   1      44.869  28.705  35.802  1.00  0.00     0.135 A 
ATOM     56  C   UNL A   1      43.161  27.365  36.839  1.00  0.00     0.135 A 
ATOM     57  F   UNL A   1      45.251  29.702  34.989  1.00  0.00    -0.206 F 
ATOM     58  C   UNL A   1      45.857  27.920  36.386  1.00  0.00     0.059 A 
ATOM     59  C   UNL A   1      44.134  26.586  37.459  1.00  0.00     0.059 A 
ATOM     60  F   UNL A   1      41.872  27.059  37.057  1.00  0.00    -0.206 F 
ATOM     61  C   UNL A   1      45.478  26.859  37.208  1.00  0.00     0.060 A 
BRANCH  61  62
ATOM     62  S   UNL A   1      46.770  25.831  37.937  1.00  0.00     0.124 S 
ATOM     63  O   UNL A   1      46.210  25.555  39.256  1.00  0.00    -0.237 OA
ATOM     64  O   UNL A   1      46.821  24.696  37.020  1.00  0.00    -0.237 OA
ATOM     65  O   UNL A   1      47.943  26.698  37.923  1.00  0.00    -0.744 OA
ENDBRANCH  61  62
ENDBRANCH  40  54
BRANCH  41  66
ATOM     66  C   UNL A   1      36.295  33.327  31.191  1.00  0.00     0.058 A 
ATOM     67  C   UNL A   1      36.573  34.163  30.100  1.00  0.00     0.135 A 
ATOM     68  C   UNL A   1      34.963  33.242  31.625  1.00  0.00     0.135 A 
ATOM     69  F   UNL A   1      37.834  34.291  29.657  1.00  0.00    -0.206 F 
ATOM     70  C   UNL A   1      35.576  34.909  29.478  1.00  0.00     0.059 A 
ATOM     71  C   UNL A   1      33.944  33.960  31.005  1.00  0.00     0.059 A 
ATOM     72  F   UNL A   1      34.643  32.454  32.663  1.00  0.00    -0.206 F 
ATOM     73  C   UNL A   1      34.263  34.801  29.939  1.00  0.00     0.060 A 
BRANCH  73  74
ATOM     74  S   UNL A   1      32.974  35.754  29.104  1.00  0.00     0.124 S 
ATOM     75  O   UNL A   1      32.141  36.172  30.226  1.00  0.00    -0.237 OA
ATOM     76  O   UNL A   1      33.747  36.809  28.456  1.00  0.00    -0.237 OA
ATOM     77  O   UNL A   1      32.369  34.783  28.198  1.00  0.00    -0.744 OA
ENDBRANCH  73  74
ENDBRANCH  41  66
BRANCH  53  78
ATOM     78  C   UNL A   1      39.756  34.497  37.129  1.00  0.00     0.058 A 
ATOM     79  C   UNL A   1      39.005  34.443  38.315  1.00  0.00     0.135 A 
ATOM     80  C   UNL A   1      40.540  35.642  36.907  1.00  0.00     0.135 A 
ATOM     81  F   UNL A   1      38.238  33.374  38.581  1.00  0.00    -0.206 F 
ATOM     82  C   UNL A   1      39.007  35.496  39.226  1.00  0.00     0.059 A 
ATOM     83  C   UNL A   1      40.582  36.692  37.819  1.00  0.00     0.059 A 
ATOM     84  F   UNL A   1      41.290  35.744  35.798  1.00  0.00    -0.206 F 
ATOM     85  C   UNL A   1      39.798  36.618  38.969  1.00  0.00     0.060 A 
BRANCH  85  86
ATOM     86  S   UNL A   1      39.810  37.967  40.167  1.00  0.00     0.124 S 
ATOM     87  O   UNL A   1      39.372  37.286  41.381  1.00  0.00    -0.237 OA
ATOM     88  O   UNL A   1      41.206  38.393  40.148  1.00  0.00    -0.237 OA
ATOM     89  O   UNL A   1      38.861  38.927  39.609  1.00  0.00    -0.744 OA
ENDBRANCH  85  86
ENDBRANCH  53  78
ENDBRANCH  27  28
ENDBRANCH  20  22
ENDBRANCH  19  20
ENDBRANCH   1  19
TORSDOF 16
ENDMDL
MODEL 3
REMARK VINA RESULT:      -9.3      5.004     10.864
REMARK SMILES O=C(OCCOC(=O)c1ccc(-c2c3nc(c(-c4c(F)cc(S(=O)(=O)[O-])cc4F)c4ccc([nH]4)c(-c4c(F)cc(S(=O)(=O)[O-])cc4F)c4nc(c(-c5c(F)cc(S(=O)(=O)[O-])cc5F)c5ccc2[nH]5)C=C4)C=C3)cc1)/C(=C/c1ccsc1)c1ccccc1
REMARK SMILES IDX 5 1 4 2 3 3 2 4 1 5 75 6 76 7 82 8 83 9 87 10 84 11 86 12
REMARK SMILES IDX 85 13 77 14 78 15 81 16 79 17 80 18 6 19 7 20 8 21 9 22
REMARK SMILES IDX 10 23 74 24 11 25 73 26 12 27 13 28 14 29 67 30 15 31 72 32
REMARK SMILES IDX 66 33 68 34 16 35 71 36 65 37 64 38 17 40 51 41 30 42 50 43
REMARK SMILES IDX 31 44 34 45 49 46 69 47 32 48 33 49 48 51 70 52 35 53 18 54
REMARK SMILES IDX 19 55 28 56 20 57 21 58 27 59 29 60 22 61 23 62 24 63 25 64
REMARK SMILES IDX 26 65 52 66 53 67 62 68 54 69 55 70 61 71 63 72 56 73 57 74
REMARK SMILES IDX 58 75 59 76 60 77 36 78 37 79 46 80 38 81 39 82 45 83 47 84
REMARK SMILES IDX 40 85 41 86 42 87 43 88 44 89
REMARK H PARENT 68 39 34 50
REMARK Flexibility Score: inf
ROOT
ATOM      1  C   UNL A   1      33.285  28.975  25.122  1.00  0.00     0.275 C 
ENDROOT
BRANCH   1   2
ATOM      2  C   UNL A   1      33.841  28.361  23.835  1.00  0.00     0.275 C 
BRANCH   2   3
ATOM      3  O   UNL A   1      33.078  27.243  23.354  1.00  0.00    -0.458 OA
BRANCH   3   4
ATOM      4  C   UNL A   1      33.477  26.124  22.708  1.00  0.00     0.338 C 
ATOM      5  O   UNL A   1      33.637  26.199  21.487  1.00  0.00    -0.246 OA
BRANCH   4   6
ATOM      6  C   UNL A   1      33.657  24.802  23.385  1.00  0.00     0.067 C 
ATOM      7  C   UNL A   1      32.582  23.981  23.259  1.00  0.00     0.025 C 
BRANCH   6   8
ATOM      8  C   UNL A   1      34.923  24.240  23.905  1.00  0.00    -0.011 A 
ATOM      9  C   UNL A   1      35.639  23.332  23.108  1.00  0.00     0.009 A 
ATOM     10  C   UNL A   1      35.318  24.387  25.242  1.00  0.00     0.009 A 
ATOM     11  C   UNL A   1      36.702  22.594  23.637  1.00  0.00     0.001 A 
ATOM     12  C   UNL A   1      36.422  23.704  25.754  1.00  0.00     0.001 A 
ATOM     13  C   UNL A   1      37.103  22.794  24.956  1.00  0.00     0.000 A 
ENDBRANCH   6   8
BRANCH   7  14
ATOM     14  C   UNL A   1      32.458  22.611  23.680  1.00  0.00    -0.014 A 
ATOM     15  C   UNL A   1      32.522  21.453  22.847  1.00  0.00     0.020 A 
ATOM     16  C   UNL A   1      32.279  22.266  25.003  1.00  0.00     0.073 A 
ATOM     17  C   UNL A   1      32.413  20.281  23.562  1.00  0.00     0.065 A 
ATOM     18  S   UNL A   1      32.183  20.570  25.229  1.00  0.00    -0.152 S 
ENDBRANCH   7  14
ENDBRANCH   4   6
ENDBRANCH   3   4
ENDBRANCH   2   3
ENDBRANCH   1   2
BRANCH   1  19
ATOM     19  O   UNL A   1      34.175  28.784  26.236  1.00  0.00    -0.458 OA
BRANCH  19  20
ATOM     20  C   UNL A   1      34.361  29.873  27.023  1.00  0.00     0.338 C 
ATOM     21  O   UNL A   1      33.570  30.791  27.173  1.00  0.00    -0.246 OA
BRANCH  20  22
ATOM     22  C   UNL A   1      35.624  29.753  27.793  1.00  0.00     0.060 A 
ATOM     23  C   UNL A   1      36.824  29.979  27.108  1.00  0.00     0.016 A 
ATOM     24  C   UNL A   1      35.658  29.437  29.156  1.00  0.00     0.016 A 
ATOM     25  C   UNL A   1      38.052  29.849  27.764  1.00  0.00     0.010 A 
ATOM     26  C   UNL A   1      36.893  29.337  29.816  1.00  0.00     0.010 A 
ATOM     27  C   UNL A   1      38.105  29.502  29.119  1.00  0.00    -0.014 A 
BRANCH  27  28
ATOM     28  C   UNL A   1      39.414  29.147  29.744  1.00  0.00     0.031 A 
ATOM     29  C   UNL A   1      39.868  29.915  30.961  1.00  0.00     0.074 A 
ATOM     30  C   UNL A   1      40.175  28.127  29.299  1.00  0.00     0.049 A 
ATOM     31  N   UNL A   1      40.892  29.693  31.745  1.00  0.00    -0.248 NA
ATOM     32  C   UNL A   1      39.057  31.078  31.353  1.00  0.00     0.031 C 
ATOM     33  C   UNL A   1      39.866  27.271  28.157  1.00  0.00     0.029 A 
ATOM     34  N   UNL A   1      41.378  27.636  29.757  1.00  0.00    -0.354 N 
ATOM     35  C   UNL A   1      40.823  30.661  32.739  1.00  0.00     0.074 A 
ATOM     36  C   UNL A   1      39.718  31.530  32.407  1.00  0.00     0.031 C 
ATOM     37  C   UNL A   1      40.865  26.390  27.975  1.00  0.00     0.029 A 
ATOM     38  C   UNL A   1      41.878  26.594  29.009  1.00  0.00     0.049 A 
ATOM     39  H   UNL A   1      41.838  27.998  30.548  1.00  0.00     0.167 HD
ATOM     40  C   UNL A   1      41.572  30.789  33.859  1.00  0.00     0.037 A 
ATOM     41  C   UNL A   1      43.007  25.870  29.150  1.00  0.00     0.037 A 
ATOM     42  C   UNL A   1      42.678  29.937  34.200  1.00  0.00     0.049 A 
ATOM     43  C   UNL A   1      43.888  26.090  30.356  1.00  0.00     0.074 A 
ATOM     44  C   UNL A   1      43.468  29.966  35.336  1.00  0.00     0.029 A 
ATOM     45  N   UNL A   1      43.166  28.915  33.400  1.00  0.00    -0.354 N 
ATOM     46  N   UNL A   1      43.742  26.940  31.343  1.00  0.00    -0.248 NA
ATOM     47  C   UNL A   1      45.064  25.216  30.490  1.00  0.00     0.031 C 
ATOM     48  C   UNL A   1      44.469  28.998  35.198  1.00  0.00     0.029 A 
ATOM     49  C   UNL A   1      44.264  28.326  34.004  1.00  0.00     0.049 A 
ATOM     50  H   UNL A   1      42.786  28.647  32.531  1.00  0.00     0.167 HD
ATOM     51  C   UNL A   1      44.759  26.652  32.249  1.00  0.00     0.074 A 
ATOM     52  C   UNL A   1      45.527  25.563  31.683  1.00  0.00     0.031 C 
ATOM     53  C   UNL A   1      45.014  27.224  33.453  1.00  0.00     0.037 A 
BRANCH  40  54
ATOM     54  C   UNL A   1      41.205  31.904  34.798  1.00  0.00     0.058 A 
ATOM     55  C   UNL A   1      40.232  31.731  35.798  1.00  0.00     0.135 A 
ATOM     56  C   UNL A   1      41.823  33.158  34.694  1.00  0.00     0.135 A 
ATOM     57  F   UNL A   1      39.596  30.555  35.928  1.00  0.00    -0.206 F 
ATOM     58  C   UNL A   1      39.852  32.777  36.631  1.00  0.00     0.059 A 
ATOM     59  C   UNL A   1      41.480  34.211  35.538  1.00  0.00     0.059 A 
ATOM     60  F   UNL A   1      42.758  33.378  33.757  1.00  0.00    -0.206 F 
ATOM     61  C   UNL A   1      40.478  34.015  36.488  1.00  0.00     0.060 A 
BRANCH  61  62
ATOM     62  S   UNL A   1      39.955  35.373  37.556  1.00  0.00     0.124 S 
ATOM     63  O   UNL A   1      39.819  36.462  36.593  1.00  0.00    -0.237 OA
ATOM     64  O   UNL A   1      38.707  34.866  38.118  1.00  0.00    -0.237 OA
ATOM     65  O   UNL A   1      41.057  35.506  38.502  1.00  0.00    -0.744 OA
ENDBRANCH  61  62
ENDBRANCH  40  54
BRANCH  41  66
ATOM     66  C   UNL A   1      43.350  24.807  28.162  1.00  0.00     0.058 A 
ATOM     67  C   UNL A   1      44.064  25.106  26.992  1.00  0.00     0.135 A 
ATOM     68  C   UNL A   1      42.934  23.480  28.351  1.00  0.00     0.135 A 
ATOM     69  F   UNL A   1      44.471  26.363  26.758  1.00  0.00    -0.206 F 
ATOM     70  C   UNL A   1      44.334  24.135  26.032  1.00  0.00     0.059 A 
ATOM     71  C   UNL A   1      43.211  22.485  27.416  1.00  0.00     0.059 A 
ATOM     72  F   UNL A   1      42.249  23.140  29.454  1.00  0.00    -0.206 F 
ATOM     73  C   UNL A   1      43.903  22.826  26.253  1.00  0.00     0.060 A 
BRANCH  73  74
ATOM     74  S   UNL A   1      44.284  21.570  25.011  1.00  0.00     0.124 S 
ATOM     75  O   UNL A   1      44.081  22.309  23.770  1.00  0.00    -0.237 OA
ATOM     76  O   UNL A   1      45.667  21.233  25.334  1.00  0.00    -0.237 OA
ATOM     77  O   UNL A   1      43.310  20.518  25.284  1.00  0.00    -0.744 OA
ENDBRANCH  73  74
ENDBRANCH  41  66
BRANCH  53  78
ATOM     78  C   UNL A   1      46.119  26.638  34.293  1.00  0.00     0.058 A 
ATOM     79  C   UNL A   1      47.436  27.123  34.248  1.00  0.00     0.135 A 
ATOM     80  C   UNL A   1      45.838  25.597  35.195  1.00  0.00     0.135 A 
ATOM     81  F   UNL A   1      47.763  28.115  33.405  1.00  0.00    -0.206 F 
ATOM     82  C   UNL A   1      48.440  26.576  35.043  1.00  0.00     0.059 A 
ATOM     83  C   UNL A   1      46.819  25.058  36.022  1.00  0.00     0.059 A 
ATOM     84  F   UNL A   1      44.594  25.103  35.292  1.00  0.00    -0.206 F 
ATOM     85  C   UNL A   1      48.122  25.542  35.927  1.00  0.00     0.060 A 
BRANCH  85  86
ATOM     86  S   UNL A   1      49.426  24.855  36.968  1.00  0.00     0.124 S 
ATOM     87  O   UNL A   1      50.511  25.805  36.745  1.00  0.00    -0.237 OA
ATOM     88  O   UNL A   1      48.820  24.886  38.294  1.00  0.00    -0.237 OA
ATOM     89  O   UNL A   1      49.638  23.521  36.413  1.00  0.00    -0.744 OA
ENDBRANCH  85  86
ENDBRANCH  53  78
ENDBRANCH  27  28
ENDBRANCH  20  22
ENDBRANCH  19  20
ENDBRANCH   1  19
TORSDOF 16
ENDMDL
