MODEL 1
REMARK VINA RESULT:     -12.6      0.000      0.000
REMARK SMILES Cc1ccc(S(=O)(=O)N2CCN(C(=O)[C@H]3CCCC[C@H]3C(=O)OCCOC(=O)c3ccc(-c4c5nc(c(-c6c(F)cc(S(=O)(=O)[O-])cc6F)c6ccc([nH]6)c(-c6c(F)cc(S(=O)(=O)[O-])cc6F)c6nc(c(-c7c(F)cc(S(=O)(=O)[O-])cc7F)c7ccc4[nH]7)C=C6)C=C5)cc3)CC2)cc1C
REMARK SMILES IDX 24 1 23 2 21 3 22 4 20 5 15 6 16 7 17 8 19 9 18 10 13 11
REMARK SMILES IDX 9 12 10 13 96 14 11 15 95 16 12 17 14 18 6 19 7 20 8 21 5 22
REMARK SMILES IDX 1 23 2 24 3 25 98 26 4 27 97 28 99 29 25 30 26 31 27 32
REMARK SMILES IDX 28 33 29 34 30 35 94 36 31 37 93 38 32 39 33 40 34 41 87 42
REMARK SMILES IDX 35 43 92 44 86 45 88 46 36 47 91 48 85 49 84 50 37 52 71 53
REMARK SMILES IDX 50 54 70 55 51 56 54 57 69 58 89 59 52 60 53 61 68 63 90 64
REMARK SMILES IDX 55 65 38 66 39 67 48 68 40 69 41 70 47 71 49 72 42 73 43 74
REMARK SMILES IDX 44 75 45 76 46 77 72 78 73 79 82 80 74 81 75 82 81 83 83 84
REMARK SMILES IDX 76 85 77 86 78 87 79 88 80 89 56 90 57 91 66 92 58 93 59 94
REMARK SMILES IDX 65 95 67 96 60 97 61 98 62 99 63 100 64 101
REMARK H PARENT 88 51 54 62
REMARK Flexibility Score: inf
ROOT
ATOM      1  C   UNL A   1      37.502  23.261  25.807  1.00  0.00     0.274 C 
ENDROOT
BRANCH   1   2
ATOM      2  O   UNL A   1      36.583  22.177  25.560  1.00  0.00    -0.462 OA
BRANCH   2   3
ATOM      3  C   UNL A   1      35.351  22.293  26.117  1.00  0.00     0.309 C 
ATOM      4  O   UNL A   1      34.993  23.244  26.805  1.00  0.00    -0.252 OA
BRANCH   3   5
ATOM      5  C   UNL A   1      34.392  21.163  25.754  1.00  0.00     0.111 C 
ATOM      6  C   UNL A   1      32.994  21.561  25.228  1.00  0.00     0.093 C 
ATOM      7  C   UNL A   1      32.161  20.283  25.016  1.00  0.00     0.014 C 
ATOM      8  C   UNL A   1      32.854  19.278  24.103  1.00  0.00     0.001 C 
ATOM      9  C   UNL A   1      35.108  20.120  24.884  1.00  0.00     0.016 C 
ATOM     10  C   UNL A   1      34.231  18.900  24.626  1.00  0.00     0.001 C 
BRANCH   6  11
ATOM     11  C   UNL A   1      33.075  22.419  23.962  1.00  0.00     0.226 C 
ATOM     12  N   UNL A   1      30.889  25.895  23.263  1.00  0.00    -0.194 NA
ATOM     13  C   UNL A   1      31.742  25.225  22.257  1.00  0.00     0.124 C 
ATOM     14  C   UNL A   1      30.554  25.081  24.461  1.00  0.00     0.124 C 
ATOM     15  C   UNL A   1      32.978  24.629  22.923  1.00  0.00     0.136 C 
ATOM     16  C   UNL A   1      31.771  24.323  25.048  1.00  0.00     0.136 C 
ATOM     17  N   UNL A   1      32.600  23.715  24.005  1.00  0.00    -0.340 N 
ATOM     18  O   UNL A   1      33.580  21.973  22.929  1.00  0.00    -0.275 OA
BRANCH  12  19
ATOM     19  S   UNL A   1      30.601  27.547  23.186  1.00  0.00     0.243 S 
ATOM     20  O   UNL A   1      29.257  27.803  23.652  1.00  0.00    -0.207 OA
ATOM     21  O   UNL A   1      31.042  27.995  21.878  1.00  0.00    -0.207 OA
BRANCH  19  22
ATOM     22  C   UNL A   1      31.701  28.289  24.372  1.00  0.00     0.082 A 
ATOM     23  C   UNL A   1      34.437  30.092  27.180  1.00  0.00     0.044 C 
ATOM     24  C   UNL A   1      33.453  29.499  26.210  1.00  0.00    -0.048 A 
ATOM     25  C   UNL A   1      33.799  28.303  25.566  1.00  0.00     0.005 A 
ATOM     26  C   UNL A   1      32.184  30.063  25.971  1.00  0.00    -0.047 A 
ATOM     27  C   UNL A   1      32.911  27.688  24.689  1.00  0.00     0.022 A 
ATOM     28  C   UNL A   1      31.331  29.472  25.016  1.00  0.00     0.025 A 
ATOM     29  C   UNL A   1      31.666  31.254  26.731  1.00  0.00     0.044 C 
ENDBRANCH  19  22
ENDBRANCH  12  19
ENDBRANCH   6  11
ENDBRANCH   3   5
ENDBRANCH   2   3
ENDBRANCH   1   2
BRANCH   1  30
ATOM     30  C   UNL A   1      38.881  22.728  26.198  1.00  0.00     0.275 C 
BRANCH  30  31
ATOM     31  O   UNL A   1      39.441  23.483  27.286  1.00  0.00    -0.458 OA
BRANCH  31  32
ATOM     32  C   UNL A   1      40.501  24.259  26.960  1.00  0.00     0.338 C 
ATOM     33  O   UNL A   1      41.227  24.162  25.985  1.00  0.00    -0.246 OA
BRANCH  32  34
ATOM     34  C   UNL A   1      40.576  25.373  27.913  1.00  0.00     0.060 A 
ATOM     35  C   UNL A   1      39.485  25.583  28.756  1.00  0.00     0.016 A 
ATOM     36  C   UNL A   1      41.672  26.232  27.944  1.00  0.00     0.016 A 
ATOM     37  C   UNL A   1      39.472  26.657  29.635  1.00  0.00     0.010 A 
ATOM     38  C   UNL A   1      41.674  27.296  28.850  1.00  0.00     0.010 A 
ATOM     39  C   UNL A   1      40.574  27.514  29.701  1.00  0.00    -0.014 A 
BRANCH  39  40
ATOM     40  C   UNL A   1      40.586  28.624  30.681  1.00  0.00     0.031 A 
ATOM     41  C   UNL A   1      41.522  28.585  31.850  1.00  0.00     0.074 A 
ATOM     42  C   UNL A   1      39.732  29.651  30.520  1.00  0.00     0.049 A 
ATOM     43  N   UNL A   1      41.578  29.377  32.889  1.00  0.00    -0.248 NA
ATOM     44  C   UNL A   1      42.524  27.509  31.855  1.00  0.00     0.031 C 
ATOM     45  C   UNL A   1      38.804  29.807  29.397  1.00  0.00     0.029 A 
ATOM     46  N   UNL A   1      39.487  30.744  31.311  1.00  0.00    -0.354 N 
ATOM     47  C   UNL A   1      42.595  28.877  33.691  1.00  0.00     0.074 A 
ATOM     48  C   UNL A   1      43.125  27.709  33.020  1.00  0.00     0.031 C 
ATOM     49  C   UNL A   1      38.077  30.919  29.582  1.00  0.00     0.029 A 
ATOM     50  C   UNL A   1      38.441  31.515  30.863  1.00  0.00     0.049 A 
ATOM     51  H   UNL A   1      40.008  30.957  32.118  1.00  0.00     0.167 HD
ATOM     52  C   UNL A   1      43.038  29.352  34.881  1.00  0.00     0.037 A 
ATOM     53  C   UNL A   1      37.802  32.549  31.445  1.00  0.00     0.037 A 
ATOM     54  C   UNL A   1      42.498  30.522  35.526  1.00  0.00     0.049 A 
ATOM     55  C   UNL A   1      38.265  33.022  32.792  1.00  0.00     0.074 A 
ATOM     56  C   UNL A   1      42.902  31.117  36.707  1.00  0.00     0.029 A 
ATOM     57  N   UNL A   1      41.425  31.266  35.052  1.00  0.00    -0.354 N 
ATOM     58  N   UNL A   1      39.243  32.558  33.534  1.00  0.00    -0.248 NA
ATOM     59  C   UNL A   1      37.536  34.149  33.388  1.00  0.00     0.031 C 
ATOM     60  C   UNL A   1      42.038  32.186  36.976  1.00  0.00     0.029 A 
ATOM     61  C   UNL A   1      41.125  32.288  35.937  1.00  0.00     0.049 A 
ATOM     62  H   UNL A   1      40.947  31.091  34.209  1.00  0.00     0.167 HD
ATOM     63  C   UNL A   1      39.248  33.333  34.687  1.00  0.00     0.074 A 
ATOM     64  C   UNL A   1      38.189  34.312  34.532  1.00  0.00     0.031 C 
ATOM     65  C   UNL A   1      40.052  33.240  35.774  1.00  0.00     0.037 A 
BRANCH  52  66
ATOM     66  C   UNL A   1      44.117  28.572  35.578  1.00  0.00     0.058 A 
ATOM     67  C   UNL A   1      43.828  27.554  36.500  1.00  0.00     0.135 A 
ATOM     68  C   UNL A   1      45.470  28.860  35.326  1.00  0.00     0.135 A 
ATOM     69  F   UNL A   1      42.553  27.247  36.791  1.00  0.00    -0.206 F 
ATOM     70  C   UNL A   1      44.838  26.880  37.180  1.00  0.00     0.059 A 
ATOM     71  C   UNL A   1      46.497  28.180  35.974  1.00  0.00     0.059 A 
ATOM     72  F   UNL A   1      45.804  29.823  34.454  1.00  0.00    -0.206 F 
ATOM     73  C   UNL A   1      46.170  27.208  36.918  1.00  0.00     0.060 A 
BRANCH  73  74
ATOM     74  S   UNL A   1      47.469  26.359  37.841  1.00  0.00     0.124 S 
ATOM     75  O   UNL A   1      48.163  27.482  38.464  1.00  0.00    -0.237 OA
ATOM     76  O   UNL A   1      46.704  25.508  38.747  1.00  0.00    -0.237 OA
ATOM     77  O   UNL A   1      48.218  25.655  36.806  1.00  0.00    -0.744 OA
ENDBRANCH  73  74
ENDBRANCH  52  66
BRANCH  53  78
ATOM     78  C   UNL A   1      36.627  33.148  30.763  1.00  0.00     0.058 A 
ATOM     79  C   UNL A   1      35.321  32.876  31.191  1.00  0.00     0.135 A 
ATOM     80  C   UNL A   1      36.795  34.072  29.718  1.00  0.00     0.135 A 
ATOM     81  F   UNL A   1      35.108  31.993  32.179  1.00  0.00    -0.206 F 
ATOM     82  C   UNL A   1      34.222  33.510  30.618  1.00  0.00     0.059 A 
ATOM     83  C   UNL A   1      35.715  34.735  29.146  1.00  0.00     0.059 A 
ATOM     84  F   UNL A   1      38.027  34.375  29.280  1.00  0.00    -0.206 F 
ATOM     85  C   UNL A   1      34.431  34.448  29.605  1.00  0.00     0.060 A 
BRANCH  85  86
ATOM     86  S   UNL A   1      33.007  35.338  28.940  1.00  0.00     0.124 S 
ATOM     87  O   UNL A   1      32.507  34.394  27.948  1.00  0.00    -0.237 OA
ATOM     88  O   UNL A   1      32.176  35.518  30.127  1.00  0.00    -0.237 OA
ATOM     89  O   UNL A   1      33.596  36.563  28.406  1.00  0.00    -0.744 OA
ENDBRANCH  85  86
ENDBRANCH  53  78
BRANCH  65  90
ATOM     90  C   UNL A   1      39.814  34.218  36.891  1.00  0.00     0.058 A 
ATOM     91  C   UNL A   1      39.144  33.837  38.064  1.00  0.00     0.135 A 
ATOM     92  C   UNL A   1      40.314  35.527  36.815  1.00  0.00     0.135 A 
ATOM     93  F   UNL A   1      38.637  32.600  38.181  1.00  0.00    -0.206 F 
ATOM     94  C   UNL A   1      38.971  34.724  39.121  1.00  0.00     0.059 A 
ATOM     95  C   UNL A   1      40.174  36.423  37.870  1.00  0.00     0.059 A 
ATOM     96  F   UNL A   1      40.967  35.939  35.716  1.00  0.00    -0.206 F 
ATOM     97  C   UNL A   1      39.495  36.014  39.017  1.00  0.00     0.060 A 
BRANCH  97  98
ATOM     98  S   UNL A   1      39.311  37.138  40.418  1.00  0.00     0.124 S 
ATOM     99  O   UNL A   1      38.658  38.283  39.791  1.00  0.00    -0.237 OA
ATOM    100  O   UNL A   1      38.483  36.360  41.335  1.00  0.00    -0.237 OA
ATOM    101  O   UNL A   1      40.684  37.361  40.858  1.00  0.00    -0.744 OA
ENDBRANCH  97  98
ENDBRANCH  65  90
ENDBRANCH  39  40
ENDBRANCH  32  34
ENDBRANCH  31  32
ENDBRANCH  30  31
ENDBRANCH   1  30
TORSDOF 17
ENDMDL
MODEL 2
REMARK VINA RESULT:     -12.5      6.352     11.779
REMARK SMILES Cc1ccc(S(=O)(=O)N2CCN(C(=O)[C@H]3CCCC[C@H]3C(=O)OCCOC(=O)c3ccc(-c4c5nc(c(-c6c(F)cc(S(=O)(=O)[O-])cc6F)c6ccc([nH]6)c(-c6c(F)cc(S(=O)(=O)[O-])cc6F)c6nc(c(-c7c(F)cc(S(=O)(=O)[O-])cc7F)c7ccc4[nH]7)C=C6)C=C5)cc3)CC2)cc1C
REMARK SMILES IDX 24 1 23 2 21 3 22 4 20 5 15 6 16 7 17 8 19 9 18 10 13 11
REMARK SMILES IDX 9 12 10 13 96 14 11 15 95 16 12 17 14 18 6 19 7 20 8 21 5 22
REMARK SMILES IDX 1 23 2 24 3 25 98 26 4 27 97 28 99 29 25 30 26 31 27 32
REMARK SMILES IDX 28 33 29 34 30 35 94 36 31 37 93 38 32 39 33 40 34 41 87 42
REMARK SMILES IDX 35 43 92 44 86 45 88 46 36 47 91 48 85 49 84 50 37 52 71 53
REMARK SMILES IDX 50 54 70 55 51 56 54 57 69 58 89 59 52 60 53 61 68 63 90 64
REMARK SMILES IDX 55 65 38 66 39 67 48 68 40 69 41 70 47 71 49 72 42 73 43 74
REMARK SMILES IDX 44 75 45 76 46 77 72 78 73 79 82 80 74 81 75 82 81 83 83 84
REMARK SMILES IDX 76 85 77 86 78 87 79 88 80 89 56 90 57 91 66 92 58 93 59 94
REMARK SMILES IDX 65 95 67 96 60 97 61 98 62 99 63 100 64 101
REMARK H PARENT 88 51 54 62
REMARK Flexibility Score: inf
ROOT
ATOM      1  C   UNL A   1      33.521  30.557  26.884  1.00  0.00     0.274 C 
ENDROOT
BRANCH   1   2
ATOM      2  O   UNL A   1      32.670  29.526  26.343  1.00  0.00    -0.462 OA
BRANCH   2   3
ATOM      3  C   UNL A   1      33.110  28.909  25.217  1.00  0.00     0.309 C 
ATOM      4  O   UNL A   1      34.219  28.397  25.101  1.00  0.00    -0.252 OA
BRANCH   3   5
ATOM      5  C   UNL A   1      32.072  28.832  24.101  1.00  0.00     0.111 C 
ATOM      6  C   UNL A   1      31.815  27.445  23.468  1.00  0.00     0.093 C 
ATOM      7  C   UNL A   1      30.813  27.607  22.309  1.00  0.00     0.014 C 
ATOM      8  C   UNL A   1      29.521  28.288  22.744  1.00  0.00     0.001 C 
ATOM      9  C   UNL A   1      30.792  29.571  24.516  1.00  0.00     0.016 C 
ATOM     10  C   UNL A   1      29.786  29.647  23.373  1.00  0.00     0.001 C 
BRANCH   6  11
ATOM     11  C   UNL A   1      31.348  26.415  24.501  1.00  0.00     0.226 C 
ATOM     12  N   UNL A   1      31.766  22.286  24.145  1.00  0.00    -0.194 NA
ATOM     13  C   UNL A   1      31.004  22.962  25.218  1.00  0.00     0.124 C 
ATOM     14  C   UNL A   1      32.103  23.132  22.970  1.00  0.00     0.124 C 
ATOM     15  C   UNL A   1      31.690  24.265  25.613  1.00  0.00     0.136 C 
ATOM     16  C   UNL A   1      32.636  24.535  23.356  1.00  0.00     0.136 C 
ATOM     17  N   UNL A   1      31.869  25.136  24.449  1.00  0.00    -0.340 N 
ATOM     18  O   UNL A   1      30.543  26.725  25.382  1.00  0.00    -0.275 OA
BRANCH  12  19
ATOM     19  S   UNL A   1      32.459  20.778  24.398  1.00  0.00     0.243 S 
ATOM     20  O   UNL A   1      32.439  20.046  23.152  1.00  0.00    -0.207 OA
ATOM     21  O   UNL A   1      31.860  20.231  25.602  1.00  0.00    -0.207 OA
BRANCH  19  22
ATOM     22  C   UNL A   1      34.170  21.085  24.780  1.00  0.00     0.082 A 
ATOM     23  C   UNL A   1      38.343  21.797  25.615  1.00  0.00     0.044 C 
ATOM     24  C   UNL A   1      36.880  21.594  25.335  1.00  0.00    -0.048 A 
ATOM     25  C   UNL A   1      36.451  20.315  24.956  1.00  0.00     0.005 A 
ATOM     26  C   UNL A   1      35.924  22.618  25.493  1.00  0.00    -0.047 A 
ATOM     27  C   UNL A   1      35.104  20.059  24.723  1.00  0.00     0.022 A 
ATOM     28  C   UNL A   1      34.575  22.363  25.171  1.00  0.00     0.025 A 
ATOM     29  C   UNL A   1      36.269  23.974  26.046  1.00  0.00     0.044 C 
ENDBRANCH  19  22
ENDBRANCH  12  19
ENDBRANCH   6  11
ENDBRANCH   3   5
ENDBRANCH   2   3
ENDBRANCH   1   2
BRANCH   1  30
ATOM     30  C   UNL A   1      34.631  29.952  27.744  1.00  0.00     0.275 C 
BRANCH  30  31
ATOM     31  O   UNL A   1      35.711  30.882  27.930  1.00  0.00    -0.458 OA
BRANCH  31  32
ATOM     32  C   UNL A   1      36.246  30.900  29.173  1.00  0.00     0.338 C 
ATOM     33  O   UNL A   1      35.676  31.115  30.230  1.00  0.00    -0.246 OA
BRANCH  32  34
ATOM     34  C   UNL A   1      37.646  30.465  29.087  1.00  0.00     0.060 A 
ATOM     35  C   UNL A   1      38.107  29.995  27.858  1.00  0.00     0.016 A 
ATOM     36  C   UNL A   1      38.479  30.467  30.204  1.00  0.00     0.016 A 
ATOM     37  C   UNL A   1      39.403  29.513  27.730  1.00  0.00     0.010 A 
ATOM     38  C   UNL A   1      39.793  30.010  30.070  1.00  0.00     0.010 A 
ATOM     39  C   UNL A   1      40.262  29.531  28.831  1.00  0.00    -0.014 A 
BRANCH  39  40
ATOM     40  C   UNL A   1      41.662  29.074  28.681  1.00  0.00     0.031 A 
ATOM     41  C   UNL A   1      42.788  30.059  28.757  1.00  0.00     0.074 A 
ATOM     42  C   UNL A   1      41.906  27.771  28.452  1.00  0.00     0.049 A 
ATOM     43  N   UNL A   1      44.058  29.883  28.502  1.00  0.00    -0.248 NA
ATOM     44  C   UNL A   1      42.438  31.427  29.168  1.00  0.00     0.031 C 
ATOM     45  C   UNL A   1      40.887  26.720  28.396  1.00  0.00     0.029 A 
ATOM     46  N   UNL A   1      43.081  27.110  28.199  1.00  0.00    -0.354 N 
ATOM     47  C   UNL A   1      44.656  31.122  28.686  1.00  0.00     0.074 A 
ATOM     48  C   UNL A   1      43.608  32.044  29.068  1.00  0.00     0.031 C 
ATOM     49  C   UNL A   1      41.477  25.552  28.106  1.00  0.00     0.029 A 
ATOM     50  C   UNL A   1      42.902  25.782  27.892  1.00  0.00     0.049 A 
ATOM     51  H   UNL A   1      43.964  27.542  28.235  1.00  0.00     0.167 HD
ATOM     52  C   UNL A   1      45.963  31.454  28.541  1.00  0.00     0.037 A 
ATOM     53  C   UNL A   1      43.774  24.866  27.429  1.00  0.00     0.037 A 
ATOM     54  C   UNL A   1      46.990  30.516  28.167  1.00  0.00     0.049 A 
ATOM     55  C   UNL A   1      45.205  25.268  27.215  1.00  0.00     0.074 A 
ATOM     56  C   UNL A   1      48.350  30.735  28.037  1.00  0.00     0.029 A 
ATOM     57  N   UNL A   1      46.768  29.183  27.843  1.00  0.00    -0.354 N 
ATOM     58  N   UNL A   1      45.768  26.436  27.412  1.00  0.00    -0.248 NA
ATOM     59  C   UNL A   1      46.116  24.236  26.706  1.00  0.00     0.031 C 
ATOM     60  C   UNL A   1      48.941  29.550  27.581  1.00  0.00     0.029 A 
ATOM     61  C   UNL A   1      47.958  28.578  27.474  1.00  0.00     0.049 A 
ATOM     62  H   UNL A   1      45.892  28.735  27.873  1.00  0.00     0.167 HD
ATOM     63  C   UNL A   1      47.100  26.283  27.051  1.00  0.00     0.074 A 
ATOM     64  C   UNL A   1      47.263  24.901  26.644  1.00  0.00     0.031 C 
ATOM     65  C   UNL A   1      48.095  27.204  27.051  1.00  0.00     0.037 A 
BRANCH  52  66
ATOM     66  C   UNL A   1      46.335  32.898  28.736  1.00  0.00     0.058 A 
ATOM     67  C   UNL A   1      46.712  33.411  29.987  1.00  0.00     0.135 A 
ATOM     68  C   UNL A   1      46.299  33.787  27.649  1.00  0.00     0.135 A 
ATOM     69  F   UNL A   1      46.749  32.609  31.064  1.00  0.00    -0.206 F 
ATOM     70  C   UNL A   1      46.999  34.761  30.163  1.00  0.00     0.059 A 
ATOM     71  C   UNL A   1      46.608  35.136  27.796  1.00  0.00     0.059 A 
ATOM     72  F   UNL A   1      45.946  33.351  26.430  1.00  0.00    -0.206 F 
ATOM     73  C   UNL A   1      46.933  35.619  29.063  1.00  0.00     0.060 A 
BRANCH  73  74
ATOM     74  S   UNL A   1      47.260  37.376  29.314  1.00  0.00     0.124 S 
ATOM     75  O   UNL A   1      45.953  37.959  29.021  1.00  0.00    -0.237 OA
ATOM     76  O   UNL A   1      47.673  37.421  30.713  1.00  0.00    -0.237 OA
ATOM     77  O   UNL A   1      48.309  37.670  28.343  1.00  0.00    -0.744 OA
ENDBRANCH  73  74
ENDBRANCH  52  66
BRANCH  53  78
ATOM     78  C   UNL A   1      43.281  23.506  27.091  1.00  0.00     0.058 A 
ATOM     79  C   UNL A   1      43.141  23.093  25.760  1.00  0.00     0.135 A 
ATOM     80  C   UNL A   1      43.018  22.564  28.101  1.00  0.00     0.135 A 
ATOM     81  F   UNL A   1      43.371  23.959  24.761  1.00  0.00    -0.206 F 
ATOM     82  C   UNL A   1      42.773  21.790  25.439  1.00  0.00     0.059 A 
ATOM     83  C   UNL A   1      42.672  21.251  27.805  1.00  0.00     0.059 A 
ATOM     84  F   UNL A   1      43.150  22.909  29.391  1.00  0.00    -0.206 F 
ATOM     85  C   UNL A   1      42.553  20.873  26.468  1.00  0.00     0.060 A 
BRANCH  85  86
ATOM     86  S   UNL A   1      42.175  19.159  26.039  1.00  0.00     0.124 S 
ATOM     87  O   UNL A   1      42.569  18.458  27.255  1.00  0.00    -0.237 OA
ATOM     88  O   UNL A   1      40.741  19.220  25.772  1.00  0.00    -0.237 OA
ATOM     89  O   UNL A   1      43.012  18.913  24.869  1.00  0.00    -0.744 OA
ENDBRANCH  85  86
ENDBRANCH  53  78
BRANCH  65  90
ATOM     90  C   UNL A   1      49.452  26.750  26.590  1.00  0.00     0.058 A 
ATOM     91  C   UNL A   1      50.358  26.144  27.473  1.00  0.00     0.135 A 
ATOM     92  C   UNL A   1      49.825  26.865  25.241  1.00  0.00     0.135 A 
ATOM     93  F   UNL A   1      50.054  26.022  28.775  1.00  0.00    -0.206 F 
ATOM     94  C   UNL A   1      51.593  25.675  27.037  1.00  0.00     0.059 A 
ATOM     95  C   UNL A   1      51.044  26.379  24.779  1.00  0.00     0.059 A 
ATOM     96  F   UNL A   1      48.991  27.433  24.355  1.00  0.00    -0.206 F 
ATOM     97  C   UNL A   1      51.924  25.792  25.686  1.00  0.00     0.060 A 
BRANCH  97  98
ATOM     98  S   UNL A   1      53.506  25.129  25.124  1.00  0.00     0.124 S 
ATOM     99  O   UNL A   1      53.317  23.697  25.336  1.00  0.00    -0.237 OA
ATOM    100  O   UNL A   1      53.548  25.563  23.730  1.00  0.00    -0.237 OA
ATOM    101  O   UNL A   1      54.477  25.771  26.004  1.00  0.00    -0.744 OA
ENDBRANCH  97  98
ENDBRANCH  65  90
ENDBRANCH  39  40
ENDBRANCH  32  34
ENDBRANCH  31  32
ENDBRANCH  30  31
ENDBRANCH   1  30
TORSDOF 17
ENDMDL
MODEL 3
REMARK VINA RESULT:     -11.9      6.508     12.091
REMARK SMILES Cc1ccc(S(=O)(=O)N2CCN(C(=O)[C@H]3CCCC[C@H]3C(=O)OCCOC(=O)c3ccc(-c4c5nc(c(-c6c(F)cc(S(=O)(=O)[O-])cc6F)c6ccc([nH]6)c(-c6c(F)cc(S(=O)(=O)[O-])cc6F)c6nc(c(-c7c(F)cc(S(=O)(=O)[O-])cc7F)c7ccc4[nH]7)C=C6)C=C5)cc3)CC2)cc1C
REMARK SMILES IDX 24 1 23 2 21 3 22 4 20 5 15 6 16 7 17 8 19 9 18 10 13 11
REMARK SMILES IDX 9 12 10 13 96 14 11 15 95 16 12 17 14 18 6 19 7 20 8 21 5 22
REMARK SMILES IDX 1 23 2 24 3 25 98 26 4 27 97 28 99 29 25 30 26 31 27 32
REMARK SMILES IDX 28 33 29 34 30 35 94 36 31 37 93 38 32 39 33 40 34 41 87 42
REMARK SMILES IDX 35 43 92 44 86 45 88 46 36 47 91 48 85 49 84 50 37 52 71 53
REMARK SMILES IDX 50 54 70 55 51 56 54 57 69 58 89 59 52 60 53 61 68 63 90 64
REMARK SMILES IDX 55 65 38 66 39 67 48 68 40 69 41 70 47 71 49 72 42 73 43 74
REMARK SMILES IDX 44 75 45 76 46 77 72 78 73 79 82 80 74 81 75 82 81 83 83 84
REMARK SMILES IDX 76 85 77 86 78 87 79 88 80 89 56 90 57 91 66 92 58 93 59 94
REMARK SMILES IDX 65 95 67 96 60 97 61 98 62 99 63 100 64 101
REMARK H PARENT 88 51 54 62
REMARK Flexibility Score: inf
ROOT
ATOM      1  C   UNL A   1      33.470  29.566  27.381  1.00  0.00     0.274 C 
ENDROOT
BRANCH   1   2
ATOM      2  O   UNL A   1      33.215  29.577  25.962  1.00  0.00    -0.462 OA
BRANCH   2   3
ATOM      3  C   UNL A   1      32.046  30.141  25.564  1.00  0.00     0.309 C 
ATOM      4  O   UNL A   1      31.448  31.005  26.198  1.00  0.00    -0.252 OA
BRANCH   3   5
ATOM      5  C   UNL A   1      31.555  29.666  24.199  1.00  0.00     0.111 C 
ATOM      6  C   UNL A   1      32.016  28.267  23.728  1.00  0.00     0.093 C 
ATOM      7  C   UNL A   1      31.491  28.027  22.300  1.00  0.00     0.014 C 
ATOM      8  C   UNL A   1      29.981  28.199  22.196  1.00  0.00     0.001 C 
ATOM      9  C   UNL A   1      30.043  29.896  24.072  1.00  0.00     0.016 C 
ATOM     10  C   UNL A   1      29.538  29.575  22.669  1.00  0.00     0.001 C 
BRANCH   6  11
ATOM     11  C   UNL A   1      31.590  27.161  24.698  1.00  0.00     0.226 C 
ATOM     12  N   UNL A   1      33.834  23.777  25.629  1.00  0.00    -0.194 NA
ATOM     13  C   UNL A   1      32.440  24.006  26.070  1.00  0.00     0.124 C 
ATOM     14  C   UNL A   1      34.309  24.656  24.528  1.00  0.00     0.124 C 
ATOM     15  C   UNL A   1      32.215  25.485  26.365  1.00  0.00     0.136 C 
ATOM     16  C   UNL A   1      33.929  26.146  24.725  1.00  0.00     0.136 C 
ATOM     17  N   UNL A   1      32.554  26.308  25.201  1.00  0.00    -0.340 N 
ATOM     18  O   UNL A   1      30.413  27.047  25.049  1.00  0.00    -0.275 OA
BRANCH  12  19
ATOM     19  S   UNL A   1      34.876  22.816  26.528  1.00  0.00     0.243 S 
ATOM     20  O   UNL A   1      34.316  22.638  27.849  1.00  0.00    -0.207 OA
ATOM     21  O   UNL A   1      36.213  23.350  26.344  1.00  0.00    -0.207 OA
BRANCH  19  22
ATOM     22  C   UNL A   1      34.859  21.216  25.748  1.00  0.00     0.082 A 
ATOM     23  C   UNL A   1      34.879  17.305  23.928  1.00  0.00     0.044 C 
ATOM     24  C   UNL A   1      34.825  18.666  24.564  1.00  0.00    -0.048 A 
ATOM     25  C   UNL A   1      36.031  19.349  24.765  1.00  0.00     0.005 A 
ATOM     26  C   UNL A   1      33.613  19.297  24.911  1.00  0.00    -0.047 A 
ATOM     27  C   UNL A   1      36.039  20.628  25.313  1.00  0.00     0.022 A 
ATOM     28  C   UNL A   1      33.645  20.558  25.543  1.00  0.00     0.025 A 
ATOM     29  C   UNL A   1      32.267  18.708  24.589  1.00  0.00     0.044 C 
ENDBRANCH  19  22
ENDBRANCH  12  19
ENDBRANCH   6  11
ENDBRANCH   3   5
ENDBRANCH   2   3
ENDBRANCH   1   2
BRANCH   1  30
ATOM     30  C   UNL A   1      34.628  30.500  27.734  1.00  0.00     0.275 C 
BRANCH  30  31
ATOM     31  O   UNL A   1      35.619  29.824  28.526  1.00  0.00    -0.458 OA
BRANCH  31  32
ATOM     32  C   UNL A   1      36.364  30.627  29.321  1.00  0.00     0.338 C 
ATOM     33  O   UNL A   1      35.972  31.450  30.131  1.00  0.00    -0.246 OA
BRANCH  32  34
ATOM     34  C   UNL A   1      37.777  30.257  29.169  1.00  0.00     0.060 A 
ATOM     35  C   UNL A   1      38.213  29.858  27.905  1.00  0.00     0.016 A 
ATOM     36  C   UNL A   1      38.649  30.250  30.255  1.00  0.00     0.016 A 
ATOM     37  C   UNL A   1      39.522  29.438  27.713  1.00  0.00     0.010 A 
ATOM     38  C   UNL A   1      39.975  29.856  30.057  1.00  0.00     0.010 A 
ATOM     39  C   UNL A   1      40.419  29.449  28.784  1.00  0.00    -0.014 A 
BRANCH  39  40
ATOM     40  C   UNL A   1      41.831  29.059  28.567  1.00  0.00     0.031 A 
ATOM     41  C   UNL A   1      42.906  30.102  28.555  1.00  0.00     0.074 A 
ATOM     42  C   UNL A   1      42.129  27.764  28.357  1.00  0.00     0.049 A 
ATOM     43  N   UNL A   1      44.167  29.983  28.234  1.00  0.00    -0.248 NA
ATOM     44  C   UNL A   1      42.509  31.461  28.952  1.00  0.00     0.031 C 
ATOM     45  C   UNL A   1      41.164  26.663  28.383  1.00  0.00     0.029 A 
ATOM     46  N   UNL A   1      43.321  27.157  28.054  1.00  0.00    -0.354 N 
ATOM     47  C   UNL A   1      44.710  31.256  28.353  1.00  0.00     0.074 A 
ATOM     48  C   UNL A   1      43.637  32.134  28.771  1.00  0.00     0.031 C 
ATOM     49  C   UNL A   1      41.798  25.518  28.090  1.00  0.00     0.029 A 
ATOM     50  C   UNL A   1      43.195  25.814  27.790  1.00  0.00     0.049 A 
ATOM     51  H   UNL A   1      44.182  27.635  28.030  1.00  0.00     0.167 HD
ATOM     52  C   UNL A   1      45.987  31.649  28.128  1.00  0.00     0.037 A 
ATOM     53  C   UNL A   1      44.087  24.931  27.302  1.00  0.00     0.037 A 
ATOM     54  C   UNL A   1      47.040  30.755  27.719  1.00  0.00     0.049 A 
ATOM     55  C   UNL A   1      45.481  25.399  26.998  1.00  0.00     0.074 A 
ATOM     56  C   UNL A   1      48.377  31.038  27.508  1.00  0.00     0.029 A 
ATOM     57  N   UNL A   1      46.870  29.404  27.441  1.00  0.00    -0.354 N 
ATOM     58  N   UNL A   1      45.992  26.599  27.135  1.00  0.00    -0.248 NA
ATOM     59  C   UNL A   1      46.416  24.401  26.463  1.00  0.00     0.031 C 
ATOM     60  C   UNL A   1      49.003  29.873  27.049  1.00  0.00     0.029 A 
ATOM     61  C   UNL A   1      48.068  28.850  27.021  1.00  0.00     0.049 A 
ATOM     62  H   UNL A   1      46.021  28.913  27.531  1.00  0.00     0.167 HD
ATOM     63  C   UNL A   1      47.309  26.504  26.703  1.00  0.00     0.074 A 
ATOM     64  C   UNL A   1      47.521  25.122  26.322  1.00  0.00     0.031 C 
ATOM     65  C   UNL A   1      48.253  27.474  26.625  1.00  0.00     0.037 A 
BRANCH  52  66
ATOM     66  C   UNL A   1      46.293  33.115  28.266  1.00  0.00     0.058 A 
ATOM     67  C   UNL A   1      46.708  33.681  29.482  1.00  0.00     0.135 A 
ATOM     68  C   UNL A   1      46.156  33.971  27.159  1.00  0.00     0.135 A 
ATOM     69  F   UNL A   1      46.841  32.913  30.575  1.00  0.00    -0.206 F 
ATOM     70  C   UNL A   1      46.932  35.049  29.608  1.00  0.00     0.059 A 
ATOM     71  C   UNL A   1      46.402  35.337  27.256  1.00  0.00     0.059 A 
ATOM     72  F   UNL A   1      45.765  33.483  25.973  1.00  0.00    -0.206 F 
ATOM     73  C   UNL A   1      46.766  35.871  28.491  1.00  0.00     0.060 A 
BRANCH  73  74
ATOM     74  S   UNL A   1      47.014  37.649  28.680  1.00  0.00     0.124 S 
ATOM     75  O   UNL A   1      48.212  37.687  29.513  1.00  0.00    -0.237 OA
ATOM     76  O   UNL A   1      47.189  38.089  27.299  1.00  0.00    -0.237 OA
ATOM     77  O   UNL A   1      45.786  38.098  29.327  1.00  0.00    -0.744 OA
ENDBRANCH  73  74
ENDBRANCH  52  66
BRANCH  53  78
ATOM     78  C   UNL A   1      43.648  23.539  27.025  1.00  0.00     0.058 A 
ATOM     79  C   UNL A   1      43.464  22.615  28.062  1.00  0.00     0.135 A 
ATOM     80  C   UNL A   1      43.323  23.133  25.720  1.00  0.00     0.135 A 
ATOM     81  F   UNL A   1      43.769  22.953  29.325  1.00  0.00    -0.206 F 
ATOM     82  C   UNL A   1      42.960  21.341  27.818  1.00  0.00     0.059 A 
ATOM     83  C   UNL A   1      42.796  21.874  25.455  1.00  0.00     0.059 A 
ATOM     84  F   UNL A   1      43.471  23.986  24.694  1.00  0.00    -0.206 F 
ATOM     85  C   UNL A   1      42.617  20.984  26.513  1.00  0.00     0.060 A 
BRANCH  85  86
ATOM     86  S   UNL A   1      41.869  19.366  26.222  1.00  0.00     0.124 S 
ATOM     87  O   UNL A   1      42.506  18.968  24.973  1.00  0.00    -0.237 OA
ATOM     88  O   UNL A   1      42.275  18.624  27.412  1.00  0.00    -0.237 OA
ATOM     89  O   UNL A   1      40.443  19.665  26.137  1.00  0.00    -0.744 OA
ENDBRANCH  85  86
ENDBRANCH  53  78
BRANCH  65  90
ATOM     90  C   UNL A   1      49.604  27.077  26.099  1.00  0.00     0.058 A 
ATOM     91  C   UNL A   1      50.581  26.522  26.941  1.00  0.00     0.135 A 
ATOM     92  C   UNL A   1      49.904  27.194  24.732  1.00  0.00     0.135 A 
ATOM     93  F   UNL A   1      50.348  26.400  28.257  1.00  0.00    -0.206 F 
ATOM     94  C   UNL A   1      51.812  26.104  26.447  1.00  0.00     0.059 A 
ATOM     95  C   UNL A   1      51.119  26.759  24.213  1.00  0.00     0.059 A 
ATOM     96  F   UNL A   1      49.002  27.714  23.885  1.00  0.00    -0.206 F 
ATOM     97  C   UNL A   1      52.069  26.222  25.080  1.00  0.00     0.060 A 
BRANCH  97  98
ATOM     98  S   UNL A   1      53.650  25.625  24.443  1.00  0.00     0.124 S 
ATOM     99  O   UNL A   1      53.596  24.211  24.803  1.00  0.00    -0.237 OA
ATOM    100  O   UNL A   1      53.544  25.920  23.018  1.00  0.00    -0.237 OA
ATOM    101  O   UNL A   1      54.632  26.421  25.171  1.00  0.00    -0.744 OA
ENDBRANCH  97  98
ENDBRANCH  65  90
ENDBRANCH  39  40
ENDBRANCH  32  34
ENDBRANCH  31  32
ENDBRANCH  30  31
ENDBRANCH   1  30
TORSDOF 17
ENDMDL
