MODEL 1
REMARK VINA RESULT:     -12.5      0.000      0.000
REMARK SMILES O=C(OCCOC(=O)c1ccc2c(c1)[C@@H]1C=CC[C@@H]1[C@H](c1ccncc1)N2)c1ccc(-c2c3nc(c(-c4c(F)cc(S(=O)(=O)[O-])cc4F)c4ccc([nH]4)c(-c4c(F)cc(S(=O)(=O)[O-])cc4F)c4nc(c(-c5c(F)cc(S(=O)(=O)[O-])cc5F)c5ccc2[nH]5)C=C4)C=C3)cc1
REMARK SMILES IDX 4 1 3 2 2 3 1 4 28 5 29 6 93 7 30 8 92 9 31 10 32 11 33 12
REMARK SMILES IDX 86 13 34 14 91 15 85 16 87 17 35 18 90 19 84 20 83 21 36 23
REMARK SMILES IDX 70 24 49 25 69 26 50 27 53 28 68 29 88 30 51 31 52 32 67 34
REMARK SMILES IDX 89 35 54 36 37 37 38 38 47 39 39 40 40 41 46 42 48 43 41 44
REMARK SMILES IDX 42 45 43 46 44 47 45 48 71 49 72 50 81 51 73 52 74 53 80 54
REMARK SMILES IDX 82 55 75 56 76 57 77 58 78 59 79 60 55 61 56 62 65 63 57 64
REMARK SMILES IDX 58 65 64 66 66 67 59 68 60 69 61 70 62 71 63 72 5 73 6 74
REMARK SMILES IDX 7 75 8 76 9 77 10 78 14 79 11 80 13 81 12 82 15 83 27 84
REMARK SMILES IDX 16 85 19 86 20 87 17 89 18 90 21 91 22 92 26 93 23 94 25 95
REMARK SMILES IDX 24 96
REMARK H PARENT 87 22 53 33 27 88
REMARK Flexibility Score: inf
ROOT
ATOM      1  C   UNL A   1      34.270  30.127  27.839  1.00  0.00     0.275 C 
ENDROOT
BRANCH   1   2
ATOM      2  O   UNL A   1      35.391  30.789  28.442  1.00  0.00    -0.458 OA
BRANCH   2   3
ATOM      3  C   UNL A   1      36.276  30.335  29.360  1.00  0.00     0.338 C 
ATOM      4  O   UNL A   1      35.904  30.300  30.535  1.00  0.00    -0.246 OA
BRANCH   3   5
ATOM      5  C   UNL A   1      37.701  29.939  29.074  1.00  0.00     0.060 A 
ATOM      6  C   UNL A   1      38.664  29.542  30.004  1.00  0.00     0.016 A 
ATOM      7  C   UNL A   1      38.071  29.895  27.713  1.00  0.00     0.016 A 
ATOM      8  C   UNL A   1      39.915  29.069  29.603  1.00  0.00     0.010 A 
ATOM      9  C   UNL A   1      39.327  29.429  27.301  1.00  0.00     0.010 A 
ATOM     10  C   UNL A   1      40.256  29.007  28.250  1.00  0.00    -0.014 A 
BRANCH  10  11
ATOM     11  C   UNL A   1      41.650  28.669  27.909  1.00  0.00     0.031 A 
ATOM     12  C   UNL A   1      41.950  27.338  27.391  1.00  0.00     0.074 A 
ATOM     13  C   UNL A   1      42.621  29.593  27.982  1.00  0.00     0.049 A 
ATOM     14  N   UNL A   1      43.126  26.841  27.172  1.00  0.00    -0.248 NA
ATOM     15  C   UNL A   1      40.819  26.417  27.239  1.00  0.00     0.031 C 
ATOM     16  C   UNL A   1      42.281  31.203  28.935  1.00  0.00     0.029 A 
ATOM     17  N   UNL A   1      44.183  29.769  27.323  1.00  0.00    -0.354 N 
ATOM     18  C   UNL A   1      42.894  25.508  26.932  1.00  0.00     0.074 A 
ATOM     19  C   UNL A   1      41.467  25.281  27.051  1.00  0.00     0.031 C 
ATOM     20  C   UNL A   1      43.748  32.357  28.588  1.00  0.00     0.029 A 
ATOM     21  C   UNL A   1      44.962  31.315  27.526  1.00  0.00     0.049 A 
ATOM     22  H   UNL A   1      44.628  29.029  26.849  1.00  0.00     0.167 HD
ATOM     23  C   UNL A   1      43.827  24.573  26.680  1.00  0.00     0.037 A 
ATOM     24  C   UNL A   1      46.279  31.599  27.437  1.00  0.00     0.037 A 
ATOM     25  C   UNL A   1      45.236  24.866  26.639  1.00  0.00     0.049 A 
ATOM     26  C   UNL A   1      47.166  30.400  27.280  1.00  0.00     0.074 A 
ATOM     27  C   UNL A   1      46.262  23.990  26.365  1.00  0.00     0.029 A 
ATOM     28  N   UNL A   1      45.823  26.112  26.907  1.00  0.00    -0.354 N 
ATOM     29  N   UNL A   1      46.821  29.139  27.135  1.00  0.00    -0.248 NA
ATOM     30  C   UNL A   1      48.608  30.630  27.379  1.00  0.00     0.031 C 
ATOM     31  C   UNL A   1      47.465  24.681  26.520  1.00  0.00     0.029 A 
ATOM     32  C   UNL A   1      47.203  26.022  26.792  1.00  0.00     0.049 A 
ATOM     33  H   UNL A   1      45.328  26.930  27.141  1.00  0.00     0.167 HD
ATOM     34  C   UNL A   1      47.998  28.414  27.102  1.00  0.00     0.074 A 
ATOM     35  C   UNL A   1      49.071  29.390  27.262  1.00  0.00     0.031 C 
ATOM     36  C   UNL A   1      48.190  27.081  26.936  1.00  0.00     0.037 A 
BRANCH  23  37
ATOM     37  C   UNL A   1      43.300  23.178  26.538  1.00  0.00     0.058 A 
ATOM     38  C   UNL A   1      42.942  22.407  27.659  1.00  0.00     0.135 A 
ATOM     39  C   UNL A   1      43.316  22.550  25.284  1.00  0.00     0.135 A 
ATOM     40  F   UNL A   1      42.965  22.946  28.889  1.00  0.00    -0.206 F 
ATOM     41  C   UNL A   1      42.692  21.046  27.549  1.00  0.00     0.059 A 
ATOM     42  C   UNL A   1      43.021  21.200  25.146  1.00  0.00     0.059 A 
ATOM     43  F   UNL A   1      43.679  23.235  24.188  1.00  0.00    -0.206 F 
ATOM     44  C   UNL A   1      42.740  20.451  26.288  1.00  0.00     0.060 A 
BRANCH  44  45
ATOM     45  S   UNL A   1      42.454  18.675  26.171  1.00  0.00     0.124 S 
ATOM     46  O   UNL A   1      42.739  18.244  27.536  1.00  0.00    -0.237 OA
ATOM     47  O   UNL A   1      41.053  18.616  25.767  1.00  0.00    -0.237 OA
ATOM     48  O   UNL A   1      43.415  18.244  25.162  1.00  0.00    -0.744 OA
ENDBRANCH  44  45
ENDBRANCH  23  37
BRANCH  24  49
ATOM     49  C   UNL A   1      46.758  32.945  27.840  1.00  0.00     0.058 A 
ATOM     50  C   UNL A   1      47.287  33.171  29.116  1.00  0.00     0.135 A 
ATOM     51  C   UNL A   1      46.828  34.005  26.923  1.00  0.00     0.135 A 
ATOM     52  F   UNL A   1      47.179  32.227  30.062  1.00  0.00    -0.206 F 
ATOM     53  C   UNL A   1      47.949  34.359  29.434  1.00  0.00     0.059 A 
ATOM     54  C   UNL A   1      47.530  35.177  27.192  1.00  0.00     0.059 A 
ATOM     55  F   UNL A   1      46.264  33.879  25.716  1.00  0.00    -0.206 F 
ATOM     56  C   UNL A   1      48.101  35.339  28.450  1.00  0.00     0.060 A 
BRANCH  56  57
ATOM     57  S   UNL A   1      49.124  36.789  28.795  1.00  0.00     0.124 S 
ATOM     58  O   UNL A   1      48.653  37.171  30.121  1.00  0.00    -0.237 OA
ATOM     59  O   UNL A   1      50.474  36.240  28.728  1.00  0.00    -0.237 OA
ATOM     60  O   UNL A   1      48.775  37.703  27.711  1.00  0.00    -0.744 OA
ENDBRANCH  56  57
ENDBRANCH  24  49
BRANCH  36  61
ATOM     61  C   UNL A   1      49.619  26.667  26.725  1.00  0.00     0.058 A 
ATOM     62  C   UNL A   1      50.447  26.216  27.761  1.00  0.00     0.135 A 
ATOM     63  C   UNL A   1      50.123  26.660  25.414  1.00  0.00     0.135 A 
ATOM     64  F   UNL A   1      50.016  26.235  29.032  1.00  0.00    -0.206 F 
ATOM     65  C   UNL A   1      51.737  25.770  27.501  1.00  0.00     0.059 A 
ATOM     66  C   UNL A   1      51.391  26.181  25.127  1.00  0.00     0.059 A 
ATOM     67  F   UNL A   1      49.360  27.083  24.394  1.00  0.00    -0.206 F 
ATOM     68  C   UNL A   1      52.192  25.742  26.178  1.00  0.00     0.060 A 
BRANCH  68  69
ATOM     69  S   UNL A   1      53.835  25.085  25.841  1.00  0.00     0.124 S 
ATOM     70  O   UNL A   1      53.523  23.728  25.403  1.00  0.00    -0.237 OA
ATOM     71  O   UNL A   1      54.324  25.991  24.807  1.00  0.00    -0.237 OA
ATOM     72  O   UNL A   1      54.514  25.188  27.129  1.00  0.00    -0.744 OA
ENDBRANCH  68  69
ENDBRANCH  36  61
ENDBRANCH  10  11
ENDBRANCH   3   5
ENDBRANCH   2   3
ENDBRANCH   1   2
BRANCH   1  73
ATOM     73  C   UNL A   1      34.676  29.004  26.870  1.00  0.00     0.275 C 
BRANCH  73  74
ATOM     74  O   UNL A   1      33.648  28.015  26.653  1.00  0.00    -0.458 OA
BRANCH  74  75
ATOM     75  C   UNL A   1      33.398  27.680  25.356  1.00  0.00     0.338 C 
ATOM     76  O   UNL A   1      33.486  28.419  24.391  1.00  0.00    -0.246 OA
BRANCH  75  77
ATOM     77  C   UNL A   1      33.188  26.215  25.249  1.00  0.00     0.060 A 
ATOM     78  C   UNL A   1      32.338  25.759  24.239  1.00  0.00     0.018 A 
ATOM     79  C   UNL A   1      33.878  25.300  26.052  1.00  0.00     0.022 A 
ATOM     80  C   UNL A   1      32.246  24.396  23.960  1.00  0.00     0.027 A 
ATOM     81  C   UNL A   1      33.789  23.913  25.790  1.00  0.00    -0.017 A 
ATOM     82  C   UNL A   1      32.989  23.449  24.682  1.00  0.00     0.038 A 
ATOM     83  C   UNL A   1      34.865  22.995  26.470  1.00  0.00     0.049 C 
ATOM     84  N   UNL A   1      32.978  22.146  24.160  1.00  0.00    -0.378 N 
ATOM     85  C   UNL A   1      36.682  23.729  26.330  1.00  0.00    -0.023 C 
ATOM     86  C   UNL A   1      34.741  21.259  25.553  1.00  0.00     0.031 C 
ATOM     87  C   UNL A   1      33.409  20.993  24.914  1.00  0.00     0.114 C 
ATOM     88  H   UNL A   1      32.662  22.012  23.238  1.00  0.00     0.161 HD
ATOM     89  C   UNL A   1      37.644  22.823  25.333  1.00  0.00    -0.030 C 
ATOM     90  C   UNL A   1      36.490  21.056  24.514  1.00  0.00     0.034 C 
BRANCH  87  91
ATOM     91  C   UNL A   1      33.423  19.618  24.237  1.00  0.00    -0.022 A 
ATOM     92  C   UNL A   1      32.475  19.382  23.213  1.00  0.00     0.026 A 
ATOM     93  C   UNL A   1      34.255  18.545  24.559  1.00  0.00     0.026 A 
ATOM     94  C   UNL A   1      32.374  18.137  22.607  1.00  0.00     0.111 A 
ATOM     95  C   UNL A   1      34.101  17.337  23.870  1.00  0.00     0.111 A 
ATOM     96  N   UNL A   1      33.187  17.111  22.901  1.00  0.00    -0.265 NA
ENDBRANCH  87  91
ENDBRANCH  75  77
ENDBRANCH  74  75
ENDBRANCH  73  74
ENDBRANCH   1  73
TORSDOF 15
ENDMDL
MODEL 2
REMARK VINA RESULT:     -12.5      3.857      9.472
REMARK SMILES O=C(OCCOC(=O)c1ccc2c(c1)[C@@H]1C=CC[C@@H]1[C@H](c1ccncc1)N2)c1ccc(-c2c3nc(c(-c4c(F)cc(S(=O)(=O)[O-])cc4F)c4ccc([nH]4)c(-c4c(F)cc(S(=O)(=O)[O-])cc4F)c4nc(c(-c5c(F)cc(S(=O)(=O)[O-])cc5F)c5ccc2[nH]5)C=C4)C=C3)cc1
REMARK SMILES IDX 4 1 3 2 2 3 1 4 28 5 29 6 93 7 30 8 92 9 31 10 32 11 33 12
REMARK SMILES IDX 86 13 34 14 91 15 85 16 87 17 35 18 90 19 84 20 83 21 36 23
REMARK SMILES IDX 70 24 49 25 69 26 50 27 53 28 68 29 88 30 51 31 52 32 67 34
REMARK SMILES IDX 89 35 54 36 37 37 38 38 47 39 39 40 40 41 46 42 48 43 41 44
REMARK SMILES IDX 42 45 43 46 44 47 45 48 71 49 72 50 81 51 73 52 74 53 80 54
REMARK SMILES IDX 82 55 75 56 76 57 77 58 78 59 79 60 55 61 56 62 65 63 57 64
REMARK SMILES IDX 58 65 64 66 66 67 59 68 60 69 61 70 62 71 63 72 5 73 6 74
REMARK SMILES IDX 7 75 8 76 9 77 10 78 14 79 11 80 13 81 12 82 15 83 27 84
REMARK SMILES IDX 16 85 19 86 20 87 17 89 18 90 21 91 22 92 26 93 23 94 25 95
REMARK SMILES IDX 24 96
REMARK H PARENT 87 22 53 33 27 88
REMARK Flexibility Score: inf
ROOT
ATOM      1  C   UNL A   1      37.559  21.382  24.969  1.00  0.00     0.275 C 
ENDROOT
BRANCH   1   2
ATOM      2  O   UNL A   1      38.290  21.486  26.199  1.00  0.00    -0.458 OA
BRANCH   2   3
ATOM      3  C   UNL A   1      39.572  21.860  26.417  1.00  0.00     0.338 C 
ATOM      4  O   UNL A   1      40.435  20.983  26.359  1.00  0.00    -0.246 OA
BRANCH   3   5
ATOM      5  C   UNL A   1      40.021  23.247  26.799  1.00  0.00     0.060 A 
ATOM      6  C   UNL A   1      39.528  24.454  26.302  1.00  0.00     0.016 A 
ATOM      7  C   UNL A   1      40.989  23.325  27.823  1.00  0.00     0.016 A 
ATOM      8  C   UNL A   1      39.932  25.682  26.832  1.00  0.00     0.010 A 
ATOM      9  C   UNL A   1      41.405  24.553  28.357  1.00  0.00     0.010 A 
ATOM     10  C   UNL A   1      40.870  25.741  27.863  1.00  0.00    -0.014 A 
BRANCH  10  11
ATOM     11  C   UNL A   1      41.381  27.069  28.251  1.00  0.00     0.031 A 
ATOM     12  C   UNL A   1      42.771  27.407  27.958  1.00  0.00     0.074 A 
ATOM     13  C   UNL A   1      40.566  27.993  28.781  1.00  0.00     0.049 A 
ATOM     14  N   UNL A   1      43.407  28.465  28.348  1.00  0.00    -0.248 NA
ATOM     15  C   UNL A   1      43.572  26.382  27.280  1.00  0.00     0.031 C 
ATOM     16  C   UNL A   1      38.865  27.446  29.431  1.00  0.00     0.029 A 
ATOM     17  N   UNL A   1      40.608  29.687  28.970  1.00  0.00    -0.354 N 
ATOM     18  C   UNL A   1      44.721  28.208  28.037  1.00  0.00     0.074 A 
ATOM     19  C   UNL A   1      44.783  26.886  27.444  1.00  0.00     0.031 C 
ATOM     20  C   UNL A   1      37.905  29.034  29.836  1.00  0.00     0.029 A 
ATOM     21  C   UNL A   1      39.145  30.463  29.514  1.00  0.00     0.049 A 
ATOM     22  H   UNL A   1      41.424  30.205  28.780  1.00  0.00     0.167 HD
ATOM     23  C   UNL A   1      45.767  29.015  28.282  1.00  0.00     0.037 A 
ATOM     24  C   UNL A   1      39.013  31.683  30.079  1.00  0.00     0.037 A 
ATOM     25  C   UNL A   1      45.634  30.293  28.933  1.00  0.00     0.049 A 
ATOM     26  C   UNL A   1      40.310  32.371  30.387  1.00  0.00     0.074 A 
ATOM     27  C   UNL A   1      46.633  31.200  29.205  1.00  0.00     0.029 A 
ATOM     28  N   UNL A   1      44.443  30.832  29.443  1.00  0.00    -0.354 N 
ATOM     29  N   UNL A   1      41.534  31.978  30.103  1.00  0.00    -0.248 NA
ATOM     30  C   UNL A   1      40.232  33.599  31.177  1.00  0.00     0.031 C 
ATOM     31  C   UNL A   1      46.068  32.255  29.922  1.00  0.00     0.029 A 
ATOM     32  C   UNL A   1      44.690  32.071  30.019  1.00  0.00     0.049 A 
ATOM     33  H   UNL A   1      43.561  30.397  29.397  1.00  0.00     0.167 HD
ATOM     34  C   UNL A   1      42.382  32.918  30.657  1.00  0.00     0.074 A 
ATOM     35  C   UNL A   1      41.520  33.896  31.313  1.00  0.00     0.031 C 
ATOM     36  C   UNL A   1      43.737  32.993  30.618  1.00  0.00     0.037 A 
BRANCH  23  37
ATOM     37  C   UNL A   1      47.103  28.448  27.913  1.00  0.00     0.058 A 
ATOM     38  C   UNL A   1      47.625  28.573  26.612  1.00  0.00     0.135 A 
ATOM     39  C   UNL A   1      47.789  27.628  28.822  1.00  0.00     0.135 A 
ATOM     40  F   UNL A   1      46.976  29.301  25.688  1.00  0.00    -0.206 F 
ATOM     41  C   UNL A   1      48.735  27.844  26.207  1.00  0.00     0.059 A 
ATOM     42  C   UNL A   1      48.930  26.929  28.450  1.00  0.00     0.059 A 
ATOM     43  F   UNL A   1      47.316  27.453  30.067  1.00  0.00    -0.206 F 
ATOM     44  C   UNL A   1      49.376  27.020  27.132  1.00  0.00     0.060 A 
BRANCH  44  45
ATOM     45  S   UNL A   1      50.790  26.051  26.576  1.00  0.00     0.124 S 
ATOM     46  O   UNL A   1      50.549  25.984  25.138  1.00  0.00    -0.237 OA
ATOM     47  O   UNL A   1      51.915  26.882  26.992  1.00  0.00    -0.237 OA
ATOM     48  O   UNL A   1      50.642  24.791  27.297  1.00  0.00    -0.744 OA
ENDBRANCH  44  45
ENDBRANCH  23  37
BRANCH  24  49
ATOM     49  C   UNL A   1      37.703  32.076  30.652  1.00  0.00     0.058 A 
ATOM     50  C   UNL A   1      37.404  31.843  31.999  1.00  0.00     0.135 A 
ATOM     51  C   UNL A   1      36.768  32.816  29.910  1.00  0.00     0.135 A 
ATOM     52  F   UNL A   1      38.217  31.076  32.742  1.00  0.00    -0.206 F 
ATOM     53  C   UNL A   1      36.282  32.408  32.609  1.00  0.00     0.059 A 
ATOM     54  C   UNL A   1      35.672  33.436  30.502  1.00  0.00     0.059 A 
ATOM     55  F   UNL A   1      36.955  32.999  28.598  1.00  0.00    -0.206 F 
ATOM     56  C   UNL A   1      35.444  33.237  31.860  1.00  0.00     0.060 A 
BRANCH  56  57
ATOM     57  S   UNL A   1      34.105  34.125  32.688  1.00  0.00     0.124 S 
ATOM     58  O   UNL A   1      33.482  34.824  31.571  1.00  0.00    -0.237 OA
ATOM     59  O   UNL A   1      33.329  33.038  33.276  1.00  0.00    -0.237 OA
ATOM     60  O   UNL A   1      34.812  34.967  33.648  1.00  0.00    -0.744 OA
ENDBRANCH  56  57
ENDBRANCH  24  49
BRANCH  36  61
ATOM     61  C   UNL A   1      44.318  34.277  31.138  1.00  0.00     0.058 A 
ATOM     62  C   UNL A   1      44.785  34.431  32.449  1.00  0.00     0.135 A 
ATOM     63  C   UNL A   1      44.469  35.349  30.242  1.00  0.00     0.135 A 
ATOM     64  F   UNL A   1      44.633  33.444  33.345  1.00  0.00    -0.206 F 
ATOM     65  C   UNL A   1      45.386  35.616  32.858  1.00  0.00     0.059 A 
ATOM     66  C   UNL A   1      45.101  36.522  30.617  1.00  0.00     0.059 A 
ATOM     67  F   UNL A   1      44.035  35.239  28.977  1.00  0.00    -0.206 F 
ATOM     68  C   UNL A   1      45.553  36.648  31.928  1.00  0.00     0.060 A 
BRANCH  68  69
ATOM     69  S   UNL A   1      46.408  38.148  32.444  1.00  0.00     0.124 S 
ATOM     70  O   UNL A   1      45.626  38.545  33.610  1.00  0.00    -0.237 OA
ATOM     71  O   UNL A   1      47.755  37.658  32.716  1.00  0.00    -0.237 OA
ATOM     72  O   UNL A   1      46.288  39.024  31.281  1.00  0.00    -0.744 OA
ENDBRANCH  68  69
ENDBRANCH  36  61
ENDBRANCH  10  11
ENDBRANCH   3   5
ENDBRANCH   2   3
ENDBRANCH   1   2
BRANCH   1  73
ATOM     73  C   UNL A   1      36.116  21.903  25.074  1.00  0.00     0.275 C 
BRANCH  73  74
ATOM     74  O   UNL A   1      35.951  22.993  26.007  1.00  0.00    -0.458 OA
BRANCH  74  75
ATOM     75  C   UNL A   1      34.708  23.145  26.542  1.00  0.00     0.338 C 
ATOM     76  O   UNL A   1      34.349  22.775  27.646  1.00  0.00    -0.246 OA
BRANCH  75  77
ATOM     77  C   UNL A   1      33.887  24.013  25.662  1.00  0.00     0.060 A 
ATOM     78  C   UNL A   1      32.636  23.531  25.271  1.00  0.00     0.018 A 
ATOM     79  C   UNL A   1      34.285  25.306  25.304  1.00  0.00     0.022 A 
ATOM     80  C   UNL A   1      31.738  24.366  24.606  1.00  0.00     0.027 A 
ATOM     81  C   UNL A   1      33.390  26.163  24.621  1.00  0.00    -0.017 A 
ATOM     82  C   UNL A   1      32.061  25.698  24.306  1.00  0.00     0.038 A 
ATOM     83  C   UNL A   1      33.757  27.689  24.593  1.00  0.00     0.049 C 
ATOM     84  N   UNL A   1      30.998  26.488  23.842  1.00  0.00    -0.378 N 
ATOM     85  C   UNL A   1      34.339  28.358  26.346  1.00  0.00    -0.023 C 
ATOM     86  C   UNL A   1      32.128  28.618  23.997  1.00  0.00     0.031 C 
ATOM     87  C   UNL A   1      31.190  27.764  23.194  1.00  0.00     0.114 C 
ATOM     88  H   UNL A   1      30.079  26.158  23.963  1.00  0.00     0.161 HD
ATOM     89  C   UNL A   1      33.246  29.412  27.004  1.00  0.00    -0.030 C 
ATOM     90  C   UNL A   1      31.484  29.694  25.611  1.00  0.00     0.034 C 
BRANCH  87  91
ATOM     91  C   UNL A   1      29.965  28.586  22.780  1.00  0.00    -0.022 A 
ATOM     92  C   UNL A   1      30.185  29.729  21.974  1.00  0.00     0.026 A 
ATOM     93  C   UNL A   1      28.642  28.347  23.154  1.00  0.00     0.026 A 
ATOM     94  C   UNL A   1      29.135  30.567  21.622  1.00  0.00     0.111 A 
ATOM     95  C   UNL A   1      27.646  29.230  22.723  1.00  0.00     0.111 A 
ATOM     96  N   UNL A   1      27.860  30.327  21.964  1.00  0.00    -0.265 NA
ENDBRANCH  87  91
ENDBRANCH  75  77
ENDBRANCH  74  75
ENDBRANCH  73  74
ENDBRANCH   1  73
TORSDOF 15
ENDMDL
MODEL 3
REMARK VINA RESULT:     -12.5      7.329     12.448
REMARK SMILES O=C(OCCOC(=O)c1ccc2c(c1)[C@@H]1C=CC[C@@H]1[C@H](c1ccncc1)N2)c1ccc(-c2c3nc(c(-c4c(F)cc(S(=O)(=O)[O-])cc4F)c4ccc([nH]4)c(-c4c(F)cc(S(=O)(=O)[O-])cc4F)c4nc(c(-c5c(F)cc(S(=O)(=O)[O-])cc5F)c5ccc2[nH]5)C=C4)C=C3)cc1
REMARK SMILES IDX 4 1 3 2 2 3 1 4 28 5 29 6 93 7 30 8 92 9 31 10 32 11 33 12
REMARK SMILES IDX 86 13 34 14 91 15 85 16 87 17 35 18 90 19 84 20 83 21 36 23
REMARK SMILES IDX 70 24 49 25 69 26 50 27 53 28 68 29 88 30 51 31 52 32 67 34
REMARK SMILES IDX 89 35 54 36 37 37 38 38 47 39 39 40 40 41 46 42 48 43 41 44
REMARK SMILES IDX 42 45 43 46 44 47 45 48 71 49 72 50 81 51 73 52 74 53 80 54
REMARK SMILES IDX 82 55 75 56 76 57 77 58 78 59 79 60 55 61 56 62 65 63 57 64
REMARK SMILES IDX 58 65 64 66 66 67 59 68 60 69 61 70 62 71 63 72 5 73 6 74
REMARK SMILES IDX 7 75 8 76 9 77 10 78 14 79 11 80 13 81 12 82 15 83 27 84
REMARK SMILES IDX 16 85 19 86 20 87 17 89 18 90 21 91 22 92 26 93 23 94 25 95
REMARK SMILES IDX 24 96
REMARK H PARENT 87 22 53 33 27 88
REMARK Flexibility Score: inf
ROOT
ATOM      1  C   UNL A   1      37.751  24.001  25.818  1.00  0.00     0.275 C 
ENDROOT
BRANCH   1   2
ATOM      2  O   UNL A   1      39.146  24.006  26.153  1.00  0.00    -0.458 OA
BRANCH   2   3
ATOM      3  C   UNL A   1      39.973  25.046  26.413  1.00  0.00     0.338 C 
ATOM      4  O   UNL A   1      40.904  25.238  25.629  1.00  0.00    -0.246 OA
BRANCH   3   5
ATOM      5  C   UNL A   1      39.891  25.942  27.622  1.00  0.00     0.060 A 
ATOM      6  C   UNL A   1      39.193  25.692  28.805  1.00  0.00     0.016 A 
ATOM      7  C   UNL A   1      40.667  27.119  27.575  1.00  0.00     0.016 A 
ATOM      8  C   UNL A   1      39.301  26.538  29.910  1.00  0.00     0.010 A 
ATOM      9  C   UNL A   1      40.777  27.979  28.677  1.00  0.00     0.010 A 
ATOM     10  C   UNL A   1      40.094  27.686  29.856  1.00  0.00    -0.014 A 
BRANCH  10  11
ATOM     11  C   UNL A   1      40.022  28.624  30.992  1.00  0.00     0.031 A 
ATOM     12  C   UNL A   1      38.935  29.597  31.039  1.00  0.00     0.074 A 
ATOM     13  C   UNL A   1      40.882  28.533  32.017  1.00  0.00     0.049 A 
ATOM     14  N   UNL A   1      38.805  30.569  31.885  1.00  0.00    -0.248 NA
ATOM     15  C   UNL A   1      37.971  29.566  29.934  1.00  0.00     0.031 C 
ATOM     16  C   UNL A   1      42.454  27.482  31.800  1.00  0.00     0.029 A 
ATOM     17  N   UNL A   1      40.913  29.079  33.632  1.00  0.00    -0.354 N 
ATOM     18  C   UNL A   1      37.783  31.332  31.374  1.00  0.00     0.074 A 
ATOM     19  C   UNL A   1      37.347  30.713  30.137  1.00  0.00     0.031 C 
ATOM     20  C   UNL A   1      43.264  27.363  33.513  1.00  0.00     0.029 A 
ATOM     21  C   UNL A   1      42.182  28.463  34.655  1.00  0.00     0.049 A 
ATOM     22  H   UNL A   1      40.243  29.716  33.971  1.00  0.00     0.167 HD
ATOM     23  C   UNL A   1      37.305  32.473  31.900  1.00  0.00     0.037 A 
ATOM     24  C   UNL A   1      42.644  28.987  35.811  1.00  0.00     0.037 A 
ATOM     25  C   UNL A   1      37.833  33.061  33.104  1.00  0.00     0.049 A 
ATOM     26  C   UNL A   1      42.072  30.329  36.159  1.00  0.00     0.074 A 
ATOM     27  C   UNL A   1      37.399  34.205  33.734  1.00  0.00     0.029 A 
ATOM     28  N   UNL A   1      38.924  32.577  33.841  1.00  0.00    -0.354 N 
ATOM     29  N   UNL A   1      41.133  31.007  35.535  1.00  0.00    -0.248 NA
ATOM     30  C   UNL A   1      42.681  31.031  37.290  1.00  0.00     0.031 C 
ATOM     31  C   UNL A   1      38.252  34.448  34.811  1.00  0.00     0.029 A 
ATOM     32  C   UNL A   1      39.166  33.404  34.930  1.00  0.00     0.049 A 
ATOM     33  H   UNL A   1      39.441  31.770  33.620  1.00  0.00     0.167 HD
ATOM     34  C   UNL A   1      41.013  32.212  36.202  1.00  0.00     0.074 A 
ATOM     35  C   UNL A   1      41.999  32.172  37.277  1.00  0.00     0.031 C 
ATOM     36  C   UNL A   1      40.164  33.247  35.977  1.00  0.00     0.037 A 
BRANCH  23  37
ATOM     37  C   UNL A   1      36.240  33.146  31.089  1.00  0.00     0.058 A 
ATOM     38  C   UNL A   1      36.547  33.855  29.912  1.00  0.00     0.135 A 
ATOM     39  C   UNL A   1      34.930  33.224  31.583  1.00  0.00     0.135 A 
ATOM     40  F   UNL A   1      37.800  33.858  29.429  1.00  0.00    -0.206 F 
ATOM     41  C   UNL A   1      35.610  34.677  29.301  1.00  0.00     0.059 A 
ATOM     42  C   UNL A   1      33.965  34.002  30.957  1.00  0.00     0.059 A 
ATOM     43  F   UNL A   1      34.595  32.589  32.717  1.00  0.00    -0.206 F 
ATOM     44  C   UNL A   1      34.323  34.748  29.835  1.00  0.00     0.060 A 
BRANCH  44  45
ATOM     45  S   UNL A   1      33.133  35.852  29.052  1.00  0.00     0.124 S 
ATOM     46  O   UNL A   1      32.347  34.914  28.256  1.00  0.00    -0.237 OA
ATOM     47  O   UNL A   1      32.451  36.434  30.203  1.00  0.00    -0.237 OA
ATOM     48  O   UNL A   1      33.974  36.771  28.292  1.00  0.00    -0.744 OA
ENDBRANCH  44  45
ENDBRANCH  23  37
BRANCH  24  49
ATOM     49  C   UNL A   1      43.866  28.415  36.428  1.00  0.00     0.058 A 
ATOM     50  C   UNL A   1      45.112  29.031  36.269  1.00  0.00     0.135 A 
ATOM     51  C   UNL A   1      43.803  27.318  37.303  1.00  0.00     0.135 A 
ATOM     52  F   UNL A   1      45.255  30.033  35.387  1.00  0.00    -0.206 F 
ATOM     53  C   UNL A   1      46.222  28.645  37.023  1.00  0.00     0.059 A 
ATOM     54  C   UNL A   1      44.877  26.947  38.107  1.00  0.00     0.059 A 
ATOM     55  F   UNL A   1      42.661  26.634  37.432  1.00  0.00    -0.206 F 
ATOM     56  C   UNL A   1      46.082  27.628  37.970  1.00  0.00     0.060 A 
BRANCH  56  57
ATOM     57  S   UNL A   1      47.458  27.257  39.082  1.00  0.00     0.124 S 
ATOM     58  O   UNL A   1      46.993  26.034  39.725  1.00  0.00    -0.237 OA
ATOM     59  O   UNL A   1      48.575  27.109  38.155  1.00  0.00    -0.237 OA
ATOM     60  O   UNL A   1      47.518  28.439  39.937  1.00  0.00    -0.744 OA
ENDBRANCH  56  57
ENDBRANCH  24  49
BRANCH  36  61
ATOM     61  C   UNL A   1      40.158  34.307  37.041  1.00  0.00     0.058 A 
ATOM     62  C   UNL A   1      40.963  35.452  36.987  1.00  0.00     0.135 A 
ATOM     63  C   UNL A   1      39.246  34.179  38.102  1.00  0.00     0.135 A 
ATOM     64  F   UNL A   1      41.869  35.600  36.008  1.00  0.00    -0.206 F 
ATOM     65  C   UNL A   1      40.863  36.441  37.958  1.00  0.00     0.059 A 
ATOM     66  C   UNL A   1      39.101  35.171  39.057  1.00  0.00     0.059 A 
ATOM     67  F   UNL A   1      38.457  33.096  38.188  1.00  0.00    -0.206 F 
ATOM     68  C   UNL A   1      39.917  36.298  38.979  1.00  0.00     0.060 A 
BRANCH  68  69
ATOM     69  S   UNL A   1      39.735  37.623  40.185  1.00  0.00     0.124 S 
ATOM     70  O   UNL A   1      40.726  38.586  39.714  1.00  0.00    -0.237 OA
ATOM     71  O   UNL A   1      38.339  38.010  40.011  1.00  0.00    -0.237 OA
ATOM     72  O   UNL A   1      40.047  36.972  41.454  1.00  0.00    -0.744 OA
ENDBRANCH  68  69
ENDBRANCH  36  61
ENDBRANCH  10  11
ENDBRANCH   3   5
ENDBRANCH   2   3
ENDBRANCH   1   2
BRANCH   1  73
ATOM     73  C   UNL A   1      37.170  22.586  25.656  1.00  0.00     0.275 C 
BRANCH  73  74
ATOM     74  O   UNL A   1      35.811  22.561  25.171  1.00  0.00    -0.458 OA
BRANCH  74  75
ATOM     75  C   UNL A   1      34.855  23.002  26.035  1.00  0.00     0.338 C 
ATOM     76  O   UNL A   1      34.826  22.809  27.237  1.00  0.00    -0.246 OA
BRANCH  75  77
ATOM     77  C   UNL A   1      33.937  23.932  25.331  1.00  0.00     0.060 A 
ATOM     78  C   UNL A   1      32.650  23.470  25.045  1.00  0.00     0.018 A 
ATOM     79  C   UNL A   1      34.288  25.255  25.043  1.00  0.00     0.022 A 
ATOM     80  C   UNL A   1      31.680  24.349  24.562  1.00  0.00     0.027 A 
ATOM     81  C   UNL A   1      33.320  26.157  24.544  1.00  0.00    -0.017 A 
ATOM     82  C   UNL A   1      31.964  25.705  24.342  1.00  0.00     0.038 A 
ATOM     83  C   UNL A   1      33.679  27.684  24.606  1.00  0.00     0.049 C 
ATOM     84  N   UNL A   1      30.854  26.520  24.072  1.00  0.00    -0.378 N 
ATOM     85  C   UNL A   1      34.456  28.208  26.332  1.00  0.00    -0.023 C 
ATOM     86  C   UNL A   1      31.990  28.641  24.282  1.00  0.00     0.031 C 
ATOM     87  C   UNL A   1      30.969  27.849  23.520  1.00  0.00     0.114 C 
ATOM     88  H   UNL A   1      29.956  26.170  24.269  1.00  0.00     0.161 HD
ATOM     89  C   UNL A   1      33.443  29.189  27.199  1.00  0.00    -0.030 C 
ATOM     90  C   UNL A   1      31.533  29.568  26.045  1.00  0.00     0.034 C 
BRANCH  87  91
ATOM     91  C   UNL A   1      29.703  28.689  23.320  1.00  0.00    -0.022 A 
ATOM     92  C   UNL A   1      28.458  28.015  23.343  1.00  0.00     0.026 A 
ATOM     93  C   UNL A   1      29.650  30.061  23.071  1.00  0.00     0.026 A 
ATOM     94  C   UNL A   1      27.274  28.695  23.093  1.00  0.00     0.111 A 
ATOM     95  C   UNL A   1      28.406  30.665  22.863  1.00  0.00     0.111 A 
ATOM     96  N   UNL A   1      27.220  30.018  22.874  1.00  0.00    -0.265 NA
ENDBRANCH  87  91
ENDBRANCH  75  77
ENDBRANCH  74  75
ENDBRANCH  73  74
ENDBRANCH   1  73
TORSDOF 15
ENDMDL
