MODEL 1
REMARK VINA RESULT:      -9.8      0.000      0.000
REMARK SMILES C[NH2+]CC(=O)NC[C@H]1CC[C@H](C(=O)OCCOC(=O)c2ccc(-c3c4nc(c(-c5c(F)cc(S(=O)(=O)[O-])cc5F)c5ccc([nH]5)c(-c5c(F)cc(S(=O)(=O)[O-])cc5F)c5nc(c(-c6c(F)cc(S(=O)(=O)[O-])cc6F)c6ccc3[nH]6)C=C5)C=C4)cc2)O1
REMARK SMILES IDX 15 1 14 2 12 3 13 4 11 5 8 6 9 7 86 8 10 9 7 10 6 11 4 12
REMARK SMILES IDX 5 13 3 15 2 16 1 17 16 20 17 21 18 22 19 23 20 24 21 25
REMARK SMILES IDX 85 26 22 27 84 28 23 29 24 30 25 31 78 32 26 33 83 34 77 35
REMARK SMILES IDX 79 36 27 37 82 38 76 39 75 40 28 42 62 43 41 44 61 45 42 46
REMARK SMILES IDX 45 47 60 48 80 49 43 50 44 51 59 53 81 54 46 55 29 56 30 57
REMARK SMILES IDX 39 58 31 59 32 60 38 61 40 62 33 63 34 64 35 65 36 66 37 67
REMARK SMILES IDX 63 68 64 69 73 70 65 71 66 72 72 73 74 74 67 75 68 76 69 77
REMARK SMILES IDX 70 78 71 79 47 80 48 81 57 82 49 83 50 84 56 85 58 86 51 87
REMARK SMILES IDX 52 88 53 89 54 90 55 91
REMARK H PARENT 6 14 2 18 2 19 79 41 45 52
REMARK Flexibility Score: inf
ROOT
ATOM      1  C   UNL A   1      45.112  22.890  25.627  1.00  0.00     0.274 C 
ENDROOT
BRANCH   1   2
ATOM      2  O   UNL A   1      44.294  21.985  26.394  1.00  0.00    -0.460 OA
BRANCH   2   3
ATOM      3  C   UNL A   1      43.639  21.040  25.666  1.00  0.00     0.335 C 
ATOM      4  O   UNL A   1      44.157  20.343  24.800  1.00  0.00    -0.249 OA
BRANCH   3   5
ATOM      5  C   UNL A   1      42.159  20.942  26.021  1.00  0.00     0.228 C 
ATOM      6  C   UNL A   1      40.365  22.353  26.478  1.00  0.00     0.138 C 
ATOM      7  C   UNL A   1      40.956  21.970  27.819  1.00  0.00     0.037 C 
ATOM      8  O   UNL A   1      41.408  22.063  25.533  1.00  0.00    -0.361 OA
ATOM      9  C   UNL A   1      41.835  20.784  27.501  1.00  0.00     0.047 C 
BRANCH   6  10
ATOM     10  C   UNL A   1      39.089  21.568  26.106  1.00  0.00     0.148 C 
BRANCH  10  11
ATOM     11  N   UNL A   1      38.297  22.314  25.133  1.00  0.00    -0.349 N 
ATOM     12  C   UNL A   1      37.038  22.099  24.664  1.00  0.00     0.275 C 
ATOM     13  O   UNL A   1      36.633  22.824  23.751  1.00  0.00    -0.269 OA
ATOM     14  H   UNL A   1      38.748  23.101  24.753  1.00  0.00     0.163 HD
BRANCH  12  15
ATOM     15  C   UNL A   1      36.158  20.992  25.247  1.00  0.00     0.361 C 
BRANCH  15  16
ATOM     16  N   UNL A   1      35.506  21.418  26.494  1.00  0.00    -0.341 N 
ATOM     17  C   UNL A   1      34.139  21.864  26.293  1.00  0.00     0.331 C 
ATOM     18  H   UNL A   1      35.501  20.632  27.144  1.00  0.00     0.346 HD
ATOM     19  H   UNL A   1      36.036  22.210  26.861  1.00  0.00     0.346 HD
ENDBRANCH  15  16
ENDBRANCH  12  15
ENDBRANCH  10  11
ENDBRANCH   6  10
ENDBRANCH   3   5
ENDBRANCH   2   3
ENDBRANCH   1   2
BRANCH   1  20
ATOM     20  C   UNL A   1      44.402  24.215  25.330  1.00  0.00     0.275 C 
BRANCH  20  21
ATOM     21  O   UNL A   1      43.459  24.577  26.354  1.00  0.00    -0.458 OA
BRANCH  21  22
ATOM     22  C   UNL A   1      42.484  25.431  25.960  1.00  0.00     0.338 C 
ATOM     23  O   UNL A   1      41.917  25.445  24.880  1.00  0.00    -0.246 OA
BRANCH  22  24
ATOM     24  C   UNL A   1      42.078  26.300  27.077  1.00  0.00     0.060 A 
ATOM     25  C   UNL A   1      42.748  27.518  27.236  1.00  0.00     0.016 A 
ATOM     26  C   UNL A   1      41.120  25.891  28.007  1.00  0.00     0.016 A 
ATOM     27  C   UNL A   1      42.465  28.330  28.331  1.00  0.00     0.010 A 
ATOM     28  C   UNL A   1      40.839  26.710  29.108  1.00  0.00     0.010 A 
ATOM     29  C   UNL A   1      41.517  27.928  29.282  1.00  0.00    -0.014 A 
BRANCH  29  30
ATOM     30  C   UNL A   1      41.263  28.789  30.463  1.00  0.00     0.031 A 
ATOM     31  C   UNL A   1      42.133  28.681  31.683  1.00  0.00     0.074 A 
ATOM     32  C   UNL A   1      40.266  29.692  30.421  1.00  0.00     0.049 A 
ATOM     33  N   UNL A   1      42.072  29.354  32.803  1.00  0.00    -0.248 NA
ATOM     34  C   UNL A   1      43.214  27.684  31.638  1.00  0.00     0.031 C 
ATOM     35  C   UNL A   1      39.363  29.898  29.288  1.00  0.00     0.029 A 
ATOM     36  N   UNL A   1      39.850  30.609  31.352  1.00  0.00    -0.354 N 
ATOM     37  C   UNL A   1      43.099  28.863  33.600  1.00  0.00     0.074 A 
ATOM     38  C   UNL A   1      43.754  27.817  32.843  1.00  0.00     0.031 C 
ATOM     39  C   UNL A   1      38.501  30.883  29.589  1.00  0.00     0.029 A 
ATOM     40  C   UNL A   1      38.774  31.359  30.943  1.00  0.00     0.049 A 
ATOM     41  H   UNL A   1      40.280  30.719  32.230  1.00  0.00     0.167 HD
ATOM     42  C   UNL A   1      43.465  29.254  34.846  1.00  0.00     0.037 A 
ATOM     43  C   UNL A   1      38.079  32.314  31.590  1.00  0.00     0.037 A 
ATOM     44  C   UNL A   1      42.813  30.298  35.595  1.00  0.00     0.049 A 
ATOM     45  C   UNL A   1      38.491  32.713  32.980  1.00  0.00     0.074 A 
ATOM     46  C   UNL A   1      43.126  30.779  36.855  1.00  0.00     0.029 A 
ATOM     47  N   UNL A   1      41.714  31.021  35.157  1.00  0.00    -0.354 N 
ATOM     48  N   UNL A   1      39.477  32.251  33.711  1.00  0.00    -0.248 NA
ATOM     49  C   UNL A   1      37.699  33.766  33.629  1.00  0.00     0.031 C 
ATOM     50  C   UNL A   1      42.195  31.769  37.192  1.00  0.00     0.029 A 
ATOM     51  C   UNL A   1      41.324  31.931  36.127  1.00  0.00     0.049 A 
ATOM     52  H   UNL A   1      41.274  30.905  34.284  1.00  0.00     0.167 HD
ATOM     53  C   UNL A   1      39.428  32.963  34.905  1.00  0.00     0.074 A 
ATOM     54  C   UNL A   1      38.331  33.901  34.786  1.00  0.00     0.031 C 
ATOM     55  C   UNL A   1      40.221  32.849  36.000  1.00  0.00     0.037 A 
BRANCH  42  56
ATOM     56  C   UNL A   1      44.617  28.532  35.486  1.00  0.00     0.058 A 
ATOM     57  C   UNL A   1      45.940  28.981  35.340  1.00  0.00     0.135 A 
ATOM     58  C   UNL A   1      44.394  27.397  36.281  1.00  0.00     0.135 A 
ATOM     59  F   UNL A   1      46.210  30.052  34.578  1.00  0.00    -0.206 F 
ATOM     60  C   UNL A   1      47.003  28.314  35.940  1.00  0.00     0.059 A 
ATOM     61  C   UNL A   1      45.441  26.726  36.907  1.00  0.00     0.059 A 
ATOM     62  F   UNL A   1      43.149  26.925  36.451  1.00  0.00    -0.206 F 
ATOM     63  C   UNL A   1      46.744  27.185  36.719  1.00  0.00     0.060 A 
BRANCH  63  64
ATOM     64  S   UNL A   1      48.133  26.327  37.491  1.00  0.00     0.124 S 
ATOM     65  O   UNL A   1      49.255  27.167  37.081  1.00  0.00    -0.237 OA
ATOM     66  O   UNL A   1      47.788  26.379  38.908  1.00  0.00    -0.237 OA
ATOM     67  O   UNL A   1      48.089  24.999  36.887  1.00  0.00    -0.744 OA
ENDBRANCH  63  64
ENDBRANCH  42  56
BRANCH  43  68
ATOM     68  C   UNL A   1      36.914  32.955  30.927  1.00  0.00     0.058 A 
ATOM     69  C   UNL A   1      35.602  32.589  31.255  1.00  0.00     0.135 A 
ATOM     70  C   UNL A   1      37.096  33.957  29.962  1.00  0.00     0.135 A 
ATOM     71  F   UNL A   1      35.381  31.628  32.165  1.00  0.00    -0.206 F 
ATOM     72  C   UNL A   1      34.505  33.184  30.639  1.00  0.00     0.059 A 
ATOM     73  C   UNL A   1      36.015  34.582  29.348  1.00  0.00     0.059 A 
ATOM     74  F   UNL A   1      38.333  34.349  29.623  1.00  0.00    -0.206 F 
ATOM     75  C   UNL A   1      34.723  34.182  29.686  1.00  0.00     0.060 A 
BRANCH  75  76
ATOM     76  S   UNL A   1      33.298  34.989  28.927  1.00  0.00     0.124 S 
ATOM     77  O   UNL A   1      32.452  35.242  30.088  1.00  0.00    -0.237 OA
ATOM     78  O   UNL A   1      33.899  36.165  28.307  1.00  0.00    -0.237 OA
ATOM     79  O   UNL A   1      32.804  33.981  27.992  1.00  0.00    -0.744 OA
ENDBRANCH  75  76
ENDBRANCH  43  68
BRANCH  55  80
ATOM     80  C   UNL A   1      39.924  33.771  37.151  1.00  0.00     0.058 A 
ATOM     81  C   UNL A   1      39.022  33.411  38.164  1.00  0.00     0.135 A 
ATOM     82  C   UNL A   1      40.547  35.024  37.240  1.00  0.00     0.135 A 
ATOM     83  F   UNL A   1      38.396  32.224  38.121  1.00  0.00    -0.206 F 
ATOM     84  C   UNL A   1      38.719  34.279  39.207  1.00  0.00     0.059 A 
ATOM     85  C   UNL A   1      40.277  35.900  38.287  1.00  0.00     0.059 A 
ATOM     86  F   UNL A   1      41.427  35.411  36.302  1.00  0.00    -0.206 F 
ATOM     87  C   UNL A   1      39.345  35.526  39.255  1.00  0.00     0.060 A 
BRANCH  87  88
ATOM     88  S   UNL A   1      38.942  36.652  40.608  1.00  0.00     0.124 S 
ATOM     89  O   UNL A   1      38.430  37.810  39.884  1.00  0.00    -0.237 OA
ATOM     90  O   UNL A   1      37.955  35.894  41.371  1.00  0.00    -0.237 OA
ATOM     91  O   UNL A   1      40.225  36.845  41.278  1.00  0.00    -0.744 OA
ENDBRANCH  87  88
ENDBRANCH  55  80
ENDBRANCH  29  30
ENDBRANCH  22  24
ENDBRANCH  21  22
ENDBRANCH  20  21
ENDBRANCH   1  20
TORSDOF 18
ENDMDL
MODEL 2
REMARK VINA RESULT:      -9.7      6.901     13.091
REMARK SMILES C[NH2+]CC(=O)NC[C@H]1CC[C@H](C(=O)OCCOC(=O)c2ccc(-c3c4nc(c(-c5c(F)cc(S(=O)(=O)[O-])cc5F)c5ccc([nH]5)c(-c5c(F)cc(S(=O)(=O)[O-])cc5F)c5nc(c(-c6c(F)cc(S(=O)(=O)[O-])cc6F)c6ccc3[nH]6)C=C5)C=C4)cc2)O1
REMARK SMILES IDX 15 1 14 2 12 3 13 4 11 5 8 6 9 7 86 8 10 9 7 10 6 11 4 12
REMARK SMILES IDX 5 13 3 15 2 16 1 17 16 20 17 21 18 22 19 23 20 24 21 25
REMARK SMILES IDX 85 26 22 27 84 28 23 29 24 30 25 31 78 32 26 33 83 34 77 35
REMARK SMILES IDX 79 36 27 37 82 38 76 39 75 40 28 42 62 43 41 44 61 45 42 46
REMARK SMILES IDX 45 47 60 48 80 49 43 50 44 51 59 53 81 54 46 55 29 56 30 57
REMARK SMILES IDX 39 58 31 59 32 60 38 61 40 62 33 63 34 64 35 65 36 66 37 67
REMARK SMILES IDX 63 68 64 69 73 70 65 71 66 72 72 73 74 74 67 75 68 76 69 77
REMARK SMILES IDX 70 78 71 79 47 80 48 81 57 82 49 83 50 84 56 85 58 86 51 87
REMARK SMILES IDX 52 88 53 89 54 90 55 91
REMARK H PARENT 6 14 2 18 2 19 79 41 45 52
REMARK Flexibility Score: inf
ROOT
ATOM      1  C   UNL A   1      33.840  31.255  27.636  1.00  0.00     0.274 C 
ENDROOT
BRANCH   1   2
ATOM      2  O   UNL A   1      33.896  29.871  27.241  1.00  0.00    -0.460 OA
BRANCH   2   3
ATOM      3  C   UNL A   1      32.707  29.330  26.861  1.00  0.00     0.335 C 
ATOM      4  O   UNL A   1      31.826  28.965  27.633  1.00  0.00    -0.249 OA
BRANCH   3   5
ATOM      5  C   UNL A   1      32.577  29.193  25.347  1.00  0.00     0.228 C 
ATOM      6  C   UNL A   1      31.021  28.471  23.775  1.00  0.00     0.138 C 
ATOM      7  C   UNL A   1      31.932  27.291  24.043  1.00  0.00     0.037 C 
ATOM      8  O   UNL A   1      31.221  29.339  24.902  1.00  0.00    -0.361 OA
ATOM      9  C   UNL A   1      33.121  27.905  24.743  1.00  0.00     0.047 C 
BRANCH   6  10
ATOM     10  C   UNL A   1      31.339  29.227  22.468  1.00  0.00     0.148 C 
BRANCH  10  11
ATOM     11  N   UNL A   1      30.137  29.360  21.651  1.00  0.00    -0.349 N 
ATOM     12  C   UNL A   1      29.062  30.185  21.782  1.00  0.00     0.275 C 
ATOM     13  O   UNL A   1      28.114  30.022  21.008  1.00  0.00    -0.269 OA
ATOM     14  H   UNL A   1      30.097  28.753  20.878  1.00  0.00     0.163 HD
BRANCH  12  15
ATOM     15  C   UNL A   1      29.031  31.273  22.857  1.00  0.00     0.361 C 
BRANCH  15  16
ATOM     16  N   UNL A   1      29.177  32.615  22.274  1.00  0.00    -0.341 N 
ATOM     17  C   UNL A   1      29.289  33.658  23.279  1.00  0.00     0.331 C 
ATOM     18  H   UNL A   1      30.017  32.629  21.695  1.00  0.00     0.346 HD
ATOM     19  H   UNL A   1      28.336  32.805  21.728  1.00  0.00     0.346 HD
ENDBRANCH  15  16
ENDBRANCH  12  15
ENDBRANCH  10  11
ENDBRANCH   6  10
ENDBRANCH   3   5
ENDBRANCH   2   3
ENDBRANCH   1   2
BRANCH   1  20
ATOM     20  C   UNL A   1      34.836  31.588  28.753  1.00  0.00     0.275 C 
BRANCH  20  21
ATOM     21  O   UNL A   1      35.648  30.459  29.122  1.00  0.00    -0.458 OA
BRANCH  21  22
ATOM     22  C   UNL A   1      36.456  30.659  30.191  1.00  0.00     0.338 C 
ATOM     23  O   UNL A   1      36.110  30.931  31.329  1.00  0.00    -0.246 OA
BRANCH  22  24
ATOM     24  C   UNL A   1      37.857  30.374  29.838  1.00  0.00     0.060 A 
ATOM     25  C   UNL A   1      38.153  30.112  28.496  1.00  0.00     0.016 A 
ATOM     26  C   UNL A   1      38.849  30.276  30.815  1.00  0.00     0.016 A 
ATOM     27  C   UNL A   1      39.445  29.746  28.127  1.00  0.00     0.010 A 
ATOM     28  C   UNL A   1      40.147  29.906  30.441  1.00  0.00     0.010 A 
ATOM     29  C   UNL A   1      40.449  29.629  29.098  1.00  0.00    -0.014 A 
BRANCH  29  30
ATOM     30  C   UNL A   1      41.808  29.196  28.689  1.00  0.00     0.031 A 
ATOM     31  C   UNL A   1      42.948  30.175  28.685  1.00  0.00     0.074 A 
ATOM     32  C   UNL A   1      42.020  27.909  28.354  1.00  0.00     0.049 A 
ATOM     33  N   UNL A   1      44.202  29.981  28.371  1.00  0.00    -0.248 NA
ATOM     34  C   UNL A   1      42.635  31.556  29.086  1.00  0.00     0.031 C 
ATOM     35  C   UNL A   1      40.996  26.864  28.332  1.00  0.00     0.029 A 
ATOM     36  N   UNL A   1      43.167  27.263  27.973  1.00  0.00    -0.354 N 
ATOM     37  C   UNL A   1      44.831  31.210  28.530  1.00  0.00     0.074 A 
ATOM     38  C   UNL A   1      43.812  32.150  28.947  1.00  0.00     0.031 C 
ATOM     39  C   UNL A   1      41.562  25.705  27.961  1.00  0.00     0.029 A 
ATOM     40  C   UNL A   1      42.981  25.930  27.695  1.00  0.00     0.049 A 
ATOM     41  H   UNL A   1      44.042  27.709  27.904  1.00  0.00     0.167 HD
ATOM     42  C   UNL A   1      46.138  31.522  28.350  1.00  0.00     0.037 A 
ATOM     43  C   UNL A   1      43.852  24.998  27.264  1.00  0.00     0.037 A 
ATOM     44  C   UNL A   1      47.150  30.582  27.939  1.00  0.00     0.049 A 
ATOM     45  C   UNL A   1      45.292  25.376  27.051  1.00  0.00     0.074 A 
ATOM     46  C   UNL A   1      48.504  30.801  27.752  1.00  0.00     0.029 A 
ATOM     47  N   UNL A   1      46.920  29.246  27.647  1.00  0.00    -0.354 N 
ATOM     48  N   UNL A   1      45.873  26.538  27.225  1.00  0.00    -0.248 NA
ATOM     49  C   UNL A   1      46.194  24.313  26.589  1.00  0.00     0.031 C 
ATOM     50  C   UNL A   1      49.087  29.605  27.314  1.00  0.00     0.029 A 
ATOM     51  C   UNL A   1      48.102  28.632  27.264  1.00  0.00     0.049 A 
ATOM     52  H   UNL A   1      46.045  28.799  27.703  1.00  0.00     0.167 HD
ATOM     53  C   UNL A   1      47.211  26.346  26.900  1.00  0.00     0.074 A 
ATOM     54  C   UNL A   1      47.356  24.949  26.542  1.00  0.00     0.031 C 
ATOM     55  C   UNL A   1      48.228  27.244  26.897  1.00  0.00     0.037 A 
BRANCH  42  56
ATOM     56  C   UNL A   1      46.546  32.949  28.582  1.00  0.00     0.058 A 
ATOM     57  C   UNL A   1      46.980  33.397  29.840  1.00  0.00     0.135 A 
ATOM     58  C   UNL A   1      46.531  33.875  27.527  1.00  0.00     0.135 A 
ATOM     59  F   UNL A   1      46.998  32.556  30.887  1.00  0.00    -0.206 F 
ATOM     60  C   UNL A   1      47.364  34.718  30.049  1.00  0.00     0.059 A 
ATOM     61  C   UNL A   1      46.930  35.197  27.708  1.00  0.00     0.059 A 
ATOM     62  F   UNL A   1      46.123  33.500  26.304  1.00  0.00    -0.206 F 
ATOM     63  C   UNL A   1      47.332  35.612  28.977  1.00  0.00     0.060 A 
BRANCH  63  64
ATOM     64  S   UNL A   1      47.829  37.325  29.262  1.00  0.00     0.124 S 
ATOM     65  O   UNL A   1      46.669  38.051  28.754  1.00  0.00    -0.237 OA
ATOM     66  O   UNL A   1      48.016  37.362  30.708  1.00  0.00    -0.237 OA
ATOM     67  O   UNL A   1      49.049  37.459  28.472  1.00  0.00    -0.744 OA
ENDBRANCH  63  64
ENDBRANCH  42  56
BRANCH  43  68
ATOM     68  C   UNL A   1      43.381  23.614  27.000  1.00  0.00     0.058 A 
ATOM     69  C   UNL A   1      43.138  23.168  25.693  1.00  0.00     0.135 A 
ATOM     70  C   UNL A   1      43.176  22.708  28.052  1.00  0.00     0.135 A 
ATOM     71  F   UNL A   1      43.310  24.003  24.657  1.00  0.00    -0.206 F 
ATOM     72  C   UNL A   1      42.696  21.874  25.437  1.00  0.00     0.059 A 
ATOM     73  C   UNL A   1      42.756  21.403  27.819  1.00  0.00     0.059 A 
ATOM     74  F   UNL A   1      43.406  23.085  29.319  1.00  0.00    -0.206 F 
ATOM     75  C   UNL A   1      42.509  20.998  26.508  1.00  0.00     0.060 A 
BRANCH  75  76
ATOM     76  S   UNL A   1      41.986  19.304  26.168  1.00  0.00     0.124 S 
ATOM     77  O   UNL A   1      42.808  18.970  25.010  1.00  0.00    -0.237 OA
ATOM     78  O   UNL A   1      42.325  18.617  27.410  1.00  0.00    -0.237 OA
ATOM     79  O   UNL A   1      40.555  19.443  25.909  1.00  0.00    -0.744 OA
ENDBRANCH  75  76
ENDBRANCH  43  68
BRANCH  55  80
ATOM     80  C   UNL A   1      49.584  26.732  26.499  1.00  0.00     0.058 A 
ATOM     81  C   UNL A   1      50.058  26.860  25.183  1.00  0.00     0.135 A 
ATOM     82  C   UNL A   1      50.416  26.108  27.440  1.00  0.00     0.135 A 
ATOM     83  F   UNL A   1      49.297  27.444  24.244  1.00  0.00    -0.206 F 
ATOM     84  C   UNL A   1      51.297  26.351  24.806  1.00  0.00     0.059 A 
ATOM     85  C   UNL A   1      51.669  25.613  27.090  1.00  0.00     0.059 A 
ATOM     86  F   UNL A   1      50.015  25.972  28.714  1.00  0.00    -0.206 F 
ATOM     87  C   UNL A   1      52.092  25.722  25.765  1.00  0.00     0.060 A 
BRANCH  87  88
ATOM     88  S   UNL A   1      53.696  25.058  25.268  1.00  0.00     0.124 S 
ATOM     89  O   UNL A   1      54.564  25.570  26.322  1.00  0.00    -0.237 OA
ATOM     90  O   UNL A   1      53.463  23.617  25.283  1.00  0.00    -0.237 OA
ATOM     91  O   UNL A   1      53.904  25.637  23.944  1.00  0.00    -0.744 OA
ENDBRANCH  87  88
ENDBRANCH  55  80
ENDBRANCH  29  30
ENDBRANCH  22  24
ENDBRANCH  21  22
ENDBRANCH  20  21
ENDBRANCH   1  20
TORSDOF 18
ENDMDL
MODEL 3
REMARK VINA RESULT:      -9.6      5.044      6.646
REMARK SMILES C[NH2+]CC(=O)NC[C@H]1CC[C@H](C(=O)OCCOC(=O)c2ccc(-c3c4nc(c(-c5c(F)cc(S(=O)(=O)[O-])cc5F)c5ccc([nH]5)c(-c5c(F)cc(S(=O)(=O)[O-])cc5F)c5nc(c(-c6c(F)cc(S(=O)(=O)[O-])cc6F)c6ccc3[nH]6)C=C5)C=C4)cc2)O1
REMARK SMILES IDX 15 1 14 2 12 3 13 4 11 5 8 6 9 7 86 8 10 9 7 10 6 11 4 12
REMARK SMILES IDX 5 13 3 15 2 16 1 17 16 20 17 21 18 22 19 23 20 24 21 25
REMARK SMILES IDX 85 26 22 27 84 28 23 29 24 30 25 31 78 32 26 33 83 34 77 35
REMARK SMILES IDX 79 36 27 37 82 38 76 39 75 40 28 42 62 43 41 44 61 45 42 46
REMARK SMILES IDX 45 47 60 48 80 49 43 50 44 51 59 53 81 54 46 55 29 56 30 57
REMARK SMILES IDX 39 58 31 59 32 60 38 61 40 62 33 63 34 64 35 65 36 66 37 67
REMARK SMILES IDX 63 68 64 69 73 70 65 71 66 72 72 73 74 74 67 75 68 76 69 77
REMARK SMILES IDX 70 78 71 79 47 80 48 81 57 82 49 83 50 84 56 85 58 86 51 87
REMARK SMILES IDX 52 88 53 89 54 90 55 91
REMARK H PARENT 6 14 2 18 2 19 79 41 45 52
REMARK Flexibility Score: inf
ROOT
ATOM      1  C   UNL A   1      40.919  19.932  26.478  1.00  0.00     0.274 C 
ENDROOT
BRANCH   1   2
ATOM      2  O   UNL A   1      41.610  19.195  25.451  1.00  0.00    -0.460 OA
BRANCH   2   3
ATOM      3  C   UNL A   1      42.772  18.606  25.845  1.00  0.00     0.335 C 
ATOM      4  O   UNL A   1      42.857  17.477  26.316  1.00  0.00    -0.249 OA
BRANCH   3   5
ATOM      5  C   UNL A   1      43.986  19.512  25.664  1.00  0.00     0.228 C 
ATOM      6  C   UNL A   1      45.057  20.696  23.970  1.00  0.00     0.138 C 
ATOM      7  C   UNL A   1      45.770  19.363  24.073  1.00  0.00     0.037 C 
ATOM      8  O   UNL A   1      43.793  20.475  24.617  1.00  0.00    -0.361 OA
ATOM      9  C   UNL A   1      45.311  18.810  25.402  1.00  0.00     0.047 C 
BRANCH   6  10
ATOM     10  C   UNL A   1      45.800  21.861  24.657  1.00  0.00     0.148 C 
BRANCH  10  11
ATOM     11  N   UNL A   1      45.055  23.106  24.498  1.00  0.00    -0.349 N 
ATOM     12  C   UNL A   1      44.328  23.824  25.395  1.00  0.00     0.275 C 
ATOM     13  O   UNL A   1      43.697  24.799  24.976  1.00  0.00    -0.269 OA
ATOM     14  H   UNL A   1      45.084  23.488  23.592  1.00  0.00     0.163 HD
BRANCH  12  15
ATOM     15  C   UNL A   1      44.290  23.432  26.874  1.00  0.00     0.361 C 
BRANCH  15  16
ATOM     16  N   UNL A   1      42.911  23.350  27.378  1.00  0.00    -0.341 N 
ATOM     17  C   UNL A   1      42.811  23.641  28.797  1.00  0.00     0.331 C 
ATOM     18  H   UNL A   1      42.337  24.020  26.866  1.00  0.00     0.346 HD
ATOM     19  H   UNL A   1      42.591  22.391  27.238  1.00  0.00     0.346 HD
ENDBRANCH  15  16
ENDBRANCH  12  15
ENDBRANCH  10  11
ENDBRANCH   6  10
ENDBRANCH   3   5
ENDBRANCH   2   3
ENDBRANCH   1   2
BRANCH   1  20
ATOM     20  C   UNL A   1      40.551  21.352  26.035  1.00  0.00     0.275 C 
BRANCH  20  21
ATOM     21  O   UNL A   1      39.593  21.972  26.912  1.00  0.00    -0.458 OA
BRANCH  21  22
ATOM     22  C   UNL A   1      38.889  22.992  26.364  1.00  0.00     0.338 C 
ATOM     23  O   UNL A   1      37.924  22.899  25.623  1.00  0.00    -0.246 OA
BRANCH  22  24
ATOM     24  C   UNL A   1      39.364  24.284  26.886  1.00  0.00     0.060 A 
ATOM     25  C   UNL A   1      40.075  25.119  26.018  1.00  0.00     0.016 A 
ATOM     26  C   UNL A   1      39.195  24.634  28.227  1.00  0.00     0.016 A 
ATOM     27  C   UNL A   1      40.626  26.308  26.491  1.00  0.00     0.010 A 
ATOM     28  C   UNL A   1      39.751  25.830  28.699  1.00  0.00     0.010 A 
ATOM     29  C   UNL A   1      40.478  26.667  27.837  1.00  0.00    -0.014 A 
BRANCH  29  30
ATOM     30  C   UNL A   1      41.108  27.917  28.329  1.00  0.00     0.031 A 
ATOM     31  C   UNL A   1      42.594  28.110  28.224  1.00  0.00     0.074 A 
ATOM     32  C   UNL A   1      40.334  28.892  28.840  1.00  0.00     0.049 A 
ATOM     33  N   UNL A   1      43.322  29.134  28.588  1.00  0.00    -0.248 NA
ATOM     34  C   UNL A   1      43.365  27.004  27.633  1.00  0.00     0.031 C 
ATOM     35  C   UNL A   1      38.879  28.826  28.982  1.00  0.00     0.029 A 
ATOM     36  N   UNL A   1      40.662  30.130  29.328  1.00  0.00    -0.354 N 
ATOM     37  C   UNL A   1      44.634  28.801  28.277  1.00  0.00     0.074 A 
ATOM     38  C   UNL A   1      44.605  27.466  27.715  1.00  0.00     0.031 C 
ATOM     39  C   UNL A   1      38.438  29.975  29.518  1.00  0.00     0.029 A 
ATOM     40  C   UNL A   1      39.580  30.848  29.780  1.00  0.00     0.049 A 
ATOM     41  H   UNL A   1      41.584  30.474  29.354  1.00  0.00     0.167 HD
ATOM     42  C   UNL A   1      45.758  29.542  28.439  1.00  0.00     0.037 A 
ATOM     43  C   UNL A   1      39.517  32.066  30.352  1.00  0.00     0.037 A 
ATOM     44  C   UNL A   1      45.782  30.871  28.995  1.00  0.00     0.049 A 
ATOM     45  C   UNL A   1      40.781  32.857  30.541  1.00  0.00     0.074 A 
ATOM     46  C   UNL A   1      46.869  31.709  29.178  1.00  0.00     0.029 A 
ATOM     47  N   UNL A   1      44.670  31.557  29.461  1.00  0.00    -0.354 N 
ATOM     48  N   UNL A   1      42.012  32.534  30.224  1.00  0.00    -0.248 NA
ATOM     49  C   UNL A   1      40.646  34.182  31.162  1.00  0.00     0.031 C 
ATOM     50  C   UNL A   1      46.419  32.887  29.787  1.00  0.00     0.029 A 
ATOM     51  C   UNL A   1      45.046  32.799  29.948  1.00  0.00     0.049 A 
ATOM     52  H   UNL A   1      43.748  31.212  29.447  1.00  0.00     0.167 HD
ATOM     53  C   UNL A   1      42.797  33.618  30.600  1.00  0.00     0.074 A 
ATOM     54  C   UNL A   1      41.899  34.615  31.146  1.00  0.00     0.031 C 
ATOM     55  C   UNL A   1      44.142  33.774  30.502  1.00  0.00     0.037 A 
BRANCH  42  56
ATOM     56  C   UNL A   1      47.062  28.920  28.024  1.00  0.00     0.058 A 
ATOM     57  C   UNL A   1      47.861  28.210  28.934  1.00  0.00     0.135 A 
ATOM     58  C   UNL A   1      47.503  29.009  26.695  1.00  0.00     0.135 A 
ATOM     59  F   UNL A   1      47.494  28.109  30.221  1.00  0.00    -0.206 F 
ATOM     60  C   UNL A   1      49.065  27.629  28.545  1.00  0.00     0.059 A 
ATOM     61  C   UNL A   1      48.693  28.419  26.278  1.00  0.00     0.059 A 
ATOM     62  F   UNL A   1      46.777  29.678  25.785  1.00  0.00    -0.206 F 
ATOM     63  C   UNL A   1      49.474  27.743  27.214  1.00  0.00     0.060 A 
BRANCH  63  64
ATOM     64  S   UNL A   1      51.039  26.987  26.722  1.00  0.00     0.124 S 
ATOM     65  O   UNL A   1      50.801  25.586  27.058  1.00  0.00    -0.237 OA
ATOM     66  O   UNL A   1      51.102  27.293  25.297  1.00  0.00    -0.237 OA
ATOM     67  O   UNL A   1      52.023  27.674  27.552  1.00  0.00    -0.744 OA
ENDBRANCH  63  64
ENDBRANCH  42  56
BRANCH  43  68
ATOM     68  C   UNL A   1      38.205  32.607  30.791  1.00  0.00     0.058 A 
ATOM     69  C   UNL A   1      37.747  32.421  32.103  1.00  0.00     0.135 A 
ATOM     70  C   UNL A   1      37.393  33.333  29.908  1.00  0.00     0.135 A 
ATOM     71  F   UNL A   1      38.487  31.723  32.979  1.00  0.00    -0.206 F 
ATOM     72  C   UNL A   1      36.520  32.924  32.523  1.00  0.00     0.059 A 
ATOM     73  C   UNL A   1      36.172  33.865  30.311  1.00  0.00     0.059 A 
ATOM     74  F   UNL A   1      37.794  33.547  28.646  1.00  0.00    -0.206 F 
ATOM     75  C   UNL A   1      35.740  33.646  31.618  1.00  0.00     0.060 A 
BRANCH  75  76
ATOM     76  S   UNL A   1      34.172  34.343  32.181  1.00  0.00     0.124 S 
ATOM     77  O   UNL A   1      34.620  35.538  32.887  1.00  0.00    -0.237 OA
ATOM     78  O   UNL A   1      33.463  34.572  30.926  1.00  0.00    -0.237 OA
ATOM     79  O   UNL A   1      33.619  33.283  33.019  1.00  0.00    -0.744 OA
ENDBRANCH  75  76
ENDBRANCH  43  68
BRANCH  55  80
ATOM     80  C   UNL A   1      44.711  35.076  30.994  1.00  0.00     0.058 A 
ATOM     81  C   UNL A   1      45.158  35.226  32.316  1.00  0.00     0.135 A 
ATOM     82  C   UNL A   1      44.810  36.181  30.136  1.00  0.00     0.135 A 
ATOM     83  F   UNL A   1      45.080  34.200  33.177  1.00  0.00    -0.206 F 
ATOM     84  C   UNL A   1      45.649  36.442  32.781  1.00  0.00     0.059 A 
ATOM     85  C   UNL A   1      45.320  37.400  30.574  1.00  0.00     0.059 A 
ATOM     86  F   UNL A   1      44.407  36.086  28.859  1.00  0.00    -0.206 F 
ATOM     87  C   UNL A   1      45.718  37.526  31.905  1.00  0.00     0.060 A 
BRANCH  87  88
ATOM     88  S   UNL A   1      46.349  39.103  32.517  1.00  0.00     0.124 S 
ATOM     89  O   UNL A   1      45.559  39.285  33.729  1.00  0.00    -0.237 OA
ATOM     90  O   UNL A   1      47.767  38.821  32.721  1.00  0.00    -0.237 OA
ATOM     91  O   UNL A   1      46.054  40.029  31.427  1.00  0.00    -0.744 OA
ENDBRANCH  87  88
ENDBRANCH  55  80
ENDBRANCH  29  30
ENDBRANCH  22  24
ENDBRANCH  21  22
ENDBRANCH  20  21
ENDBRANCH   1  20
TORSDOF 18
ENDMDL
