MODEL 1
REMARK VINA RESULT:     -12.1      0.000      0.000
REMARK SMILES O=C(Cc1ccc(NC(=O)c2ccc(N3C(=O)c4ccccc4C3=O)cc2)cc1)OCCOC(=O)c1ccc(-c2c3nc(c(-c4c(F)cc(S(=O)(=O)[O-])cc4F)c4ccc([nH]4)c(-c4c(F)cc(S(=O)(=O)[O-])cc4F)c4nc(c(-c5c(F)cc(S(=O)(=O)[O-])cc5F)c5ccc2[nH]5)C=C4)C=C3)cc1
REMARK SMILES IDX 31 1 30 2 2 3 1 4 3 5 4 6 5 7 29 8 6 9 28 10 7 11 8 12 9 13
REMARK SMILES IDX 10 15 11 16 12 17 27 18 13 19 26 20 14 21 15 22 16 23 24 24
REMARK SMILES IDX 17 25 18 26 23 27 25 28 19 29 22 30 20 31 21 32 32 33 33 34
REMARK SMILES IDX 34 35 35 36 36 37 37 38 101 39 38 40 100 41 39 42 40 43
REMARK SMILES IDX 41 44 94 45 42 46 99 47 93 48 95 49 43 50 98 51 92 52 91 53
REMARK SMILES IDX 44 55 78 56 57 57 77 58 58 59 61 60 76 61 96 62 59 63 60 64
REMARK SMILES IDX 75 66 97 67 62 68 45 69 46 70 55 71 47 72 48 73 54 74 56 75
REMARK SMILES IDX 49 76 50 77 51 78 52 79 53 80 79 81 80 82 89 83 81 84 82 85
REMARK SMILES IDX 88 86 90 87 83 88 84 89 85 90 86 91 87 92 63 93 64 94 73 95
REMARK SMILES IDX 65 96 66 97 72 98 74 99 67 100 68 101 69 102 70 103 71 104
REMARK H PARENT 8 14 95 54 61 65
REMARK Flexibility Score: inf
ROOT
ATOM      1  C   UNL A   1      35.283  32.454  28.735  1.00  0.00     0.274 C 
ENDROOT
BRANCH   1   2
ATOM      2  O   UNL A   1      34.635  31.176  28.572  1.00  0.00    -0.462 OA
BRANCH   2   3
ATOM      3  C   UNL A   1      35.268  29.993  28.390  1.00  0.00     0.310 C 
ATOM      4  O   UNL A   1      35.728  29.397  29.363  1.00  0.00    -0.252 OA
BRANCH   3   5
ATOM      5  C   UNL A   1      35.376  29.408  26.994  1.00  0.00     0.158 C 
BRANCH   5   6
ATOM      6  C   UNL A   1      34.119  28.789  26.460  1.00  0.00    -0.037 A 
ATOM      7  C   UNL A   1      33.136  28.345  27.336  1.00  0.00     0.006 A 
ATOM      8  C   UNL A   1      33.956  28.574  25.082  1.00  0.00     0.006 A 
ATOM      9  C   UNL A   1      31.959  27.814  26.833  1.00  0.00     0.026 A 
ATOM     10  C   UNL A   1      32.753  28.068  24.581  1.00  0.00     0.026 A 
ATOM     11  C   UNL A   1      31.710  27.779  25.460  1.00  0.00     0.041 A 
BRANCH  11  12
ATOM     12  N   UNL A   1      30.429  27.509  24.939  1.00  0.00    -0.322 N 
ATOM     13  C   UNL A   1      29.992  26.354  24.307  1.00  0.00     0.255 C 
ATOM     14  H   UNL A   1      29.764  28.229  25.035  1.00  0.00     0.170 HD
ATOM     15  O   UNL A   1      28.894  26.290  23.762  1.00  0.00    -0.269 OA
BRANCH  13  16
ATOM     16  C   UNL A   1      30.825  25.129  24.401  1.00  0.00     0.040 A 
ATOM     17  C   UNL A   1      30.648  24.241  25.463  1.00  0.00     0.016 A 
ATOM     18  C   UNL A   1      31.651  24.780  23.333  1.00  0.00     0.016 A 
ATOM     19  C   UNL A   1      31.209  22.953  25.389  1.00  0.00     0.028 A 
ATOM     20  C   UNL A   1      32.209  23.500  23.276  1.00  0.00     0.028 A 
ATOM     21  C   UNL A   1      31.978  22.544  24.282  1.00  0.00     0.052 A 
BRANCH  21  22
ATOM     22  N   UNL A   1      32.486  21.211  24.154  1.00  0.00    -0.242 N 
ATOM     23  C   UNL A   1      32.221  20.372  23.089  1.00  0.00     0.266 C 
ATOM     24  C   UNL A   1      33.311  20.574  25.064  1.00  0.00     0.266 C 
ATOM     25  O   UNL A   1      31.575  20.521  22.065  1.00  0.00    -0.268 OA
ATOM     26  C   UNL A   1      32.936  19.127  23.327  1.00  0.00     0.053 A 
ATOM     27  C   UNL A   1      33.589  19.238  24.533  1.00  0.00     0.053 A 
ATOM     28  O   UNL A   1      33.792  20.938  26.121  1.00  0.00    -0.268 OA
ATOM     29  C   UNL A   1      33.035  18.000  22.532  1.00  0.00     0.015 A 
ATOM     30  C   UNL A   1      34.367  18.207  25.028  1.00  0.00     0.015 A 
ATOM     31  C   UNL A   1      33.825  16.951  23.002  1.00  0.00     0.001 A 
ATOM     32  C   UNL A   1      34.482  17.051  24.245  1.00  0.00     0.001 A 
ENDBRANCH  21  22
ENDBRANCH  13  16
ENDBRANCH  11  12
ENDBRANCH   5   6
ENDBRANCH   3   5
ENDBRANCH   2   3
ENDBRANCH   1   2
BRANCH   1  33
ATOM     33  C   UNL A   1      35.431  32.828  30.215  1.00  0.00     0.275 C 
BRANCH  33  34
ATOM     34  O   UNL A   1      36.819  32.866  30.597  1.00  0.00    -0.458 OA
BRANCH  34  35
ATOM     35  C   UNL A   1      37.247  31.834  31.372  1.00  0.00     0.338 C 
ATOM     36  O   UNL A   1      36.665  31.365  32.334  1.00  0.00    -0.246 OA
BRANCH  35  37
ATOM     37  C   UNL A   1      38.423  31.197  30.724  1.00  0.00     0.060 A 
ATOM     38  C   UNL A   1      39.409  30.650  31.555  1.00  0.00     0.016 A 
ATOM     39  C   UNL A   1      38.526  31.058  29.336  1.00  0.00     0.016 A 
ATOM     40  C   UNL A   1      40.510  29.991  31.000  1.00  0.00     0.010 A 
ATOM     41  C   UNL A   1      39.635  30.402  28.782  1.00  0.00     0.010 A 
ATOM     42  C   UNL A   1      40.648  29.888  29.609  1.00  0.00    -0.014 A 
BRANCH  42  43
ATOM     43  C   UNL A   1      41.931  29.392  29.042  1.00  0.00     0.031 A 
ATOM     44  C   UNL A   1      43.093  30.346  28.938  1.00  0.00     0.074 A 
ATOM     45  C   UNL A   1      42.093  28.103  28.684  1.00  0.00     0.049 A 
ATOM     46  N   UNL A   1      44.325  30.118  28.564  1.00  0.00    -0.248 NA
ATOM     47  C   UNL A   1      42.827  31.746  29.309  1.00  0.00     0.031 C 
ATOM     48  C   UNL A   1      41.056  27.073  28.732  1.00  0.00     0.029 A 
ATOM     49  N   UNL A   1      43.202  27.441  28.212  1.00  0.00    -0.354 N 
ATOM     50  C   UNL A   1      44.989  31.334  28.682  1.00  0.00     0.074 A 
ATOM     51  C   UNL A   1      44.006  32.311  29.098  1.00  0.00     0.031 C 
ATOM     52  C   UNL A   1      41.578  25.909  28.302  1.00  0.00     0.029 A 
ATOM     53  C   UNL A   1      42.981  26.110  27.941  1.00  0.00     0.049 A 
ATOM     54  H   UNL A   1      44.073  27.879  28.080  1.00  0.00     0.167 HD
ATOM     55  C   UNL A   1      46.300  31.610  28.490  1.00  0.00     0.037 A 
ATOM     56  C   UNL A   1      43.813  25.165  27.457  1.00  0.00     0.037 A 
ATOM     57  C   UNL A   1      47.278  30.646  28.056  1.00  0.00     0.049 A 
ATOM     58  C   UNL A   1      45.260  25.511  27.192  1.00  0.00     0.074 A 
ATOM     59  C   UNL A   1      48.632  30.835  27.834  1.00  0.00     0.029 A 
ATOM     60  N   UNL A   1      47.011  29.317  27.767  1.00  0.00    -0.354 N 
ATOM     61  N   UNL A   1      45.882  26.654  27.358  1.00  0.00    -0.248 NA
ATOM     62  C   UNL A   1      46.122  24.430  26.691  1.00  0.00     0.031 C 
ATOM     63  C   UNL A   1      49.171  29.634  27.361  1.00  0.00     0.029 A 
ATOM     64  C   UNL A   1      48.168  28.680  27.346  1.00  0.00     0.049 A 
ATOM     65  H   UNL A   1      46.128  28.888  27.848  1.00  0.00     0.167 HD
ATOM     66  C   UNL A   1      47.210  26.421  27.007  1.00  0.00     0.074 A 
ATOM     67  C   UNL A   1      47.306  25.024  26.645  1.00  0.00     0.031 C 
ATOM     68  C   UNL A   1      48.256  27.287  26.982  1.00  0.00     0.037 A 
BRANCH  55  69
ATOM     69  C   UNL A   1      46.757  33.019  28.752  1.00  0.00     0.058 A 
ATOM     70  C   UNL A   1      47.229  33.414  30.016  1.00  0.00     0.135 A 
ATOM     71  C   UNL A   1      46.765  33.975  27.724  1.00  0.00     0.135 A 
ATOM     72  F   UNL A   1      47.224  32.547  31.041  1.00  0.00    -0.206 F 
ATOM     73  C   UNL A   1      47.673  34.710  30.254  1.00  0.00     0.059 A 
ATOM     74  C   UNL A   1      47.233  35.269  27.933  1.00  0.00     0.059 A 
ATOM     75  F   UNL A   1      46.320  33.654  26.499  1.00  0.00    -0.206 F 
ATOM     76  C   UNL A   1      47.676  35.630  29.205  1.00  0.00     0.060 A 
BRANCH  76  77
ATOM     77  S   UNL A   1      48.274  37.301  29.529  1.00  0.00     0.124 S 
ATOM     78  O   UNL A   1      48.227  37.350  30.988  1.00  0.00    -0.237 OA
ATOM     79  O   UNL A   1      49.608  37.273  28.939  1.00  0.00    -0.237 OA
ATOM     80  O   UNL A   1      47.304  38.149  28.843  1.00  0.00    -0.744 OA
ENDBRANCH  76  77
ENDBRANCH  55  69
BRANCH  56  81
ATOM     81  C   UNL A   1      43.307  23.791  27.177  1.00  0.00     0.058 A 
ATOM     82  C   UNL A   1      43.146  22.842  28.199  1.00  0.00     0.135 A 
ATOM     83  C   UNL A   1      43.010  23.389  25.865  1.00  0.00     0.135 A 
ATOM     84  F   UNL A   1      43.431  23.168  29.469  1.00  0.00    -0.206 F 
ATOM     85  C   UNL A   1      42.738  21.538  27.928  1.00  0.00     0.059 A 
ATOM     86  C   UNL A   1      42.570  22.102  25.573  1.00  0.00     0.059 A 
ATOM     87  F   UNL A   1      43.139  24.257  24.850  1.00  0.00    -0.206 F 
ATOM     88  C   UNL A   1      42.451  21.178  26.610  1.00  0.00     0.060 A 
BRANCH  88  89
ATOM     89  S   UNL A   1      41.893  19.493  26.270  1.00  0.00     0.124 S 
ATOM     90  O   UNL A   1      40.462  19.691  26.076  1.00  0.00    -0.237 OA
ATOM     91  O   UNL A   1      42.660  19.156  25.074  1.00  0.00    -0.237 OA
ATOM     92  O   UNL A   1      42.273  18.765  27.475  1.00  0.00    -0.744 OA
ENDBRANCH  88  89
ENDBRANCH  56  81
BRANCH  68  93
ATOM     93  C   UNL A   1      49.602  26.741  26.576  1.00  0.00     0.058 A 
ATOM     94  C   UNL A   1      50.039  26.760  25.240  1.00  0.00     0.135 A 
ATOM     95  C   UNL A   1      50.475  26.202  27.537  1.00  0.00     0.135 A 
ATOM     96  F   UNL A   1      49.249  27.266  24.279  1.00  0.00    -0.206 F 
ATOM     97  C   UNL A   1      51.266  26.220  24.866  1.00  0.00     0.059 A 
ATOM     98  C   UNL A   1      51.721  25.689  27.189  1.00  0.00     0.059 A 
ATOM     99  F   UNL A   1      50.122  26.174  28.832  1.00  0.00    -0.206 F 
ATOM    100  C   UNL A   1      52.098  25.681  25.848  1.00  0.00     0.060 A 
BRANCH 100 101
ATOM    101  S   UNL A   1      53.681  24.971  25.346  1.00  0.00     0.124 S 
ATOM    102  O   UNL A   1      54.537  25.339  26.468  1.00  0.00    -0.237 OA
ATOM    103  O   UNL A   1      53.364  23.551  25.230  1.00  0.00    -0.237 OA
ATOM    104  O   UNL A   1      53.973  25.647  24.085  1.00  0.00    -0.744 OA
ENDBRANCH 100 101
ENDBRANCH  68  93
ENDBRANCH  42  43
ENDBRANCH  35  37
ENDBRANCH  34  35
ENDBRANCH  33  34
ENDBRANCH   1  33
TORSDOF 18
ENDMDL
MODEL 2
REMARK VINA RESULT:     -12.1      6.665     13.940
REMARK SMILES O=C(Cc1ccc(NC(=O)c2ccc(N3C(=O)c4ccccc4C3=O)cc2)cc1)OCCOC(=O)c1ccc(-c2c3nc(c(-c4c(F)cc(S(=O)(=O)[O-])cc4F)c4ccc([nH]4)c(-c4c(F)cc(S(=O)(=O)[O-])cc4F)c4nc(c(-c5c(F)cc(S(=O)(=O)[O-])cc5F)c5ccc2[nH]5)C=C4)C=C3)cc1
REMARK SMILES IDX 31 1 30 2 2 3 1 4 3 5 4 6 5 7 29 8 6 9 28 10 7 11 8 12 9 13
REMARK SMILES IDX 10 15 11 16 12 17 27 18 13 19 26 20 14 21 15 22 16 23 24 24
REMARK SMILES IDX 17 25 18 26 23 27 25 28 19 29 22 30 20 31 21 32 32 33 33 34
REMARK SMILES IDX 34 35 35 36 36 37 37 38 101 39 38 40 100 41 39 42 40 43
REMARK SMILES IDX 41 44 94 45 42 46 99 47 93 48 95 49 43 50 98 51 92 52 91 53
REMARK SMILES IDX 44 55 78 56 57 57 77 58 58 59 61 60 76 61 96 62 59 63 60 64
REMARK SMILES IDX 75 66 97 67 62 68 45 69 46 70 55 71 47 72 48 73 54 74 56 75
REMARK SMILES IDX 49 76 50 77 51 78 52 79 53 80 79 81 80 82 89 83 81 84 82 85
REMARK SMILES IDX 88 86 90 87 83 88 84 89 85 90 86 91 87 92 63 93 64 94 73 95
REMARK SMILES IDX 65 96 66 97 72 98 74 99 67 100 68 101 69 102 70 103 71 104
REMARK H PARENT 8 14 95 54 61 65
REMARK Flexibility Score: inf
ROOT
ATOM      1  C   UNL A   1      41.582  21.877  25.840  1.00  0.00     0.274 C 
ENDROOT
BRANCH   1   2
ATOM      2  O   UNL A   1      42.808  21.206  25.481  1.00  0.00    -0.462 OA
BRANCH   2   3
ATOM      3  C   UNL A   1      44.033  21.781  25.437  1.00  0.00     0.310 C 
ATOM      4  O   UNL A   1      44.840  21.557  26.338  1.00  0.00    -0.252 OA
BRANCH   3   5
ATOM      5  C   UNL A   1      44.402  22.669  24.263  1.00  0.00     0.158 C 
BRANCH   5   6
ATOM      6  C   UNL A   1      45.186  23.899  24.612  1.00  0.00    -0.037 A 
ATOM      7  C   UNL A   1      46.574  23.886  24.533  1.00  0.00     0.006 A 
ATOM      8  C   UNL A   1      44.540  25.045  25.102  1.00  0.00     0.006 A 
ATOM      9  C   UNL A   1      47.287  25.039  24.815  1.00  0.00     0.026 A 
ATOM     10  C   UNL A   1      45.264  26.214  25.353  1.00  0.00     0.026 A 
ATOM     11  C   UNL A   1      46.637  26.237  25.112  1.00  0.00     0.041 A 
BRANCH  11  12
ATOM     12  N   UNL A   1      47.315  27.472  25.128  1.00  0.00    -0.322 N 
ATOM     13  C   UNL A   1      47.487  28.338  26.199  1.00  0.00     0.255 C 
ATOM     14  H   UNL A   1      47.715  27.756  24.274  1.00  0.00     0.170 HD
ATOM     15  O   UNL A   1      47.970  29.456  26.057  1.00  0.00    -0.269 OA
BRANCH  13  16
ATOM     16  C   UNL A   1      47.192  27.846  27.569  1.00  0.00     0.040 A 
ATOM     17  C   UNL A   1      46.081  28.326  28.262  1.00  0.00     0.016 A 
ATOM     18  C   UNL A   1      47.922  26.774  28.081  1.00  0.00     0.016 A 
ATOM     19  C   UNL A   1      45.636  27.648  29.411  1.00  0.00     0.028 A 
ATOM     20  C   UNL A   1      47.473  26.114  29.229  1.00  0.00     0.028 A 
ATOM     21  C   UNL A   1      46.304  26.511  29.904  1.00  0.00     0.052 A 
BRANCH  21  22
ATOM     22  N   UNL A   1      45.816  25.761  31.022  1.00  0.00    -0.242 N 
ATOM     23  C   UNL A   1      44.801  24.827  30.956  1.00  0.00     0.266 C 
ATOM     24  C   UNL A   1      46.286  25.856  32.321  1.00  0.00     0.266 C 
ATOM     25  O   UNL A   1      44.128  24.408  30.027  1.00  0.00    -0.268 OA
ATOM     26  C   UNL A   1      44.623  24.280  32.292  1.00  0.00     0.053 A 
ATOM     27  C   UNL A   1      45.513  24.911  33.130  1.00  0.00     0.053 A 
ATOM     28  O   UNL A   1      47.164  26.535  32.821  1.00  0.00    -0.268 OA
ATOM     29  C   UNL A   1      43.773  23.281  32.731  1.00  0.00     0.015 A 
ATOM     30  C   UNL A   1      45.587  24.594  34.473  1.00  0.00     0.015 A 
ATOM     31  C   UNL A   1      43.838  22.932  34.081  1.00  0.00     0.001 A 
ATOM     32  C   UNL A   1      44.735  23.588  34.948  1.00  0.00     0.001 A 
ENDBRANCH  21  22
ENDBRANCH  13  16
ENDBRANCH  11  12
ENDBRANCH   5   6
ENDBRANCH   3   5
ENDBRANCH   2   3
ENDBRANCH   1   2
BRANCH   1  33
ATOM     33  C   UNL A   1      41.848  23.118  26.700  1.00  0.00     0.275 C 
BRANCH  33  34
ATOM     34  O   UNL A   1      40.798  24.090  26.535  1.00  0.00    -0.458 OA
BRANCH  34  35
ATOM     35  C   UNL A   1      41.202  25.345  26.202  1.00  0.00     0.338 C 
ATOM     36  O   UNL A   1      41.412  25.759  25.075  1.00  0.00    -0.246 OA
BRANCH  35  37
ATOM     37  C   UNL A   1      41.115  26.217  27.402  1.00  0.00     0.060 A 
ATOM     38  C   UNL A   1      40.098  25.952  28.328  1.00  0.00     0.016 A 
ATOM     39  C   UNL A   1      42.054  27.220  27.666  1.00  0.00     0.016 A 
ATOM     40  C   UNL A   1      40.003  26.705  29.502  1.00  0.00     0.010 A 
ATOM     41  C   UNL A   1      41.952  27.978  28.841  1.00  0.00     0.010 A 
ATOM     42  C   UNL A   1      40.909  27.745  29.754  1.00  0.00    -0.014 A 
BRANCH  42  43
ATOM     43  C   UNL A   1      40.649  28.675  30.885  1.00  0.00     0.031 A 
ATOM     44  C   UNL A   1      41.495  28.557  32.127  1.00  0.00     0.074 A 
ATOM     45  C   UNL A   1      39.726  29.652  30.798  1.00  0.00     0.049 A 
ATOM     46  N   UNL A   1      41.511  29.310  33.196  1.00  0.00    -0.248 NA
ATOM     47  C   UNL A   1      42.453  27.440  32.165  1.00  0.00     0.031 C 
ATOM     48  C   UNL A   1      38.839  29.882  29.658  1.00  0.00     0.029 A 
ATOM     49  N   UNL A   1      39.388  30.642  31.690  1.00  0.00    -0.354 N 
ATOM     50  C   UNL A   1      42.497  28.779  34.019  1.00  0.00     0.074 A 
ATOM     51  C   UNL A   1      43.009  27.600  33.355  1.00  0.00     0.031 C 
ATOM     52  C   UNL A   1      38.055  30.943  29.923  1.00  0.00     0.029 A 
ATOM     53  C   UNL A   1      38.376  31.464  31.251  1.00  0.00     0.049 A 
ATOM     54  H   UNL A   1      39.828  30.752  32.563  1.00  0.00     0.167 HD
ATOM     55  C   UNL A   1      42.956  29.242  35.206  1.00  0.00     0.037 A 
ATOM     56  C   UNL A   1      37.777  32.514  31.851  1.00  0.00     0.037 A 
ATOM     57  C   UNL A   1      42.436  30.403  35.881  1.00  0.00     0.049 A 
ATOM     58  C   UNL A   1      38.265  32.977  33.204  1.00  0.00     0.074 A 
ATOM     59  C   UNL A   1      42.839  30.948  37.089  1.00  0.00     0.029 A 
ATOM     60  N   UNL A   1      41.395  31.192  35.418  1.00  0.00    -0.354 N 
ATOM     61  N   UNL A   1      39.234  32.493  33.945  1.00  0.00    -0.248 NA
ATOM     62  C   UNL A   1      37.589  34.142  33.792  1.00  0.00     0.031 C 
ATOM     63  C   UNL A   1      42.007  32.034  37.380  1.00  0.00     0.029 A 
ATOM     64  C   UNL A   1      41.125  32.205  36.325  1.00  0.00     0.049 A 
ATOM     65  H   UNL A   1      40.915  31.054  34.568  1.00  0.00     0.167 HD
ATOM     66  C   UNL A   1      39.298  33.310  35.072  1.00  0.00     0.074 A 
ATOM     67  C   UNL A   1      38.290  34.334  34.901  1.00  0.00     0.031 C 
ATOM     68  C   UNL A   1      40.116  33.219  36.152  1.00  0.00     0.037 A 
BRANCH  55  69
ATOM     69  C   UNL A   1      44.086  28.489  35.853  1.00  0.00     0.058 A 
ATOM     70  C   UNL A   1      43.846  27.461  36.780  1.00  0.00     0.135 A 
ATOM     71  C   UNL A   1      45.421  28.766  35.515  1.00  0.00     0.135 A 
ATOM     72  F   UNL A   1      42.591  27.168  37.157  1.00  0.00    -0.206 F 
ATOM     73  C   UNL A   1      44.889  26.748  37.363  1.00  0.00     0.059 A 
ATOM     74  C   UNL A   1      46.478  28.045  36.063  1.00  0.00     0.059 A 
ATOM     75  F   UNL A   1      45.708  29.742  34.639  1.00  0.00    -0.206 F 
ATOM     76  C   UNL A   1      46.202  27.045  36.994  1.00  0.00     0.060 A 
BRANCH  76  77
ATOM     77  S   UNL A   1      47.540  26.096  37.746  1.00  0.00     0.124 S 
ATOM     78  O   UNL A   1      46.966  24.754  37.774  1.00  0.00    -0.237 OA
ATOM     79  O   UNL A   1      48.634  26.298  36.801  1.00  0.00    -0.237 OA
ATOM     80  O   UNL A   1      47.715  26.729  39.050  1.00  0.00    -0.744 OA
ENDBRANCH  76  77
ENDBRANCH  55  69
BRANCH  56  81
ATOM     81  C   UNL A   1      36.635  33.207  31.188  1.00  0.00     0.058 A 
ATOM     82  C   UNL A   1      35.319  33.070  31.653  1.00  0.00     0.135 A 
ATOM     83  C   UNL A   1      36.841  33.996  30.045  1.00  0.00     0.135 A 
ATOM     84  F   UNL A   1      35.063  32.316  32.733  1.00  0.00    -0.206 F 
ATOM     85  C   UNL A   1      34.244  33.664  30.994  1.00  0.00     0.059 A 
ATOM     86  C   UNL A   1      35.789  34.625  29.387  1.00  0.00     0.059 A 
ATOM     87  F   UNL A   1      38.081  34.167  29.560  1.00  0.00    -0.206 F 
ATOM     88  C   UNL A   1      34.491  34.441  29.861  1.00  0.00     0.060 A 
BRANCH  88  89
ATOM     89  S   UNL A   1      33.096  35.232  29.028  1.00  0.00     0.124 S 
ATOM     90  O   UNL A   1      32.188  35.476  30.142  1.00  0.00    -0.237 OA
ATOM     91  O   UNL A   1      33.723  36.413  28.442  1.00  0.00    -0.237 OA
ATOM     92  O   UNL A   1      32.662  34.221  28.069  1.00  0.00    -0.744 OA
ENDBRANCH  88  89
ENDBRANCH  56  81
BRANCH  68  93
ATOM     93  C   UNL A   1      39.972  34.272  37.223  1.00  0.00     0.058 A 
ATOM     94  C   UNL A   1      39.075  34.124  38.295  1.00  0.00     0.135 A 
ATOM     95  C   UNL A   1      40.753  35.441  37.186  1.00  0.00     0.135 A 
ATOM     96  F   UNL A   1      38.306  33.027  38.385  1.00  0.00    -0.206 F 
ATOM     97  C   UNL A   1      38.921  35.116  39.259  1.00  0.00     0.059 A 
ATOM     98  C   UNL A   1      40.639  36.429  38.159  1.00  0.00     0.059 A 
ATOM     99  F   UNL A   1      41.641  35.631  36.197  1.00  0.00    -0.206 F 
ATOM    100  C   UNL A   1      39.703  36.269  39.179  1.00  0.00     0.060 A 
BRANCH 100 101
ATOM    101  S   UNL A   1      39.482  37.554  40.428  1.00  0.00     0.124 S 
ATOM    102  O   UNL A   1      39.346  36.761  41.645  1.00  0.00    -0.237 OA
ATOM    103  O   UNL A   1      40.716  38.323  40.308  1.00  0.00    -0.237 OA
ATOM    104  O   UNL A   1      38.272  38.247  39.992  1.00  0.00    -0.744 OA
ENDBRANCH 100 101
ENDBRANCH  68  93
ENDBRANCH  42  43
ENDBRANCH  35  37
ENDBRANCH  34  35
ENDBRANCH  33  34
ENDBRANCH   1  33
TORSDOF 18
ENDMDL
MODEL 3
REMARK VINA RESULT:     -12.1      5.857     11.666
REMARK SMILES O=C(Cc1ccc(NC(=O)c2ccc(N3C(=O)c4ccccc4C3=O)cc2)cc1)OCCOC(=O)c1ccc(-c2c3nc(c(-c4c(F)cc(S(=O)(=O)[O-])cc4F)c4ccc([nH]4)c(-c4c(F)cc(S(=O)(=O)[O-])cc4F)c4nc(c(-c5c(F)cc(S(=O)(=O)[O-])cc5F)c5ccc2[nH]5)C=C4)C=C3)cc1
REMARK SMILES IDX 31 1 30 2 2 3 1 4 3 5 4 6 5 7 29 8 6 9 28 10 7 11 8 12 9 13
REMARK SMILES IDX 10 15 11 16 12 17 27 18 13 19 26 20 14 21 15 22 16 23 24 24
REMARK SMILES IDX 17 25 18 26 23 27 25 28 19 29 22 30 20 31 21 32 32 33 33 34
REMARK SMILES IDX 34 35 35 36 36 37 37 38 101 39 38 40 100 41 39 42 40 43
REMARK SMILES IDX 41 44 94 45 42 46 99 47 93 48 95 49 43 50 98 51 92 52 91 53
REMARK SMILES IDX 44 55 78 56 57 57 77 58 58 59 61 60 76 61 96 62 59 63 60 64
REMARK SMILES IDX 75 66 97 67 62 68 45 69 46 70 55 71 47 72 48 73 54 74 56 75
REMARK SMILES IDX 49 76 50 77 51 78 52 79 53 80 79 81 80 82 89 83 81 84 82 85
REMARK SMILES IDX 88 86 90 87 83 88 84 89 85 90 86 91 87 92 63 93 64 94 73 95
REMARK SMILES IDX 65 96 66 97 72 98 74 99 67 100 68 101 69 102 70 103 71 104
REMARK H PARENT 8 14 95 54 61 65
REMARK Flexibility Score: inf
ROOT
ATOM      1  C   UNL A   1      41.197  22.580  27.024  1.00  0.00     0.274 C 
ENDROOT
BRANCH   1   2
ATOM      2  O   UNL A   1      39.959  22.764  26.308  1.00  0.00    -0.462 OA
BRANCH   2   3
ATOM      3  C   UNL A   1      38.975  23.628  26.652  1.00  0.00     0.310 C 
ATOM      4  O   UNL A   1      39.086  24.294  27.680  1.00  0.00    -0.252 OA
BRANCH   3   5
ATOM      5  C   UNL A   1      37.764  23.782  25.750  1.00  0.00     0.158 C 
BRANCH   5   6
ATOM      6  C   UNL A   1      36.868  22.583  25.672  1.00  0.00    -0.037 A 
ATOM      7  C   UNL A   1      35.683  22.550  26.399  1.00  0.00     0.006 A 
ATOM      8  C   UNL A   1      37.248  21.450  24.935  1.00  0.00     0.006 A 
ATOM      9  C   UNL A   1      34.840  21.457  26.287  1.00  0.00     0.026 A 
ATOM     10  C   UNL A   1      36.377  20.365  24.801  1.00  0.00     0.026 A 
ATOM     11  C   UNL A   1      35.122  20.414  25.404  1.00  0.00     0.041 A 
BRANCH  11  12
ATOM     12  N   UNL A   1      34.160  19.441  25.066  1.00  0.00    -0.322 N 
ATOM     13  C   UNL A   1      32.802  19.623  24.846  1.00  0.00     0.255 C 
ATOM     14  H   UNL A   1      34.493  18.518  24.976  1.00  0.00     0.170 HD
ATOM     15  O   UNL A   1      32.036  18.675  24.703  1.00  0.00    -0.269 OA
BRANCH  13  16
ATOM     16  C   UNL A   1      32.288  21.003  24.657  1.00  0.00     0.040 A 
ATOM     17  C   UNL A   1      31.540  21.616  25.661  1.00  0.00     0.016 A 
ATOM     18  C   UNL A   1      32.710  21.744  23.553  1.00  0.00     0.016 A 
ATOM     19  C   UNL A   1      31.321  23.005  25.611  1.00  0.00     0.028 A 
ATOM     20  C   UNL A   1      32.479  23.122  23.512  1.00  0.00     0.028 A 
ATOM     21  C   UNL A   1      31.809  23.793  24.551  1.00  0.00     0.052 A 
BRANCH  21  22
ATOM     22  N   UNL A   1      31.666  25.218  24.527  1.00  0.00    -0.242 N 
ATOM     23  C   UNL A   1      30.623  25.890  23.920  1.00  0.00     0.266 C 
ATOM     24  C   UNL A   1      32.538  26.123  25.106  1.00  0.00     0.266 C 
ATOM     25  O   UNL A   1      29.632  25.502  23.322  1.00  0.00    -0.268 OA
ATOM     26  C   UNL A   1      30.835  27.312  24.138  1.00  0.00     0.053 A 
ATOM     27  C   UNL A   1      32.004  27.462  24.847  1.00  0.00     0.053 A 
ATOM     28  O   UNL A   1      33.567  25.973  25.740  1.00  0.00    -0.268 OA
ATOM     29  C   UNL A   1      30.045  28.388  23.776  1.00  0.00     0.015 A 
ATOM     30  C   UNL A   1      32.468  28.712  25.216  1.00  0.00     0.015 A 
ATOM     31  C   UNL A   1      30.483  29.660  24.149  1.00  0.00     0.001 A 
ATOM     32  C   UNL A   1      31.690  29.821  24.859  1.00  0.00     0.001 A 
ENDBRANCH  21  22
ENDBRANCH  13  16
ENDBRANCH  11  12
ENDBRANCH   5   6
ENDBRANCH   3   5
ENDBRANCH   2   3
ENDBRANCH   1   2
BRANCH   1  33
ATOM     33  C   UNL A   1      42.407  22.991  26.177  1.00  0.00     0.275 C 
BRANCH  33  34
ATOM     34  O   UNL A   1      42.466  24.423  26.029  1.00  0.00    -0.458 OA
BRANCH  34  35
ATOM     35  C   UNL A   1      43.488  25.042  26.677  1.00  0.00     0.338 C 
ATOM     36  O   UNL A   1      44.663  25.022  26.356  1.00  0.00    -0.246 OA
BRANCH  35  37
ATOM     37  C   UNL A   1      42.927  25.956  27.705  1.00  0.00     0.060 A 
ATOM     38  C   UNL A   1      43.491  27.233  27.821  1.00  0.00     0.016 A 
ATOM     39  C   UNL A   1      41.817  25.611  28.485  1.00  0.00     0.016 A 
ATOM     40  C   UNL A   1      42.966  28.153  28.733  1.00  0.00     0.010 A 
ATOM     41  C   UNL A   1      41.298  26.534  29.404  1.00  0.00     0.010 A 
ATOM     42  C   UNL A   1      41.886  27.802  29.555  1.00  0.00    -0.014 A 
BRANCH  42  43
ATOM     43  C   UNL A   1      41.498  28.706  30.670  1.00  0.00     0.031 A 
ATOM     44  C   UNL A   1      42.304  28.672  31.943  1.00  0.00     0.074 A 
ATOM     45  C   UNL A   1      40.491  29.592  30.543  1.00  0.00     0.049 A 
ATOM     46  N   UNL A   1      42.209  29.426  33.008  1.00  0.00    -0.248 NA
ATOM     47  C   UNL A   1      43.360  27.649  32.023  1.00  0.00     0.031 C 
ATOM     48  C   UNL A   1      39.630  29.735  29.370  1.00  0.00     0.029 A 
ATOM     49  N   UNL A   1      40.028  30.548  31.416  1.00  0.00    -0.354 N 
ATOM     50  C   UNL A   1      43.209  28.991  33.870  1.00  0.00     0.074 A 
ATOM     51  C   UNL A   1      43.854  27.864  33.233  1.00  0.00     0.031 C 
ATOM     52  C   UNL A   1      38.740  30.718  29.599  1.00  0.00     0.029 A 
ATOM     53  C   UNL A   1      38.961  31.270  30.934  1.00  0.00     0.049 A 
ATOM     54  H   UNL A   1      40.424  30.701  32.304  1.00  0.00     0.167 HD
ATOM     55  C   UNL A   1      43.578  29.498  35.070  1.00  0.00     0.037 A 
ATOM     56  C   UNL A   1      38.244  32.261  31.506  1.00  0.00     0.037 A 
ATOM     57  C   UNL A   1      42.926  30.607  35.719  1.00  0.00     0.049 A 
ATOM     58  C   UNL A   1      38.635  32.771  32.873  1.00  0.00     0.074 A 
ATOM     59  C   UNL A   1      43.230  31.190  36.937  1.00  0.00     0.029 A 
ATOM     60  N   UNL A   1      41.834  31.294  35.212  1.00  0.00    -0.354 N 
ATOM     61  N   UNL A   1      39.617  32.382  33.652  1.00  0.00    -0.248 NA
ATOM     62  C   UNL A   1      37.832  33.869  33.429  1.00  0.00     0.031 C 
ATOM     63  C   UNL A   1      42.290  32.194  37.191  1.00  0.00     0.029 A 
ATOM     64  C   UNL A   1      41.436  32.279  36.103  1.00  0.00     0.049 A 
ATOM     65  H   UNL A   1      41.402  31.109  34.346  1.00  0.00     0.167 HD
ATOM     66  C   UNL A   1      39.562  33.205  34.776  1.00  0.00     0.074 A 
ATOM     67  C   UNL A   1      38.469  34.128  34.562  1.00  0.00     0.031 C 
ATOM     68  C   UNL A   1      40.344  33.194  35.886  1.00  0.00     0.037 A 
BRANCH  55  69
ATOM     69  C   UNL A   1      44.749  28.856  35.763  1.00  0.00     0.058 A 
ATOM     70  C   UNL A   1      44.574  27.790  36.661  1.00  0.00     0.135 A 
ATOM     71  C   UNL A   1      46.061  29.281  35.499  1.00  0.00     0.135 A 
ATOM     72  F   UNL A   1      43.341  27.357  36.967  1.00  0.00    -0.206 F 
ATOM     73  C   UNL A   1      45.658  27.180  37.285  1.00  0.00     0.059 A 
ATOM     74  C   UNL A   1      47.161  28.665  36.090  1.00  0.00     0.059 A 
ATOM     75  F   UNL A   1      46.285  30.299  34.654  1.00  0.00    -0.206 F 
ATOM     76  C   UNL A   1      46.948  27.622  36.990  1.00  0.00     0.060 A 
BRANCH  76  77
ATOM     77  S   UNL A   1      48.341  26.805  37.796  1.00  0.00     0.124 S 
ATOM     78  O   UNL A   1      47.660  25.800  38.607  1.00  0.00    -0.237 OA
ATOM     79  O   UNL A   1      49.101  26.295  36.659  1.00  0.00    -0.237 OA
ATOM     80  O   UNL A   1      48.981  27.883  38.544  1.00  0.00    -0.744 OA
ENDBRANCH  76  77
ENDBRANCH  55  69
BRANCH  56  81
ATOM     81  C   UNL A   1      37.068  32.842  30.797  1.00  0.00     0.058 A 
ATOM     82  C   UNL A   1      37.218  33.803  29.784  1.00  0.00     0.135 A 
ATOM     83  C   UNL A   1      35.762  32.471  31.150  1.00  0.00     0.135 A 
ATOM     84  F   UNL A   1      38.445  34.205  29.418  1.00  0.00    -0.206 F 
ATOM     85  C   UNL A   1      36.118  34.395  29.169  1.00  0.00     0.059 A 
ATOM     86  C   UNL A   1      34.647  33.024  30.529  1.00  0.00     0.059 A 
ATOM     87  F   UNL A   1      35.559  31.551  32.107  1.00  0.00    -0.206 F 
ATOM     88  C   UNL A   1      34.835  33.997  29.548  1.00  0.00     0.060 A 
BRANCH  88  89
ATOM     89  S   UNL A   1      33.412  34.748  28.726  1.00  0.00     0.124 S 
ATOM     90  O   UNL A   1      32.498  34.949  29.844  1.00  0.00    -0.237 OA
ATOM     91  O   UNL A   1      33.996  35.957  28.152  1.00  0.00    -0.237 OA
ATOM     92  O   UNL A   1      33.011  33.734  27.757  1.00  0.00    -0.744 OA
ENDBRANCH  88  89
ENDBRANCH  56  81
BRANCH  68  93
ATOM     93  C   UNL A   1      40.062  34.231  36.945  1.00  0.00     0.058 A 
ATOM     94  C   UNL A   1      40.621  35.519  36.889  1.00  0.00     0.135 A 
ATOM     95  C   UNL A   1      39.209  33.939  38.023  1.00  0.00     0.135 A 
ATOM     96  F   UNL A   1      41.441  35.857  35.880  1.00  0.00    -0.206 F 
ATOM     97  C   UNL A   1      40.388  36.460  37.888  1.00  0.00     0.059 A 
ATOM     98  C   UNL A   1      38.934  34.877  39.015  1.00  0.00     0.059 A 
ATOM     99  F   UNL A   1      38.630  32.732  38.121  1.00  0.00    -0.206 F 
ATOM    100  C   UNL A   1      39.547  36.127  38.951  1.00  0.00     0.060 A 
BRANCH 100 101
ATOM    101  S   UNL A   1      39.264  37.351  40.248  1.00  0.00     0.124 S 
ATOM    102  O   UNL A   1      38.414  38.317  39.560  1.00  0.00    -0.237 OA
ATOM    103  O   UNL A   1      38.613  36.561  41.288  1.00  0.00    -0.237 OA
ATOM    104  O   UNL A   1      40.609  37.819  40.573  1.00  0.00    -0.744 OA
ENDBRANCH 100 101
ENDBRANCH  68  93
ENDBRANCH  42  43
ENDBRANCH  35  37
ENDBRANCH  34  35
ENDBRANCH  33  34
ENDBRANCH   1  33
TORSDOF 18
ENDMDL
