MODEL 1
REMARK VINA RESULT:     -12.0      0.000      0.000
REMARK SMILES CC1(C)[C@H](C(=O)OCCOC(=O)c2ccc(-c3c4nc(c(-c5c(F)cc(S(=O)(=O)[O-])cc5F)c5ccc([nH]5)c(-c5c(F)cc(S(=O)(=O)[O-])cc5F)c5nc(c(-c6c(F)cc(S(=O)(=O)[O-])cc6F)c6ccc3[nH]6)C=C5)C=C4)cc2)[C@@H]1c1nc2ccc(F)cc2s1
REMARK SMILES IDX 9 1 8 2 7 3 5 4 6 5 4 6 1 7 2 8 3 9 79 10 80 11 81 12 89 13
REMARK SMILES IDX 82 14 88 15 83 16 87 17 84 18 85 19 86 20 10 21 11 22 12 23
REMARK SMILES IDX 13 24 14 25 78 26 15 27 77 28 16 29 17 30 18 31 71 32 19 33
REMARK SMILES IDX 76 34 70 35 72 36 20 37 75 38 69 39 68 40 21 42 55 43 34 44
REMARK SMILES IDX 54 45 35 46 38 47 53 48 73 49 36 50 37 51 52 53 74 54 39 55
REMARK SMILES IDX 22 56 23 57 32 58 24 59 25 60 31 61 33 62 26 63 27 64 28 65
REMARK SMILES IDX 29 66 30 67 56 68 57 69 66 70 58 71 59 72 65 73 67 74 60 75
REMARK SMILES IDX 61 76 62 77 63 78 64 79 40 80 41 81 50 82 42 83 43 84 49 85
REMARK SMILES IDX 51 86 44 87 45 88 46 89 47 90 48 91
REMARK H PARENT 72 41 38 52
REMARK Flexibility Score: inf
ROOT
ATOM      1  C   UNL A   1      39.407  22.249  26.175  1.00  0.00     0.275 C 
ENDROOT
BRANCH   1   2
ATOM      2  C   UNL A   1      38.087  21.886  25.491  1.00  0.00     0.274 C 
BRANCH   2   3
ATOM      3  O   UNL A   1      37.047  22.799  25.884  1.00  0.00    -0.462 OA
BRANCH   3   4
ATOM      4  C   UNL A   1      36.431  23.470  24.881  1.00  0.00     0.310 C 
ATOM      5  O   UNL A   1      36.657  23.322  23.689  1.00  0.00    -0.252 OA
BRANCH   4   6
ATOM      6  C   UNL A   1      35.338  24.374  25.319  1.00  0.00     0.116 C 
ATOM      7  C   UNL A   1      33.735  26.325  24.902  1.00  0.00     0.013 C 
ATOM      8  C   UNL A   1      34.143  24.907  24.543  1.00  0.00    -0.011 C 
ATOM      9  C   UNL A   1      33.984  24.651  23.067  1.00  0.00     0.013 C 
ATOM     10  C   UNL A   1      33.952  23.838  25.607  1.00  0.00     0.070 C 
BRANCH  10  11
ATOM     11  C   UNL A   1      33.743  22.336  25.440  1.00  0.00     0.098 A 
ATOM     12  N   UNL A   1      33.431  21.898  24.242  1.00  0.00    -0.241 NA
ATOM     13  S   UNL A   1      33.842  21.152  26.660  1.00  0.00    -0.118 S 
ATOM     14  C   UNL A   1      33.061  20.572  24.313  1.00  0.00     0.082 A 
ATOM     15  C   UNL A   1      33.256  19.969  25.558  1.00  0.00     0.057 A 
ATOM     16  C   UNL A   1      32.509  19.811  23.263  1.00  0.00     0.033 A 
ATOM     17  C   UNL A   1      32.968  18.615  25.779  1.00  0.00     0.060 A 
ATOM     18  C   UNL A   1      32.183  18.469  23.482  1.00  0.00     0.041 A 
ATOM     19  C   UNL A   1      32.425  17.891  24.720  1.00  0.00     0.124 A 
ATOM     20  F   UNL A   1      32.118  16.600  24.907  1.00  0.00    -0.207 F 
ENDBRANCH  10  11
ENDBRANCH   4   6
ENDBRANCH   3   4
ENDBRANCH   2   3
ENDBRANCH   1   2
BRANCH   1  21
ATOM     21  O   UNL A   1      39.362  23.562  26.764  1.00  0.00    -0.458 OA
BRANCH  21  22
ATOM     22  C   UNL A   1      40.565  24.164  26.914  1.00  0.00     0.338 C 
ATOM     23  O   UNL A   1      41.616  23.865  26.372  1.00  0.00    -0.246 OA
BRANCH  22  24
ATOM     24  C   UNL A   1      40.425  25.344  27.778  1.00  0.00     0.060 A 
ATOM     25  C   UNL A   1      41.480  26.257  27.827  1.00  0.00     0.016 A 
ATOM     26  C   UNL A   1      39.320  25.491  28.614  1.00  0.00     0.016 A 
ATOM     27  C   UNL A   1      41.451  27.315  28.729  1.00  0.00     0.010 A 
ATOM     28  C   UNL A   1      39.284  26.561  29.513  1.00  0.00     0.010 A 
ATOM     29  C   UNL A   1      40.358  27.467  29.588  1.00  0.00    -0.014 A 
BRANCH  29  30
ATOM     30  C   UNL A   1      40.362  28.540  30.610  1.00  0.00     0.031 A 
ATOM     31  C   UNL A   1      41.319  28.456  31.765  1.00  0.00     0.074 A 
ATOM     32  C   UNL A   1      39.516  29.581  30.497  1.00  0.00     0.049 A 
ATOM     33  N   UNL A   1      41.386  29.198  32.838  1.00  0.00    -0.248 NA
ATOM     34  C   UNL A   1      42.333  27.392  31.703  1.00  0.00     0.031 C 
ATOM     35  C   UNL A   1      38.586  29.797  29.388  1.00  0.00     0.029 A 
ATOM     36  N   UNL A   1      39.294  30.645  31.334  1.00  0.00    -0.354 N 
ATOM     37  C   UNL A   1      42.425  28.674  33.596  1.00  0.00     0.074 A 
ATOM     38  C   UNL A   1      42.958  27.546  32.862  1.00  0.00     0.031 C 
ATOM     39  C   UNL A   1      37.886  30.921  29.617  1.00  0.00     0.029 A 
ATOM     40  C   UNL A   1      38.279  31.469  30.913  1.00  0.00     0.049 A 
ATOM     41  H   UNL A   1      39.811  30.803  32.156  1.00  0.00     0.167 HD
ATOM     42  C   UNL A   1      42.886  29.097  34.797  1.00  0.00     0.037 A 
ATOM     43  C   UNL A   1      37.702  32.524  31.521  1.00  0.00     0.037 A 
ATOM     44  C   UNL A   1      42.359  30.233  35.507  1.00  0.00     0.049 A 
ATOM     45  C   UNL A   1      38.198  32.945  32.878  1.00  0.00     0.074 A 
ATOM     46  C   UNL A   1      42.752  30.743  36.732  1.00  0.00     0.029 A 
ATOM     47  N   UNL A   1      41.326  31.039  35.050  1.00  0.00    -0.354 N 
ATOM     48  N   UNL A   1      39.159  32.421  33.602  1.00  0.00    -0.248 NA
ATOM     49  C   UNL A   1      37.529  34.093  33.505  1.00  0.00     0.031 C 
ATOM     50  C   UNL A   1      41.934  31.840  37.030  1.00  0.00     0.029 A 
ATOM     51  C   UNL A   1      41.061  32.037  35.972  1.00  0.00     0.049 A 
ATOM     52  H   UNL A   1      40.851  30.919  34.196  1.00  0.00     0.167 HD
ATOM     53  C   UNL A   1      39.228  33.191  34.757  1.00  0.00     0.074 A 
ATOM     54  C   UNL A   1      38.212  34.218  34.635  1.00  0.00     0.031 C 
ATOM     55  C   UNL A   1      40.058  33.062  35.820  1.00  0.00     0.037 A 
BRANCH  42  56
ATOM     56  C   UNL A   1      43.993  28.305  35.436  1.00  0.00     0.058 A 
ATOM     57  C   UNL A   1      43.732  27.238  36.309  1.00  0.00     0.135 A 
ATOM     58  C   UNL A   1      45.335  28.604  35.148  1.00  0.00     0.135 A 
ATOM     59  F   UNL A   1      42.469  26.922  36.632  1.00  0.00    -0.206 F 
ATOM     60  C   UNL A   1      44.764  26.510  36.894  1.00  0.00     0.059 A 
ATOM     61  C   UNL A   1      46.382  27.876  35.704  1.00  0.00     0.059 A 
ATOM     62  F   UNL A   1      45.639  29.617  34.321  1.00  0.00    -0.206 F 
ATOM     63  C   UNL A   1      46.086  26.839  36.588  1.00  0.00     0.060 A 
BRANCH  63  64
ATOM     64  S   UNL A   1      47.416  25.890  37.358  1.00  0.00     0.124 S 
ATOM     65  O   UNL A   1      47.298  24.611  36.664  1.00  0.00    -0.237 OA
ATOM     66  O   UNL A   1      48.598  26.681  37.031  1.00  0.00    -0.237 OA
ATOM     67  O   UNL A   1      47.048  25.873  38.770  1.00  0.00    -0.744 OA
ENDBRANCH  63  64
ENDBRANCH  42  56
BRANCH  43  68
ATOM     68  C   UNL A   1      36.574  33.232  30.863  1.00  0.00     0.058 A 
ATOM     69  C   UNL A   1      35.256  33.062  31.308  1.00  0.00     0.135 A 
ATOM     70  C   UNL A   1      36.795  34.111  29.790  1.00  0.00     0.135 A 
ATOM     71  F   UNL A   1      34.993  32.226  32.324  1.00  0.00    -0.206 F 
ATOM     72  C   UNL A   1      34.193  33.732  30.708  1.00  0.00     0.059 A 
ATOM     73  C   UNL A   1      35.753  34.809  29.191  1.00  0.00     0.059 A 
ATOM     74  F   UNL A   1      38.041  34.315  29.335  1.00  0.00    -0.206 F 
ATOM     75  C   UNL A   1      34.453  34.607  29.652  1.00  0.00     0.060 A 
BRANCH  75  76
ATOM     76  S   UNL A   1      33.077  35.514  28.915  1.00  0.00     0.124 S 
ATOM     77  O   UNL A   1      32.441  34.479  28.109  1.00  0.00    -0.237 OA
ATOM     78  O   UNL A   1      32.332  35.956  30.091  1.00  0.00    -0.237 OA
ATOM     79  O   UNL A   1      33.740  36.579  28.168  1.00  0.00    -0.744 OA
ENDBRANCH  75  76
ENDBRANCH  43  68
BRANCH  55  80
ATOM     80  C   UNL A   1      39.941  34.080  36.918  1.00  0.00     0.058 A 
ATOM     81  C   UNL A   1      40.548  35.340  36.822  1.00  0.00     0.135 A 
ATOM     82  C   UNL A   1      39.148  33.814  38.046  1.00  0.00     0.135 A 
ATOM     83  F   UNL A   1      41.323  35.639  35.768  1.00  0.00    -0.206 F 
ATOM     84  C   UNL A   1      40.380  36.302  37.813  1.00  0.00     0.059 A 
ATOM     85  C   UNL A   1      38.948  34.768  39.038  1.00  0.00     0.059 A 
ATOM     86  F   UNL A   1      38.539  32.625  38.179  1.00  0.00    -0.206 F 
ATOM     87  C   UNL A   1      39.575  36.008  38.915  1.00  0.00     0.060 A 
BRANCH  87  88
ATOM     88  S   UNL A   1      39.316  37.284  40.167  1.00  0.00     0.124 S 
ATOM     89  O   UNL A   1      38.588  36.544  41.193  1.00  0.00    -0.237 OA
ATOM     90  O   UNL A   1      40.681  37.669  40.511  1.00  0.00    -0.237 OA
ATOM     91  O   UNL A   1      38.544  38.301  39.460  1.00  0.00    -0.744 OA
ENDBRANCH  87  88
ENDBRANCH  55  80
ENDBRANCH  29  30
ENDBRANCH  22  24
ENDBRANCH  21  22
ENDBRANCH   1  21
TORSDOF 15
ENDMDL
MODEL 2
REMARK VINA RESULT:     -11.9      7.011     12.410
REMARK SMILES CC1(C)[C@H](C(=O)OCCOC(=O)c2ccc(-c3c4nc(c(-c5c(F)cc(S(=O)(=O)[O-])cc5F)c5ccc([nH]5)c(-c5c(F)cc(S(=O)(=O)[O-])cc5F)c5nc(c(-c6c(F)cc(S(=O)(=O)[O-])cc6F)c6ccc3[nH]6)C=C5)C=C4)cc2)[C@@H]1c1nc2ccc(F)cc2s1
REMARK SMILES IDX 9 1 8 2 7 3 5 4 6 5 4 6 1 7 2 8 3 9 79 10 80 11 81 12 89 13
REMARK SMILES IDX 82 14 88 15 83 16 87 17 84 18 85 19 86 20 10 21 11 22 12 23
REMARK SMILES IDX 13 24 14 25 78 26 15 27 77 28 16 29 17 30 18 31 71 32 19 33
REMARK SMILES IDX 76 34 70 35 72 36 20 37 75 38 69 39 68 40 21 42 55 43 34 44
REMARK SMILES IDX 54 45 35 46 38 47 53 48 73 49 36 50 37 51 52 53 74 54 39 55
REMARK SMILES IDX 22 56 23 57 32 58 24 59 25 60 31 61 33 62 26 63 27 64 28 65
REMARK SMILES IDX 29 66 30 67 56 68 57 69 66 70 58 71 59 72 65 73 67 74 60 75
REMARK SMILES IDX 61 76 62 77 63 78 64 79 40 80 41 81 50 82 42 83 43 84 49 85
REMARK SMILES IDX 51 86 44 87 45 88 46 89 47 90 48 91
REMARK H PARENT 72 41 38 52
REMARK Flexibility Score: inf
ROOT
ATOM      1  C   UNL A   1      34.258  30.935  27.736  1.00  0.00     0.275 C 
ENDROOT
BRANCH   1   2
ATOM      2  C   UNL A   1      33.215  30.178  26.909  1.00  0.00     0.274 C 
BRANCH   2   3
ATOM      3  O   UNL A   1      33.843  29.149  26.125  1.00  0.00    -0.462 OA
BRANCH   3   4
ATOM      4  C   UNL A   1      33.401  27.886  26.333  1.00  0.00     0.310 C 
ATOM      5  O   UNL A   1      32.427  27.580  27.008  1.00  0.00    -0.252 OA
BRANCH   4   6
ATOM      6  C   UNL A   1      34.136  26.838  25.581  1.00  0.00     0.116 C 
ATOM      7  C   UNL A   1      35.132  24.489  25.395  1.00  0.00     0.013 C 
ATOM      8  C   UNL A   1      33.879  25.341  25.489  1.00  0.00    -0.011 C 
ATOM      9  C   UNL A   1      32.823  24.670  26.325  1.00  0.00     0.013 C 
ATOM     10  C   UNL A   1      33.567  26.248  24.309  1.00  0.00     0.070 C 
BRANCH  10  11
ATOM     11  C   UNL A   1      32.221  26.789  23.837  1.00  0.00     0.098 A 
ATOM     12  N   UNL A   1      32.233  27.843  23.055  1.00  0.00    -0.241 NA
ATOM     13  S   UNL A   1      30.681  26.185  24.243  1.00  0.00    -0.118 S 
ATOM     14  C   UNL A   1      30.951  28.330  22.909  1.00  0.00     0.082 A 
ATOM     15  C   UNL A   1      29.948  27.529  23.459  1.00  0.00     0.057 A 
ATOM     16  C   UNL A   1      30.593  29.538  22.277  1.00  0.00     0.033 A 
ATOM     17  C   UNL A   1      28.591  27.866  23.357  1.00  0.00     0.060 A 
ATOM     18  C   UNL A   1      29.246  29.902  22.201  1.00  0.00     0.041 A 
ATOM     19  C   UNL A   1      28.271  29.065  22.725  1.00  0.00     0.124 A 
ATOM     20  F   UNL A   1      26.983  29.426  22.632  1.00  0.00    -0.207 F 
ENDBRANCH  10  11
ENDBRANCH   4   6
ENDBRANCH   3   4
ENDBRANCH   2   3
ENDBRANCH   1   2
BRANCH   1  21
ATOM     21  O   UNL A   1      35.191  30.040  28.369  1.00  0.00    -0.458 OA
BRANCH  21  22
ATOM     22  C   UNL A   1      36.122  30.640  29.147  1.00  0.00     0.338 C 
ATOM     23  O   UNL A   1      35.941  31.509  29.983  1.00  0.00    -0.246 OA
BRANCH  22  24
ATOM     24  C   UNL A   1      37.434  30.017  28.921  1.00  0.00     0.060 A 
ATOM     25  C   UNL A   1      38.259  29.794  30.024  1.00  0.00     0.016 A 
ATOM     26  C   UNL A   1      37.890  29.761  27.630  1.00  0.00     0.016 A 
ATOM     27  C   UNL A   1      39.558  29.332  29.847  1.00  0.00     0.010 A 
ATOM     28  C   UNL A   1      39.193  29.286  27.451  1.00  0.00     0.010 A 
ATOM     29  C   UNL A   1      40.040  29.087  28.557  1.00  0.00    -0.014 A 
BRANCH  29  30
ATOM     30  C   UNL A   1      41.451  28.680  28.357  1.00  0.00     0.031 A 
ATOM     31  C   UNL A   1      42.534  29.719  28.418  1.00  0.00     0.074 A 
ATOM     32  C   UNL A   1      41.753  27.389  28.127  1.00  0.00     0.049 A 
ATOM     33  N   UNL A   1      43.803  29.607  28.125  1.00  0.00    -0.248 NA
ATOM     34  C   UNL A   1      42.134  31.062  28.865  1.00  0.00     0.031 C 
ATOM     35  C   UNL A   1      40.790  26.288  28.106  1.00  0.00     0.029 A 
ATOM     36  N   UNL A   1      42.956  26.789  27.853  1.00  0.00    -0.354 N 
ATOM     37  C   UNL A   1      44.348  30.870  28.320  1.00  0.00     0.074 A 
ATOM     38  C   UNL A   1      43.271  31.735  28.751  1.00  0.00     0.031 C 
ATOM     39  C   UNL A   1      41.439  25.145  27.825  1.00  0.00     0.029 A 
ATOM     40  C   UNL A   1      42.849  25.445  27.592  1.00  0.00     0.049 A 
ATOM     41  H   UNL A   1      43.812  27.275  27.846  1.00  0.00     0.167 HD
ATOM     42  C   UNL A   1      45.632  31.267  28.149  1.00  0.00     0.037 A 
ATOM     43  C   UNL A   1      43.777  24.562  27.173  1.00  0.00     0.037 A 
ATOM     44  C   UNL A   1      46.697  30.390  27.738  1.00  0.00     0.049 A 
ATOM     45  C   UNL A   1      45.185  25.036  26.941  1.00  0.00     0.074 A 
ATOM     46  C   UNL A   1      48.031  30.692  27.532  1.00  0.00     0.029 A 
ATOM     47  N   UNL A   1      46.548  29.035  27.477  1.00  0.00    -0.354 N 
ATOM     48  N   UNL A   1      45.683  26.241  27.096  1.00  0.00    -0.248 NA
ATOM     49  C   UNL A   1      46.156  24.038  26.473  1.00  0.00     0.031 C 
ATOM     50  C   UNL A   1      48.683  29.526  27.115  1.00  0.00     0.029 A 
ATOM     51  C   UNL A   1      47.763  28.489  27.102  1.00  0.00     0.049 A 
ATOM     52  H   UNL A   1      45.702  28.536  27.547  1.00  0.00     0.167 HD
ATOM     53  C   UNL A   1      47.030  26.140  26.769  1.00  0.00     0.074 A 
ATOM     54  C   UNL A   1      47.270  24.756  26.410  1.00  0.00     0.031 C 
ATOM     55  C   UNL A   1      47.983  27.104  26.768  1.00  0.00     0.037 A 
BRANCH  42  56
ATOM     56  C   UNL A   1      45.946  32.720  28.370  1.00  0.00     0.058 A 
ATOM     57  C   UNL A   1      45.844  33.666  27.339  1.00  0.00     0.135 A 
ATOM     58  C   UNL A   1      46.331  33.175  29.643  1.00  0.00     0.135 A 
ATOM     59  F   UNL A   1      45.499  33.281  26.101  1.00  0.00    -0.206 F 
ATOM     60  C   UNL A   1      46.136  35.009  27.555  1.00  0.00     0.059 A 
ATOM     61  C   UNL A   1      46.606  34.517  29.886  1.00  0.00     0.059 A 
ATOM     62  F   UNL A   1      46.446  32.311  30.663  1.00  0.00    -0.206 F 
ATOM     63  C   UNL A   1      46.520  35.425  28.832  1.00  0.00     0.060 A 
BRANCH  63  64
ATOM     64  S   UNL A   1      46.901  37.170  29.097  1.00  0.00     0.124 S 
ATOM     65  O   UNL A   1      46.487  37.349  30.486  1.00  0.00    -0.237 OA
ATOM     66  O   UNL A   1      48.338  37.220  28.854  1.00  0.00    -0.237 OA
ATOM     67  O   UNL A   1      46.076  37.852  28.104  1.00  0.00    -0.744 OA
ENDBRANCH  63  64
ENDBRANCH  42  56
BRANCH  43  68
ATOM     68  C   UNL A   1      43.390  23.150  26.917  1.00  0.00     0.058 A 
ATOM     69  C   UNL A   1      43.295  22.652  25.611  1.00  0.00     0.135 A 
ATOM     70  C   UNL A   1      43.133  22.265  27.976  1.00  0.00     0.135 A 
ATOM     71  F   UNL A   1      43.523  23.461  24.566  1.00  0.00    -0.206 F 
ATOM     72  C   UNL A   1      42.950  21.327  25.361  1.00  0.00     0.059 A 
ATOM     73  C   UNL A   1      42.810  20.931  27.752  1.00  0.00     0.059 A 
ATOM     74  F   UNL A   1      43.223  22.691  29.246  1.00  0.00    -0.206 F 
ATOM     75  C   UNL A   1      42.712  20.473  26.440  1.00  0.00     0.060 A 
BRANCH  75  76
ATOM     76  S   UNL A   1      42.318  18.742  26.108  1.00  0.00     0.124 S 
ATOM     77  O   UNL A   1      42.551  18.133  27.412  1.00  0.00    -0.237 OA
ATOM     78  O   UNL A   1      40.925  18.818  25.679  1.00  0.00    -0.237 OA
ATOM     79  O   UNL A   1      43.268  18.377  25.061  1.00  0.00    -0.744 OA
ENDBRANCH  75  76
ENDBRANCH  43  68
BRANCH  55  80
ATOM     80  C   UNL A   1      49.384  26.693  26.416  1.00  0.00     0.058 A 
ATOM     81  C   UNL A   1      50.229  26.079  27.351  1.00  0.00     0.135 A 
ATOM     82  C   UNL A   1      49.856  26.849  25.103  1.00  0.00     0.135 A 
ATOM     83  F   UNL A   1      49.827  25.915  28.621  1.00  0.00    -0.206 F 
ATOM     84  C   UNL A   1      51.502  25.642  26.998  1.00  0.00     0.059 A 
ATOM     85  C   UNL A   1      51.115  26.400  24.722  1.00  0.00     0.059 A 
ATOM     86  F   UNL A   1      49.080  27.423  24.170  1.00  0.00    -0.206 F 
ATOM     87  C   UNL A   1      51.934  25.803  25.680  1.00  0.00     0.060 A 
BRANCH  87  88
ATOM     88  S   UNL A   1      53.565  25.178  25.218  1.00  0.00     0.124 S 
ATOM     89  O   UNL A   1      53.382  23.739  25.372  1.00  0.00    -0.237 OA
ATOM     90  O   UNL A   1      53.709  25.657  23.847  1.00  0.00    -0.237 OA
ATOM     91  O   UNL A   1      54.456  25.806  26.190  1.00  0.00    -0.744 OA
ENDBRANCH  87  88
ENDBRANCH  55  80
ENDBRANCH  29  30
ENDBRANCH  22  24
ENDBRANCH  21  22
ENDBRANCH   1  21
TORSDOF 15
ENDMDL
MODEL 3
REMARK VINA RESULT:     -11.7      5.446     10.943
REMARK SMILES CC1(C)[C@H](C(=O)OCCOC(=O)c2ccc(-c3c4nc(c(-c5c(F)cc(S(=O)(=O)[O-])cc5F)c5ccc([nH]5)c(-c5c(F)cc(S(=O)(=O)[O-])cc5F)c5nc(c(-c6c(F)cc(S(=O)(=O)[O-])cc6F)c6ccc3[nH]6)C=C5)C=C4)cc2)[C@@H]1c1nc2ccc(F)cc2s1
REMARK SMILES IDX 9 1 8 2 7 3 5 4 6 5 4 6 1 7 2 8 3 9 79 10 80 11 81 12 89 13
REMARK SMILES IDX 82 14 88 15 83 16 87 17 84 18 85 19 86 20 10 21 11 22 12 23
REMARK SMILES IDX 13 24 14 25 78 26 15 27 77 28 16 29 17 30 18 31 71 32 19 33
REMARK SMILES IDX 76 34 70 35 72 36 20 37 75 38 69 39 68 40 21 42 55 43 34 44
REMARK SMILES IDX 54 45 35 46 38 47 53 48 73 49 36 50 37 51 52 53 74 54 39 55
REMARK SMILES IDX 22 56 23 57 32 58 24 59 25 60 31 61 33 62 26 63 27 64 28 65
REMARK SMILES IDX 29 66 30 67 56 68 57 69 66 70 58 71 59 72 65 73 67 74 60 75
REMARK SMILES IDX 61 76 62 77 63 78 64 79 40 80 41 81 50 82 42 83 43 84 49 85
REMARK SMILES IDX 51 86 44 87 45 88 46 89 47 90 48 91
REMARK H PARENT 72 41 38 52
REMARK Flexibility Score: inf
ROOT
ATOM      1  C   UNL A   1      32.511  28.798  27.274  1.00  0.00     0.275 C 
ENDROOT
BRANCH   1   2
ATOM      2  C   UNL A   1      31.964  27.370  27.222  1.00  0.00     0.274 C 
BRANCH   2   3
ATOM      3  O   UNL A   1      32.756  26.557  26.339  1.00  0.00    -0.462 OA
BRANCH   3   4
ATOM      4  C   UNL A   1      32.095  25.582  25.670  1.00  0.00     0.310 C 
ATOM      5  O   UNL A   1      31.070  25.035  26.051  1.00  0.00    -0.252 OA
BRANCH   4   6
ATOM      6  C   UNL A   1      32.650  25.262  24.331  1.00  0.00     0.116 C 
ATOM      7  C   UNL A   1      32.937  23.683  22.339  1.00  0.00     0.013 C 
ATOM      8  C   UNL A   1      32.000  24.562  23.147  1.00  0.00    -0.011 C 
ATOM      9  C   UNL A   1      30.629  23.947  23.251  1.00  0.00     0.013 C 
ATOM     10  C   UNL A   1      32.248  26.061  23.110  1.00  0.00     0.070 C 
BRANCH  10  11
ATOM     11  C   UNL A   1      31.265  27.208  23.326  1.00  0.00     0.098 A 
ATOM     12  N   UNL A   1      29.984  26.924  23.282  1.00  0.00    -0.241 NA
ATOM     13  S   UNL A   1      31.653  28.845  23.593  1.00  0.00    -0.118 S 
ATOM     14  C   UNL A   1      29.249  28.090  23.270  1.00  0.00     0.082 A 
ATOM     15  C   UNL A   1      29.988  29.258  23.472  1.00  0.00     0.057 A 
ATOM     16  C   UNL A   1      27.858  28.187  23.065  1.00  0.00     0.033 A 
ATOM     17  C   UNL A   1      29.379  30.520  23.529  1.00  0.00     0.060 A 
ATOM     18  C   UNL A   1      27.245  29.444  23.082  1.00  0.00     0.041 A 
ATOM     19  C   UNL A   1      28.003  30.581  23.324  1.00  0.00     0.124 A 
ATOM     20  F   UNL A   1      27.396  31.775  23.349  1.00  0.00    -0.207 F 
ENDBRANCH  10  11
ENDBRANCH   4   6
ENDBRANCH   3   4
ENDBRANCH   2   3
ENDBRANCH   1   2
BRANCH   1  21
ATOM     21  O   UNL A   1      33.922  28.822  27.558  1.00  0.00    -0.458 OA
BRANCH  21  22
ATOM     22  C   UNL A   1      34.418  30.033  27.902  1.00  0.00     0.338 C 
ATOM     23  O   UNL A   1      33.806  31.083  28.003  1.00  0.00    -0.246 OA
BRANCH  22  24
ATOM     24  C   UNL A   1      35.839  29.907  28.252  1.00  0.00     0.060 A 
ATOM     25  C   UNL A   1      36.787  30.080  27.242  1.00  0.00     0.016 A 
ATOM     26  C   UNL A   1      36.228  29.511  29.530  1.00  0.00     0.016 A 
ATOM     27  C   UNL A   1      38.133  29.839  27.494  1.00  0.00     0.010 A 
ATOM     28  C   UNL A   1      37.583  29.278  29.787  1.00  0.00     0.010 A 
ATOM     29  C   UNL A   1      38.539  29.423  28.766  1.00  0.00    -0.014 A 
BRANCH  29  30
ATOM     30  C   UNL A   1      39.959  29.079  29.016  1.00  0.00     0.031 A 
ATOM     31  C   UNL A   1      40.888  30.128  29.559  1.00  0.00     0.074 A 
ATOM     32  C   UNL A   1      40.406  27.836  28.760  1.00  0.00     0.049 A 
ATOM     33  N   UNL A   1      42.185  30.086  29.706  1.00  0.00    -0.248 NA
ATOM     34  C   UNL A   1      40.273  31.393  29.989  1.00  0.00     0.031 C 
ATOM     35  C   UNL A   1      39.581  26.723  28.289  1.00  0.00     0.029 A 
ATOM     36  N   UNL A   1      41.668  27.306  28.848  1.00  0.00    -0.354 N 
ATOM     37  C   UNL A   1      42.549  31.326  30.215  1.00  0.00     0.074 A 
ATOM     38  C   UNL A   1      41.334  32.102  30.346  1.00  0.00     0.031 C 
ATOM     39  C   UNL A   1      40.361  25.642  28.120  1.00  0.00     0.029 A 
ATOM     40  C   UNL A   1      41.745  26.003  28.418  1.00  0.00     0.049 A 
ATOM     41  H   UNL A   1      42.443  27.809  29.188  1.00  0.00     0.167 HD
ATOM     42  C   UNL A   1      43.786  31.773  30.538  1.00  0.00     0.037 A 
ATOM     43  C   UNL A   1      42.815  25.204  28.244  1.00  0.00     0.037 A 
ATOM     44  C   UNL A   1      44.983  30.982  30.420  1.00  0.00     0.049 A 
ATOM     45  C   UNL A   1      44.185  25.738  28.562  1.00  0.00     0.074 A 
ATOM     46  C   UNL A   1      46.286  31.340  30.716  1.00  0.00     0.029 A 
ATOM     47  N   UNL A   1      45.021  29.668  29.974  1.00  0.00    -0.354 N 
ATOM     48  N   UNL A   1      44.521  26.925  29.011  1.00  0.00    -0.248 NA
ATOM     49  C   UNL A   1      45.321  24.832  28.344  1.00  0.00     0.031 C 
ATOM     50  C   UNL A   1      47.116  30.253  30.420  1.00  0.00     0.029 A 
ATOM     51  C   UNL A   1      46.325  29.204  29.978  1.00  0.00     0.049 A 
ATOM     52  H   UNL A   1      44.236  29.144  29.695  1.00  0.00     0.167 HD
ATOM     53  C   UNL A   1      45.904  26.900  29.154  1.00  0.00     0.074 A 
ATOM     54  C   UNL A   1      46.341  25.579  28.746  1.00  0.00     0.031 C 
ATOM     55  C   UNL A   1      46.735  27.879  29.586  1.00  0.00     0.037 A 
BRANCH  42  56
ATOM     56  C   UNL A   1      43.910  33.193  31.014  1.00  0.00     0.058 A 
ATOM     57  C   UNL A   1      43.942  33.517  32.379  1.00  0.00     0.135 A 
ATOM     58  C   UNL A   1      44.025  34.243  30.088  1.00  0.00     0.135 A 
ATOM     59  F   UNL A   1      43.818  32.554  33.306  1.00  0.00    -0.206 F 
ATOM     60  C   UNL A   1      44.059  34.835  32.810  1.00  0.00     0.059 A 
ATOM     61  C   UNL A   1      44.165  35.566  30.496  1.00  0.00     0.059 A 
ATOM     62  F   UNL A   1      43.998  33.987  28.770  1.00  0.00    -0.206 F 
ATOM     63  C   UNL A   1      44.166  35.854  31.860  1.00  0.00     0.060 A 
BRANCH  63  64
ATOM     64  S   UNL A   1      44.312  37.560  32.432  1.00  0.00     0.124 S 
ATOM     65  O   UNL A   1      45.679  37.579  32.943  1.00  0.00    -0.237 OA
ATOM     66  O   UNL A   1      44.082  38.323  31.209  1.00  0.00    -0.237 OA
ATOM     67  O   UNL A   1      43.263  37.671  33.442  1.00  0.00    -0.744 OA
ENDBRANCH  63  64
ENDBRANCH  42  56
BRANCH  43  68
ATOM     68  C   UNL A   1      42.632  23.827  27.716  1.00  0.00     0.058 A 
ATOM     69  C   UNL A   1      42.533  22.728  28.581  1.00  0.00     0.135 A 
ATOM     70  C   UNL A   1      42.528  23.587  26.337  1.00  0.00     0.135 A 
ATOM     71  F   UNL A   1      42.636  22.906  29.906  1.00  0.00    -0.206 F 
ATOM     72  C   UNL A   1      42.345  21.437  28.097  1.00  0.00     0.059 A 
ATOM     73  C   UNL A   1      42.316  22.309  25.831  1.00  0.00     0.059 A 
ATOM     74  F   UNL A   1      42.605  24.608  25.469  1.00  0.00    -0.206 F 
ATOM     75  C   UNL A   1      42.235  21.238  26.720  1.00  0.00     0.060 A 
BRANCH  75  76
ATOM     76  S   UNL A   1      41.937  19.567  26.104  1.00  0.00     0.124 S 
ATOM     77  O   UNL A   1      40.510  19.612  25.810  1.00  0.00    -0.237 OA
ATOM     78  O   UNL A   1      42.825  19.500  24.947  1.00  0.00    -0.237 OA
ATOM     79  O   UNL A   1      42.324  18.722  27.230  1.00  0.00    -0.744 OA
ENDBRANCH  75  76
ENDBRANCH  43  68
BRANCH  55  80
ATOM     80  C   UNL A   1      48.197  27.551  29.690  1.00  0.00     0.058 A 
ATOM     81  C   UNL A   1      49.091  27.832  28.647  1.00  0.00     0.135 A 
ATOM     82  C   UNL A   1      48.718  27.018  30.880  1.00  0.00     0.135 A 
ATOM     83  F   UNL A   1      48.641  28.334  27.487  1.00  0.00    -0.206 F 
ATOM     84  C   UNL A   1      50.455  27.586  28.777  1.00  0.00     0.059 A 
ATOM     85  C   UNL A   1      50.079  26.784  31.040  1.00  0.00     0.059 A 
ATOM     86  F   UNL A   1      47.902  26.740  31.909  1.00  0.00    -0.206 F 
ATOM     87  C   UNL A   1      50.939  27.066  29.979  1.00  0.00     0.060 A 
BRANCH  87  88
ATOM     88  S   UNL A   1      52.718  26.805  30.158  1.00  0.00     0.124 S 
ATOM     89  O   UNL A   1      53.180  28.152  30.477  1.00  0.00    -0.237 OA
ATOM     90  O   UNL A   1      52.786  25.836  31.247  1.00  0.00    -0.237 OA
ATOM     91  O   UNL A   1      53.119  26.297  28.850  1.00  0.00    -0.744 OA
ENDBRANCH  87  88
ENDBRANCH  55  80
ENDBRANCH  29  30
ENDBRANCH  22  24
ENDBRANCH  21  22
ENDBRANCH   1  21
TORSDOF 15
ENDMDL
