MODEL 1
REMARK VINA RESULT:     -12.9      0.000      0.000
REMARK SMILES CN1C(=O)C[C@@H](C(=O)OCCOC(=O)c2ccc(-c3c4nc(c(-c5c(F)cc(S(=O)(=O)[O-])cc5F)c5ccc([nH]5)c(-c5c(F)cc(S(=O)(=O)[O-])cc5F)c5nc(c(-c6c(F)cc(S(=O)(=O)[O-])cc6F)c6ccc3[nH]6)C=C5)C=C4)cc2)C12CCN(C(=O)c1ccccc1-n1cccn1)CC2
REMARK SMILES IDX 11 1 10 2 9 3 7 4 8 5 6 6 1 7 2 8 3 9 81 10 4 11 5 12 82 13
REMARK SMILES IDX 99 14 83 15 98 16 84 17 85 18 86 19 87 20 88 21 92 22 89 23
REMARK SMILES IDX 91 24 90 25 93 26 94 27 97 28 95 29 96 30 12 31 13 32 14 33
REMARK SMILES IDX 15 34 16 35 80 36 17 37 79 38 18 39 19 40 20 41 73 42 21 43
REMARK SMILES IDX 78 44 72 45 74 46 22 47 77 48 71 49 70 50 23 52 57 53 36 54
REMARK SMILES IDX 56 55 37 56 40 57 55 58 75 59 38 60 39 61 54 63 76 64 41 65
REMARK SMILES IDX 24 66 25 67 34 68 26 69 27 70 33 71 35 72 28 73 29 74 30 75
REMARK SMILES IDX 31 76 32 77 58 78 59 79 68 80 60 81 61 82 67 83 69 84 62 85
REMARK SMILES IDX 63 86 64 87 65 88 66 89 42 90 43 91 52 92 44 93 45 94 51 95
REMARK SMILES IDX 53 96 46 97 47 98 48 99 49 100 50 101
REMARK H PARENT 74 51 40 62
REMARK Flexibility Score: inf
ROOT
ATOM      1  C   UNL A   1      34.377  30.279  27.750  1.00  0.00     0.275 C 
ENDROOT
BRANCH   1   2
ATOM      2  C   UNL A   1      34.686  29.033  26.917  1.00  0.00     0.274 C 
BRANCH   2   3
ATOM      3  O   UNL A   1      33.671  28.023  27.103  1.00  0.00    -0.462 OA
BRANCH   3   4
ATOM      4  C   UNL A   1      32.498  28.259  26.477  1.00  0.00     0.311 C 
ATOM      5  O   UNL A   1      31.455  28.536  27.064  1.00  0.00    -0.252 OA
BRANCH   4   6
ATOM      6  C   UNL A   1      32.523  28.144  24.963  1.00  0.00     0.134 C 
ATOM      7  C   UNL A   1      29.282  27.075  23.419  1.00  0.00     0.147 C 
ATOM      8  N   UNL A   1      30.470  27.741  23.915  1.00  0.00    -0.339 N 
ATOM      9  C   UNL A   1      30.547  29.117  24.051  1.00  0.00     0.223 C 
ATOM     10  C   UNL A   1      31.749  27.058  24.169  1.00  0.00     0.060 C 
ATOM     11  O   UNL A   1      29.650  29.921  23.853  1.00  0.00    -0.275 OA
ATOM     12  C   UNL A   1      31.953  29.473  24.440  1.00  0.00     0.118 C 
ATOM     13  C   UNL A   1      31.554  25.683  24.843  1.00  0.00     0.051 C 
ATOM     14  C   UNL A   1      32.461  26.809  22.794  1.00  0.00     0.051 C 
ATOM     15  C   UNL A   1      32.853  24.900  24.955  1.00  0.00     0.122 C 
ATOM     16  C   UNL A   1      33.693  25.902  22.876  1.00  0.00     0.122 C 
ATOM     17  N   UNL A   1      33.419  24.684  23.629  1.00  0.00    -0.338 N 
ATOM     18  C   UNL A   1      33.824  23.455  23.096  1.00  0.00     0.256 C 
ATOM     19  O   UNL A   1      34.369  23.343  22.003  1.00  0.00    -0.269 OA
BRANCH  18  20
ATOM     20  C   UNL A   1      33.621  22.210  23.874  1.00  0.00     0.065 A 
ATOM     21  C   UNL A   1      32.409  21.537  23.638  1.00  0.00     0.016 A 
ATOM     22  C   UNL A   1      34.569  21.649  24.744  1.00  0.00     0.077 A 
ATOM     23  C   UNL A   1      32.172  20.287  24.209  1.00  0.00     0.001 A 
ATOM     24  C   UNL A   1      34.345  20.360  25.261  1.00  0.00     0.029 A 
ATOM     25  C   UNL A   1      33.149  19.688  25.000  1.00  0.00     0.002 A 
BRANCH  22  26
ATOM     26  N   UNL A   1      35.744  22.334  25.142  1.00  0.00    -0.240 N 
ATOM     27  C   UNL A   1      35.893  23.300  26.115  1.00  0.00     0.115 A 
ATOM     28  N   UNL A   1      36.939  22.052  24.552  1.00  0.00    -0.177 NA
ATOM     29  C   UNL A   1      37.207  23.703  26.092  1.00  0.00     0.042 A 
ATOM     30  C   UNL A   1      37.799  22.912  25.099  1.00  0.00     0.135 A 
ENDBRANCH  22  26
ENDBRANCH  18  20
ENDBRANCH   4   6
ENDBRANCH   3   4
ENDBRANCH   2   3
ENDBRANCH   1   2
BRANCH   1  31
ATOM     31  O   UNL A   1      35.556  31.096  27.872  1.00  0.00    -0.458 OA
BRANCH  31  32
ATOM     32  C   UNL A   1      36.198  31.028  29.062  1.00  0.00     0.338 C 
ATOM     33  O   UNL A   1      35.711  31.240  30.160  1.00  0.00    -0.246 OA
BRANCH  32  34
ATOM     34  C   UNL A   1      37.600  30.586  28.882  1.00  0.00     0.060 A 
ATOM     35  C   UNL A   1      38.044  30.023  27.681  1.00  0.00     0.016 A 
ATOM     36  C   UNL A   1      38.458  30.625  29.983  1.00  0.00     0.016 A 
ATOM     37  C   UNL A   1      39.314  29.451  27.597  1.00  0.00     0.010 A 
ATOM     38  C   UNL A   1      39.764  30.141  29.866  1.00  0.00     0.010 A 
ATOM     39  C   UNL A   1      40.204  29.539  28.675  1.00  0.00    -0.014 A 
BRANCH  39  40
ATOM     40  C   UNL A   1      41.611  29.067  28.559  1.00  0.00     0.031 A 
ATOM     41  C   UNL A   1      42.758  30.037  28.657  1.00  0.00     0.074 A 
ATOM     42  C   UNL A   1      41.856  27.768  28.288  1.00  0.00     0.049 A 
ATOM     43  N   UNL A   1      44.016  29.863  28.339  1.00  0.00    -0.248 NA
ATOM     44  C   UNL A   1      42.446  31.384  29.159  1.00  0.00     0.031 C 
ATOM     45  C   UNL A   1      40.842  26.716  28.190  1.00  0.00     0.029 A 
ATOM     46  N   UNL A   1      43.034  27.116  28.025  1.00  0.00    -0.354 N 
ATOM     47  C   UNL A   1      44.636  31.090  28.550  1.00  0.00     0.074 A 
ATOM     48  C   UNL A   1      43.614  31.999  29.028  1.00  0.00     0.031 C 
ATOM     49  C   UNL A   1      41.442  25.549  27.906  1.00  0.00     0.029 A 
ATOM     50  C   UNL A   1      42.867  25.786  27.716  1.00  0.00     0.049 A 
ATOM     51  H   UNL A   1      43.915  27.557  28.054  1.00  0.00     0.167 HD
ATOM     52  C   UNL A   1      45.935  31.423  28.356  1.00  0.00     0.037 A 
ATOM     53  C   UNL A   1      43.747  24.865  27.279  1.00  0.00     0.037 A 
ATOM     54  C   UNL A   1      46.956  30.496  27.932  1.00  0.00     0.049 A 
ATOM     55  C   UNL A   1      45.175  25.265  27.046  1.00  0.00     0.074 A 
ATOM     56  C   UNL A   1      48.310  30.729  27.756  1.00  0.00     0.029 A 
ATOM     57  N   UNL A   1      46.739  29.160  27.625  1.00  0.00    -0.354 N 
ATOM     58  N   UNL A   1      45.739  26.434  27.221  1.00  0.00    -0.248 NA
ATOM     59  C   UNL A   1      46.078  24.224  26.539  1.00  0.00     0.031 C 
ATOM     60  C   UNL A   1      48.905  29.543  27.307  1.00  0.00     0.029 A 
ATOM     61  C   UNL A   1      47.930  28.561  27.243  1.00  0.00     0.049 A 
ATOM     62  H   UNL A   1      45.868  28.705  27.673  1.00  0.00     0.167 HD
ATOM     63  C   UNL A   1      47.072  26.267  26.861  1.00  0.00     0.074 A 
ATOM     64  C   UNL A   1      47.229  24.881  26.469  1.00  0.00     0.031 C 
ATOM     65  C   UNL A   1      48.073  27.180  26.858  1.00  0.00     0.037 A 
BRANCH  52  66
ATOM     66  C   UNL A   1      46.333  32.858  28.566  1.00  0.00     0.058 A 
ATOM     67  C   UNL A   1      46.699  33.356  29.826  1.00  0.00     0.135 A 
ATOM     68  C   UNL A   1      46.400  33.737  27.472  1.00  0.00     0.135 A 
ATOM     69  F   UNL A   1      46.644  32.562  30.907  1.00  0.00    -0.206 F 
ATOM     70  C   UNL A   1      47.092  34.679  29.999  1.00  0.00     0.059 A 
ATOM     71  C   UNL A   1      46.814  35.058  27.617  1.00  0.00     0.059 A 
ATOM     72  F   UNL A   1      46.064  33.313  26.243  1.00  0.00    -0.206 F 
ATOM     73  C   UNL A   1      47.145  35.524  28.888  1.00  0.00     0.060 A 
BRANCH  73  74
ATOM     74  S   UNL A   1      47.664  37.238  29.121  1.00  0.00     0.124 S 
ATOM     75  O   UNL A   1      46.607  37.745  29.992  1.00  0.00    -0.237 OA
ATOM     76  O   UNL A   1      48.978  37.090  29.738  1.00  0.00    -0.237 OA
ATOM     77  O   UNL A   1      47.670  37.778  27.765  1.00  0.00    -0.744 OA
ENDBRANCH  73  74
ENDBRANCH  52  66
BRANCH  53  78
ATOM     78  C   UNL A   1      43.285  23.479  27.009  1.00  0.00     0.058 A 
ATOM     79  C   UNL A   1      43.036  23.053  25.697  1.00  0.00     0.135 A 
ATOM     80  C   UNL A   1      43.125  22.547  28.046  1.00  0.00     0.135 A 
ATOM     81  F   UNL A   1      43.169  23.912  24.676  1.00  0.00    -0.206 F 
ATOM     82  C   UNL A   1      42.640  21.749  25.420  1.00  0.00     0.059 A 
ATOM     83  C   UNL A   1      42.754  21.230  27.792  1.00  0.00     0.059 A 
ATOM     84  F   UNL A   1      43.367  22.904  29.316  1.00  0.00    -0.206 F 
ATOM     85  C   UNL A   1      42.506  20.843  26.475  1.00  0.00     0.060 A 
BRANCH  85  86
ATOM     86  S   UNL A   1      42.060  19.134  26.100  1.00  0.00     0.124 S 
ATOM     87  O   UNL A   1      42.868  18.874  24.916  1.00  0.00    -0.237 OA
ATOM     88  O   UNL A   1      42.464  18.435  27.317  1.00  0.00    -0.237 OA
ATOM     89  O   UNL A   1      40.619  19.207  25.880  1.00  0.00    -0.744 OA
ENDBRANCH  85  86
ENDBRANCH  53  78
BRANCH  65  90
ATOM     90  C   UNL A   1      49.436  26.699  26.450  1.00  0.00     0.058 A 
ATOM     91  C   UNL A   1      50.259  25.982  27.334  1.00  0.00     0.135 A 
ATOM     92  C   UNL A   1      49.913  26.932  25.151  1.00  0.00     0.135 A 
ATOM     93  F   UNL A   1      49.854  25.743  28.590  1.00  0.00    -0.206 F 
ATOM     94  C   UNL A   1      51.519  25.533  26.949  1.00  0.00     0.059 A 
ATOM     95  C   UNL A   1      51.159  26.473  24.737  1.00  0.00     0.059 A 
ATOM     96  F   UNL A   1      49.161  27.608  24.267  1.00  0.00    -0.206 F 
ATOM     97  C   UNL A   1      51.961  25.785  25.648  1.00  0.00     0.060 A 
BRANCH  97  98
ATOM     98  S   UNL A   1      53.586  25.176  25.150  1.00  0.00     0.124 S 
ATOM     99  O   UNL A   1      53.614  25.541  23.737  1.00  0.00    -0.237 OA
ATOM    100  O   UNL A   1      54.485  25.931  26.018  1.00  0.00    -0.237 OA
ATOM    101  O   UNL A   1      53.511  23.745  25.428  1.00  0.00    -0.744 OA
ENDBRANCH  97  98
ENDBRANCH  65  90
ENDBRANCH  39  40
ENDBRANCH  32  34
ENDBRANCH  31  32
ENDBRANCH   1  31
TORSDOF 16
ENDMDL
MODEL 2
REMARK VINA RESULT:     -12.9      6.356     11.795
REMARK SMILES CN1C(=O)C[C@@H](C(=O)OCCOC(=O)c2ccc(-c3c4nc(c(-c5c(F)cc(S(=O)(=O)[O-])cc5F)c5ccc([nH]5)c(-c5c(F)cc(S(=O)(=O)[O-])cc5F)c5nc(c(-c6c(F)cc(S(=O)(=O)[O-])cc6F)c6ccc3[nH]6)C=C5)C=C4)cc2)C12CCN(C(=O)c1ccccc1-n1cccn1)CC2
REMARK SMILES IDX 11 1 10 2 9 3 7 4 8 5 6 6 1 7 2 8 3 9 81 10 4 11 5 12 82 13
REMARK SMILES IDX 99 14 83 15 98 16 84 17 85 18 86 19 87 20 88 21 92 22 89 23
REMARK SMILES IDX 91 24 90 25 93 26 94 27 97 28 95 29 96 30 12 31 13 32 14 33
REMARK SMILES IDX 15 34 16 35 80 36 17 37 79 38 18 39 19 40 20 41 73 42 21 43
REMARK SMILES IDX 78 44 72 45 74 46 22 47 77 48 71 49 70 50 23 52 57 53 36 54
REMARK SMILES IDX 56 55 37 56 40 57 55 58 75 59 38 60 39 61 54 63 76 64 41 65
REMARK SMILES IDX 24 66 25 67 34 68 26 69 27 70 33 71 35 72 28 73 29 74 30 75
REMARK SMILES IDX 31 76 32 77 58 78 59 79 68 80 60 81 61 82 67 83 69 84 62 85
REMARK SMILES IDX 63 86 64 87 65 88 66 89 42 90 43 91 52 92 44 93 45 94 51 95
REMARK SMILES IDX 53 96 46 97 47 98 48 99 49 100 50 101
REMARK H PARENT 74 51 40 62
REMARK Flexibility Score: inf
ROOT
ATOM      1  C   UNL A   1      39.298  22.249  26.320  1.00  0.00     0.275 C 
ENDROOT
BRANCH   1   2
ATOM      2  C   UNL A   1      38.103  22.082  25.380  1.00  0.00     0.274 C 
BRANCH   2   3
ATOM      3  O   UNL A   1      37.022  22.962  25.757  1.00  0.00    -0.462 OA
BRANCH   3   4
ATOM      4  C   UNL A   1      35.938  22.923  24.954  1.00  0.00     0.311 C 
ATOM      5  O   UNL A   1      35.950  23.258  23.773  1.00  0.00    -0.252 OA
BRANCH   4   6
ATOM      6  C   UNL A   1      34.650  22.449  25.607  1.00  0.00     0.134 C 
ATOM      7  C   UNL A   1      32.203  20.849  23.264  1.00  0.00     0.147 C 
ATOM      8  N   UNL A   1      33.196  21.206  24.259  1.00  0.00    -0.339 N 
ATOM      9  C   UNL A   1      34.084  20.284  24.785  1.00  0.00     0.223 C 
ATOM     10  C   UNL A   1      33.260  22.519  24.920  1.00  0.00     0.060 C 
ATOM     11  O   UNL A   1      34.204  19.115  24.453  1.00  0.00    -0.275 OA
ATOM     12  C   UNL A   1      34.859  20.951  25.886  1.00  0.00     0.118 C 
ATOM     13  C   UNL A   1      33.007  23.682  23.937  1.00  0.00     0.051 C 
ATOM     14  C   UNL A   1      32.139  22.579  26.015  1.00  0.00     0.051 C 
ATOM     15  C   UNL A   1      32.904  25.027  24.640  1.00  0.00     0.122 C 
ATOM     16  C   UNL A   1      31.931  23.967  26.631  1.00  0.00     0.122 C 
ATOM     17  N   UNL A   1      31.814  25.001  25.608  1.00  0.00    -0.338 N 
ATOM     18  C   UNL A   1      30.775  25.932  25.705  1.00  0.00     0.256 C 
ATOM     19  O   UNL A   1      29.927  25.905  26.591  1.00  0.00    -0.269 OA
BRANCH  18  20
ATOM     20  C   UNL A   1      30.676  27.034  24.719  1.00  0.00     0.065 A 
ATOM     21  C   UNL A   1      29.782  26.819  23.656  1.00  0.00     0.016 A 
ATOM     22  C   UNL A   1      31.346  28.263  24.825  1.00  0.00     0.077 A 
ATOM     23  C   UNL A   1      29.506  27.840  22.747  1.00  0.00     0.001 A 
ATOM     24  C   UNL A   1      31.011  29.305  23.941  1.00  0.00     0.029 A 
ATOM     25  C   UNL A   1      30.101  29.089  22.904  1.00  0.00     0.002 A 
BRANCH  22  26
ATOM     26  N   UNL A   1      32.366  28.499  25.780  1.00  0.00    -0.240 N 
ATOM     27  C   UNL A   1      33.731  28.367  25.637  1.00  0.00     0.115 A 
ATOM     28  N   UNL A   1      32.050  28.938  27.031  1.00  0.00    -0.177 NA
ATOM     29  C   UNL A   1      34.299  28.654  26.856  1.00  0.00     0.042 A 
ATOM     30  C   UNL A   1      33.214  28.983  27.679  1.00  0.00     0.135 A 
ENDBRANCH  22  26
ENDBRANCH  18  20
ENDBRANCH   4   6
ENDBRANCH   3   4
ENDBRANCH   2   3
ENDBRANCH   1   2
BRANCH   1  31
ATOM     31  O   UNL A   1      39.310  23.578  26.873  1.00  0.00    -0.458 OA
BRANCH  31  32
ATOM     32  C   UNL A   1      40.520  24.184  26.923  1.00  0.00     0.338 C 
ATOM     33  O   UNL A   1      41.481  23.939  26.213  1.00  0.00    -0.246 OA
BRANCH  32  34
ATOM     34  C   UNL A   1      40.529  25.266  27.934  1.00  0.00     0.060 A 
ATOM     35  C   UNL A   1      39.410  25.537  28.728  1.00  0.00     0.016 A 
ATOM     36  C   UNL A   1      41.642  26.104  28.004  1.00  0.00     0.016 A 
ATOM     37  C   UNL A   1      39.380  26.671  29.541  1.00  0.00     0.010 A 
ATOM     38  C   UNL A   1      41.648  27.182  28.893  1.00  0.00     0.010 A 
ATOM     39  C   UNL A   1      40.514  27.485  29.664  1.00  0.00    -0.014 A 
BRANCH  39  40
ATOM     40  C   UNL A   1      40.556  28.613  30.635  1.00  0.00     0.031 A 
ATOM     41  C   UNL A   1      41.513  28.593  31.797  1.00  0.00     0.074 A 
ATOM     42  C   UNL A   1      39.675  29.627  30.513  1.00  0.00     0.049 A 
ATOM     43  N   UNL A   1      41.528  29.346  32.867  1.00  0.00    -0.248 NA
ATOM     44  C   UNL A   1      42.580  27.582  31.758  1.00  0.00     0.031 C 
ATOM     45  C   UNL A   1      38.708  29.786  29.424  1.00  0.00     0.029 A 
ATOM     46  N   UNL A   1      39.436  30.707  31.325  1.00  0.00    -0.354 N 
ATOM     47  C   UNL A   1      42.569  28.867  33.656  1.00  0.00     0.074 A 
ATOM     48  C   UNL A   1      43.164  27.760  32.936  1.00  0.00     0.031 C 
ATOM     49  C   UNL A   1      37.994  30.904  29.626  1.00  0.00     0.029 A 
ATOM     50  C   UNL A   1      38.390  31.493  30.899  1.00  0.00     0.049 A 
ATOM     51  H   UNL A   1      39.961  30.902  32.136  1.00  0.00     0.167 HD
ATOM     52  C   UNL A   1      42.980  29.310  34.869  1.00  0.00     0.037 A 
ATOM     53  C   UNL A   1      37.778  32.540  31.484  1.00  0.00     0.037 A 
ATOM     54  C   UNL A   1      42.415  30.448  35.552  1.00  0.00     0.049 A 
ATOM     55  C   UNL A   1      38.234  32.995  32.839  1.00  0.00     0.074 A 
ATOM     56  C   UNL A   1      42.799  31.003  36.762  1.00  0.00     0.029 A 
ATOM     57  N   UNL A   1      41.354  31.209  35.084  1.00  0.00    -0.354 N 
ATOM     58  N   UNL A   1      39.198  32.514  33.585  1.00  0.00    -0.248 NA
ATOM     59  C   UNL A   1      37.507  34.121  33.438  1.00  0.00     0.031 C 
ATOM     60  C   UNL A   1      41.946  32.077  37.043  1.00  0.00     0.029 A 
ATOM     61  C   UNL A   1      41.057  32.217  35.990  1.00  0.00     0.049 A 
ATOM     62  H   UNL A   1      40.881  31.056  34.235  1.00  0.00     0.167 HD
ATOM     63  C   UNL A   1      39.206  33.292  34.738  1.00  0.00     0.074 A 
ATOM     64  C   UNL A   1      38.157  34.279  34.584  1.00  0.00     0.031 C 
ATOM     65  C   UNL A   1      40.012  33.195  35.824  1.00  0.00     0.037 A 
BRANCH  52  66
ATOM     66  C   UNL A   1      44.076  28.548  35.562  1.00  0.00     0.058 A 
ATOM     67  C   UNL A   1      45.433  28.848  35.370  1.00  0.00     0.135 A 
ATOM     68  C   UNL A   1      43.755  27.530  36.477  1.00  0.00     0.135 A 
ATOM     69  F   UNL A   1      45.796  29.804  34.500  1.00  0.00    -0.206 F 
ATOM     70  C   UNL A   1      46.434  28.152  36.040  1.00  0.00     0.059 A 
ATOM     71  C   UNL A   1      44.739  26.838  37.177  1.00  0.00     0.059 A 
ATOM     72  F   UNL A   1      42.472  27.204  36.702  1.00  0.00    -0.206 F 
ATOM     73  C   UNL A   1      46.077  27.147  36.942  1.00  0.00     0.060 A 
BRANCH  73  74
ATOM     74  S   UNL A   1      47.382  26.253  37.813  1.00  0.00     0.124 S 
ATOM     75  O   UNL A   1      48.397  26.131  36.769  1.00  0.00    -0.237 OA
ATOM     76  O   UNL A   1      47.708  27.159  38.910  1.00  0.00    -0.237 OA
ATOM     77  O   UNL A   1      46.736  25.005  38.207  1.00  0.00    -0.744 OA
ENDBRANCH  73  74
ENDBRANCH  52  66
BRANCH  53  78
ATOM     78  C   UNL A   1      36.646  33.209  30.792  1.00  0.00     0.058 A 
ATOM     79  C   UNL A   1      35.328  33.013  31.227  1.00  0.00     0.135 A 
ATOM     80  C   UNL A   1      36.861  34.083  29.716  1.00  0.00     0.135 A 
ATOM     81  F   UNL A   1      35.075  32.180  32.248  1.00  0.00    -0.206 F 
ATOM     82  C   UNL A   1      34.259  33.660  30.617  1.00  0.00     0.059 A 
ATOM     83  C   UNL A   1      35.811  34.761  29.105  1.00  0.00     0.059 A 
ATOM     84  F   UNL A   1      38.107  34.315  29.274  1.00  0.00    -0.206 F 
ATOM     85  C   UNL A   1      34.511  34.537  29.559  1.00  0.00     0.060 A 
BRANCH  85  86
ATOM     86  S   UNL A   1      33.125  35.425  28.819  1.00  0.00     0.124 S 
ATOM     87  O   UNL A   1      32.488  34.373  28.036  1.00  0.00    -0.237 OA
ATOM     88  O   UNL A   1      32.389  35.882  29.994  1.00  0.00    -0.237 OA
ATOM     89  O   UNL A   1      33.778  36.480  28.049  1.00  0.00    -0.744 OA
ENDBRANCH  85  86
ENDBRANCH  53  78
BRANCH  65  90
ATOM     90  C   UNL A   1      39.812  34.207  36.916  1.00  0.00     0.058 A 
ATOM     91  C   UNL A   1      39.040  33.919  38.053  1.00  0.00     0.135 A 
ATOM     92  C   UNL A   1      40.423  35.468  36.837  1.00  0.00     0.135 A 
ATOM     93  F   UNL A   1      38.426  32.732  38.171  1.00  0.00    -0.206 F 
ATOM     94  C   UNL A   1      38.863  34.858  39.065  1.00  0.00     0.059 A 
ATOM     95  C   UNL A   1      40.278  36.413  37.847  1.00  0.00     0.059 A 
ATOM     96  F   UNL A   1      41.175  35.788  35.772  1.00  0.00    -0.206 F 
ATOM     97  C   UNL A   1      39.485  36.103  38.952  1.00  0.00     0.060 A 
BRANCH  97  98
ATOM     98  S   UNL A   1      39.270  37.305  40.282  1.00  0.00     0.124 S 
ATOM     99  O   UNL A   1      38.492  38.344  39.615  1.00  0.00    -0.237 OA
ATOM    100  O   UNL A   1      38.559  36.530  41.295  1.00  0.00    -0.237 OA
ATOM    101  O   UNL A   1      40.640  37.672  40.630  1.00  0.00    -0.744 OA
ENDBRANCH  97  98
ENDBRANCH  65  90
ENDBRANCH  39  40
ENDBRANCH  32  34
ENDBRANCH  31  32
ENDBRANCH   1  31
TORSDOF 16
ENDMDL
MODEL 3
REMARK VINA RESULT:     -12.6      6.554     11.871
REMARK SMILES CN1C(=O)C[C@@H](C(=O)OCCOC(=O)c2ccc(-c3c4nc(c(-c5c(F)cc(S(=O)(=O)[O-])cc5F)c5ccc([nH]5)c(-c5c(F)cc(S(=O)(=O)[O-])cc5F)c5nc(c(-c6c(F)cc(S(=O)(=O)[O-])cc6F)c6ccc3[nH]6)C=C5)C=C4)cc2)C12CCN(C(=O)c1ccccc1-n1cccn1)CC2
REMARK SMILES IDX 11 1 10 2 9 3 7 4 8 5 6 6 1 7 2 8 3 9 81 10 4 11 5 12 82 13
REMARK SMILES IDX 99 14 83 15 98 16 84 17 85 18 86 19 87 20 88 21 92 22 89 23
REMARK SMILES IDX 91 24 90 25 93 26 94 27 97 28 95 29 96 30 12 31 13 32 14 33
REMARK SMILES IDX 15 34 16 35 80 36 17 37 79 38 18 39 19 40 20 41 73 42 21 43
REMARK SMILES IDX 78 44 72 45 74 46 22 47 77 48 71 49 70 50 23 52 57 53 36 54
REMARK SMILES IDX 56 55 37 56 40 57 55 58 75 59 38 60 39 61 54 63 76 64 41 65
REMARK SMILES IDX 24 66 25 67 34 68 26 69 27 70 33 71 35 72 28 73 29 74 30 75
REMARK SMILES IDX 31 76 32 77 58 78 59 79 68 80 60 81 61 82 67 83 69 84 62 85
REMARK SMILES IDX 63 86 64 87 65 88 66 89 42 90 43 91 52 92 44 93 45 94 51 95
REMARK SMILES IDX 53 96 46 97 47 98 48 99 49 100 50 101
REMARK H PARENT 74 51 40 62
REMARK Flexibility Score: inf
ROOT
ATOM      1  C   UNL A   1      37.917  23.629  25.879  1.00  0.00     0.275 C 
ENDROOT
BRANCH   1   2
ATOM      2  C   UNL A   1      37.424  22.195  25.677  1.00  0.00     0.274 C 
BRANCH   2   3
ATOM      3  O   UNL A   1      36.059  22.050  26.126  1.00  0.00    -0.462 OA
BRANCH   3   4
ATOM      4  C   UNL A   1      35.374  21.028  25.572  1.00  0.00     0.311 C 
ATOM      5  O   UNL A   1      35.906  20.077  25.005  1.00  0.00    -0.252 OA
BRANCH   4   6
ATOM      6  C   UNL A   1      33.861  21.120  25.666  1.00  0.00     0.134 C 
ATOM      7  C   UNL A   1      32.119  21.671  22.395  1.00  0.00     0.147 C 
ATOM      8  N   UNL A   1      32.694  21.196  23.638  1.00  0.00    -0.339 N 
ATOM      9  C   UNL A   1      32.868  19.850  23.909  1.00  0.00     0.223 C 
ATOM     10  C   UNL A   1      32.999  22.066  24.786  1.00  0.00     0.060 C 
ATOM     11  O   UNL A   1      32.643  18.918  23.152  1.00  0.00    -0.275 OA
ATOM     12  C   UNL A   1      33.341  19.712  25.328  1.00  0.00     0.118 C 
ATOM     13  C   UNL A   1      33.627  23.408  24.353  1.00  0.00     0.051 C 
ATOM     14  C   UNL A   1      31.659  22.394  25.530  1.00  0.00     0.051 C 
ATOM     15  C   UNL A   1      33.789  24.376  25.514  1.00  0.00     0.122 C 
ATOM     16  C   UNL A   1      31.784  23.475  26.610  1.00  0.00     0.122 C 
ATOM     17  N   UNL A   1      32.490  24.652  26.117  1.00  0.00    -0.338 N 
ATOM     18  C   UNL A   1      31.949  25.918  26.365  1.00  0.00     0.256 C 
ATOM     19  O   UNL A   1      30.884  26.092  26.949  1.00  0.00    -0.269 OA
BRANCH  18  20
ATOM     20  C   UNL A   1      32.683  27.132  25.938  1.00  0.00     0.065 A 
ATOM     21  C   UNL A   1      33.167  27.947  26.976  1.00  0.00     0.016 A 
ATOM     22  C   UNL A   1      32.973  27.460  24.604  1.00  0.00     0.077 A 
ATOM     23  C   UNL A   1      33.988  29.039  26.693  1.00  0.00     0.001 A 
ATOM     24  C   UNL A   1      33.854  28.525  24.337  1.00  0.00     0.029 A 
ATOM     25  C   UNL A   1      34.351  29.313  25.377  1.00  0.00     0.002 A 
BRANCH  22  26
ATOM     26  N   UNL A   1      32.403  26.774  23.504  1.00  0.00    -0.240 N 
ATOM     27  C   UNL A   1      31.082  26.445  23.281  1.00  0.00     0.115 A 
ATOM     28  N   UNL A   1      33.185  26.359  22.468  1.00  0.00    -0.177 NA
ATOM     29  C   UNL A   1      31.030  25.732  22.107  1.00  0.00     0.042 A 
ATOM     30  C   UNL A   1      32.357  25.697  21.660  1.00  0.00     0.135 A 
ENDBRANCH  22  26
ENDBRANCH  18  20
ENDBRANCH   4   6
ENDBRANCH   3   4
ENDBRANCH   2   3
ENDBRANCH   1   2
BRANCH   1  31
ATOM     31  O   UNL A   1      38.769  23.700  27.037  1.00  0.00    -0.458 OA
BRANCH  31  32
ATOM     32  C   UNL A   1      39.930  24.376  26.873  1.00  0.00     0.338 C 
ATOM     33  O   UNL A   1      40.797  24.135  26.050  1.00  0.00    -0.246 OA
BRANCH  32  34
ATOM     34  C   UNL A   1      40.007  25.529  27.800  1.00  0.00     0.060 A 
ATOM     35  C   UNL A   1      41.004  26.502  27.678  1.00  0.00     0.016 A 
ATOM     36  C   UNL A   1      39.134  25.571  28.887  1.00  0.00     0.016 A 
ATOM     37  C   UNL A   1      41.165  27.475  28.665  1.00  0.00     0.010 A 
ATOM     38  C   UNL A   1      39.234  26.605  29.822  1.00  0.00     0.010 A 
ATOM     39  C   UNL A   1      40.257  27.562  29.729  1.00  0.00    -0.014 A 
BRANCH  39  40
ATOM     40  C   UNL A   1      40.321  28.678  30.712  1.00  0.00     0.031 A 
ATOM     41  C   UNL A   1      41.280  28.630  31.870  1.00  0.00     0.074 A 
ATOM     42  C   UNL A   1      39.455  29.707  30.604  1.00  0.00     0.049 A 
ATOM     43  N   UNL A   1      41.311  29.370  32.949  1.00  0.00    -0.248 NA
ATOM     44  C   UNL A   1      42.332  27.603  31.817  1.00  0.00     0.031 C 
ATOM     45  C   UNL A   1      38.487  29.894  29.521  1.00  0.00     0.029 A 
ATOM     46  N   UNL A   1      39.235  30.782  31.430  1.00  0.00    -0.354 N 
ATOM     47  C   UNL A   1      42.347  28.866  33.729  1.00  0.00     0.074 A 
ATOM     48  C   UNL A   1      42.922  27.758  32.994  1.00  0.00     0.031 C 
ATOM     49  C   UNL A   1      37.792  31.020  29.737  1.00  0.00     0.029 A 
ATOM     50  C   UNL A   1      38.201  31.588  31.016  1.00  0.00     0.049 A 
ATOM     51  H   UNL A   1      39.766  30.958  32.241  1.00  0.00     0.167 HD
ATOM     52  C   UNL A   1      42.769  29.288  34.946  1.00  0.00     0.037 A 
ATOM     53  C   UNL A   1      37.607  32.638  31.615  1.00  0.00     0.037 A 
ATOM     54  C   UNL A   1      42.223  30.427  35.644  1.00  0.00     0.049 A 
ATOM     55  C   UNL A   1      38.075  33.070  32.974  1.00  0.00     0.074 A 
ATOM     56  C   UNL A   1      42.619  30.962  36.859  1.00  0.00     0.029 A 
ATOM     57  N   UNL A   1      41.173  31.211  35.188  1.00  0.00    -0.354 N 
ATOM     58  N   UNL A   1      39.033  32.566  33.711  1.00  0.00    -0.248 NA
ATOM     59  C   UNL A   1      37.367  34.200  33.588  1.00  0.00     0.031 C 
ATOM     60  C   UNL A   1      41.784  32.046  37.155  1.00  0.00     0.029 A 
ATOM     61  C   UNL A   1      40.894  32.212  36.106  1.00  0.00     0.049 A 
ATOM     62  H   UNL A   1      40.695  31.075  34.338  1.00  0.00     0.167 HD
ATOM     63  C   UNL A   1      39.057  33.330  34.872  1.00  0.00     0.074 A 
ATOM     64  C   UNL A   1      38.023  34.335  34.734  1.00  0.00     0.031 C 
ATOM     65  C   UNL A   1      39.864  33.208  35.955  1.00  0.00     0.037 A 
BRANCH  52  66
ATOM     66  C   UNL A   1      43.854  28.501  35.626  1.00  0.00     0.058 A 
ATOM     67  C   UNL A   1      43.573  27.434  36.493  1.00  0.00     0.135 A 
ATOM     68  C   UNL A   1      45.204  28.790  35.361  1.00  0.00     0.135 A 
ATOM     69  F   UNL A   1      42.302  27.121  36.788  1.00  0.00    -0.206 F 
ATOM     70  C   UNL A   1      44.590  26.697  37.092  1.00  0.00     0.059 A 
ATOM     71  C   UNL A   1      46.237  28.050  35.930  1.00  0.00     0.059 A 
ATOM     72  F   UNL A   1      45.530  29.798  34.536  1.00  0.00    -0.206 F 
ATOM     73  C   UNL A   1      45.920  27.014  36.806  1.00  0.00     0.060 A 
BRANCH  73  74
ATOM     74  S   UNL A   1      47.233  26.048  37.583  1.00  0.00     0.124 S 
ATOM     75  O   UNL A   1      46.647  25.759  38.889  1.00  0.00    -0.237 OA
ATOM     76  O   UNL A   1      47.363  24.908  36.681  1.00  0.00    -0.237 OA
ATOM     77  O   UNL A   1      48.368  26.965  37.596  1.00  0.00    -0.744 OA
ENDBRANCH  73  74
ENDBRANCH  52  66
BRANCH  53  78
ATOM     78  C   UNL A   1      36.483  33.332  30.935  1.00  0.00     0.058 A 
ATOM     79  C   UNL A   1      35.174  33.216  31.420  1.00  0.00     0.135 A 
ATOM     80  C   UNL A   1      36.700  34.153  29.817  1.00  0.00     0.135 A 
ATOM     81  F   UNL A   1      34.918  32.436  32.482  1.00  0.00    -0.206 F 
ATOM     82  C   UNL A   1      34.114  33.888  30.821  1.00  0.00     0.059 A 
ATOM     83  C   UNL A   1      35.661  34.855  29.216  1.00  0.00     0.059 A 
ATOM     84  F   UNL A   1      37.940  34.308  29.326  1.00  0.00    -0.206 F 
ATOM     85  C   UNL A   1      34.370  34.710  29.721  1.00  0.00     0.060 A 
BRANCH  85  86
ATOM     86  S   UNL A   1      33.001  35.634  28.991  1.00  0.00     0.124 S 
ATOM     87  O   UNL A   1      32.249  36.027  30.177  1.00  0.00    -0.237 OA
ATOM     88  O   UNL A   1      33.694  36.710  28.288  1.00  0.00    -0.237 OA
ATOM     89  O   UNL A   1      32.355  34.648  28.130  1.00  0.00    -0.744 OA
ENDBRANCH  85  86
ENDBRANCH  53  78
BRANCH  65  90
ATOM     90  C   UNL A   1      39.683  34.210  37.059  1.00  0.00     0.058 A 
ATOM     91  C   UNL A   1      38.919  33.918  38.200  1.00  0.00     0.135 A 
ATOM     92  C   UNL A   1      40.305  35.466  36.988  1.00  0.00     0.135 A 
ATOM     93  F   UNL A   1      38.296  32.735  38.311  1.00  0.00    -0.206 F 
ATOM     94  C   UNL A   1      38.760  34.848  39.223  1.00  0.00     0.059 A 
ATOM     95  C   UNL A   1      40.179  36.402  38.009  1.00  0.00     0.059 A 
ATOM     96  F   UNL A   1      41.051  35.791  35.919  1.00  0.00    -0.206 F 
ATOM     97  C   UNL A   1      39.393  36.088  39.117  1.00  0.00     0.060 A 
BRANCH  97  98
ATOM     98  S   UNL A   1      39.201  37.278  40.462  1.00  0.00     0.124 S 
ATOM     99  O   UNL A   1      38.693  36.429  41.534  1.00  0.00    -0.237 OA
ATOM    100  O   UNL A   1      40.563  37.776  40.638  1.00  0.00    -0.237 OA
ATOM    101  O   UNL A   1      38.252  38.247  39.923  1.00  0.00    -0.744 OA
ENDBRANCH  97  98
ENDBRANCH  65  90
ENDBRANCH  39  40
ENDBRANCH  32  34
ENDBRANCH  31  32
ENDBRANCH   1  31
TORSDOF 16
ENDMDL
