MODEL 1
REMARK VINA RESULT:     -11.0      0.000      0.000
REMARK SMILES Cc1occc1-c1nnnn1C[C@@H](CC(C)C)C(=O)OCCOC(=O)c1ccc(-c2c3nc(c(-c4c(F)cc(S(=O)(=O)[O-])cc4F)c4ccc([nH]4)c(-c4c(F)cc(S(=O)(=O)[O-])cc4F)c4nc(c(-c5c(F)cc(S(=O)(=O)[O-])cc5F)c5ccc2[nH]5)C=C4)C=C3)cc1
REMARK SMILES IDX 21 1 20 2 18 3 19 4 13 5 12 6 11 7 7 8 8 9 9 10 10 11 6 12
REMARK SMILES IDX 1 13 2 14 3 15 4 16 5 17 14 18 15 19 16 20 17 21 22 22 23 23
REMARK SMILES IDX 24 24 25 25 26 26 27 27 91 28 28 29 90 30 29 31 30 32 31 33
REMARK SMILES IDX 84 34 32 35 89 36 83 37 85 38 33 39 88 40 82 41 81 42 34 44
REMARK SMILES IDX 68 45 47 46 67 47 48 48 51 49 66 50 86 51 49 52 50 53 65 55
REMARK SMILES IDX 87 56 52 57 35 58 36 59 45 60 37 61 38 62 44 63 46 64 39 65
REMARK SMILES IDX 40 66 41 67 42 68 43 69 69 70 70 71 79 72 71 73 72 74 78 75
REMARK SMILES IDX 80 76 73 77 74 78 75 79 76 80 77 81 53 82 54 83 63 84 55 85
REMARK SMILES IDX 56 86 62 87 64 88 57 89 58 90 59 91 60 92 61 93
REMARK H PARENT 85 43 51 54
REMARK Flexibility Score: inf
ROOT
ATOM      1  C   UNL A   1      33.785  28.348  26.244  1.00  0.00     0.274 C 
ENDROOT
BRANCH   1   2
ATOM      2  O   UNL A   1      32.443  27.818  26.341  1.00  0.00    -0.462 OA
BRANCH   2   3
ATOM      3  C   UNL A   1      31.704  27.749  25.205  1.00  0.00     0.310 C 
ATOM      4  O   UNL A   1      31.071  28.684  24.727  1.00  0.00    -0.252 OA
BRANCH   3   5
ATOM      5  C   UNL A   1      31.637  26.342  24.647  1.00  0.00     0.121 C 
BRANCH   5   6
ATOM      6  C   UNL A   1      32.956  25.861  24.006  1.00  0.00     0.164 C 
BRANCH   6   7
ATOM      7  N   UNL A   1      32.818  25.318  22.666  1.00  0.00    -0.224 N 
ATOM      8  C   UNL A   1      33.057  24.046  22.198  1.00  0.00     0.185 A 
ATOM      9  N   UNL A   1      33.271  24.142  20.899  1.00  0.00    -0.108 NA
ATOM     10  N   UNL A   1      32.974  25.434  20.552  1.00  0.00    -0.023 NA
ATOM     11  N   UNL A   1      32.662  26.151  21.620  1.00  0.00    -0.045 NA
BRANCH   8  12
ATOM     12  C   UNL A   1      33.109  22.758  22.933  1.00  0.00     0.062 A 
ATOM     13  C   UNL A   1      35.338  22.895  24.358  1.00  0.00     0.088 C 
ATOM     14  C   UNL A   1      34.104  22.319  23.785  1.00  0.00     0.111 A 
ATOM     15  O   UNL A   1      33.777  21.084  24.269  1.00  0.00    -0.469 OA
ATOM     16  C   UNL A   1      32.549  20.770  23.791  1.00  0.00     0.196 A 
ATOM     17  C   UNL A   1      32.077  21.784  22.990  1.00  0.00     0.054 A 
ENDBRANCH   8  12
ENDBRANCH   6   7
ENDBRANCH   5   6
BRANCH   5  18
ATOM     18  C   UNL A   1      30.994  25.448  25.727  1.00  0.00     0.020 C 
BRANCH  18  19
ATOM     19  C   UNL A   1      31.521  24.004  25.901  1.00  0.00    -0.017 C 
ATOM     20  C   UNL A   1      32.716  23.865  26.847  1.00  0.00     0.007 C 
ATOM     21  C   UNL A   1      30.388  23.133  26.445  1.00  0.00     0.007 C 
ENDBRANCH  18  19
ENDBRANCH   5  18
ENDBRANCH   3   5
ENDBRANCH   2   3
ENDBRANCH   1   2
BRANCH   1  22
ATOM     22  C   UNL A   1      33.903  29.674  26.974  1.00  0.00     0.275 C 
BRANCH  22  23
ATOM     23  O   UNL A   1      35.281  29.940  27.191  1.00  0.00    -0.458 OA
BRANCH  23  24
ATOM     24  C   UNL A   1      35.516  31.102  27.842  1.00  0.00     0.338 C 
ATOM     25  O   UNL A   1      35.219  32.223  27.469  1.00  0.00    -0.246 OA
BRANCH  24  26
ATOM     26  C   UNL A   1      36.303  30.836  29.047  1.00  0.00     0.060 A 
ATOM     27  C   UNL A   1      37.230  31.830  29.379  1.00  0.00     0.016 A 
ATOM     28  C   UNL A   1      36.492  29.492  29.361  1.00  0.00     0.016 A 
ATOM     29  C   UNL A   1      38.509  31.431  29.676  1.00  0.00     0.010 A 
ATOM     30  C   UNL A   1      37.776  29.095  29.581  1.00  0.00     0.010 A 
ATOM     31  C   UNL A   1      38.778  30.065  29.640  1.00  0.00    -0.014 A 
BRANCH  31  32
ATOM     32  C   UNL A   1      40.146  29.620  29.722  1.00  0.00     0.031 A 
ATOM     33  C   UNL A   1      40.576  29.467  31.124  1.00  0.00     0.074 A 
ATOM     34  C   UNL A   1      40.815  29.199  28.635  1.00  0.00     0.049 A 
ATOM     35  N   UNL A   1      41.271  30.294  31.836  1.00  0.00    -0.248 NA
ATOM     36  C   UNL A   1      39.891  28.427  31.914  1.00  0.00     0.031 C 
ATOM     37  C   UNL A   1      40.309  29.017  27.270  1.00  0.00     0.029 A 
ATOM     38  N   UNL A   1      42.083  28.727  28.557  1.00  0.00    -0.354 N 
ATOM     39  C   UNL A   1      41.307  29.704  33.095  1.00  0.00     0.074 A 
ATOM     40  C   UNL A   1      40.173  28.833  33.150  1.00  0.00     0.031 C 
ATOM     41  C   UNL A   1      41.193  28.271  26.566  1.00  0.00     0.029 A 
ATOM     42  C   UNL A   1      42.367  28.033  27.389  1.00  0.00     0.049 A 
ATOM     43  H   UNL A   1      42.748  28.867  29.269  1.00  0.00     0.167 HD
ATOM     44  C   UNL A   1      42.460  29.650  33.817  1.00  0.00     0.037 A 
ATOM     45  C   UNL A   1      43.462  27.259  27.184  1.00  0.00     0.037 A 
ATOM     46  C   UNL A   1      43.447  30.541  33.252  1.00  0.00     0.049 A 
ATOM     47  C   UNL A   1      44.462  27.636  28.222  1.00  0.00     0.074 A 
ATOM     48  C   UNL A   1      43.558  31.904  33.075  1.00  0.00     0.029 A 
ATOM     49  N   UNL A   1      44.359  29.955  32.406  1.00  0.00    -0.354 N 
ATOM     50  N   UNL A   1      45.040  28.805  28.280  1.00  0.00    -0.248 NA
ATOM     51  C   UNL A   1      44.501  26.871  29.461  1.00  0.00     0.031 C 
ATOM     52  C   UNL A   1      44.309  32.077  31.876  1.00  0.00     0.029 A 
ATOM     53  C   UNL A   1      44.664  30.817  31.387  1.00  0.00     0.049 A 
ATOM     54  H   UNL A   1      44.736  29.052  32.517  1.00  0.00     0.167 HD
ATOM     55  C   UNL A   1      45.145  29.093  29.634  1.00  0.00     0.074 A 
ATOM     56  C   UNL A   1      44.923  27.817  30.307  1.00  0.00     0.031 C 
ATOM     57  C   UNL A   1      45.103  30.385  30.074  1.00  0.00     0.037 A 
BRANCH  44  58
ATOM     58  C   UNL A   1      42.859  28.488  34.715  1.00  0.00     0.058 A 
ATOM     59  C   UNL A   1      43.120  28.759  36.074  1.00  0.00     0.135 A 
ATOM     60  C   UNL A   1      43.256  27.201  34.279  1.00  0.00     0.135 A 
ATOM     61  F   UNL A   1      42.765  29.935  36.616  1.00  0.00    -0.206 F 
ATOM     62  C   UNL A   1      43.815  27.871  36.899  1.00  0.00     0.059 A 
ATOM     63  C   UNL A   1      43.902  26.283  35.096  1.00  0.00     0.059 A 
ATOM     64  F   UNL A   1      43.134  26.773  33.020  1.00  0.00    -0.206 F 
ATOM     65  C   UNL A   1      44.224  26.645  36.389  1.00  0.00     0.060 A 
BRANCH  65  66
ATOM     66  S   UNL A   1      45.234  25.547  37.392  1.00  0.00     0.124 S 
ATOM     67  O   UNL A   1      44.474  25.516  38.636  1.00  0.00    -0.237 OA
ATOM     68  O   UNL A   1      45.226  24.322  36.600  1.00  0.00    -0.237 OA
ATOM     69  O   UNL A   1      46.519  26.239  37.455  1.00  0.00    -0.744 OA
ENDBRANCH  65  66
ENDBRANCH  44  58
BRANCH  45  70
ATOM     70  C   UNL A   1      43.571  26.014  26.382  1.00  0.00     0.058 A 
ATOM     71  C   UNL A   1      44.619  25.817  25.467  1.00  0.00     0.135 A 
ATOM     72  C   UNL A   1      42.798  24.877  26.695  1.00  0.00     0.135 A 
ATOM     73  F   UNL A   1      45.424  26.839  25.136  1.00  0.00    -0.206 F 
ATOM     74  C   UNL A   1      44.903  24.562  24.915  1.00  0.00     0.059 A 
ATOM     75  C   UNL A   1      43.057  23.619  26.154  1.00  0.00     0.059 A 
ATOM     76  F   UNL A   1      41.817  24.943  27.609  1.00  0.00    -0.206 F 
ATOM     77  C   UNL A   1      44.124  23.463  25.279  1.00  0.00     0.060 A 
BRANCH  77  78
ATOM     78  S   UNL A   1      44.576  21.815  24.684  1.00  0.00     0.124 S 
ATOM     79  O   UNL A   1      44.543  21.996  23.237  1.00  0.00    -0.237 OA
ATOM     80  O   UNL A   1      45.896  21.624  25.274  1.00  0.00    -0.237 OA
ATOM     81  O   UNL A   1      43.524  20.958  25.228  1.00  0.00    -0.744 OA
ENDBRANCH  77  78
ENDBRANCH  45  70
BRANCH  57  82
ATOM     82  C   UNL A   1      45.355  31.465  29.053  1.00  0.00     0.058 A 
ATOM     83  C   UNL A   1      46.627  31.849  28.594  1.00  0.00     0.135 A 
ATOM     84  C   UNL A   1      44.243  32.047  28.428  1.00  0.00     0.135 A 
ATOM     85  F   UNL A   1      47.735  31.268  29.076  1.00  0.00    -0.206 F 
ATOM     86  C   UNL A   1      46.787  32.801  27.586  1.00  0.00     0.059 A 
ATOM     87  C   UNL A   1      44.378  32.975  27.400  1.00  0.00     0.059 A 
ATOM     88  F   UNL A   1      43.002  31.676  28.782  1.00  0.00    -0.206 F 
ATOM     89  C   UNL A   1      45.654  33.359  26.994  1.00  0.00     0.060 A 
BRANCH  89  90
ATOM     90  S   UNL A   1      45.854  34.538  25.641  1.00  0.00     0.124 S 
ATOM     91  O   UNL A   1      47.284  34.447  25.365  1.00  0.00    -0.237 OA
ATOM     92  O   UNL A   1      44.973  33.994  24.612  1.00  0.00    -0.237 OA
ATOM     93  O   UNL A   1      45.410  35.803  26.222  1.00  0.00    -0.744 OA
ENDBRANCH  89  90
ENDBRANCH  57  82
ENDBRANCH  31  32
ENDBRANCH  24  26
ENDBRANCH  23  24
ENDBRANCH  22  23
ENDBRANCH   1  22
TORSDOF 19
ENDMDL
MODEL 2
REMARK VINA RESULT:     -10.7      1.932      2.621
REMARK SMILES Cc1occc1-c1nnnn1C[C@@H](CC(C)C)C(=O)OCCOC(=O)c1ccc(-c2c3nc(c(-c4c(F)cc(S(=O)(=O)[O-])cc4F)c4ccc([nH]4)c(-c4c(F)cc(S(=O)(=O)[O-])cc4F)c4nc(c(-c5c(F)cc(S(=O)(=O)[O-])cc5F)c5ccc2[nH]5)C=C4)C=C3)cc1
REMARK SMILES IDX 21 1 20 2 18 3 19 4 13 5 12 6 11 7 7 8 8 9 9 10 10 11 6 12
REMARK SMILES IDX 1 13 2 14 3 15 4 16 5 17 14 18 15 19 16 20 17 21 22 22 23 23
REMARK SMILES IDX 24 24 25 25 26 26 27 27 91 28 28 29 90 30 29 31 30 32 31 33
REMARK SMILES IDX 84 34 32 35 89 36 83 37 85 38 33 39 88 40 82 41 81 42 34 44
REMARK SMILES IDX 68 45 47 46 67 47 48 48 51 49 66 50 86 51 49 52 50 53 65 55
REMARK SMILES IDX 87 56 52 57 35 58 36 59 45 60 37 61 38 62 44 63 46 64 39 65
REMARK SMILES IDX 40 66 41 67 42 68 43 69 69 70 70 71 79 72 71 73 72 74 78 75
REMARK SMILES IDX 80 76 73 77 74 78 75 79 76 80 77 81 53 82 54 83 63 84 55 85
REMARK SMILES IDX 56 86 62 87 64 88 57 89 58 90 59 91 60 92 61 93
REMARK H PARENT 85 43 51 54
REMARK Flexibility Score: inf
ROOT
ATOM      1  C   UNL A   1      32.927  31.272  27.460  1.00  0.00     0.274 C 
ENDROOT
BRANCH   1   2
ATOM      2  O   UNL A   1      33.264  30.434  26.330  1.00  0.00    -0.462 OA
BRANCH   2   3
ATOM      3  C   UNL A   1      33.101  29.093  26.464  1.00  0.00     0.310 C 
ATOM      4  O   UNL A   1      33.278  28.469  27.504  1.00  0.00    -0.252 OA
BRANCH   3   5
ATOM      5  C   UNL A   1      32.793  28.417  25.142  1.00  0.00     0.121 C 
BRANCH   5   6
ATOM      6  C   UNL A   1      34.028  27.799  24.454  1.00  0.00     0.164 C 
BRANCH   6   7
ATOM      7  N   UNL A   1      33.733  26.710  23.539  1.00  0.00    -0.224 N 
ATOM      8  C   UNL A   1      34.048  25.373  23.625  1.00  0.00     0.185 A 
ATOM      9  N   UNL A   1      34.023  24.887  22.398  1.00  0.00    -0.108 NA
ATOM     10  N   UNL A   1      33.509  25.877  21.600  1.00  0.00    -0.023 NA
ATOM     11  N   UNL A   1      33.296  26.982  22.296  1.00  0.00    -0.045 NA
BRANCH   8  12
ATOM     12  C   UNL A   1      34.389  24.552  24.812  1.00  0.00     0.062 A 
ATOM     13  C   UNL A   1      32.065  24.107  26.004  1.00  0.00     0.088 C 
ATOM     14  C   UNL A   1      33.527  24.090  25.788  1.00  0.00     0.111 A 
ATOM     15  O   UNL A   1      34.226  23.362  26.707  1.00  0.00    -0.469 OA
ATOM     16  C   UNL A   1      35.511  23.294  26.282  1.00  0.00     0.196 A 
ATOM     17  C   UNL A   1      35.657  23.982  25.100  1.00  0.00     0.054 A 
ENDBRANCH   8  12
ENDBRANCH   6   7
ENDBRANCH   5   6
BRANCH   5  18
ATOM     18  C   UNL A   1      31.563  27.514  25.362  1.00  0.00     0.020 C 
BRANCH  18  19
ATOM     19  C   UNL A   1      30.329  27.712  24.451  1.00  0.00    -0.017 C 
ATOM     20  C   UNL A   1      30.455  28.850  23.436  1.00  0.00     0.007 C 
ATOM     21  C   UNL A   1      30.081  26.417  23.676  1.00  0.00     0.007 C 
ENDBRANCH  18  19
ENDBRANCH   5  18
ENDBRANCH   3   5
ENDBRANCH   2   3
ENDBRANCH   1   2
BRANCH   1  22
ATOM     22  C   UNL A   1      34.081  32.188  27.825  1.00  0.00     0.275 C 
BRANCH  22  23
ATOM     23  O   UNL A   1      34.422  31.954  29.182  1.00  0.00    -0.458 OA
BRANCH  23  24
ATOM     24  C   UNL A   1      34.471  33.077  29.934  1.00  0.00     0.338 C 
ATOM     25  O   UNL A   1      33.798  34.083  29.792  1.00  0.00    -0.246 OA
BRANCH  24  26
ATOM     26  C   UNL A   1      35.556  32.965  30.911  1.00  0.00     0.060 A 
ATOM     27  C   UNL A   1      36.691  33.729  30.623  1.00  0.00     0.016 A 
ATOM     28  C   UNL A   1      35.611  31.765  31.616  1.00  0.00     0.016 A 
ATOM     29  C   UNL A   1      37.911  33.107  30.701  1.00  0.00     0.010 A 
ATOM     30  C   UNL A   1      36.812  31.121  31.624  1.00  0.00     0.010 A 
ATOM     31  C   UNL A   1      37.923  31.766  31.078  1.00  0.00    -0.014 A 
BRANCH  31  32
ATOM     32  C   UNL A   1      39.148  31.016  30.957  1.00  0.00     0.031 A 
ATOM     33  C   UNL A   1      39.844  30.914  32.253  1.00  0.00     0.074 A 
ATOM     34  C   UNL A   1      39.446  30.334  29.839  1.00  0.00     0.049 A 
ATOM     35  N   UNL A   1      40.841  31.620  32.676  1.00  0.00    -0.248 NA
ATOM     36  C   UNL A   1      39.153  30.159  33.315  1.00  0.00     0.031 C 
ATOM     37  C   UNL A   1      38.615  30.135  28.646  1.00  0.00     0.029 A 
ATOM     38  N   UNL A   1      40.533  29.565  29.586  1.00  0.00    -0.354 N 
ATOM     39  C   UNL A   1      41.038  31.177  33.979  1.00  0.00     0.074 A 
ATOM     40  C   UNL A   1      39.788  30.614  34.392  1.00  0.00     0.031 C 
ATOM     41  C   UNL A   1      39.137  29.127  27.906  1.00  0.00     0.029 A 
ATOM     42  C   UNL A   1      40.390  28.703  28.508  1.00  0.00     0.049 A 
ATOM     43  H   UNL A   1      41.357  29.616  30.122  1.00  0.00     0.167 HD
ATOM     44  C   UNL A   1      42.287  30.924  34.459  1.00  0.00     0.037 A 
ATOM     45  C   UNL A   1      41.220  27.671  28.214  1.00  0.00     0.037 A 
ATOM     46  C   UNL A   1      43.285  31.486  33.578  1.00  0.00     0.049 A 
ATOM     47  C   UNL A   1      42.486  27.905  28.962  1.00  0.00     0.074 A 
ATOM     48  C   UNL A   1      43.639  32.756  33.173  1.00  0.00     0.029 A 
ATOM     49  N   UNL A   1      43.834  30.611  32.670  1.00  0.00    -0.354 N 
ATOM     50  N   UNL A   1      43.296  28.900  28.721  1.00  0.00    -0.248 NA
ATOM     51  C   UNL A   1      42.644  27.289  30.273  1.00  0.00     0.031 C 
ATOM     52  C   UNL A   1      44.115  32.614  31.837  1.00  0.00     0.029 A 
ATOM     53  C   UNL A   1      44.074  31.262  31.490  1.00  0.00     0.049 A 
ATOM     54  H   UNL A   1      44.027  29.661  32.844  1.00  0.00     0.167 HD
ATOM     55  C   UNL A   1      43.766  29.296  29.967  1.00  0.00     0.074 A 
ATOM     56  C   UNL A   1      43.439  28.190  30.860  1.00  0.00     0.031 C 
ATOM     57  C   UNL A   1      44.100  30.600  30.199  1.00  0.00     0.037 A 
BRANCH  44  58
ATOM     58  C   UNL A   1      42.625  29.802  35.430  1.00  0.00     0.058 A 
ATOM     59  C   UNL A   1      43.478  30.098  36.513  1.00  0.00     0.135 A 
ATOM     60  C   UNL A   1      42.389  28.422  35.219  1.00  0.00     0.135 A 
ATOM     61  F   UNL A   1      43.759  31.370  36.834  1.00  0.00    -0.206 F 
ATOM     62  C   UNL A   1      44.128  29.106  37.251  1.00  0.00     0.059 A 
ATOM     63  C   UNL A   1      42.983  27.421  35.974  1.00  0.00     0.059 A 
ATOM     64  F   UNL A   1      41.645  27.941  34.220  1.00  0.00    -0.206 F 
ATOM     65  C   UNL A   1      43.891  27.768  36.954  1.00  0.00     0.060 A 
BRANCH  65  66
ATOM     66  S   UNL A   1      44.818  26.482  37.802  1.00  0.00     0.124 S 
ATOM     67  O   UNL A   1      44.431  26.717  39.188  1.00  0.00    -0.237 OA
ATOM     68  O   UNL A   1      44.290  25.273  37.181  1.00  0.00    -0.237 OA
ATOM     69  O   UNL A   1      46.205  26.797  37.472  1.00  0.00    -0.744 OA
ENDBRANCH  65  66
ENDBRANCH  44  58
BRANCH  45  70
ATOM     70  C   UNL A   1      40.877  26.358  27.610  1.00  0.00     0.058 A 
ATOM     71  C   UNL A   1      41.701  25.754  26.646  1.00  0.00     0.135 A 
ATOM     72  C   UNL A   1      39.870  25.543  28.167  1.00  0.00     0.135 A 
ATOM     73  F   UNL A   1      42.704  26.448  26.087  1.00  0.00    -0.206 F 
ATOM     74  C   UNL A   1      41.554  24.412  26.273  1.00  0.00     0.059 A 
ATOM     75  C   UNL A   1      39.701  24.206  27.808  1.00  0.00     0.059 A 
ATOM     76  F   UNL A   1      39.075  26.003  29.144  1.00  0.00    -0.206 F 
ATOM     77  C   UNL A   1      40.560  23.640  26.874  1.00  0.00     0.060 A 
BRANCH  77  78
ATOM     78  S   UNL A   1      40.460  21.872  26.506  1.00  0.00     0.124 S 
ATOM     79  O   UNL A   1      39.148  21.767  25.876  1.00  0.00    -0.237 OA
ATOM     80  O   UNL A   1      41.608  21.674  25.628  1.00  0.00    -0.237 OA
ATOM     81  O   UNL A   1      40.570  21.244  27.822  1.00  0.00    -0.744 OA
ENDBRANCH  77  78
ENDBRANCH  45  70
BRANCH  57  82
ATOM     82  C   UNL A   1      44.335  31.472  28.994  1.00  0.00     0.058 A 
ATOM     83  C   UNL A   1      45.428  31.346  28.117  1.00  0.00     0.135 A 
ATOM     84  C   UNL A   1      43.339  32.397  28.649  1.00  0.00     0.135 A 
ATOM     85  F   UNL A   1      46.373  30.419  28.327  1.00  0.00    -0.206 F 
ATOM     86  C   UNL A   1      45.544  32.135  26.971  1.00  0.00     0.059 A 
ATOM     87  C   UNL A   1      43.418  33.171  27.496  1.00  0.00     0.059 A 
ATOM     88  F   UNL A   1      42.243  32.519  29.416  1.00  0.00    -0.206 F 
ATOM     89  C   UNL A   1      44.532  33.045  26.668  1.00  0.00     0.060 A 
BRANCH  89  90
ATOM     90  S   UNL A   1      44.642  34.016  25.150  1.00  0.00     0.124 S 
ATOM     91  O   UNL A   1      45.966  34.618  25.266  1.00  0.00    -0.237 OA
ATOM     92  O   UNL A   1      44.496  33.001  24.111  1.00  0.00    -0.237 OA
ATOM     93  O   UNL A   1      43.522  34.948  25.259  1.00  0.00    -0.744 OA
ENDBRANCH  89  90
ENDBRANCH  57  82
ENDBRANCH  31  32
ENDBRANCH  24  26
ENDBRANCH  23  24
ENDBRANCH  22  23
ENDBRANCH   1  22
TORSDOF 19
ENDMDL
MODEL 3
REMARK VINA RESULT:     -10.1      5.171     12.211
REMARK SMILES Cc1occc1-c1nnnn1C[C@@H](CC(C)C)C(=O)OCCOC(=O)c1ccc(-c2c3nc(c(-c4c(F)cc(S(=O)(=O)[O-])cc4F)c4ccc([nH]4)c(-c4c(F)cc(S(=O)(=O)[O-])cc4F)c4nc(c(-c5c(F)cc(S(=O)(=O)[O-])cc5F)c5ccc2[nH]5)C=C4)C=C3)cc1
REMARK SMILES IDX 21 1 20 2 18 3 19 4 13 5 12 6 11 7 7 8 8 9 9 10 10 11 6 12
REMARK SMILES IDX 1 13 2 14 3 15 4 16 5 17 14 18 15 19 16 20 17 21 22 22 23 23
REMARK SMILES IDX 24 24 25 25 26 26 27 27 91 28 28 29 90 30 29 31 30 32 31 33
REMARK SMILES IDX 84 34 32 35 89 36 83 37 85 38 33 39 88 40 82 41 81 42 34 44
REMARK SMILES IDX 68 45 47 46 67 47 48 48 51 49 66 50 86 51 49 52 50 53 65 55
REMARK SMILES IDX 87 56 52 57 35 58 36 59 45 60 37 61 38 62 44 63 46 64 39 65
REMARK SMILES IDX 40 66 41 67 42 68 43 69 69 70 70 71 79 72 71 73 72 74 78 75
REMARK SMILES IDX 80 76 73 77 74 78 75 79 76 80 77 81 53 82 54 83 63 84 55 85
REMARK SMILES IDX 56 86 62 87 64 88 57 89 58 90 59 91 60 92 61 93
REMARK H PARENT 85 43 51 54
REMARK Flexibility Score: inf
ROOT
ATOM      1  C   UNL A   1      44.815  26.438  25.148  1.00  0.00     0.274 C 
ENDROOT
BRANCH   1   2
ATOM      2  O   UNL A   1      46.087  26.672  24.504  1.00  0.00    -0.462 OA
BRANCH   2   3
ATOM      3  C   UNL A   1      46.852  27.696  24.961  1.00  0.00     0.310 C 
ATOM      4  O   UNL A   1      46.718  28.869  24.629  1.00  0.00    -0.252 OA
BRANCH   3   5
ATOM      5  C   UNL A   1      47.988  27.216  25.842  1.00  0.00     0.121 C 
BRANCH   5   6
ATOM      6  C   UNL A   1      49.325  27.943  25.590  1.00  0.00     0.164 C 
BRANCH   6   7
ATOM      7  N   UNL A   1      50.154  27.351  24.555  1.00  0.00    -0.224 N 
ATOM      8  C   UNL A   1      51.473  26.963  24.592  1.00  0.00     0.185 A 
ATOM      9  N   UNL A   1      51.912  26.952  23.347  1.00  0.00    -0.108 NA
ATOM     10  N   UNL A   1      50.814  27.145  22.548  1.00  0.00    -0.023 NA
ATOM     11  N   UNL A   1      49.730  27.353  23.277  1.00  0.00    -0.045 NA
BRANCH   8  12
ATOM     12  C   UNL A   1      52.332  26.626  25.754  1.00  0.00     0.062 A 
ATOM     13  C   UNL A   1      53.317  24.234  25.183  1.00  0.00     0.088 C 
ATOM     14  C   UNL A   1      53.041  25.459  25.962  1.00  0.00     0.111 A 
ATOM     15  O   UNL A   1      53.715  25.539  27.147  1.00  0.00    -0.469 OA
ATOM     16  C   UNL A   1      53.500  26.777  27.655  1.00  0.00     0.196 A 
ATOM     17  C   UNL A   1      52.682  27.499  26.818  1.00  0.00     0.054 A 
ENDBRANCH   8  12
ENDBRANCH   6   7
ENDBRANCH   5   6
BRANCH   5  18
ATOM     18  C   UNL A   1      47.458  27.165  27.290  1.00  0.00     0.020 C 
BRANCH  18  19
ATOM     19  C   UNL A   1      47.403  25.797  28.009  1.00  0.00    -0.017 C 
ATOM     20  C   UNL A   1      46.022  25.403  28.539  1.00  0.00     0.007 C 
ATOM     21  C   UNL A   1      47.858  24.713  27.031  1.00  0.00     0.007 C 
ENDBRANCH  18  19
ENDBRANCH   5  18
ENDBRANCH   3   5
ENDBRANCH   2   3
ENDBRANCH   1   2
BRANCH   1  22
ATOM     22  C   UNL A   1      44.512  24.953  25.240  1.00  0.00     0.275 C 
BRANCH  22  23
ATOM     23  O   UNL A   1      43.180  24.743  24.797  1.00  0.00    -0.458 OA
BRANCH  23  24
ATOM     24  C   UNL A   1      42.556  23.715  25.415  1.00  0.00     0.338 C 
ATOM     25  O   UNL A   1      42.661  22.530  25.153  1.00  0.00    -0.246 OA
BRANCH  24  26
ATOM     26  C   UNL A   1      41.614  24.240  26.405  1.00  0.00     0.060 A 
ATOM     27  C   UNL A   1      40.895  25.368  25.997  1.00  0.00     0.016 A 
ATOM     28  C   UNL A   1      41.937  23.991  27.737  1.00  0.00     0.016 A 
ATOM     29  C   UNL A   1      40.836  26.430  26.863  1.00  0.00     0.010 A 
ATOM     30  C   UNL A   1      41.946  25.068  28.571  1.00  0.00     0.010 A 
ATOM     31  C   UNL A   1      41.484  26.294  28.088  1.00  0.00    -0.014 A 
BRANCH  31  32
ATOM     32  C   UNL A   1      41.640  27.454  28.930  1.00  0.00     0.031 A 
ATOM     33  C   UNL A   1      42.846  28.221  28.566  1.00  0.00     0.074 A 
ATOM     34  C   UNL A   1      40.666  27.852  29.764  1.00  0.00     0.049 A 
ATOM     35  N   UNL A   1      44.004  28.200  29.141  1.00  0.00    -0.248 NA
ATOM     36  C   UNL A   1      42.854  28.840  27.227  1.00  0.00     0.031 C 
ATOM     37  C   UNL A   1      39.312  27.306  29.909  1.00  0.00     0.029 A 
ATOM     38  N   UNL A   1      40.651  28.928  30.589  1.00  0.00    -0.354 N 
ATOM     39  C   UNL A   1      44.788  29.030  28.347  1.00  0.00     0.074 A 
ATOM     40  C   UNL A   1      44.158  29.048  27.061  1.00  0.00     0.031 C 
ATOM     41  C   UNL A   1      38.550  28.187  30.599  1.00  0.00     0.029 A 
ATOM     42  C   UNL A   1      39.390  29.288  31.043  1.00  0.00     0.049 A 
ATOM     43  H   UNL A   1      41.469  29.412  30.846  1.00  0.00     0.167 HD
ATOM     44  C   UNL A   1      45.628  29.949  28.898  1.00  0.00     0.037 A 
ATOM     45  C   UNL A   1      39.083  30.456  31.660  1.00  0.00     0.037 A 
ATOM     46  C   UNL A   1      45.803  29.685  30.307  1.00  0.00     0.049 A 
ATOM     47  C   UNL A   1      40.364  31.048  32.133  1.00  0.00     0.074 A 
ATOM     48  C   UNL A   1      46.343  28.662  31.058  1.00  0.00     0.029 A 
ATOM     49  N   UNL A   1      45.005  30.420  31.152  1.00  0.00    -0.354 N 
ATOM     50  N   UNL A   1      41.111  30.512  33.060  1.00  0.00    -0.248 NA
ATOM     51  C   UNL A   1      41.047  32.007  31.275  1.00  0.00     0.031 C 
ATOM     52  C   UNL A   1      45.581  28.625  32.262  1.00  0.00     0.029 A 
ATOM     53  C   UNL A   1      44.633  29.650  32.221  1.00  0.00     0.049 A 
ATOM     54  H   UNL A   1      44.743  31.359  31.010  1.00  0.00     0.167 HD
ATOM     55  C   UNL A   1      42.419  30.742  32.652  1.00  0.00     0.074 A 
ATOM     56  C   UNL A   1      42.316  31.775  31.628  1.00  0.00     0.031 C 
ATOM     57  C   UNL A   1      43.411  29.859  32.974  1.00  0.00     0.037 A 
BRANCH  44  58
ATOM     58  C   UNL A   1      45.908  31.323  28.306  1.00  0.00     0.058 A 
ATOM     59  C   UNL A   1      44.816  32.190  28.096  1.00  0.00     0.135 A 
ATOM     60  C   UNL A   1      47.117  31.732  27.694  1.00  0.00     0.135 A 
ATOM     61  F   UNL A   1      43.620  31.928  28.647  1.00  0.00    -0.206 F 
ATOM     62  C   UNL A   1      44.891  33.305  27.259  1.00  0.00     0.059 A 
ATOM     63  C   UNL A   1      47.227  32.866  26.900  1.00  0.00     0.059 A 
ATOM     64  F   UNL A   1      48.249  31.025  27.741  1.00  0.00    -0.206 F 
ATOM     65  C   UNL A   1      46.099  33.618  26.646  1.00  0.00     0.060 A 
BRANCH  65  66
ATOM     66  S   UNL A   1      46.181  34.970  25.463  1.00  0.00     0.124 S 
ATOM     67  O   UNL A   1      47.594  34.950  25.104  1.00  0.00    -0.237 OA
ATOM     68  O   UNL A   1      45.247  34.527  24.434  1.00  0.00    -0.237 OA
ATOM     69  O   UNL A   1      45.745  36.125  26.244  1.00  0.00    -0.744 OA
ENDBRANCH  65  66
ENDBRANCH  44  58
BRANCH  45  70
ATOM     70  C   UNL A   1      37.823  31.238  31.575  1.00  0.00     0.058 A 
ATOM     71  C   UNL A   1      37.012  31.452  32.702  1.00  0.00     0.135 A 
ATOM     72  C   UNL A   1      37.527  32.019  30.439  1.00  0.00     0.135 A 
ATOM     73  F   UNL A   1      37.243  30.772  33.836  1.00  0.00    -0.206 F 
ATOM     74  C   UNL A   1      35.985  32.404  32.714  1.00  0.00     0.059 A 
ATOM     75  C   UNL A   1      36.507  32.969  30.424  1.00  0.00     0.059 A 
ATOM     76  F   UNL A   1      38.284  31.940  29.334  1.00  0.00    -0.206 F 
ATOM     77  C   UNL A   1      35.751  33.172  31.572  1.00  0.00     0.060 A 
BRANCH  77  78
ATOM     78  S   UNL A   1      34.527  34.502  31.628  1.00  0.00     0.124 S 
ATOM     79  O   UNL A   1      33.432  33.875  32.361  1.00  0.00    -0.237 OA
ATOM     80  O   UNL A   1      35.247  35.555  32.336  1.00  0.00    -0.237 OA
ATOM     81  O   UNL A   1      34.257  34.775  30.218  1.00  0.00    -0.744 OA
ENDBRANCH  77  78
ENDBRANCH  45  70
BRANCH  57  82
ATOM     82  C   UNL A   1      43.131  28.893  34.096  1.00  0.00     0.058 A 
ATOM     83  C   UNL A   1      43.214  29.210  35.463  1.00  0.00     0.135 A 
ATOM     84  C   UNL A   1      42.638  27.623  33.759  1.00  0.00     0.135 A 
ATOM     85  F   UNL A   1      43.585  30.434  35.862  1.00  0.00    -0.206 F 
ATOM     86  C   UNL A   1      42.862  28.290  36.453  1.00  0.00     0.059 A 
ATOM     87  C   UNL A   1      42.252  26.702  34.728  1.00  0.00     0.059 A 
ATOM     88  F   UNL A   1      42.479  27.285  32.469  1.00  0.00    -0.206 F 
ATOM     89  C   UNL A   1      42.381  27.037  36.074  1.00  0.00     0.060 A 
BRANCH  89  90
ATOM     90  S   UNL A   1      41.857  25.870  37.348  1.00  0.00     0.124 S 
ATOM     91  O   UNL A   1      42.825  26.121  38.411  1.00  0.00    -0.237 OA
ATOM     92  O   UNL A   1      40.488  26.293  37.624  1.00  0.00    -0.237 OA
ATOM     93  O   UNL A   1      41.976  24.571  36.691  1.00  0.00    -0.744 OA
ENDBRANCH  89  90
ENDBRANCH  57  82
ENDBRANCH  31  32
ENDBRANCH  24  26
ENDBRANCH  23  24
ENDBRANCH  22  23
ENDBRANCH   1  22
TORSDOF 19
ENDMDL
