MODEL 1
REMARK VINA RESULT:     -11.2      0.000      0.000
REMARK SMILES C[C@@H](CC(=O)OCCOC(=O)c1ccc(-c2c3nc(c(-c4c(F)cc(S(=O)(=O)[O-])cc4F)c4ccc([nH]4)c(-c4c(F)cc(S(=O)(=O)[O-])cc4F)c4nc(c(-c5c(F)cc(S(=O)(=O)[O-])cc5F)c5ccc2[nH]5)C=C4)C=C3)cc1)Cc1nnc(C2C(C)(C)C2(C)C)o1
REMARK SMILES IDX 7 1 6 2 4 3 5 4 3 5 2 6 1 7 78 8 79 9 80 10 90 11 81 12
REMARK SMILES IDX 82 13 83 14 84 15 87 16 85 17 86 18 88 19 89 20 8 21 9 22
REMARK SMILES IDX 10 23 11 24 12 25 13 26 77 27 14 28 76 29 15 30 16 31 17 32
REMARK SMILES IDX 70 33 18 34 75 35 69 36 71 37 19 38 74 39 68 40 67 41 20 43
REMARK SMILES IDX 54 44 33 45 53 46 34 47 37 48 52 49 72 50 35 51 36 52 51 54
REMARK SMILES IDX 73 55 38 56 21 57 22 58 31 59 23 60 24 61 30 62 32 63 25 64
REMARK SMILES IDX 26 65 27 66 28 67 29 68 55 69 56 70 65 71 57 72 58 73 64 74
REMARK SMILES IDX 66 75 59 76 60 77 61 78 62 79 63 80 39 81 40 82 49 83 41 84
REMARK SMILES IDX 42 85 48 86 50 87 43 88 44 89 45 90 46 91 47 92
REMARK H PARENT 71 42 37 53
REMARK Flexibility Score: inf
ROOT
ATOM      1  C   UNL A   1      37.280  22.901  25.242  1.00  0.00     0.274 C 
ENDROOT
BRANCH   1   2
ATOM      2  O   UNL A   1      36.088  23.085  26.033  1.00  0.00    -0.462 OA
BRANCH   2   3
ATOM      3  C   UNL A   1      35.114  22.164  25.857  1.00  0.00     0.306 C 
ATOM      4  O   UNL A   1      34.709  21.401  26.726  1.00  0.00    -0.252 OA
BRANCH   3   5
ATOM      5  C   UNL A   1      34.571  22.101  24.445  1.00  0.00     0.126 C 
BRANCH   5   6
ATOM      6  C   UNL A   1      33.339  22.924  24.034  1.00  0.00     0.006 C 
ATOM      7  C   UNL A   1      32.028  22.151  24.226  1.00  0.00     0.009 C 
BRANCH   6   8
ATOM      8  C   UNL A   1      33.467  23.559  22.627  1.00  0.00     0.103 C 
BRANCH   8   9
ATOM      9  C   UNL A   1      33.653  25.034  22.726  1.00  0.00     0.216 A 
ATOM     10  N   UNL A   1      33.771  25.914  21.757  1.00  0.00    -0.113 NA
ATOM     11  O   UNL A   1      33.426  25.615  23.946  1.00  0.00    -0.425 OA
ATOM     12  N   UNL A   1      33.507  27.141  22.321  1.00  0.00    -0.113 NA
ATOM     13  C   UNL A   1      33.271  26.936  23.603  1.00  0.00     0.220 A 
BRANCH  13  14
ATOM     14  C   UNL A   1      32.586  27.992  24.461  1.00  0.00     0.090 C 
ATOM     15  C   UNL A   1      31.049  28.048  24.443  1.00  0.00    -0.017 C 
ATOM     16  C   UNL A   1      31.808  27.842  25.754  1.00  0.00    -0.017 C 
ATOM     17  C   UNL A   1      30.477  29.388  24.038  1.00  0.00     0.012 C 
ATOM     18  C   UNL A   1      30.154  26.907  23.997  1.00  0.00     0.012 C 
ATOM     19  C   UNL A   1      31.818  26.511  26.472  1.00  0.00     0.012 C 
ATOM     20  C   UNL A   1      31.825  29.007  26.730  1.00  0.00     0.012 C 
ENDBRANCH  13  14
ENDBRANCH   8   9
ENDBRANCH   6   8
ENDBRANCH   5   6
ENDBRANCH   3   5
ENDBRANCH   2   3
ENDBRANCH   1   2
BRANCH   1  21
ATOM     21  C   UNL A   1      38.523  22.948  26.123  1.00  0.00     0.275 C 
BRANCH  21  22
ATOM     22  O   UNL A   1      38.929  24.313  26.317  1.00  0.00    -0.458 OA
BRANCH  22  23
ATOM     23  C   UNL A   1      40.194  24.489  26.759  1.00  0.00     0.338 C 
ATOM     24  O   UNL A   1      41.183  23.844  26.463  1.00  0.00    -0.246 OA
BRANCH  23  25
ATOM     25  C   UNL A   1      40.222  25.610  27.706  1.00  0.00     0.060 A 
ATOM     26  C   UNL A   1      41.185  26.616  27.588  1.00  0.00     0.016 A 
ATOM     27  C   UNL A   1      39.317  25.610  28.768  1.00  0.00     0.016 A 
ATOM     28  C   UNL A   1      41.257  27.620  28.552  1.00  0.00     0.010 A 
ATOM     29  C   UNL A   1      39.358  26.645  29.700  1.00  0.00     0.010 A 
ATOM     30  C   UNL A   1      40.335  27.651  29.607  1.00  0.00    -0.014 A 
BRANCH  30  31
ATOM     31  C   UNL A   1      40.361  28.734  30.620  1.00  0.00     0.031 A 
ATOM     32  C   UNL A   1      41.301  28.649  31.788  1.00  0.00     0.074 A 
ATOM     33  C   UNL A   1      39.495  29.760  30.515  1.00  0.00     0.049 A 
ATOM     34  N   UNL A   1      41.342  29.381  32.870  1.00  0.00    -0.248 NA
ATOM     35  C   UNL A   1      42.325  27.594  31.734  1.00  0.00     0.031 C 
ATOM     36  C   UNL A   1      38.555  29.963  29.410  1.00  0.00     0.029 A 
ATOM     37  N   UNL A   1      39.247  30.809  31.361  1.00  0.00    -0.354 N 
ATOM     38  C   UNL A   1      42.374  28.863  33.640  1.00  0.00     0.074 A 
ATOM     39  C   UNL A   1      42.929  27.745  32.905  1.00  0.00     0.031 C 
ATOM     40  C   UNL A   1      37.832  31.069  29.648  1.00  0.00     0.029 A 
ATOM     41  C   UNL A   1      38.213  31.615  30.947  1.00  0.00     0.049 A 
ATOM     42  H   UNL A   1      39.761  30.972  32.185  1.00  0.00     0.167 HD
ATOM     43  C   UNL A   1      42.815  29.280  34.851  1.00  0.00     0.037 A 
ATOM     44  C   UNL A   1      37.611  32.649  31.563  1.00  0.00     0.037 A 
ATOM     45  C   UNL A   1      42.259  30.398  35.569  1.00  0.00     0.049 A 
ATOM     46  C   UNL A   1      38.077  33.058  32.931  1.00  0.00     0.074 A 
ATOM     47  C   UNL A   1      42.640  30.911  36.798  1.00  0.00     0.029 A 
ATOM     48  N   UNL A   1      41.204  31.179  35.121  1.00  0.00    -0.354 N 
ATOM     49  N   UNL A   1      39.039  32.546  33.659  1.00  0.00    -0.248 NA
ATOM     50  C   UNL A   1      37.366  34.175  33.568  1.00  0.00     0.031 C 
ATOM     51  C   UNL A   1      41.792  31.982  37.107  1.00  0.00     0.029 A 
ATOM     52  C   UNL A   1      40.908  32.159  36.054  1.00  0.00     0.049 A 
ATOM     53  H   UNL A   1      40.733  31.055  34.265  1.00  0.00     0.167 HD
ATOM     54  C   UNL A   1      39.060  33.284  34.835  1.00  0.00     0.074 A 
ATOM     55  C   UNL A   1      38.019  34.287  34.717  1.00  0.00     0.031 C 
ATOM     56  C   UNL A   1      39.867  33.147  35.916  1.00  0.00     0.037 A 
BRANCH  43  57
ATOM     57  C   UNL A   1      43.936  28.507  35.486  1.00  0.00     0.058 A 
ATOM     58  C   UNL A   1      45.281  28.815  35.228  1.00  0.00     0.135 A 
ATOM     59  C   UNL A   1      43.662  27.455  36.375  1.00  0.00     0.135 A 
ATOM     60  F   UNL A   1      45.598  29.799  34.373  1.00  0.00    -0.206 F 
ATOM     61  C   UNL A   1      46.316  28.089  35.811  1.00  0.00     0.059 A 
ATOM     62  C   UNL A   1      44.682  26.730  36.985  1.00  0.00     0.059 A 
ATOM     63  F   UNL A   1      42.393  27.119  36.654  1.00  0.00    -0.206 F 
ATOM     64  C   UNL A   1      46.007  27.045  36.684  1.00  0.00     0.060 A 
BRANCH  64  65
ATOM     65  S   UNL A   1      47.358  26.104  37.426  1.00  0.00     0.124 S 
ATOM     66  O   UNL A   1      46.656  25.360  38.467  1.00  0.00    -0.237 OA
ATOM     67  O   UNL A   1      47.846  25.312  36.302  1.00  0.00    -0.237 OA
ATOM     68  O   UNL A   1      48.271  27.140  37.899  1.00  0.00    -0.744 OA
ENDBRANCH  64  65
ENDBRANCH  43  57
BRANCH  44  69
ATOM     69  C   UNL A   1      36.485  33.348  30.892  1.00  0.00     0.058 A 
ATOM     70  C   UNL A   1      35.174  33.218  31.370  1.00  0.00     0.135 A 
ATOM     71  C   UNL A   1      36.703  34.189  29.790  1.00  0.00     0.135 A 
ATOM     72  F   UNL A   1      34.918  32.419  32.416  1.00  0.00    -0.206 F 
ATOM     73  C   UNL A   1      34.115  33.899  30.780  1.00  0.00     0.059 A 
ATOM     74  C   UNL A   1      35.663  34.896  29.196  1.00  0.00     0.059 A 
ATOM     75  F   UNL A   1      37.943  34.354  29.304  1.00  0.00    -0.206 F 
ATOM     76  C   UNL A   1      34.371  34.740  29.695  1.00  0.00     0.060 A 
BRANCH  76  77
ATOM     77  S   UNL A   1      33.002  35.679  28.981  1.00  0.00     0.124 S 
ATOM     78  O   UNL A   1      32.357  34.669  28.150  1.00  0.00    -0.237 OA
ATOM     79  O   UNL A   1      32.261  36.098  30.167  1.00  0.00    -0.237 OA
ATOM     80  O   UNL A   1      33.677  36.755  28.261  1.00  0.00    -0.744 OA
ENDBRANCH  76  77
ENDBRANCH  44  69
BRANCH  56  81
ATOM     81  C   UNL A   1      39.669  34.117  37.044  1.00  0.00     0.058 A 
ATOM     82  C   UNL A   1      38.847  33.810  38.139  1.00  0.00     0.135 A 
ATOM     83  C   UNL A   1      40.344  35.348  37.049  1.00  0.00     0.135 A 
ATOM     84  F   UNL A   1      38.174  32.650  38.174  1.00  0.00    -0.206 F 
ATOM     85  C   UNL A   1      38.687  34.700  39.195  1.00  0.00     0.059 A 
ATOM     86  C   UNL A   1      40.214  36.244  38.104  1.00  0.00     0.059 A 
ATOM     87  F   UNL A   1      41.146  35.683  36.026  1.00  0.00    -0.206 F 
ATOM     88  C   UNL A   1      39.375  35.915  39.169  1.00  0.00     0.060 A 
BRANCH  88  89
ATOM     89  S   UNL A   1      39.190  37.050  40.562  1.00  0.00     0.124 S 
ATOM     90  O   UNL A   1      38.300  38.060  40.001  1.00  0.00    -0.237 OA
ATOM     91  O   UNL A   1      38.610  36.194  41.591  1.00  0.00    -0.237 OA
ATOM     92  O   UNL A   1      40.558  37.491  40.821  1.00  0.00    -0.744 OA
ENDBRANCH  88  89
ENDBRANCH  56  81
ENDBRANCH  30  31
ENDBRANCH  23  25
ENDBRANCH  22  23
ENDBRANCH  21  22
ENDBRANCH   1  21
TORSDOF 18
ENDMDL
MODEL 2
REMARK VINA RESULT:     -11.1      6.754     12.096
REMARK SMILES C[C@@H](CC(=O)OCCOC(=O)c1ccc(-c2c3nc(c(-c4c(F)cc(S(=O)(=O)[O-])cc4F)c4ccc([nH]4)c(-c4c(F)cc(S(=O)(=O)[O-])cc4F)c4nc(c(-c5c(F)cc(S(=O)(=O)[O-])cc5F)c5ccc2[nH]5)C=C4)C=C3)cc1)Cc1nnc(C2C(C)(C)C2(C)C)o1
REMARK SMILES IDX 7 1 6 2 4 3 5 4 3 5 2 6 1 7 78 8 79 9 80 10 90 11 81 12
REMARK SMILES IDX 82 13 83 14 84 15 87 16 85 17 86 18 88 19 89 20 8 21 9 22
REMARK SMILES IDX 10 23 11 24 12 25 13 26 77 27 14 28 76 29 15 30 16 31 17 32
REMARK SMILES IDX 70 33 18 34 75 35 69 36 71 37 19 38 74 39 68 40 67 41 20 43
REMARK SMILES IDX 54 44 33 45 53 46 34 47 37 48 52 49 72 50 35 51 36 52 51 54
REMARK SMILES IDX 73 55 38 56 21 57 22 58 31 59 23 60 24 61 30 62 32 63 25 64
REMARK SMILES IDX 26 65 27 66 28 67 29 68 55 69 56 70 65 71 57 72 58 73 64 74
REMARK SMILES IDX 66 75 59 76 60 77 61 78 62 79 63 80 39 81 40 82 49 83 41 84
REMARK SMILES IDX 42 85 48 86 50 87 43 88 44 89 45 90 46 91 47 92
REMARK H PARENT 71 42 37 53
REMARK Flexibility Score: inf
ROOT
ATOM      1  C   UNL A   1      33.969  29.112  26.298  1.00  0.00     0.274 C 
ENDROOT
BRANCH   1   2
ATOM      2  O   UNL A   1      32.972  29.658  25.410  1.00  0.00    -0.462 OA
BRANCH   2   3
ATOM      3  C   UNL A   1      31.802  28.983  25.350  1.00  0.00     0.306 C 
ATOM      4  O   UNL A   1      31.519  28.013  26.043  1.00  0.00    -0.252 OA
BRANCH   3   5
ATOM      5  C   UNL A   1      30.847  29.496  24.293  1.00  0.00     0.126 C 
BRANCH   5   6
ATOM      6  C   UNL A   1      30.848  28.908  22.873  1.00  0.00     0.006 C 
ATOM      7  C   UNL A   1      30.001  29.734  21.897  1.00  0.00     0.009 C 
BRANCH   6   8
ATOM      8  C   UNL A   1      30.514  27.396  22.834  1.00  0.00     0.103 C 
BRANCH   8   9
ATOM      9  C   UNL A   1      31.689  26.606  22.372  1.00  0.00     0.216 A 
ATOM     10  N   UNL A   1      32.840  27.040  21.908  1.00  0.00    -0.113 NA
ATOM     11  O   UNL A   1      31.714  25.273  22.688  1.00  0.00    -0.425 OA
ATOM     12  N   UNL A   1      33.717  25.984  22.012  1.00  0.00    -0.113 NA
ATOM     13  C   UNL A   1      33.040  24.966  22.508  1.00  0.00     0.220 A 
BRANCH  13  14
ATOM     14  C   UNL A   1      33.751  23.759  23.104  1.00  0.00     0.090 C 
ATOM     15  C   UNL A   1      34.458  23.935  24.459  1.00  0.00    -0.017 C 
ATOM     16  C   UNL A   1      33.364  22.882  24.281  1.00  0.00    -0.017 C 
ATOM     17  C   UNL A   1      35.930  23.587  24.447  1.00  0.00     0.012 C 
ATOM     18  C   UNL A   1      34.163  25.053  25.441  1.00  0.00     0.012 C 
ATOM     19  C   UNL A   1      31.994  23.041  24.900  1.00  0.00     0.012 C 
ATOM     20  C   UNL A   1      33.805  21.428  24.256  1.00  0.00     0.012 C 
ENDBRANCH  13  14
ENDBRANCH   8   9
ENDBRANCH   6   8
ENDBRANCH   5   6
ENDBRANCH   3   5
ENDBRANCH   2   3
ENDBRANCH   1   2
BRANCH   1  21
ATOM     21  C   UNL A   1      34.382  30.142  27.344  1.00  0.00     0.275 C 
BRANCH  21  22
ATOM     22  O   UNL A   1      35.209  29.518  28.339  1.00  0.00    -0.458 OA
BRANCH  22  23
ATOM     23  C   UNL A   1      36.014  30.351  29.036  1.00  0.00     0.338 C 
ATOM     24  O   UNL A   1      35.694  31.350  29.655  1.00  0.00    -0.246 OA
BRANCH  23  25
ATOM     25  C   UNL A   1      37.400  29.881  28.933  1.00  0.00     0.060 A 
ATOM     26  C   UNL A   1      38.166  29.669  30.082  1.00  0.00     0.016 A 
ATOM     27  C   UNL A   1      37.959  29.724  27.664  1.00  0.00     0.016 A 
ATOM     28  C   UNL A   1      39.509  29.316  29.963  1.00  0.00     0.010 A 
ATOM     29  C   UNL A   1      39.288  29.320  27.549  1.00  0.00     0.010 A 
ATOM     30  C   UNL A   1      40.077  29.124  28.696  1.00  0.00    -0.014 A 
BRANCH  30  31
ATOM     31  C   UNL A   1      41.490  28.703  28.541  1.00  0.00     0.031 A 
ATOM     32  C   UNL A   1      42.589  29.724  28.606  1.00  0.00     0.074 A 
ATOM     33  C   UNL A   1      41.773  27.413  28.283  1.00  0.00     0.049 A 
ATOM     34  N   UNL A   1      43.855  29.595  28.307  1.00  0.00    -0.248 NA
ATOM     35  C   UNL A   1      42.212  31.072  29.061  1.00  0.00     0.031 C 
ATOM     36  C   UNL A   1      40.791  26.327  28.226  1.00  0.00     0.029 A 
ATOM     37  N   UNL A   1      42.965  26.800  27.997  1.00  0.00    -0.354 N 
ATOM     38  C   UNL A   1      44.423  30.846  28.508  1.00  0.00     0.074 A 
ATOM     39  C   UNL A   1      43.360  31.726  28.948  1.00  0.00     0.031 C 
ATOM     40  C   UNL A   1      41.421  25.182  27.920  1.00  0.00     0.029 A 
ATOM     41  C   UNL A   1      42.837  25.463  27.701  1.00  0.00     0.049 A 
ATOM     42  H   UNL A   1      43.830  27.270  28.005  1.00  0.00     0.167 HD
ATOM     43  C   UNL A   1      45.712  31.225  28.339  1.00  0.00     0.037 A 
ATOM     44  C   UNL A   1      43.747  24.575  27.261  1.00  0.00     0.037 A 
ATOM     45  C   UNL A   1      46.762  30.338  27.907  1.00  0.00     0.049 A 
ATOM     46  C   UNL A   1      45.159  25.030  27.023  1.00  0.00     0.074 A 
ATOM     47  C   UNL A   1      48.104  30.618  27.715  1.00  0.00     0.029 A 
ATOM     48  N   UNL A   1      46.588  28.995  27.605  1.00  0.00    -0.354 N 
ATOM     49  N   UNL A   1      45.678  26.221  27.195  1.00  0.00    -0.248 NA
ATOM     50  C   UNL A   1      46.103  24.026  26.516  1.00  0.00     0.031 C 
ATOM     51  C   UNL A   1      48.735  29.452  27.264  1.00  0.00     0.029 A 
ATOM     52  C   UNL A   1      47.793  28.437  27.210  1.00  0.00     0.049 A 
ATOM     53  H   UNL A   1      45.733  28.510  27.661  1.00  0.00     0.167 HD
ATOM     54  C   UNL A   1      47.014  26.109  26.831  1.00  0.00     0.074 A 
ATOM     55  C   UNL A   1      47.225  24.730  26.438  1.00  0.00     0.031 C 
ATOM     56  C   UNL A   1      47.980  27.061  26.823  1.00  0.00     0.037 A 
BRANCH  43  57
ATOM     57  C   UNL A   1      46.051  32.666  28.594  1.00  0.00     0.058 A 
ATOM     58  C   UNL A   1      45.839  33.656  27.622  1.00  0.00     0.135 A 
ATOM     59  C   UNL A   1      46.580  33.065  29.832  1.00  0.00     0.135 A 
ATOM     60  F   UNL A   1      45.352  33.326  26.416  1.00  0.00    -0.206 F 
ATOM     61  C   UNL A   1      46.163  34.988  27.860  1.00  0.00     0.059 A 
ATOM     62  C   UNL A   1      46.893  34.395  30.098  1.00  0.00     0.059 A 
ATOM     63  F   UNL A   1      46.804  32.157  30.796  1.00  0.00    -0.206 F 
ATOM     64  C   UNL A   1      46.695  35.347  29.099  1.00  0.00     0.060 A 
BRANCH  64  65
ATOM     65  S   UNL A   1      47.122  37.077  29.393  1.00  0.00     0.124 S 
ATOM     66  O   UNL A   1      47.522  37.044  30.796  1.00  0.00    -0.237 OA
ATOM     67  O   UNL A   1      48.197  37.304  28.433  1.00  0.00    -0.237 OA
ATOM     68  O   UNL A   1      45.877  37.786  29.110  1.00  0.00    -0.744 OA
ENDBRANCH  64  65
ENDBRANCH  43  57
BRANCH  44  69
ATOM     69  C   UNL A   1      43.336  23.173  26.995  1.00  0.00     0.058 A 
ATOM     70  C   UNL A   1      43.109  22.728  25.686  1.00  0.00     0.135 A 
ATOM     71  C   UNL A   1      43.201  22.244  28.038  1.00  0.00     0.135 A 
ATOM     72  F   UNL A   1      43.219  23.583  24.659  1.00  0.00    -0.206 F 
ATOM     73  C   UNL A   1      42.765  21.407  25.417  1.00  0.00     0.059 A 
ATOM     74  C   UNL A   1      42.877  20.914  27.792  1.00  0.00     0.059 A 
ATOM     75  F   UNL A   1      43.419  22.620  29.308  1.00  0.00    -0.206 F 
ATOM     76  C   UNL A   1      42.656  20.506  26.477  1.00  0.00     0.060 A 
BRANCH  76  77
ATOM     77  S   UNL A   1      42.281  18.776  26.113  1.00  0.00     0.124 S 
ATOM     78  O   UNL A   1      42.623  18.132  27.376  1.00  0.00    -0.237 OA
ATOM     79  O   UNL A   1      40.859  18.829  25.787  1.00  0.00    -0.237 OA
ATOM     80  O   UNL A   1      43.163  18.474  24.989  1.00  0.00    -0.744 OA
ENDBRANCH  76  77
ENDBRANCH  44  69
BRANCH  56  81
ATOM     81  C   UNL A   1      49.354  26.636  26.396  1.00  0.00     0.058 A 
ATOM     82  C   UNL A   1      50.238  26.011  27.288  1.00  0.00     0.135 A 
ATOM     83  C   UNL A   1      49.775  26.819  25.069  1.00  0.00     0.135 A 
ATOM     84  F   UNL A   1      49.885  25.823  28.569  1.00  0.00    -0.206 F 
ATOM     85  C   UNL A   1      51.502  25.594  26.883  1.00  0.00     0.059 A 
ATOM     86  C   UNL A   1      51.026  26.393  24.638  1.00  0.00     0.059 A 
ATOM     87  F   UNL A   1      48.962  27.408  24.178  1.00  0.00    -0.206 F 
ATOM     88  C   UNL A   1      51.887  25.791  25.555  1.00  0.00     0.060 A 
BRANCH  88  89
ATOM     89  S   UNL A   1      53.515  25.215  25.027  1.00  0.00     0.124 S 
ATOM     90  O   UNL A   1      54.393  25.948  25.933  1.00  0.00    -0.237 OA
ATOM     91  O   UNL A   1      53.429  23.776  25.254  1.00  0.00    -0.237 OA
ATOM     92  O   UNL A   1      53.578  25.619  23.625  1.00  0.00    -0.744 OA
ENDBRANCH  88  89
ENDBRANCH  56  81
ENDBRANCH  30  31
ENDBRANCH  23  25
ENDBRANCH  22  23
ENDBRANCH  21  22
ENDBRANCH   1  21
TORSDOF 18
ENDMDL
MODEL 3
REMARK VINA RESULT:     -11.1      5.554     10.992
REMARK SMILES C[C@@H](CC(=O)OCCOC(=O)c1ccc(-c2c3nc(c(-c4c(F)cc(S(=O)(=O)[O-])cc4F)c4ccc([nH]4)c(-c4c(F)cc(S(=O)(=O)[O-])cc4F)c4nc(c(-c5c(F)cc(S(=O)(=O)[O-])cc5F)c5ccc2[nH]5)C=C4)C=C3)cc1)Cc1nnc(C2C(C)(C)C2(C)C)o1
REMARK SMILES IDX 7 1 6 2 4 3 5 4 3 5 2 6 1 7 78 8 79 9 80 10 90 11 81 12
REMARK SMILES IDX 82 13 83 14 84 15 87 16 85 17 86 18 88 19 89 20 8 21 9 22
REMARK SMILES IDX 10 23 11 24 12 25 13 26 77 27 14 28 76 29 15 30 16 31 17 32
REMARK SMILES IDX 70 33 18 34 75 35 69 36 71 37 19 38 74 39 68 40 67 41 20 43
REMARK SMILES IDX 54 44 33 45 53 46 34 47 37 48 52 49 72 50 35 51 36 52 51 54
REMARK SMILES IDX 73 55 38 56 21 57 22 58 31 59 23 60 24 61 30 62 32 63 25 64
REMARK SMILES IDX 26 65 27 66 28 67 29 68 55 69 56 70 65 71 57 72 58 73 64 74
REMARK SMILES IDX 66 75 59 76 60 77 61 78 62 79 63 80 39 81 40 82 49 83 41 84
REMARK SMILES IDX 42 85 48 86 50 87 43 88 44 89 45 90 46 91 47 92
REMARK H PARENT 71 42 37 53
REMARK Flexibility Score: inf
ROOT
ATOM      1  C   UNL A   1      32.073  28.171  27.810  1.00  0.00     0.274 C 
ENDROOT
BRANCH   1   2
ATOM      2  O   UNL A   1      31.009  27.715  26.950  1.00  0.00    -0.462 OA
BRANCH   2   3
ATOM      3  C   UNL A   1      31.335  26.735  26.076  1.00  0.00     0.306 C 
ATOM      4  O   UNL A   1      31.604  25.582  26.389  1.00  0.00    -0.252 OA
BRANCH   3   5
ATOM      5  C   UNL A   1      31.396  27.189  24.633  1.00  0.00     0.126 C 
BRANCH   5   6
ATOM      6  C   UNL A   1      32.738  27.287  23.890  1.00  0.00     0.006 C 
ATOM      7  C   UNL A   1      33.275  28.723  23.836  1.00  0.00     0.009 C 
BRANCH   6   8
ATOM      8  C   UNL A   1      32.725  26.593  22.506  1.00  0.00     0.103 C 
BRANCH   8   9
ATOM      9  C   UNL A   1      33.227  25.195  22.608  1.00  0.00     0.216 A 
ATOM     10  N   UNL A   1      33.280  24.270  21.675  1.00  0.00    -0.113 NA
ATOM     11  O   UNL A   1      33.965  24.872  23.717  1.00  0.00    -0.425 OA
ATOM     12  N   UNL A   1      34.175  23.326  22.123  1.00  0.00    -0.113 NA
ATOM     13  C   UNL A   1      34.593  23.720  23.311  1.00  0.00     0.220 A 
BRANCH  13  14
ATOM     14  C   UNL A   1      35.849  23.135  23.942  1.00  0.00     0.090 C 
ATOM     15  C   UNL A   1      35.962  23.158  25.476  1.00  0.00    -0.017 C 
ATOM     16  C   UNL A   1      36.043  21.840  24.707  1.00  0.00    -0.017 C 
ATOM     17  C   UNL A   1      37.190  23.867  26.003  1.00  0.00     0.012 C 
ATOM     18  C   UNL A   1      34.786  23.315  26.421  1.00  0.00     0.012 C 
ATOM     19  C   UNL A   1      34.921  20.826  24.737  1.00  0.00     0.012 C 
ATOM     20  C   UNL A   1      37.405  21.169  24.630  1.00  0.00     0.012 C 
ENDBRANCH  13  14
ENDBRANCH   8   9
ENDBRANCH   6   8
ENDBRANCH   5   6
ENDBRANCH   3   5
ENDBRANCH   2   3
ENDBRANCH   1   2
BRANCH   1  21
ATOM     21  C   UNL A   1      32.723  29.428  27.243  1.00  0.00     0.275 C 
BRANCH  21  22
ATOM     22  O   UNL A   1      34.152  29.323  27.345  1.00  0.00    -0.458 OA
BRANCH  22  23
ATOM     23  C   UNL A   1      34.755  30.263  28.107  1.00  0.00     0.338 C 
ATOM     24  O   UNL A   1      34.265  31.283  28.558  1.00  0.00    -0.246 OA
BRANCH  23  25
ATOM     25  C   UNL A   1      36.157  29.886  28.319  1.00  0.00     0.060 A 
ATOM     26  C   UNL A   1      36.602  29.483  29.581  1.00  0.00     0.016 A 
ATOM     27  C   UNL A   1      37.050  30.011  27.254  1.00  0.00     0.016 A 
ATOM     28  C   UNL A   1      37.955  29.221  29.786  1.00  0.00     0.010 A 
ATOM     29  C   UNL A   1      38.394  29.697  27.450  1.00  0.00     0.010 A 
ATOM     30  C   UNL A   1      38.860  29.312  28.719  1.00  0.00    -0.014 A 
BRANCH  30  31
ATOM     31  C   UNL A   1      40.296  28.994  28.899  1.00  0.00     0.031 A 
ATOM     32  C   UNL A   1      41.259  30.071  29.312  1.00  0.00     0.074 A 
ATOM     33  C   UNL A   1      40.739  27.750  28.632  1.00  0.00     0.049 A 
ATOM     34  N   UNL A   1      42.565  30.046  29.334  1.00  0.00    -0.248 NA
ATOM     35  C   UNL A   1      40.671  31.347  29.749  1.00  0.00     0.031 C 
ATOM     36  C   UNL A   1      39.894  26.616  28.252  1.00  0.00     0.029 A 
ATOM     37  N   UNL A   1      42.011  27.239  28.616  1.00  0.00    -0.354 N 
ATOM     38  C   UNL A   1      42.961  31.308  29.760  1.00  0.00     0.074 A 
ATOM     39  C   UNL A   1      41.754  32.078  29.976  1.00  0.00     0.031 C 
ATOM     40  C   UNL A   1      40.672  25.543  28.037  1.00  0.00     0.029 A 
ATOM     41  C   UNL A   1      42.069  25.929  28.205  1.00  0.00     0.049 A 
ATOM     42  H   UNL A   1      42.806  27.760  28.875  1.00  0.00     0.167 HD
ATOM     43  C   UNL A   1      44.217  31.778  29.950  1.00  0.00     0.037 A 
ATOM     44  C   UNL A   1      43.130  25.141  27.948  1.00  0.00     0.037 A 
ATOM     45  C   UNL A   1      45.410  30.999  29.738  1.00  0.00     0.049 A 
ATOM     46  C   UNL A   1      44.514  25.700  28.108  1.00  0.00     0.074 A 
ATOM     47  C   UNL A   1      46.731  31.377  29.912  1.00  0.00     0.029 A 
ATOM     48  N   UNL A   1      45.426  29.680  29.308  1.00  0.00    -0.354 N 
ATOM     49  N   UNL A   1      44.876  26.902  28.489  1.00  0.00    -0.248 NA
ATOM     50  C   UNL A   1      45.633  24.805  27.789  1.00  0.00     0.031 C 
ATOM     51  C   UNL A   1      47.546  30.296  29.555  1.00  0.00     0.029 A 
ATOM     52  C   UNL A   1      46.732  29.233  29.194  1.00  0.00     0.049 A 
ATOM     53  H   UNL A   1      44.627  29.140  29.111  1.00  0.00     0.167 HD
ATOM     54  C   UNL A   1      46.265  26.904  28.469  1.00  0.00     0.074 A 
ATOM     55  C   UNL A   1      46.678  25.580  28.047  1.00  0.00     0.031 C 
ATOM     56  C   UNL A   1      47.121  27.911  28.772  1.00  0.00     0.037 A 
BRANCH  43  57
ATOM     57  C   UNL A   1      44.364  33.209  30.382  1.00  0.00     0.058 A 
ATOM     58  C   UNL A   1      44.499  34.250  29.451  1.00  0.00     0.135 A 
ATOM     59  C   UNL A   1      44.352  33.547  31.745  1.00  0.00     0.135 A 
ATOM     60  F   UNL A   1      44.534  33.981  28.136  1.00  0.00    -0.206 F 
ATOM     61  C   UNL A   1      44.644  35.574  29.856  1.00  0.00     0.059 A 
ATOM     62  C   UNL A   1      44.475  34.866  32.172  1.00  0.00     0.059 A 
ATOM     63  F   UNL A   1      44.226  32.588  32.677  1.00  0.00    -0.206 F 
ATOM     64  C   UNL A   1      44.636  35.871  31.220  1.00  0.00     0.060 A 
BRANCH  64  65
ATOM     65  S   UNL A   1      44.835  37.590  31.735  1.00  0.00     0.124 S 
ATOM     66  O   UNL A   1      46.209  37.860  31.322  1.00  0.00    -0.237 OA
ATOM     67  O   UNL A   1      43.799  38.272  30.966  1.00  0.00    -0.237 OA
ATOM     68  O   UNL A   1      44.609  37.541  33.176  1.00  0.00    -0.744 OA
ENDBRANCH  64  65
ENDBRANCH  43  57
BRANCH  44  69
ATOM     69  C   UNL A   1      42.913  23.744  27.490  1.00  0.00     0.058 A 
ATOM     70  C   UNL A   1      42.682  22.715  28.412  1.00  0.00     0.135 A 
ATOM     71  C   UNL A   1      42.892  23.421  26.125  1.00  0.00     0.135 A 
ATOM     72  F   UNL A   1      42.701  22.977  29.728  1.00  0.00    -0.206 F 
ATOM     73  C   UNL A   1      42.435  21.410  27.998  1.00  0.00     0.059 A 
ATOM     74  C   UNL A   1      42.627  22.128  25.686  1.00  0.00     0.059 A 
ATOM     75  F   UNL A   1      43.096  24.375  25.204  1.00  0.00    -0.206 F 
ATOM     76  C   UNL A   1      42.405  21.128  26.632  1.00  0.00     0.060 A 
BRANCH  76  77
ATOM     77  S   UNL A   1      42.010  19.447  26.100  1.00  0.00     0.124 S 
ATOM     78  O   UNL A   1      42.303  18.683  27.307  1.00  0.00    -0.237 OA
ATOM     79  O   UNL A   1      40.599  19.558  25.741  1.00  0.00    -0.237 OA
ATOM     80  O   UNL A   1      42.919  19.230  24.978  1.00  0.00    -0.744 OA
ENDBRANCH  76  77
ENDBRANCH  44  69
BRANCH  56  81
ATOM     81  C   UNL A   1      48.589  27.610  28.679  1.00  0.00     0.058 A 
ATOM     82  C   UNL A   1      49.281  27.002  29.737  1.00  0.00     0.135 A 
ATOM     83  C   UNL A   1      49.300  27.897  27.503  1.00  0.00     0.135 A 
ATOM     84  F   UNL A   1      48.646  26.719  30.885  1.00  0.00    -0.206 F 
ATOM     85  C   UNL A   1      50.635  26.701  29.638  1.00  0.00     0.059 A 
ATOM     86  C   UNL A   1      50.649  27.587  27.375  1.00  0.00     0.059 A 
ATOM     87  F   UNL A   1      48.679  28.473  26.461  1.00  0.00    -0.206 F 
ATOM     88  C   UNL A   1      51.311  26.998  28.453  1.00  0.00     0.060 A 
BRANCH  88  89
ATOM     89  S   UNL A   1      53.060  26.571  28.319  1.00  0.00     0.124 S 
ATOM     90  O   UNL A   1      53.038  25.575  27.253  1.00  0.00    -0.237 OA
ATOM     91  O   UNL A   1      53.673  27.851  27.978  1.00  0.00    -0.237 OA
ATOM     92  O   UNL A   1      53.386  26.062  29.648  1.00  0.00    -0.744 OA
ENDBRANCH  88  89
ENDBRANCH  56  81
ENDBRANCH  30  31
ENDBRANCH  23  25
ENDBRANCH  22  23
ENDBRANCH  21  22
ENDBRANCH   1  21
TORSDOF 18
ENDMDL
