MODEL 1
REMARK VINA RESULT:     -12.7      0.000      0.000
REMARK SMILES CC1(C)[C@H](O)CC[C@@]2(C)[C@@H]1CC[C@@]1(C)Oc3oc(C(=O)OCCOC(=O)c4ccc(-c5c6nc(c(-c7c(F)cc(S(=O)(=O)[O-])cc7F)c7ccc([nH]7)c(-c7c(F)cc(S(=O)(=O)[O-])cc7F)c7nc(c(-c8c(F)cc(S(=O)(=O)[O-])cc8F)c8ccc5[nH]8)C=C7)C=C6)cc4)cc(=O)c3C[C@@H]21
REMARK SMILES IDX 23 1 22 2 21 3 19 4 20 5 18 6 1 7 2 8 4 9 10 10 3 11 6 12
REMARK SMILES IDX 8 13 11 14 7 15 98 16 9 17 12 18 13 19 97 20 15 21 14 22
REMARK SMILES IDX 96 23 16 24 94 25 17 26 93 27 95 28 5 29 24 31 25 32 26 33
REMARK SMILES IDX 27 34 28 35 92 36 29 37 91 38 30 39 31 40 32 41 85 42 33 43
REMARK SMILES IDX 90 44 84 45 86 46 34 47 89 48 83 49 82 50 35 52 69 53 48 54
REMARK SMILES IDX 68 55 49 56 52 57 67 58 87 59 50 60 51 61 66 63 88 64 53 65
REMARK SMILES IDX 36 66 37 67 46 68 38 69 39 70 45 71 47 72 40 73 41 74 42 75
REMARK SMILES IDX 43 76 44 77 70 78 71 79 80 80 72 81 73 82 79 83 81 84 74 85
REMARK SMILES IDX 75 86 76 87 77 88 78 89 54 90 55 91 64 92 56 93 57 94 63 95
REMARK SMILES IDX 65 96 58 97 59 98 60 99 61 100 62 101
REMARK H PARENT 5 30 86 51 52 62
REMARK Flexibility Score: inf
ROOT
ATOM      1  C   UNL A   1      35.285  31.970  31.388  1.00  0.00     0.275 C 
ENDROOT
BRANCH   1   2
ATOM      2  C   UNL A   1      34.991  33.181  30.502  1.00  0.00     0.275 C 
BRANCH   2   3
ATOM      3  O   UNL A   1      34.042  32.825  29.490  1.00  0.00    -0.456 OA
BRANCH   3   4
ATOM      4  C   UNL A   1      34.546  32.741  28.228  1.00  0.00     0.374 C 
ATOM      5  O   UNL A   1      35.107  33.641  27.614  1.00  0.00    -0.242 OA
BRANCH   4   6
ATOM      6  C   UNL A   1      34.188  31.440  27.643  1.00  0.00     0.219 A 
ATOM      7  C   UNL A   1      33.963  23.248  22.568  1.00  0.00     0.014 C 
ATOM      8  C   UNL A   1      33.676  23.676  24.036  1.00  0.00    -0.006 C 
ATOM      9  C   UNL A   1      35.131  24.406  24.450  1.00  0.00     0.120 C 
ATOM     10  C   UNL A   1      32.260  24.855  24.210  1.00  0.00     0.004 C 
ATOM     11  C   UNL A   1      33.588  22.347  24.828  1.00  0.00     0.014 C 
ATOM     12  C   UNL A   1      35.079  24.842  25.881  1.00  0.00     0.033 C 
ATOM     13  C   UNL A   1      33.083  26.063  24.570  1.00  0.00    -0.022 C 
ATOM     14  C   UNL A   1      31.028  25.044  25.250  1.00  0.00     0.009 C 
ATOM     15  C   UNL A   1      33.663  25.259  25.952  1.00  0.00     0.010 C 
ATOM     16  C   UNL A   1      32.800  27.483  25.052  1.00  0.00     0.044 C 
ATOM     17  C   UNL A   1      33.497  26.452  23.096  1.00  0.00     0.012 C 
ATOM     18  C   UNL A   1      30.773  26.531  26.027  1.00  0.00     0.049 C 
ATOM     19  C   UNL A   1      31.404  27.859  25.421  1.00  0.00     0.113 C 
ATOM     20  C   UNL A   1      33.787  27.694  26.168  1.00  0.00     0.055 C 
ATOM     21  O   UNL A   1      31.469  29.160  26.237  1.00  0.00    -0.458 OA
ATOM     22  C   UNL A   1      30.571  28.211  24.159  1.00  0.00     0.057 C 
ATOM     23  C   UNL A   1      33.831  29.012  26.657  1.00  0.00     0.081 A 
ATOM     24  C   UNL A   1      32.734  29.750  26.655  1.00  0.00     0.292 A 
ATOM     25  C   UNL A   1      35.094  29.299  27.340  1.00  0.00     0.192 A 
ATOM     26  O   UNL A   1      32.890  31.056  27.187  1.00  0.00    -0.418 OA
ATOM     27  C   UNL A   1      35.248  30.641  27.786  1.00  0.00     0.107 A 
ATOM     28  O   UNL A   1      35.962  28.463  27.560  1.00  0.00    -0.289 OA
BRANCH   9  29
ATOM     29  O   UNL A   1      36.319  23.666  24.237  1.00  0.00    -0.393 OA
ATOM     30  H   UNL A   1      36.630  23.303  25.080  1.00  0.00     0.210 HD
ENDBRANCH   9  29
ENDBRANCH   4   6
ENDBRANCH   3   4
ENDBRANCH   2   3
ENDBRANCH   1   2
BRANCH   1  31
ATOM     31  O   UNL A   1      36.696  31.677  31.425  1.00  0.00    -0.458 OA
BRANCH  31  32
ATOM     32  C   UNL A   1      37.021  30.402  31.087  1.00  0.00     0.338 C 
ATOM     33  O   UNL A   1      36.303  29.427  31.129  1.00  0.00    -0.246 OA
BRANCH  32  34
ATOM     34  C   UNL A   1      38.391  30.353  30.548  1.00  0.00     0.060 A 
ATOM     35  C   UNL A   1      38.600  30.419  29.171  1.00  0.00     0.016 A 
ATOM     36  C   UNL A   1      39.449  30.055  31.395  1.00  0.00     0.016 A 
ATOM     37  C   UNL A   1      39.811  30.067  28.610  1.00  0.00     0.010 A 
ATOM     38  C   UNL A   1      40.707  29.810  30.841  1.00  0.00     0.010 A 
ATOM     39  C   UNL A   1      40.880  29.779  29.446  1.00  0.00    -0.014 A 
BRANCH  39  40
ATOM     40  C   UNL A   1      42.171  29.409  28.841  1.00  0.00     0.031 A 
ATOM     41  C   UNL A   1      42.375  28.007  28.362  1.00  0.00     0.074 A 
ATOM     42  C   UNL A   1      43.127  30.346  28.704  1.00  0.00     0.049 A 
ATOM     43  N   UNL A   1      43.473  27.429  27.962  1.00  0.00    -0.248 NA
ATOM     44  C   UNL A   1      41.187  27.136  28.336  1.00  0.00     0.031 C 
ATOM     45  C   UNL A   1      42.982  31.764  29.047  1.00  0.00     0.029 A 
ATOM     46  N   UNL A   1      44.411  30.245  28.243  1.00  0.00    -0.354 N 
ATOM     47  C   UNL A   1      43.120  26.120  27.666  1.00  0.00     0.074 A 
ATOM     48  C   UNL A   1      41.710  25.980  27.953  1.00  0.00     0.031 C 
ATOM     49  C   UNL A   1      44.135  32.399  28.789  1.00  0.00     0.029 A 
ATOM     50  C   UNL A   1      45.117  31.421  28.335  1.00  0.00     0.049 A 
ATOM     51  H   UNL A   1      44.794  29.412  27.883  1.00  0.00     0.167 HD
ATOM     52  C   UNL A   1      43.914  25.132  27.195  1.00  0.00     0.037 A 
ATOM     53  C   UNL A   1      46.421  31.668  28.121  1.00  0.00     0.037 A 
ATOM     54  C   UNL A   1      45.312  25.310  26.903  1.00  0.00     0.049 A 
ATOM     55  C   UNL A   1      47.303  30.528  27.695  1.00  0.00     0.074 A 
ATOM     56  C   UNL A   1      46.216  24.378  26.429  1.00  0.00     0.029 A 
ATOM     57  N   UNL A   1      46.009  26.502  27.055  1.00  0.00    -0.354 N 
ATOM     58  N   UNL A   1      46.977  29.278  27.459  1.00  0.00    -0.248 NA
ATOM     59  C   UNL A   1      48.729  30.824  27.516  1.00  0.00     0.031 C 
ATOM     60  C   UNL A   1      47.470  24.991  26.347  1.00  0.00     0.029 A 
ATOM     61  C   UNL A   1      47.337  26.322  26.710  1.00  0.00     0.049 A 
ATOM     62  H   UNL A   1      45.615  27.350  27.364  1.00  0.00     0.167 HD
ATOM     63  C   UNL A   1      48.152  28.643  27.078  1.00  0.00     0.074 A 
ATOM     64  C   UNL A   1      49.194  29.652  27.103  1.00  0.00     0.031 C 
ATOM     65  C   UNL A   1      48.354  27.345  26.741  1.00  0.00     0.037 A 
BRANCH  52  66
ATOM     66  C   UNL A   1      43.303  23.775  26.994  1.00  0.00     0.058 A 
ATOM     67  C   UNL A   1      42.899  23.323  25.727  1.00  0.00     0.135 A 
ATOM     68  C   UNL A   1      43.163  22.894  28.078  1.00  0.00     0.135 A 
ATOM     69  F   UNL A   1      42.985  24.133  24.660  1.00  0.00    -0.206 F 
ATOM     70  C   UNL A   1      42.370  22.049  25.547  1.00  0.00     0.059 A 
ATOM     71  C   UNL A   1      42.663  21.606  27.916  1.00  0.00     0.059 A 
ATOM     72  F   UNL A   1      43.522  23.280  29.313  1.00  0.00    -0.206 F 
ATOM     73  C   UNL A   1      42.264  21.195  26.645  1.00  0.00     0.060 A 
BRANCH  73  74
ATOM     74  S   UNL A   1      41.604  19.536  26.383  1.00  0.00     0.124 S 
ATOM     75  O   UNL A   1      41.916  18.892  27.655  1.00  0.00    -0.237 OA
ATOM     76  O   UNL A   1      40.191  19.802  26.137  1.00  0.00    -0.237 OA
ATOM     77  O   UNL A   1      42.357  19.046  25.233  1.00  0.00    -0.744 OA
ENDBRANCH  73  74
ENDBRANCH  52  66
BRANCH  53  78
ATOM     78  C   UNL A   1      46.960  33.037  28.329  1.00  0.00     0.058 A 
ATOM     79  C   UNL A   1      47.505  33.412  29.565  1.00  0.00     0.135 A 
ATOM     80  C   UNL A   1      46.975  33.986  27.293  1.00  0.00     0.135 A 
ATOM     81  F   UNL A   1      47.510  32.543  30.587  1.00  0.00    -0.206 F 
ATOM     82  C   UNL A   1      48.036  34.680  29.771  1.00  0.00     0.059 A 
ATOM     83  C   UNL A   1      47.527  35.251  27.466  1.00  0.00     0.059 A 
ATOM     84  F   UNL A   1      46.478  33.673  26.086  1.00  0.00    -0.206 F 
ATOM     85  C   UNL A   1      48.049  35.592  28.713  1.00  0.00     0.060 A 
BRANCH  85  86
ATOM     86  S   UNL A   1      48.787  37.217  28.984  1.00  0.00     0.124 S 
ATOM     87  O   UNL A   1      47.655  37.970  29.510  1.00  0.00    -0.237 OA
ATOM     88  O   UNL A   1      49.850  36.912  29.936  1.00  0.00    -0.237 OA
ATOM     89  O   UNL A   1      49.240  37.607  27.653  1.00  0.00    -0.744 OA
ENDBRANCH  85  86
ENDBRANCH  53  78
BRANCH  65  90
ATOM     90  C   UNL A   1      49.748  26.945  26.346  1.00  0.00     0.058 A 
ATOM     91  C   UNL A   1      50.632  26.355  27.262  1.00  0.00     0.135 A 
ATOM     92  C   UNL A   1      50.179  27.090  25.017  1.00  0.00     0.135 A 
ATOM     93  F   UNL A   1      50.272  26.200  28.547  1.00  0.00    -0.206 F 
ATOM     94  C   UNL A   1      51.904  25.942  26.880  1.00  0.00     0.059 A 
ATOM     95  C   UNL A   1      51.433  26.653  24.605  1.00  0.00     0.059 A 
ATOM     96  F   UNL A   1      49.368  27.638  24.098  1.00  0.00    -0.206 F 
ATOM     97  C   UNL A   1      52.292  26.089  25.546  1.00  0.00     0.060 A 
BRANCH  97  98
ATOM     98  S   UNL A   1      53.931  25.511  25.061  1.00  0.00     0.124 S 
ATOM     99  O   UNL A   1      54.787  26.232  25.997  1.00  0.00    -0.237 OA
ATOM    100  O   UNL A   1      53.827  24.071  25.275  1.00  0.00    -0.237 OA
ATOM    101  O   UNL A   1      54.039  25.926  23.666  1.00  0.00    -0.744 OA
ENDBRANCH  97  98
ENDBRANCH  65  90
ENDBRANCH  39  40
ENDBRANCH  32  34
ENDBRANCH  31  32
ENDBRANCH   1  31
TORSDOF 15
ENDMDL
MODEL 2
REMARK VINA RESULT:     -12.7      6.160     11.950
REMARK SMILES CC1(C)[C@H](O)CC[C@@]2(C)[C@@H]1CC[C@@]1(C)Oc3oc(C(=O)OCCOC(=O)c4ccc(-c5c6nc(c(-c7c(F)cc(S(=O)(=O)[O-])cc7F)c7ccc([nH]7)c(-c7c(F)cc(S(=O)(=O)[O-])cc7F)c7nc(c(-c8c(F)cc(S(=O)(=O)[O-])cc8F)c8ccc5[nH]8)C=C7)C=C6)cc4)cc(=O)c3C[C@@H]21
REMARK SMILES IDX 23 1 22 2 21 3 19 4 20 5 18 6 1 7 2 8 4 9 10 10 3 11 6 12
REMARK SMILES IDX 8 13 11 14 7 15 98 16 9 17 12 18 13 19 97 20 15 21 14 22
REMARK SMILES IDX 96 23 16 24 94 25 17 26 93 27 95 28 5 29 24 31 25 32 26 33
REMARK SMILES IDX 27 34 28 35 92 36 29 37 91 38 30 39 31 40 32 41 85 42 33 43
REMARK SMILES IDX 90 44 84 45 86 46 34 47 89 48 83 49 82 50 35 52 69 53 48 54
REMARK SMILES IDX 68 55 49 56 52 57 67 58 87 59 50 60 51 61 66 63 88 64 53 65
REMARK SMILES IDX 36 66 37 67 46 68 38 69 39 70 45 71 47 72 40 73 41 74 42 75
REMARK SMILES IDX 43 76 44 77 70 78 71 79 80 80 72 81 73 82 79 83 81 84 74 85
REMARK SMILES IDX 75 86 76 87 77 88 78 89 54 90 55 91 64 92 56 93 57 94 63 95
REMARK SMILES IDX 65 96 58 97 59 98 60 99 61 100 62 101
REMARK H PARENT 5 30 86 51 52 62
REMARK Flexibility Score: inf
ROOT
ATOM      1  C   UNL A   1      42.870  23.609  25.272  1.00  0.00     0.275 C 
ENDROOT
BRANCH   1   2
ATOM      2  C   UNL A   1      42.682  22.346  26.112  1.00  0.00     0.275 C 
BRANCH   2   3
ATOM      3  O   UNL A   1      41.510  21.643  25.681  1.00  0.00    -0.456 OA
BRANCH   3   4
ATOM      4  C   UNL A   1      40.601  21.381  26.660  1.00  0.00     0.374 C 
ATOM      5  O   UNL A   1      40.792  20.693  27.656  1.00  0.00    -0.242 OA
BRANCH   4   6
ATOM      6  C   UNL A   1      39.293  21.929  26.273  1.00  0.00     0.219 A 
ATOM      7  C   UNL A   1      30.632  26.159  26.138  1.00  0.00     0.014 C 
ATOM      8  C   UNL A   1      31.897  26.144  25.233  1.00  0.00    -0.006 C 
ATOM      9  C   UNL A   1      33.083  26.618  26.324  1.00  0.00     0.120 C 
ATOM     10  C   UNL A   1      32.279  24.487  24.504  1.00  0.00     0.004 C 
ATOM     11  C   UNL A   1      31.690  27.318  24.242  1.00  0.00     0.014 C 
ATOM     12  C   UNL A   1      34.396  26.727  25.616  1.00  0.00     0.033 C 
ATOM     13  C   UNL A   1      33.508  24.213  25.330  1.00  0.00    -0.022 C 
ATOM     14  C   UNL A   1      32.791  23.941  23.064  1.00  0.00     0.009 C 
ATOM     15  C   UNL A   1      34.256  25.594  24.678  1.00  0.00     0.010 C 
ATOM     16  C   UNL A   1      34.611  23.159  25.346  1.00  0.00     0.044 C 
ATOM     17  C   UNL A   1      32.753  23.704  26.622  1.00  0.00     0.012 C 
ATOM     18  C   UNL A   1      34.164  22.949  22.953  1.00  0.00     0.049 C 
ATOM     19  C   UNL A   1      34.677  22.162  24.236  1.00  0.00     0.113 C 
ATOM     20  C   UNL A   1      35.876  23.956  25.505  1.00  0.00     0.055 C 
ATOM     21  O   UNL A   1      36.069  21.512  24.274  1.00  0.00    -0.458 OA
ATOM     22  C   UNL A   1      33.676  20.999  24.473  1.00  0.00     0.057 C 
ATOM     23  C   UNL A   1      37.027  23.175  25.721  1.00  0.00     0.081 A 
ATOM     24  C   UNL A   1      37.117  21.974  25.174  1.00  0.00     0.292 A 
ATOM     25  C   UNL A   1      38.096  23.943  26.360  1.00  0.00     0.192 A 
ATOM     26  O   UNL A   1      38.326  21.284  25.443  1.00  0.00    -0.418 OA
ATOM     27  C   UNL A   1      39.261  23.197  26.691  1.00  0.00     0.107 A 
ATOM     28  O   UNL A   1      38.041  25.147  26.579  1.00  0.00    -0.289 OA
BRANCH   9  29
ATOM     29  O   UNL A   1      32.857  27.806  27.062  1.00  0.00    -0.393 OA
ATOM     30  H   UNL A   1      33.232  28.561  26.583  1.00  0.00     0.210 HD
ENDBRANCH   9  29
ENDBRANCH   4   6
ENDBRANCH   3   4
ENDBRANCH   2   3
ENDBRANCH   1   2
BRANCH   1  31
ATOM     31  O   UNL A   1      43.150  24.755  26.102  1.00  0.00    -0.458 OA
BRANCH  31  32
ATOM     32  C   UNL A   1      42.170  25.695  26.122  1.00  0.00     0.338 C 
ATOM     33  O   UNL A   1      41.384  25.954  25.236  1.00  0.00    -0.246 OA
BRANCH  32  34
ATOM     34  C   UNL A   1      42.109  26.337  27.446  1.00  0.00     0.060 A 
ATOM     35  C   UNL A   1      41.185  25.896  28.392  1.00  0.00     0.016 A 
ATOM     36  C   UNL A   1      42.839  27.494  27.679  1.00  0.00     0.016 A 
ATOM     37  C   UNL A   1      40.879  26.652  29.506  1.00  0.00     0.010 A 
ATOM     38  C   UNL A   1      42.617  28.205  28.860  1.00  0.00     0.010 A 
ATOM     39  C   UNL A   1      41.610  27.804  29.757  1.00  0.00    -0.014 A 
BRANCH  39  40
ATOM     40  C   UNL A   1      41.281  28.604  30.949  1.00  0.00     0.031 A 
ATOM     41  C   UNL A   1      40.141  29.569  30.886  1.00  0.00     0.074 A 
ATOM     42  C   UNL A   1      41.994  28.427  32.077  1.00  0.00     0.049 A 
ATOM     43  N   UNL A   1      39.792  30.483  31.749  1.00  0.00    -0.248 NA
ATOM     44  C   UNL A   1      39.282  29.504  29.691  1.00  0.00     0.031 C 
ATOM     45  C   UNL A   1      43.057  27.435  32.264  1.00  0.00     0.029 A 
ATOM     46  N   UNL A   1      41.933  29.079  33.279  1.00  0.00    -0.354 N 
ATOM     47  C   UNL A   1      38.695  31.124  31.191  1.00  0.00     0.074 A 
ATOM     48  C   UNL A   1      38.447  30.510  29.905  1.00  0.00     0.031 C 
ATOM     49  C   UNL A   1      43.551  27.549  33.506  1.00  0.00     0.029 A 
ATOM     50  C   UNL A   1      42.891  28.666  34.172  1.00  0.00     0.049 A 
ATOM     51  H   UNL A   1      41.268  29.777  33.483  1.00  0.00     0.167 HD
ATOM     52  C   UNL A   1      37.966  32.133  31.719  1.00  0.00     0.037 A 
ATOM     53  C   UNL A   1      43.230  29.167  35.373  1.00  0.00     0.037 A 
ATOM     54  C   UNL A   1      38.230  32.710  33.011  1.00  0.00     0.049 A 
ATOM     55  C   UNL A   1      42.469  30.354  35.891  1.00  0.00     0.074 A 
ATOM     56  C   UNL A   1      37.561  33.742  33.643  1.00  0.00     0.029 A 
ATOM     57  N   UNL A   1      39.242  32.302  33.870  1.00  0.00    -0.354 N 
ATOM     58  N   UNL A   1      41.459  30.989  35.342  1.00  0.00    -0.248 NA
ATOM     59  C   UNL A   1      42.896  30.903  37.185  1.00  0.00     0.031 C 
ATOM     60  C   UNL A   1      38.203  33.994  34.860  1.00  0.00     0.029 A 
ATOM     61  C   UNL A   1      39.233  33.080  35.015  1.00  0.00     0.049 A 
ATOM     62  H   UNL A   1      39.873  31.568  33.690  1.00  0.00     0.167 HD
ATOM     63  C   UNL A   1      41.112  31.996  36.234  1.00  0.00     0.074 A 
ATOM     64  C   UNL A   1      42.013  31.876  37.365  1.00  0.00     0.031 C 
ATOM     65  C   UNL A   1      40.140  32.937  36.129  1.00  0.00     0.037 A 
BRANCH  52  66
ATOM     66  C   UNL A   1      36.842  32.693  30.896  1.00  0.00     0.058 A 
ATOM     67  C   UNL A   1      35.500  32.372  31.155  1.00  0.00     0.135 A 
ATOM     68  C   UNL A   1      37.109  33.603  29.860  1.00  0.00     0.135 A 
ATOM     69  F   UNL A   1      35.188  31.488  32.117  1.00  0.00    -0.206 F 
ATOM     70  C   UNL A   1      34.464  32.928  30.411  1.00  0.00     0.059 A 
ATOM     71  C   UNL A   1      36.087  34.192  29.121  1.00  0.00     0.059 A 
ATOM     72  F   UNL A   1      38.374  33.934  29.561  1.00  0.00    -0.206 F 
ATOM     73  C   UNL A   1      34.767  33.843  29.402  1.00  0.00     0.060 A 
BRANCH  73  74
ATOM     74  S   UNL A   1      33.406  34.574  28.469  1.00  0.00     0.124 S 
ATOM     75  O   UNL A   1      32.540  35.054  29.542  1.00  0.00    -0.237 OA
ATOM     76  O   UNL A   1      34.084  35.607  27.693  1.00  0.00    -0.237 OA
ATOM     77  O   UNL A   1      32.880  33.454  27.696  1.00  0.00    -0.744 OA
ENDBRANCH  73  74
ENDBRANCH  52  66
BRANCH  53  78
ATOM     78  C   UNL A   1      44.347  28.559  36.141  1.00  0.00     0.058 A 
ATOM     79  C   UNL A   1      44.119  27.478  37.004  1.00  0.00     0.135 A 
ATOM     80  C   UNL A   1      45.667  29.020  36.006  1.00  0.00     0.135 A 
ATOM     81  F   UNL A   1      42.875  27.005  37.171  1.00  0.00    -0.206 F 
ATOM     82  C   UNL A   1      45.156  26.880  37.711  1.00  0.00     0.059 A 
ATOM     83  C   UNL A   1      46.726  28.420  36.680  1.00  0.00     0.059 A 
ATOM     84  F   UNL A   1      45.942  30.044  35.183  1.00  0.00    -0.206 F 
ATOM     85  C   UNL A   1      46.458  27.354  37.538  1.00  0.00     0.060 A 
BRANCH  85  86
ATOM     86  S   UNL A   1      47.799  26.535  38.427  1.00  0.00     0.124 S 
ATOM     87  O   UNL A   1      47.567  26.989  39.792  1.00  0.00    -0.237 OA
ATOM     88  O   UNL A   1      47.519  25.126  38.166  1.00  0.00    -0.237 OA
ATOM     89  O   UNL A   1      49.000  27.058  37.783  1.00  0.00    -0.744 OA
ENDBRANCH  85  86
ENDBRANCH  53  78
BRANCH  65  90
ATOM     90  C   UNL A   1      39.981  33.895  37.276  1.00  0.00     0.058 A 
ATOM     91  C   UNL A   1      40.640  35.133  37.298  1.00  0.00     0.135 A 
ATOM     92  C   UNL A   1      39.103  33.598  38.332  1.00  0.00     0.135 A 
ATOM     93  F   UNL A   1      41.496  35.462  36.316  1.00  0.00    -0.206 F 
ATOM     94  C   UNL A   1      40.452  36.036  38.338  1.00  0.00     0.059 A 
ATOM     95  C   UNL A   1      38.874  34.501  39.364  1.00  0.00     0.059 A 
ATOM     96  F   UNL A   1      38.438  32.432  38.353  1.00  0.00    -0.206 F 
ATOM     97  C   UNL A   1      39.560  35.713  39.364  1.00  0.00     0.060 A 
BRANCH  97  98
ATOM     98  S   UNL A   1      39.299  36.915  40.684  1.00  0.00     0.124 S 
ATOM     99  O   UNL A   1      38.457  37.904  40.021  1.00  0.00    -0.237 OA
ATOM    100  O   UNL A   1      38.644  36.109  41.710  1.00  0.00    -0.237 OA
ATOM    101  O   UNL A   1      40.650  37.360  41.012  1.00  0.00    -0.744 OA
ENDBRANCH  97  98
ENDBRANCH  65  90
ENDBRANCH  39  40
ENDBRANCH  32  34
ENDBRANCH  31  32
ENDBRANCH   1  31
TORSDOF 15
ENDMDL
MODEL 3
REMARK VINA RESULT:     -12.5      1.013      8.152
REMARK SMILES CC1(C)[C@H](O)CC[C@@]2(C)[C@@H]1CC[C@@]1(C)Oc3oc(C(=O)OCCOC(=O)c4ccc(-c5c6nc(c(-c7c(F)cc(S(=O)(=O)[O-])cc7F)c7ccc([nH]7)c(-c7c(F)cc(S(=O)(=O)[O-])cc7F)c7nc(c(-c8c(F)cc(S(=O)(=O)[O-])cc8F)c8ccc5[nH]8)C=C7)C=C6)cc4)cc(=O)c3C[C@@H]21
REMARK SMILES IDX 23 1 22 2 21 3 19 4 20 5 18 6 1 7 2 8 4 9 10 10 3 11 6 12
REMARK SMILES IDX 8 13 11 14 7 15 98 16 9 17 12 18 13 19 97 20 15 21 14 22
REMARK SMILES IDX 96 23 16 24 94 25 17 26 93 27 95 28 5 29 24 31 25 32 26 33
REMARK SMILES IDX 27 34 28 35 92 36 29 37 91 38 30 39 31 40 32 41 85 42 33 43
REMARK SMILES IDX 90 44 84 45 86 46 34 47 89 48 83 49 82 50 35 52 69 53 48 54
REMARK SMILES IDX 68 55 49 56 52 57 67 58 87 59 50 60 51 61 66 63 88 64 53 65
REMARK SMILES IDX 36 66 37 67 46 68 38 69 39 70 45 71 47 72 40 73 41 74 42 75
REMARK SMILES IDX 43 76 44 77 70 78 71 79 80 80 72 81 73 82 79 83 81 84 74 85
REMARK SMILES IDX 75 86 76 87 77 88 78 89 54 90 55 91 64 92 56 93 57 94 63 95
REMARK SMILES IDX 65 96 58 97 59 98 60 99 61 100 62 101
REMARK H PARENT 5 30 86 51 52 62
REMARK Flexibility Score: inf
ROOT
ATOM      1  C   UNL A   1      35.512  33.172  30.232  1.00  0.00     0.275 C 
ENDROOT
BRANCH   1   2
ATOM      2  C   UNL A   1      34.352  33.706  29.392  1.00  0.00     0.275 C 
BRANCH   2   3
ATOM      3  O   UNL A   1      34.272  32.984  28.157  1.00  0.00    -0.456 OA
BRANCH   3   4
ATOM      4  C   UNL A   1      33.034  32.938  27.593  1.00  0.00     0.374 C 
ATOM      5  O   UNL A   1      32.165  33.797  27.690  1.00  0.00    -0.242 OA
BRANCH   4   6
ATOM      6  C   UNL A   1      32.832  31.626  26.960  1.00  0.00     0.219 A 
ATOM      7  C   UNL A   1      33.946  23.207  22.401  1.00  0.00     0.014 C 
ATOM      8  C   UNL A   1      33.183  23.721  23.655  1.00  0.00    -0.006 C 
ATOM      9  C   UNL A   1      34.435  24.407  24.538  1.00  0.00     0.120 C 
ATOM     10  C   UNL A   1      31.868  24.966  23.275  1.00  0.00     0.004 C 
ATOM     11  C   UNL A   1      32.742  22.438  24.404  1.00  0.00     0.014 C 
ATOM     12  C   UNL A   1      33.905  24.916  25.842  1.00  0.00     0.033 C 
ATOM     13  C   UNL A   1      32.579  26.155  23.867  1.00  0.00    -0.022 C 
ATOM     14  C   UNL A   1      30.360  25.260  23.800  1.00  0.00     0.009 C 
ATOM     15  C   UNL A   1      32.583  25.396  25.389  1.00  0.00     0.010 C 
ATOM     16  C   UNL A   1      32.226  27.608  24.171  1.00  0.00     0.044 C 
ATOM     17  C   UNL A   1      33.511  26.450  22.626  1.00  0.00     0.012 C 
ATOM     18  C   UNL A   1      29.933  26.795  24.388  1.00  0.00     0.049 C 
ATOM     19  C   UNL A   1      30.814  28.062  24.005  1.00  0.00     0.113 C 
ATOM     20  C   UNL A   1      32.763  27.832  25.558  1.00  0.00     0.055 C 
ATOM     21  O   UNL A   1      30.661  29.398  24.750  1.00  0.00    -0.458 OA
ATOM     22  C   UNL A   1      30.505  28.386  22.518  1.00  0.00     0.057 C 
ATOM     23  C   UNL A   1      32.708  29.170  25.989  1.00  0.00     0.081 A 
ATOM     24  C   UNL A   1      31.727  29.953  25.572  1.00  0.00     0.292 A 
ATOM     25  C   UNL A   1      33.660  29.436  27.068  1.00  0.00     0.192 A 
ATOM     26  O   UNL A   1      31.760  31.276  26.084  1.00  0.00    -0.418 OA
ATOM     27  C   UNL A   1      33.724  30.791  27.497  1.00  0.00     0.107 A 
ATOM     28  O   UNL A   1      34.344  28.576  27.610  1.00  0.00    -0.289 OA
BRANCH   9  29
ATOM     29  O   UNL A   1      35.578  23.607  24.786  1.00  0.00    -0.393 OA
ATOM     30  H   UNL A   1      35.519  22.790  24.267  1.00  0.00     0.210 HD
ENDBRANCH   9  29
ENDBRANCH   4   6
ENDBRANCH   3   4
ENDBRANCH   2   3
ENDBRANCH   1   2
BRANCH   1  31
ATOM     31  O   UNL A   1      36.041  31.949  29.679  1.00  0.00    -0.458 OA
BRANCH  31  32
ATOM     32  C   UNL A   1      36.445  31.037  30.601  1.00  0.00     0.338 C 
ATOM     33  O   UNL A   1      35.883  30.739  31.633  1.00  0.00    -0.246 OA
BRANCH  32  34
ATOM     34  C   UNL A   1      37.661  30.348  30.135  1.00  0.00     0.060 A 
ATOM     35  C   UNL A   1      38.556  29.814  31.061  1.00  0.00     0.016 A 
ATOM     36  C   UNL A   1      38.003  30.399  28.792  1.00  0.00     0.016 A 
ATOM     37  C   UNL A   1      39.835  29.447  30.696  1.00  0.00     0.010 A 
ATOM     38  C   UNL A   1      39.254  29.922  28.397  1.00  0.00     0.010 A 
ATOM     39  C   UNL A   1      40.186  29.480  29.354  1.00  0.00    -0.014 A 
BRANCH  39  40
ATOM     40  C   UNL A   1      41.551  29.083  28.969  1.00  0.00     0.031 A 
ATOM     41  C   UNL A   1      42.637  30.111  28.978  1.00  0.00     0.074 A 
ATOM     42  C   UNL A   1      41.798  27.800  28.649  1.00  0.00     0.049 A 
ATOM     43  N   UNL A   1      43.854  30.021  28.518  1.00  0.00    -0.248 NA
ATOM     44  C   UNL A   1      42.310  31.417  29.577  1.00  0.00     0.031 C 
ATOM     45  C   UNL A   1      40.824  26.706  28.712  1.00  0.00     0.029 A 
ATOM     46  N   UNL A   1      42.944  27.199  28.203  1.00  0.00    -0.354 N 
ATOM     47  C   UNL A   1      44.430  31.264  28.741  1.00  0.00     0.074 A 
ATOM     48  C   UNL A   1      43.424  32.099  29.358  1.00  0.00     0.031 C 
ATOM     49  C   UNL A   1      41.414  25.569  28.314  1.00  0.00     0.029 A 
ATOM     50  C   UNL A   1      42.779  25.870  27.900  1.00  0.00     0.049 A 
ATOM     51  H   UNL A   1      43.802  27.674  28.107  1.00  0.00     0.167 HD
ATOM     52  C   UNL A   1      45.691  31.658  28.453  1.00  0.00     0.037 A 
ATOM     53  C   UNL A   1      43.623  25.004  27.309  1.00  0.00     0.037 A 
ATOM     54  C   UNL A   1      46.675  30.794  27.854  1.00  0.00     0.049 A 
ATOM     55  C   UNL A   1      44.984  25.497  26.907  1.00  0.00     0.074 A 
ATOM     56  C   UNL A   1      47.981  31.089  27.510  1.00  0.00     0.029 A 
ATOM     57  N   UNL A   1      46.460  29.465  27.512  1.00  0.00    -0.354 N 
ATOM     58  N   UNL A   1      45.513  26.687  27.078  1.00  0.00    -0.248 NA
ATOM     59  C   UNL A   1      45.861  24.538  26.223  1.00  0.00     0.031 C 
ATOM     60  C   UNL A   1      48.538  29.955  26.911  1.00  0.00     0.029 A 
ATOM     61  C   UNL A   1      47.601  28.934  26.936  1.00  0.00     0.049 A 
ATOM     62  H   UNL A   1      45.619  28.974  27.657  1.00  0.00     0.167 HD
ATOM     63  C   UNL A   1      46.794  26.613  26.546  1.00  0.00     0.074 A 
ATOM     64  C   UNL A   1      46.964  25.257  26.060  1.00  0.00     0.031 C 
ATOM     65  C   UNL A   1      47.744  27.578  26.463  1.00  0.00     0.037 A 
BRANCH  52  66
ATOM     66  C   UNL A   1      46.069  33.080  28.753  1.00  0.00     0.058 A 
ATOM     67  C   UNL A   1      46.666  33.450  29.968  1.00  0.00     0.135 A 
ATOM     68  C   UNL A   1      45.873  34.082  27.789  1.00  0.00     0.135 A 
ATOM     69  F   UNL A   1      46.853  32.538  30.936  1.00  0.00    -0.206 F 
ATOM     70  C   UNL A   1      47.048  34.764  30.219  1.00  0.00     0.059 A 
ATOM     71  C   UNL A   1      46.272  35.397  28.008  1.00  0.00     0.059 A 
ATOM     72  F   UNL A   1      45.294  33.786  26.614  1.00  0.00    -0.206 F 
ATOM     73  C   UNL A   1      46.854  35.729  29.230  1.00  0.00     0.060 A 
BRANCH  73  74
ATOM     74  S   UNL A   1      47.383  37.421  29.565  1.00  0.00     0.124 S 
ATOM     75  O   UNL A   1      48.281  37.228  30.701  1.00  0.00    -0.237 OA
ATOM     76  O   UNL A   1      48.024  37.798  28.310  1.00  0.00    -0.237 OA
ATOM     77  O   UNL A   1      46.137  38.117  29.866  1.00  0.00    -0.744 OA
ENDBRANCH  73  74
ENDBRANCH  52  66
BRANCH  53  78
ATOM     78  C   UNL A   1      43.189  23.607  27.050  1.00  0.00     0.058 A 
ATOM     79  C   UNL A   1      42.883  23.180  25.751  1.00  0.00     0.135 A 
ATOM     80  C   UNL A   1      43.105  22.660  28.085  1.00  0.00     0.135 A 
ATOM     81  F   UNL A   1      42.945  24.048  24.729  1.00  0.00    -0.206 F 
ATOM     82  C   UNL A   1      42.500  21.871  25.486  1.00  0.00     0.059 A 
ATOM     83  C   UNL A   1      42.752  21.337  27.842  1.00  0.00     0.059 A 
ATOM     84  F   UNL A   1      43.400  23.013  29.347  1.00  0.00    -0.206 F 
ATOM     85  C   UNL A   1      42.444  20.953  26.537  1.00  0.00     0.060 A 
BRANCH  85  86
ATOM     86  S   UNL A   1      41.992  19.245  26.168  1.00  0.00     0.124 S 
ATOM     87  O   UNL A   1      42.383  18.565  27.397  1.00  0.00    -0.237 OA
ATOM     88  O   UNL A   1      40.557  19.356  25.929  1.00  0.00    -0.237 OA
ATOM     89  O   UNL A   1      42.795  18.931  24.990  1.00  0.00    -0.744 OA
ENDBRANCH  85  86
ENDBRANCH  53  78
BRANCH  65  90
ATOM     90  C   UNL A   1      49.062  27.197  25.849  1.00  0.00     0.058 A 
ATOM     91  C   UNL A   1      49.301  27.338  24.474  1.00  0.00     0.135 A 
ATOM     92  C   UNL A   1      50.120  26.751  26.658  1.00  0.00     0.135 A 
ATOM     93  F   UNL A   1      48.320  27.754  23.655  1.00  0.00    -0.206 F 
ATOM     94  C   UNL A   1      50.537  27.030  23.917  1.00  0.00     0.059 A 
ATOM     95  C   UNL A   1      51.374  26.470  26.127  1.00  0.00     0.059 A 
ATOM     96  F   UNL A   1      49.948  26.610  27.981  1.00  0.00    -0.206 F 
ATOM     97  C   UNL A   1      51.570  26.603  24.755  1.00  0.00     0.060 A 
BRANCH  97  98
ATOM     98  S   UNL A   1      53.179  26.246  24.020  1.00  0.00     0.124 S 
ATOM     99  O   UNL A   1      52.888  26.376  22.596  1.00  0.00    -0.237 OA
ATOM    100  O   UNL A   1      54.020  27.291  24.594  1.00  0.00    -0.237 OA
ATOM    101  O   UNL A   1      53.471  24.891  24.479  1.00  0.00    -0.744 OA
ENDBRANCH  97  98
ENDBRANCH  65  90
ENDBRANCH  39  40
ENDBRANCH  32  34
ENDBRANCH  31  32
ENDBRANCH   1  31
TORSDOF 15
ENDMDL
