MODEL 1
REMARK VINA RESULT:     -12.0      0.000      0.000
REMARK SMILES O=C(OCCOC(=O)c1cccn1CC(=O)N1CC[C@H]2CCCC[C@H]2C1)c1ccc(-c2c3nc(c(-c4c(F)cc(S(=O)(=O)[O-])cc4F)c4ccc([nH]4)c(-c4c(F)cc(S(=O)(=O)[O-])cc4F)c4nc(c(-c5c(F)cc(S(=O)(=O)[O-])cc5F)c5ccc2[nH]5)C=C4)C=C3)cc1
REMARK SMILES IDX 4 1 3 2 2 3 1 4 27 5 28 6 92 7 29 8 91 9 30 10 31 11 32 12
REMARK SMILES IDX 85 13 33 14 90 15 84 16 86 17 34 18 89 19 83 20 82 21 35 23
REMARK SMILES IDX 69 24 48 25 68 26 49 27 52 28 67 29 87 30 50 31 51 32 66 34
REMARK SMILES IDX 88 35 53 36 36 37 37 38 46 39 38 40 39 41 45 42 47 43 40 44
REMARK SMILES IDX 41 45 42 46 43 47 44 48 70 49 71 50 80 51 72 52 73 53 79 54
REMARK SMILES IDX 81 55 74 56 75 57 76 58 77 59 78 60 54 61 55 62 64 63 56 64
REMARK SMILES IDX 57 65 63 66 65 67 58 68 59 69 60 70 61 71 62 72 5 73 6 74
REMARK SMILES IDX 7 75 8 76 9 77 10 78 13 79 11 80 12 81 14 82 15 83 16 84
REMARK SMILES IDX 17 85 18 86 26 87 19 88 25 89 20 90 24 91 21 92 23 93 22 94
REMARK H PARENT 86 22 52 33
REMARK Flexibility Score: inf
ROOT
ATOM      1  C   UNL A   1      37.974  21.738  25.547  1.00  0.00     0.275 C 
ENDROOT
BRANCH   1   2
ATOM      2  O   UNL A   1      39.248  21.042  25.871  1.00  0.00    -0.458 OA
BRANCH   2   3
ATOM      3  C   UNL A   1      40.093  21.795  26.619  1.00  0.00     0.338 C 
ATOM      4  O   UNL A   1      41.037  21.241  27.131  1.00  0.00    -0.246 OA
BRANCH   3   5
ATOM      5  C   UNL A   1      40.300  23.266  26.566  1.00  0.00     0.060 A 
ATOM      6  C   UNL A   1      41.439  23.859  26.096  1.00  0.00     0.016 A 
ATOM      7  C   UNL A   1      39.511  24.016  27.483  1.00  0.00     0.016 A 
ATOM      8  C   UNL A   1      41.856  25.059  26.720  1.00  0.00     0.010 A 
ATOM      9  C   UNL A   1      39.999  25.109  28.207  1.00  0.00     0.010 A 
ATOM     10  C   UNL A   1      41.242  25.622  27.891  1.00  0.00    -0.014 A 
BRANCH  10  11
ATOM     11  C   UNL A   1      41.606  27.033  28.315  1.00  0.00     0.031 A 
ATOM     12  C   UNL A   1      42.903  26.780  29.029  1.00  0.00     0.074 A 
ATOM     13  C   UNL A   1      40.804  28.154  28.334  1.00  0.00     0.049 A 
ATOM     14  N   UNL A   1      43.048  26.391  30.255  1.00  0.00    -0.248 NA
ATOM     15  C   UNL A   1      44.086  26.443  28.181  1.00  0.00     0.031 C 
ATOM     16  C   UNL A   1      39.941  28.655  27.253  1.00  0.00     0.029 A 
ATOM     17  N   UNL A   1      40.594  29.170  29.265  1.00  0.00    -0.354 N 
ATOM     18  C   UNL A   1      44.402  26.083  30.351  1.00  0.00     0.074 A 
ATOM     19  C   UNL A   1      44.824  25.724  29.033  1.00  0.00     0.031 C 
ATOM     20  C   UNL A   1      39.142  29.680  27.657  1.00  0.00     0.029 A 
ATOM     21  C   UNL A   1      39.436  30.009  29.040  1.00  0.00     0.049 A 
ATOM     22  H   UNL A   1      41.198  29.308  30.030  1.00  0.00     0.167 HD
ATOM     23  C   UNL A   1      45.187  26.605  31.331  1.00  0.00     0.037 A 
ATOM     24  C   UNL A   1      38.767  30.828  29.939  1.00  0.00     0.037 A 
ATOM     25  C   UNL A   1      44.415  27.530  32.108  1.00  0.00     0.049 A 
ATOM     26  C   UNL A   1      39.787  31.026  30.971  1.00  0.00     0.074 A 
ATOM     27  C   UNL A   1      43.311  27.333  32.898  1.00  0.00     0.029 A 
ATOM     28  N   UNL A   1      44.451  28.850  31.689  1.00  0.00    -0.354 N 
ATOM     29  N   UNL A   1      40.854  31.742  30.786  1.00  0.00    -0.248 NA
ATOM     30  C   UNL A   1      39.672  30.334  32.259  1.00  0.00     0.031 C 
ATOM     31  C   UNL A   1      42.477  28.410  32.548  1.00  0.00     0.029 A 
ATOM     32  C   UNL A   1      43.209  29.399  31.881  1.00  0.00     0.049 A 
ATOM     33  H   UNL A   1      45.236  29.315  31.317  1.00  0.00     0.167 HD
ATOM     34  C   UNL A   1      41.700  31.220  31.726  1.00  0.00     0.074 A 
ATOM     35  C   UNL A   1      40.846  30.693  32.778  1.00  0.00     0.031 C 
ATOM     36  C   UNL A   1      42.875  30.681  31.290  1.00  0.00     0.037 A 
BRANCH  23  37
ATOM     37  C   UNL A   1      46.668  26.665  31.432  1.00  0.00     0.058 A 
ATOM     38  C   UNL A   1      47.328  27.463  30.477  1.00  0.00     0.135 A 
ATOM     39  C   UNL A   1      47.465  25.819  32.217  1.00  0.00     0.135 A 
ATOM     40  F   UNL A   1      46.638  28.318  29.702  1.00  0.00    -0.206 F 
ATOM     41  C   UNL A   1      48.690  27.359  30.250  1.00  0.00     0.059 A 
ATOM     42  C   UNL A   1      48.839  25.740  32.043  1.00  0.00     0.059 A 
ATOM     43  F   UNL A   1      46.947  24.977  33.118  1.00  0.00    -0.206 F 
ATOM     44  C   UNL A   1      49.434  26.482  31.030  1.00  0.00     0.060 A 
BRANCH  44  45
ATOM     45  S   UNL A   1      51.188  26.313  30.688  1.00  0.00     0.124 S 
ATOM     46  O   UNL A   1      51.172  25.836  29.310  1.00  0.00    -0.237 OA
ATOM     47  O   UNL A   1      51.665  27.677  30.885  1.00  0.00    -0.237 OA
ATOM     48  O   UNL A   1      51.634  25.349  31.689  1.00  0.00    -0.744 OA
ENDBRANCH  44  45
ENDBRANCH  23  37
BRANCH  24  49
ATOM     49  C   UNL A   1      37.455  31.591  30.248  1.00  0.00     0.058 A 
ATOM     50  C   UNL A   1      36.297  31.107  30.874  1.00  0.00     0.135 A 
ATOM     51  C   UNL A   1      37.426  33.020  30.075  1.00  0.00     0.135 A 
ATOM     52  F   UNL A   1      36.116  29.787  31.028  1.00  0.00    -0.206 F 
ATOM     53  C   UNL A   1      35.280  31.971  31.389  1.00  0.00     0.059 A 
ATOM     54  C   UNL A   1      36.485  33.887  30.631  1.00  0.00     0.059 A 
ATOM     55  F   UNL A   1      38.358  33.668  29.363  1.00  0.00    -0.206 F 
ATOM     56  C   UNL A   1      35.413  33.362  31.313  1.00  0.00     0.060 A 
BRANCH  56  57
ATOM     57  S   UNL A   1      34.303  34.509  32.182  1.00  0.00     0.124 S 
ATOM     58  O   UNL A   1      33.474  35.024  31.098  1.00  0.00    -0.237 OA
ATOM     59  O   UNL A   1      33.630  33.639  33.142  1.00  0.00    -0.237 OA
ATOM     60  O   UNL A   1      35.222  35.477  32.780  1.00  0.00    -0.744 OA
ENDBRANCH  56  57
ENDBRANCH  24  49
BRANCH  36  61
ATOM     61  C   UNL A   1      43.403  31.295  29.987  1.00  0.00     0.058 A 
ATOM     62  C   UNL A   1      43.547  32.693  29.869  1.00  0.00     0.135 A 
ATOM     63  C   UNL A   1      43.639  30.572  28.805  1.00  0.00     0.135 A 
ATOM     64  F   UNL A   1      43.365  33.476  30.944  1.00  0.00    -0.206 F 
ATOM     65  C   UNL A   1      43.875  33.324  28.662  1.00  0.00     0.059 A 
ATOM     66  C   UNL A   1      43.959  31.177  27.578  1.00  0.00     0.059 A 
ATOM     67  F   UNL A   1      43.573  29.241  28.812  1.00  0.00    -0.206 F 
ATOM     68  C   UNL A   1      44.084  32.559  27.517  1.00  0.00     0.060 A 
BRANCH  68  69
ATOM     69  S   UNL A   1      44.561  33.392  25.982  1.00  0.00     0.124 S 
ATOM     70  O   UNL A   1      43.993  34.726  26.150  1.00  0.00    -0.237 OA
ATOM     71  O   UNL A   1      46.017  33.317  26.041  1.00  0.00    -0.237 OA
ATOM     72  O   UNL A   1      43.939  32.582  24.938  1.00  0.00    -0.744 OA
ENDBRANCH  68  69
ENDBRANCH  36  61
ENDBRANCH  10  11
ENDBRANCH   3   5
ENDBRANCH   2   3
ENDBRANCH   1   2
BRANCH   1  73
ATOM     73  C   UNL A   1      36.816  21.040  24.770  1.00  0.00     0.275 C 
BRANCH  73  74
ATOM     74  O   UNL A   1      35.675  20.638  25.556  1.00  0.00    -0.457 OA
BRANCH  74  75
ATOM     75  C   UNL A   1      34.692  21.577  25.783  1.00  0.00     0.355 C 
ATOM     76  O   UNL A   1      34.761  22.445  26.650  1.00  0.00    -0.244 OA
BRANCH  75  77
ATOM     77  C   UNL A   1      33.678  21.489  24.734  1.00  0.00     0.128 A 
ATOM     78  C   UNL A   1      32.999  20.317  24.376  1.00  0.00     0.035 A 
ATOM     79  N   UNL A   1      33.529  22.399  23.647  1.00  0.00    -0.333 N 
ATOM     80  C   UNL A   1      32.276  20.563  23.196  1.00  0.00     0.020 A 
ATOM     81  C   UNL A   1      32.498  21.889  22.857  1.00  0.00     0.087 A 
BRANCH  79  82
ATOM     82  C   UNL A   1      34.249  23.738  23.470  1.00  0.00     0.222 C 
BRANCH  82  83
ATOM     83  C   UNL A   1      33.634  25.208  23.106  1.00  0.00     0.242 C 
ATOM     84  O   UNL A   1      33.945  25.701  22.011  1.00  0.00    -0.273 OA
BRANCH  83  85
ATOM     85  N   UNL A   1      32.585  25.876  23.888  1.00  0.00    -0.341 N 
ATOM     86  C   UNL A   1      32.497  25.487  25.247  1.00  0.00     0.120 C 
ATOM     87  C   UNL A   1      32.320  27.355  23.778  1.00  0.00     0.123 C 
ATOM     88  C   UNL A   1      31.249  25.860  26.019  1.00  0.00     0.025 C 
ATOM     89  C   UNL A   1      31.273  28.029  24.794  1.00  0.00     0.012 C 
ATOM     90  C   UNL A   1      31.095  27.369  26.166  1.00  0.00    -0.005 C 
ATOM     91  C   UNL A   1      31.262  29.571  24.990  1.00  0.00     0.006 C 
ATOM     92  C   UNL A   1      31.868  27.940  27.378  1.00  0.00     0.004 C 
ATOM     93  C   UNL A   1      31.949  30.205  26.211  1.00  0.00     0.000 C 
ATOM     94  C   UNL A   1      32.558  29.278  27.225  1.00  0.00     0.000 C 
ENDBRANCH  83  85
ENDBRANCH  82  83
ENDBRANCH  79  82
ENDBRANCH  75  77
ENDBRANCH  74  75
ENDBRANCH  73  74
ENDBRANCH   1  73
TORSDOF 17
ENDMDL
MODEL 2
REMARK VINA RESULT:     -11.9      4.125      9.075
REMARK SMILES O=C(OCCOC(=O)c1cccn1CC(=O)N1CC[C@H]2CCCC[C@H]2C1)c1ccc(-c2c3nc(c(-c4c(F)cc(S(=O)(=O)[O-])cc4F)c4ccc([nH]4)c(-c4c(F)cc(S(=O)(=O)[O-])cc4F)c4nc(c(-c5c(F)cc(S(=O)(=O)[O-])cc5F)c5ccc2[nH]5)C=C4)C=C3)cc1
REMARK SMILES IDX 4 1 3 2 2 3 1 4 27 5 28 6 92 7 29 8 91 9 30 10 31 11 32 12
REMARK SMILES IDX 85 13 33 14 90 15 84 16 86 17 34 18 89 19 83 20 82 21 35 23
REMARK SMILES IDX 69 24 48 25 68 26 49 27 52 28 67 29 87 30 50 31 51 32 66 34
REMARK SMILES IDX 88 35 53 36 36 37 37 38 46 39 38 40 39 41 45 42 47 43 40 44
REMARK SMILES IDX 41 45 42 46 43 47 44 48 70 49 71 50 80 51 72 52 73 53 79 54
REMARK SMILES IDX 81 55 74 56 75 57 76 58 77 59 78 60 54 61 55 62 64 63 56 64
REMARK SMILES IDX 57 65 63 66 65 67 58 68 59 69 60 70 61 71 62 72 5 73 6 74
REMARK SMILES IDX 7 75 8 76 9 77 10 78 13 79 11 80 12 81 14 82 15 83 16 84
REMARK SMILES IDX 17 85 18 86 26 87 19 88 25 89 20 90 24 91 21 92 23 93 22 94
REMARK H PARENT 86 22 52 33
REMARK Flexibility Score: inf
ROOT
ATOM      1  C   UNL A   1      33.658  30.437  26.856  1.00  0.00     0.275 C 
ENDROOT
BRANCH   1   2
ATOM      2  O   UNL A   1      33.303  31.307  28.009  1.00  0.00    -0.458 OA
BRANCH   2   3
ATOM      3  C   UNL A   1      34.246  32.243  28.282  1.00  0.00     0.338 C 
ATOM      4  O   UNL A   1      33.899  33.400  28.315  1.00  0.00    -0.246 OA
BRANCH   3   5
ATOM      5  C   UNL A   1      35.551  32.057  28.972  1.00  0.00     0.060 A 
ATOM      6  C   UNL A   1      36.764  32.271  28.378  1.00  0.00     0.016 A 
ATOM      7  C   UNL A   1      35.521  31.166  30.080  1.00  0.00     0.016 A 
ATOM      8  C   UNL A   1      37.836  31.430  28.761  1.00  0.00     0.010 A 
ATOM      9  C   UNL A   1      36.528  30.233  30.348  1.00  0.00     0.010 A 
ATOM     10  C   UNL A   1      37.705  30.291  29.628  1.00  0.00    -0.014 A 
BRANCH  10  11
ATOM     11  C   UNL A   1      38.956  29.624  30.171  1.00  0.00     0.031 A 
ATOM     12  C   UNL A   1      39.600  30.783  30.877  1.00  0.00     0.074 A 
ATOM     13  C   UNL A   1      39.498  28.407  29.818  1.00  0.00     0.049 A 
ATOM     14  N   UNL A   1      40.340  31.701  30.343  1.00  0.00    -0.248 NA
ATOM     15  C   UNL A   1      38.964  31.234  32.151  1.00  0.00     0.031 C 
ATOM     16  C   UNL A   1      38.802  27.115  29.715  1.00  0.00     0.029 A 
ATOM     17  N   UNL A   1      40.793  27.978  29.534  1.00  0.00    -0.354 N 
ATOM     18  C   UNL A   1      40.483  32.646  31.354  1.00  0.00     0.074 A 
ATOM     19  C   UNL A   1      39.327  32.520  32.185  1.00  0.00     0.031 C 
ATOM     20  C   UNL A   1      39.585  26.146  29.166  1.00  0.00     0.029 A 
ATOM     21  C   UNL A   1      40.909  26.680  28.904  1.00  0.00     0.049 A 
ATOM     22  H   UNL A   1      41.582  28.525  29.748  1.00  0.00     0.167 HD
ATOM     23  C   UNL A   1      41.706  33.099  31.743  1.00  0.00     0.037 A 
ATOM     24  C   UNL A   1      41.973  26.152  28.186  1.00  0.00     0.037 A 
ATOM     25  C   UNL A   1      42.720  32.387  31.023  1.00  0.00     0.049 A 
ATOM     26  C   UNL A   1      43.083  26.985  28.653  1.00  0.00     0.074 A 
ATOM     27  C   UNL A   1      43.004  32.342  29.682  1.00  0.00     0.029 A 
ATOM     28  N   UNL A   1      43.203  31.240  31.633  1.00  0.00    -0.354 N 
ATOM     29  N   UNL A   1      43.575  26.903  29.851  1.00  0.00    -0.248 NA
ATOM     30  C   UNL A   1      43.638  28.025  27.781  1.00  0.00     0.031 C 
ATOM     31  C   UNL A   1      43.227  30.973  29.452  1.00  0.00     0.029 A 
ATOM     32  C   UNL A   1      43.449  30.304  30.662  1.00  0.00     0.049 A 
ATOM     33  H   UNL A   1      43.345  31.118  32.600  1.00  0.00     0.167 HD
ATOM     34  C   UNL A   1      44.146  28.138  29.996  1.00  0.00     0.074 A 
ATOM     35  C   UNL A   1      44.479  28.582  28.652  1.00  0.00     0.031 C 
ATOM     36  C   UNL A   1      43.705  28.922  31.022  1.00  0.00     0.037 A 
BRANCH  23  37
ATOM     37  C   UNL A   1      42.100  33.838  32.969  1.00  0.00     0.058 A 
ATOM     38  C   UNL A   1      41.889  33.175  34.195  1.00  0.00     0.135 A 
ATOM     39  C   UNL A   1      42.422  35.203  33.029  1.00  0.00     0.135 A 
ATOM     40  F   UNL A   1      41.601  31.863  34.223  1.00  0.00    -0.206 F 
ATOM     41  C   UNL A   1      41.903  33.848  35.404  1.00  0.00     0.059 A 
ATOM     42  C   UNL A   1      42.495  35.884  34.236  1.00  0.00     0.059 A 
ATOM     43  F   UNL A   1      42.592  35.949  31.933  1.00  0.00    -0.206 F 
ATOM     44  C   UNL A   1      42.194  35.207  35.411  1.00  0.00     0.060 A 
BRANCH  44  45
ATOM     45  S   UNL A   1      42.153  36.081  36.979  1.00  0.00     0.124 S 
ATOM     46  O   UNL A   1      43.064  37.190  36.719  1.00  0.00    -0.237 OA
ATOM     47  O   UNL A   1      40.740  36.430  37.091  1.00  0.00    -0.237 OA
ATOM     48  O   UNL A   1      42.622  35.082  37.933  1.00  0.00    -0.744 OA
ENDBRANCH  44  45
ENDBRANCH  23  37
BRANCH  24  49
ATOM     49  C   UNL A   1      42.426  25.077  27.167  1.00  0.00     0.058 A 
ATOM     50  C   UNL A   1      42.622  25.219  25.786  1.00  0.00     0.135 A 
ATOM     51  C   UNL A   1      42.906  23.812  27.660  1.00  0.00     0.135 A 
ATOM     52  F   UNL A   1      42.147  26.297  25.145  1.00  0.00    -0.206 F 
ATOM     53  C   UNL A   1      43.339  24.258  25.005  1.00  0.00     0.059 A 
ATOM     54  C   UNL A   1      43.671  22.895  26.937  1.00  0.00     0.059 A 
ATOM     55  F   UNL A   1      42.680  23.409  28.917  1.00  0.00    -0.206 F 
ATOM     56  C   UNL A   1      43.909  23.128  25.603  1.00  0.00     0.060 A 
BRANCH  56  57
ATOM     57  S   UNL A   1      45.055  22.020  24.730  1.00  0.00     0.124 S 
ATOM     58  O   UNL A   1      45.366  22.779  23.524  1.00  0.00    -0.237 OA
ATOM     59  O   UNL A   1      46.146  21.868  25.687  1.00  0.00    -0.237 OA
ATOM     60  O   UNL A   1      44.258  20.812  24.519  1.00  0.00    -0.744 OA
ENDBRANCH  56  57
ENDBRANCH  24  49
BRANCH  36  61
ATOM     61  C   UNL A   1      43.169  28.139  32.227  1.00  0.00     0.058 A 
ATOM     62  C   UNL A   1      41.931  28.488  32.806  1.00  0.00     0.135 A 
ATOM     63  C   UNL A   1      43.890  27.152  32.920  1.00  0.00     0.135 A 
ATOM     64  F   UNL A   1      41.152  29.407  32.213  1.00  0.00    -0.206 F 
ATOM     65  C   UNL A   1      41.460  27.917  33.996  1.00  0.00     0.059 A 
ATOM     66  C   UNL A   1      43.450  26.568  34.119  1.00  0.00     0.059 A 
ATOM     67  F   UNL A   1      45.054  26.713  32.439  1.00  0.00    -0.206 F 
ATOM     68  C   UNL A   1      42.224  26.953  34.648  1.00  0.00     0.060 A 
BRANCH  68  69
ATOM     69  S   UNL A   1      41.570  26.188  36.153  1.00  0.00     0.124 S 
ATOM     70  O   UNL A   1      42.723  25.458  36.671  1.00  0.00    -0.237 OA
ATOM     71  O   UNL A   1      41.164  27.355  36.930  1.00  0.00    -0.237 OA
ATOM     72  O   UNL A   1      40.474  25.351  35.671  1.00  0.00    -0.744 OA
ENDBRANCH  68  69
ENDBRANCH  36  61
ENDBRANCH  10  11
ENDBRANCH   3   5
ENDBRANCH   2   3
ENDBRANCH   1   2
BRANCH   1  73
ATOM     73  C   UNL A   1      34.400  29.077  27.034  1.00  0.00     0.275 C 
BRANCH  73  74
ATOM     74  O   UNL A   1      33.611  27.889  26.818  1.00  0.00    -0.457 OA
BRANCH  74  75
ATOM     75  C   UNL A   1      33.626  27.334  25.557  1.00  0.00     0.355 C 
ATOM     76  O   UNL A   1      34.063  27.906  24.561  1.00  0.00    -0.244 OA
BRANCH  75  77
ATOM     77  C   UNL A   1      33.224  25.931  25.633  1.00  0.00     0.128 A 
ATOM     78  C   UNL A   1      34.089  24.866  25.916  1.00  0.00     0.035 A 
ATOM     79  N   UNL A   1      32.063  25.366  25.026  1.00  0.00    -0.333 N 
ATOM     80  C   UNL A   1      33.405  23.660  25.685  1.00  0.00     0.020 A 
ATOM     81  C   UNL A   1      32.120  23.996  25.287  1.00  0.00     0.087 A 
BRANCH  79  82
ATOM     82  C   UNL A   1      30.917  26.130  24.359  1.00  0.00     0.222 C 
BRANCH  82  83
ATOM     83  C   UNL A   1      30.933  27.062  23.017  1.00  0.00     0.242 C 
ATOM     84  O   UNL A   1      31.878  26.908  22.226  1.00  0.00    -0.273 OA
BRANCH  83  85
ATOM     85  N   UNL A   1      29.809  27.906  22.589  1.00  0.00    -0.341 N 
ATOM     86  C   UNL A   1      28.755  28.038  23.526  1.00  0.00     0.120 C 
ATOM     87  C   UNL A   1      30.015  29.222  21.885  1.00  0.00     0.123 C 
ATOM     88  C   UNL A   1      27.432  28.593  23.042  1.00  0.00     0.025 C 
ATOM     89  C   UNL A   1      28.738  30.156  21.608  1.00  0.00     0.012 C 
ATOM     90  C   UNL A   1      27.553  30.038  22.572  1.00  0.00    -0.005 C 
ATOM     91  C   UNL A   1      28.934  31.659  21.261  1.00  0.00     0.006 C 
ATOM     92  C   UNL A   1      27.419  31.060  23.726  1.00  0.00     0.004 C 
ATOM     93  C   UNL A   1      28.748  32.738  22.340  1.00  0.00     0.000 C 
ATOM     94  C   UNL A   1      28.305  32.288  23.703  1.00  0.00     0.000 C 
ENDBRANCH  83  85
ENDBRANCH  82  83
ENDBRANCH  79  82
ENDBRANCH  75  77
ENDBRANCH  74  75
ENDBRANCH  73  74
ENDBRANCH   1  73
TORSDOF 17
ENDMDL
MODEL 3
REMARK VINA RESULT:     -11.9      7.415     12.948
REMARK SMILES O=C(OCCOC(=O)c1cccn1CC(=O)N1CC[C@H]2CCCC[C@H]2C1)c1ccc(-c2c3nc(c(-c4c(F)cc(S(=O)(=O)[O-])cc4F)c4ccc([nH]4)c(-c4c(F)cc(S(=O)(=O)[O-])cc4F)c4nc(c(-c5c(F)cc(S(=O)(=O)[O-])cc5F)c5ccc2[nH]5)C=C4)C=C3)cc1
REMARK SMILES IDX 4 1 3 2 2 3 1 4 27 5 28 6 92 7 29 8 91 9 30 10 31 11 32 12
REMARK SMILES IDX 85 13 33 14 90 15 84 16 86 17 34 18 89 19 83 20 82 21 35 23
REMARK SMILES IDX 69 24 48 25 68 26 49 27 52 28 67 29 87 30 50 31 51 32 66 34
REMARK SMILES IDX 88 35 53 36 36 37 37 38 46 39 38 40 39 41 45 42 47 43 40 44
REMARK SMILES IDX 41 45 42 46 43 47 44 48 70 49 71 50 80 51 72 52 73 53 79 54
REMARK SMILES IDX 81 55 74 56 75 57 76 58 77 59 78 60 54 61 55 62 64 63 56 64
REMARK SMILES IDX 57 65 63 66 65 67 58 68 59 69 60 70 61 71 62 72 5 73 6 74
REMARK SMILES IDX 7 75 8 76 9 77 10 78 13 79 11 80 12 81 14 82 15 83 16 84
REMARK SMILES IDX 17 85 18 86 26 87 19 88 25 89 20 90 24 91 21 92 23 93 22 94
REMARK H PARENT 86 22 52 33
REMARK Flexibility Score: inf
ROOT
ATOM      1  C   UNL A   1      45.702  38.771  26.123  1.00  0.00     0.275 C 
ENDROOT
BRANCH   1   2
ATOM      2  O   UNL A   1      45.924  37.952  27.344  1.00  0.00    -0.458 OA
BRANCH   2   3
ATOM      3  C   UNL A   1      45.386  36.709  27.258  1.00  0.00     0.338 C 
ATOM      4  O   UNL A   1      45.882  35.933  26.477  1.00  0.00    -0.246 OA
BRANCH   3   5
ATOM      5  C   UNL A   1      44.561  35.996  28.270  1.00  0.00     0.060 A 
ATOM      6  C   UNL A   1      45.084  35.249  29.289  1.00  0.00     0.016 A 
ATOM      7  C   UNL A   1      43.237  35.684  27.852  1.00  0.00     0.016 A 
ATOM      8  C   UNL A   1      44.365  34.097  29.691  1.00  0.00     0.010 A 
ATOM      9  C   UNL A   1      42.606  34.468  28.132  1.00  0.00     0.010 A 
ATOM     10  C   UNL A   1      43.202  33.590  29.016  1.00  0.00    -0.014 A 
BRANCH  10  11
ATOM     11  C   UNL A   1      42.371  32.508  29.682  1.00  0.00     0.031 A 
ATOM     12  C   UNL A   1      42.902  31.287  28.988  1.00  0.00     0.074 A 
ATOM     13  C   UNL A   1      41.231  32.653  30.443  1.00  0.00     0.049 A 
ATOM     14  N   UNL A   1      42.538  30.834  27.831  1.00  0.00    -0.248 NA
ATOM     15  C   UNL A   1      44.276  30.839  29.367  1.00  0.00     0.031 C 
ATOM     16  C   UNL A   1      41.019  33.571  31.572  1.00  0.00     0.029 A 
ATOM     17  N   UNL A   1      40.003  31.992  30.469  1.00  0.00    -0.354 N 
ATOM     18  C   UNL A   1      43.476  29.847  27.547  1.00  0.00     0.074 A 
ATOM     19  C   UNL A   1      44.665  30.211  28.253  1.00  0.00     0.031 C 
ATOM     20  C   UNL A   1      39.724  33.595  31.988  1.00  0.00     0.029 A 
ATOM     21  C   UNL A   1      38.946  32.645  31.213  1.00  0.00     0.049 A 
ATOM     22  H   UNL A   1      39.864  31.133  30.009  1.00  0.00     0.167 HD
ATOM     23  C   UNL A   1      43.105  28.586  27.196  1.00  0.00     0.037 A 
ATOM     24  C   UNL A   1      37.575  32.450  31.128  1.00  0.00     0.037 A 
ATOM     25  C   UNL A   1      41.678  28.479  27.272  1.00  0.00     0.049 A 
ATOM     26  C   UNL A   1      37.504  31.123  30.515  1.00  0.00     0.074 A 
ATOM     27  C   UNL A   1      40.692  29.120  26.566  1.00  0.00     0.029 A 
ATOM     28  N   UNL A   1      41.168  28.047  28.486  1.00  0.00    -0.354 N 
ATOM     29  N   UNL A   1      37.833  30.035  31.141  1.00  0.00    -0.248 NA
ATOM     30  C   UNL A   1      37.123  30.984  29.106  1.00  0.00     0.031 C 
ATOM     31  C   UNL A   1      39.762  29.462  27.564  1.00  0.00     0.029 A 
ATOM     32  C   UNL A   1      39.998  28.721  28.728  1.00  0.00     0.049 A 
ATOM     33  H   UNL A   1      41.576  27.371  29.075  1.00  0.00     0.167 HD
ATOM     34  C   UNL A   1      38.124  29.197  30.098  1.00  0.00     0.074 A 
ATOM     35  C   UNL A   1      37.335  29.674  28.974  1.00  0.00     0.031 C 
ATOM     36  C   UNL A   1      39.382  28.673  30.040  1.00  0.00     0.037 A 
BRANCH  23  37
ATOM     37  C   UNL A   1      43.905  27.335  27.162  1.00  0.00     0.058 A 
ATOM     38  C   UNL A   1      44.202  26.816  25.885  1.00  0.00     0.135 A 
ATOM     39  C   UNL A   1      44.169  26.507  28.264  1.00  0.00     0.135 A 
ATOM     40  F   UNL A   1      44.000  27.557  24.781  1.00  0.00    -0.206 F 
ATOM     41  C   UNL A   1      44.647  25.518  25.707  1.00  0.00     0.059 A 
ATOM     42  C   UNL A   1      44.667  25.221  28.108  1.00  0.00     0.059 A 
ATOM     43  F   UNL A   1      43.880  26.868  29.518  1.00  0.00    -0.206 F 
ATOM     44  C   UNL A   1      44.863  24.724  26.826  1.00  0.00     0.060 A 
BRANCH  44  45
ATOM     45  S   UNL A   1      45.384  23.024  26.580  1.00  0.00     0.124 S 
ATOM     46  O   UNL A   1      45.335  22.503  27.941  1.00  0.00    -0.237 OA
ATOM     47  O   UNL A   1      44.358  22.525  25.669  1.00  0.00    -0.237 OA
ATOM     48  O   UNL A   1      46.715  23.162  25.998  1.00  0.00    -0.744 OA
ENDBRANCH  44  45
ENDBRANCH  23  37
BRANCH  24  49
ATOM     49  C   UNL A   1      36.174  33.039  31.433  1.00  0.00     0.058 A 
ATOM     50  C   UNL A   1      35.493  33.065  32.658  1.00  0.00     0.135 A 
ATOM     51  C   UNL A   1      35.525  33.839  30.429  1.00  0.00     0.135 A 
ATOM     52  F   UNL A   1      35.908  32.298  33.678  1.00  0.00    -0.206 F 
ATOM     53  C   UNL A   1      34.359  33.906  32.893  1.00  0.00     0.059 A 
ATOM     54  C   UNL A   1      34.466  34.721  30.651  1.00  0.00     0.059 A 
ATOM     55  F   UNL A   1      35.921  33.831  29.149  1.00  0.00    -0.206 F 
ATOM     56  C   UNL A   1      33.890  34.772  31.898  1.00  0.00     0.060 A 
BRANCH  56  57
ATOM     57  S   UNL A   1      32.639  36.053  32.214  1.00  0.00     0.124 S 
ATOM     58  O   UNL A   1      31.461  35.263  32.550  1.00  0.00    -0.237 OA
ATOM     59  O   UNL A   1      33.230  36.814  33.310  1.00  0.00    -0.237 OA
ATOM     60  O   UNL A   1      32.568  36.773  30.943  1.00  0.00    -0.744 OA
ENDBRANCH  56  57
ENDBRANCH  24  49
BRANCH  36  61
ATOM     61  C   UNL A   1      40.064  28.522  31.406  1.00  0.00     0.058 A 
ATOM     62  C   UNL A   1      39.382  27.904  32.475  1.00  0.00     0.135 A 
ATOM     63  C   UNL A   1      41.307  29.086  31.743  1.00  0.00     0.135 A 
ATOM     64  F   UNL A   1      38.195  27.316  32.258  1.00  0.00    -0.206 F 
ATOM     65  C   UNL A   1      39.886  27.872  33.782  1.00  0.00     0.059 A 
ATOM     66  C   UNL A   1      41.834  29.079  33.045  1.00  0.00     0.059 A 
ATOM     67  F   UNL A   1      42.058  29.658  30.801  1.00  0.00    -0.206 F 
ATOM     68  C   UNL A   1      41.116  28.461  34.062  1.00  0.00     0.060 A 
BRANCH  68  69
ATOM     69  S   UNL A   1      41.773  28.359  35.746  1.00  0.00     0.124 S 
ATOM     70  O   UNL A   1      43.205  28.562  35.545  1.00  0.00    -0.237 OA
ATOM     71  O   UNL A   1      41.071  29.453  36.408  1.00  0.00    -0.237 OA
ATOM     72  O   UNL A   1      41.394  27.020  36.187  1.00  0.00    -0.744 OA
ENDBRANCH  68  69
ENDBRANCH  36  61
ENDBRANCH  10  11
ENDBRANCH   3   5
ENDBRANCH   2   3
ENDBRANCH   1   2
BRANCH   1  73
ATOM     73  C   UNL A   1      45.249  40.262  26.190  1.00  0.00     0.275 C 
BRANCH  73  74
ATOM     74  O   UNL A   1      45.203  40.969  24.933  1.00  0.00    -0.457 OA
BRANCH  74  75
ATOM     75  C   UNL A   1      44.073  41.708  24.657  1.00  0.00     0.355 C 
ATOM     76  O   UNL A   1      42.934  41.354  24.955  1.00  0.00    -0.244 OA
BRANCH  75  77
ATOM     77  C   UNL A   1      44.457  43.020  24.141  1.00  0.00     0.128 A 
ATOM     78  C   UNL A   1      44.782  44.127  24.936  1.00  0.00     0.035 A 
ATOM     79  N   UNL A   1      44.150  43.523  22.843  1.00  0.00    -0.333 N 
ATOM     80  C   UNL A   1      44.878  45.258  24.109  1.00  0.00     0.020 A 
ATOM     81  C   UNL A   1      44.636  44.831  22.812  1.00  0.00     0.087 A 
BRANCH  79  82
ATOM     82  C   UNL A   1      43.550  42.736  21.676  1.00  0.00     0.222 C 
BRANCH  82  83
ATOM     83  C   UNL A   1      42.244  43.079  20.755  1.00  0.00     0.242 C 
ATOM     84  O   UNL A   1      41.133  43.049  21.307  1.00  0.00    -0.273 OA
BRANCH  83  85
ATOM     85  N   UNL A   1      42.319  43.619  19.390  1.00  0.00    -0.341 N 
ATOM     86  C   UNL A   1      41.205  44.388  18.976  1.00  0.00     0.120 C 
ATOM     87  C   UNL A   1      43.579  44.234  18.839  1.00  0.00     0.123 C 
ATOM     88  C   UNL A   1      41.048  44.683  17.500  1.00  0.00     0.025 C 
ATOM     89  C   UNL A   1      43.523  44.951  17.403  1.00  0.00     0.012 C 
ATOM     90  C   UNL A   1      42.181  45.550  16.964  1.00  0.00    -0.005 C 
ATOM     91  C   UNL A   1      44.654  45.928  16.976  1.00  0.00     0.006 C 
ATOM     92  C   UNL A   1      41.933  47.063  17.168  1.00  0.00     0.004 C 
ATOM     93  C   UNL A   1      44.452  47.449  17.083  1.00  0.00     0.000 C 
ATOM     94  C   UNL A   1      43.108  47.940  17.544  1.00  0.00     0.000 C 
ENDBRANCH  83  85
ENDBRANCH  82  83
ENDBRANCH  79  82
ENDBRANCH  75  77
ENDBRANCH  74  75
ENDBRANCH  73  74
ENDBRANCH   1  73
TORSDOF 17
ENDMDL
