MODEL 1
REMARK VINA RESULT:     -13.4      0.000      0.000
REMARK SMILES Cc1ccc(-c2cc3cccnc3n2CCC(=O)OCCOC(=O)c2ccc(-c3c4nc(c(-c5c(F)cc(S(=O)(=O)[O-])cc5F)c5ccc([nH]5)c(-c5c(F)cc(S(=O)(=O)[O-])cc5F)c5nc(c(-c6c(F)cc(S(=O)(=O)[O-])cc6F)c6ccc3[nH]6)C=C5)C=C4)cc2)cn1
REMARK SMILES IDX 20 1 19 2 17 3 18 4 16 5 15 6 14 7 6 8 7 9 8 10 13 11 9 12
REMARK SMILES IDX 12 13 10 14 11 15 5 16 1 17 2 18 3 19 92 20 4 21 91 22 21 23
REMARK SMILES IDX 22 24 23 25 24 26 25 27 26 28 90 29 27 30 89 31 28 32 29 33
REMARK SMILES IDX 30 34 83 35 31 36 88 37 82 38 84 39 32 40 87 41 81 42 80 43
REMARK SMILES IDX 33 45 67 46 46 47 66 48 47 49 50 50 65 51 85 52 48 53 49 54
REMARK SMILES IDX 64 56 86 57 51 58 34 59 35 60 44 61 36 62 37 63 43 64 45 65
REMARK SMILES IDX 38 66 39 67 40 68 41 69 42 70 68 71 69 72 78 73 70 74 71 75
REMARK SMILES IDX 77 76 79 77 72 78 73 79 74 80 75 81 76 82 52 83 53 84 62 85
REMARK SMILES IDX 54 86 55 87 61 88 63 89 56 90 57 91 58 92 59 93 60 94
REMARK H PARENT 84 44 50 55
REMARK Flexibility Score: inf
ROOT
ATOM      1  C   UNL A   1      39.278  21.366  25.793  1.00  0.00     0.274 C 
ENDROOT
BRANCH   1   2
ATOM      2  O   UNL A   1      38.270  22.308  26.272  1.00  0.00    -0.462 OA
BRANCH   2   3
ATOM      3  C   UNL A   1      37.320  22.725  25.390  1.00  0.00     0.307 C 
ATOM      4  O   UNL A   1      37.257  23.875  24.966  1.00  0.00    -0.252 OA
BRANCH   3   5
ATOM      5  C   UNL A   1      36.359  21.637  24.894  1.00  0.00     0.144 C 
BRANCH   5   6
ATOM      6  C   UNL A   1      35.306  21.033  25.835  1.00  0.00     0.136 C 
BRANCH   6   7
ATOM      7  N   UNL A   1      34.086  20.666  25.154  1.00  0.00    -0.325 N 
ATOM      8  C   UNL A   1      33.037  21.508  24.875  1.00  0.00     0.052 A 
ATOM      9  C   UNL A   1      32.229  20.840  23.966  1.00  0.00     0.039 A 
ATOM     10  C   UNL A   1      32.773  19.562  23.733  1.00  0.00     0.020 A 
ATOM     11  C   UNL A   1      33.891  19.448  24.548  1.00  0.00     0.140 A 
ATOM     12  C   UNL A   1      32.454  18.490  22.891  1.00  0.00     0.013 A 
ATOM     13  N   UNL A   1      34.694  18.372  24.664  1.00  0.00    -0.238 NA
ATOM     14  C   UNL A   1      33.241  17.347  22.991  1.00  0.00     0.021 A 
ATOM     15  C   UNL A   1      34.298  17.335  23.892  1.00  0.00     0.113 A 
BRANCH   8  16
ATOM     16  C   UNL A   1      32.904  22.913  25.249  1.00  0.00     0.017 A 
ATOM     17  C   UNL A   1      31.582  27.615  26.613  1.00  0.00     0.066 C 
ATOM     18  C   UNL A   1      31.978  26.250  26.145  1.00  0.00     0.037 A 
ATOM     19  C   UNL A   1      33.222  26.028  24.886  1.00  0.00     0.024 A 
ATOM     20  N   UNL A   1      31.204  24.892  26.932  1.00  0.00    -0.261 NA
ATOM     21  C   UNL A   1      33.737  24.350  24.466  1.00  0.00     0.014 A 
ATOM     22  C   UNL A   1      31.674  23.250  26.523  1.00  0.00     0.121 A 
ENDBRANCH   8  16
ENDBRANCH   6   7
ENDBRANCH   5   6
ENDBRANCH   3   5
ENDBRANCH   2   3
ENDBRANCH   1   2
BRANCH   1  23
ATOM     23  C   UNL A   1      40.870  21.431  26.409  1.00  0.00     0.275 C 
BRANCH  23  24
ATOM     24  O   UNL A   1      42.535  20.590  25.654  1.00  0.00    -0.458 OA
BRANCH  24  25
ATOM     25  C   UNL A   1      43.812  20.524  25.059  1.00  0.00     0.338 C 
ATOM     26  O   UNL A   1      44.352  19.587  24.481  1.00  0.00    -0.246 OA
BRANCH  25  27
ATOM     27  C   UNL A   1      44.412  21.836  24.944  1.00  0.00     0.060 A 
ATOM     28  C   UNL A   1      45.591  22.041  25.679  1.00  0.00     0.016 A 
ATOM     29  C   UNL A   1      43.524  22.841  24.591  1.00  0.00     0.016 A 
ATOM     30  C   UNL A   1      45.729  23.246  26.317  1.00  0.00     0.010 A 
ATOM     31  C   UNL A   1      43.680  24.047  25.200  1.00  0.00     0.010 A 
ATOM     32  C   UNL A   1      44.697  24.168  26.151  1.00  0.00    -0.014 A 
BRANCH  32  33
ATOM     33  C   UNL A   1      44.600  25.260  27.085  1.00  0.00     0.031 A 
ATOM     34  C   UNL A   1      45.686  26.241  26.933  1.00  0.00     0.074 A 
ATOM     35  C   UNL A   1      43.486  25.394  27.832  1.00  0.00     0.049 A 
ATOM     36  N   UNL A   1      46.576  26.593  27.797  1.00  0.00    -0.248 NA
ATOM     37  C   UNL A   1      45.918  26.767  25.575  1.00  0.00     0.031 C 
ATOM     38  C   UNL A   1      42.254  24.594  27.762  1.00  0.00     0.029 A 
ATOM     39  N   UNL A   1      43.156  26.377  28.702  1.00  0.00    -0.354 N 
ATOM     40  C   UNL A   1      47.330  27.565  27.154  1.00  0.00     0.074 A 
ATOM     41  C   UNL A   1      47.042  27.457  25.749  1.00  0.00     0.031 C 
ATOM     42  C   UNL A   1      41.251  25.276  28.359  1.00  0.00     0.029 A 
ATOM     43  C   UNL A   1      41.793  26.491  28.940  1.00  0.00     0.049 A 
ATOM     44  H   UNL A   1      43.824  26.960  29.130  1.00  0.00     0.167 HD
ATOM     45  C   UNL A   1      47.903  28.586  27.841  1.00  0.00     0.037 A 
ATOM     46  C   UNL A   1      41.170  27.573  29.472  1.00  0.00     0.037 A 
ATOM     47  C   UNL A   1      47.988  28.302  29.247  1.00  0.00     0.049 A 
ATOM     48  C   UNL A   1      42.227  28.400  30.124  1.00  0.00     0.074 A 
ATOM     49  C   UNL A   1      48.591  27.305  29.990  1.00  0.00     0.029 A 
ATOM     50  N   UNL A   1      47.059  28.886  30.076  1.00  0.00    -0.354 N 
ATOM     51  N   UNL A   1      42.905  28.031  31.178  1.00  0.00    -0.248 NA
ATOM     52  C   UNL A   1      42.846  29.456  29.333  1.00  0.00     0.031 C 
ATOM     53  C   UNL A   1      47.700  27.048  31.069  1.00  0.00     0.029 A 
ATOM     54  C   UNL A   1      46.621  27.927  30.957  1.00  0.00     0.049 A 
ATOM     55  H   UNL A   1      46.760  29.824  30.044  1.00  0.00     0.167 HD
ATOM     56  C   UNL A   1      44.195  28.503  30.963  1.00  0.00     0.074 A 
ATOM     57  C   UNL A   1      44.072  29.456  29.865  1.00  0.00     0.031 C 
ATOM     58  C   UNL A   1      45.279  27.865  31.498  1.00  0.00     0.037 A 
BRANCH  45  59
ATOM     59  C   UNL A   1      48.036  29.968  27.266  1.00  0.00     0.058 A 
ATOM     60  C   UNL A   1      49.295  30.588  27.237  1.00  0.00     0.135 A 
ATOM     61  C   UNL A   1      46.929  30.798  26.968  1.00  0.00     0.135 A 
ATOM     62  F   UNL A   1      50.403  29.893  27.535  1.00  0.00    -0.206 F 
ATOM     63  C   UNL A   1      49.441  31.950  26.973  1.00  0.00     0.059 A 
ATOM     64  C   UNL A   1      47.058  32.137  26.634  1.00  0.00     0.059 A 
ATOM     65  F   UNL A   1      45.663  30.377  27.086  1.00  0.00    -0.206 F 
ATOM     66  C   UNL A   1      48.313  32.716  26.683  1.00  0.00     0.060 A 
BRANCH  66  67
ATOM     67  S   UNL A   1      48.482  34.491  26.452  1.00  0.00     0.124 S 
ATOM     68  O   UNL A   1      49.833  34.718  26.952  1.00  0.00    -0.237 OA
ATOM     69  O   UNL A   1      48.299  34.630  25.011  1.00  0.00    -0.237 OA
ATOM     70  O   UNL A   1      47.404  35.040  27.271  1.00  0.00    -0.744 OA
ENDBRANCH  66  67
ENDBRANCH  45  59
BRANCH  46  71
ATOM     71  C   UNL A   1      39.813  28.100  29.157  1.00  0.00     0.058 A 
ATOM     72  C   UNL A   1      38.803  28.118  30.135  1.00  0.00     0.135 A 
ATOM     73  C   UNL A   1      39.544  28.831  27.980  1.00  0.00     0.135 A 
ATOM     74  F   UNL A   1      38.979  27.471  31.297  1.00  0.00    -0.206 F 
ATOM     75  C   UNL A   1      37.624  28.856  29.979  1.00  0.00     0.059 A 
ATOM     76  C   UNL A   1      38.368  29.557  27.793  1.00  0.00     0.059 A 
ATOM     77  F   UNL A   1      40.457  28.946  27.005  1.00  0.00    -0.206 F 
ATOM     78  C   UNL A   1      37.425  29.590  28.811  1.00  0.00     0.060 A 
BRANCH  78  79
ATOM     79  S   UNL A   1      35.991  30.682  28.681  1.00  0.00     0.124 S 
ATOM     80  O   UNL A   1      34.991  29.803  28.086  1.00  0.00    -0.237 OA
ATOM     81  O   UNL A   1      35.765  31.055  30.074  1.00  0.00    -0.237 OA
ATOM     82  O   UNL A   1      36.463  31.763  27.819  1.00  0.00    -0.744 OA
ENDBRANCH  78  79
ENDBRANCH  46  71
BRANCH  58  83
ATOM     83  C   UNL A   1      45.034  26.825  32.563  1.00  0.00     0.058 A 
ATOM     84  C   UNL A   1      44.807  25.464  32.295  1.00  0.00     0.135 A 
ATOM     85  C   UNL A   1      45.208  27.191  33.905  1.00  0.00     0.135 A 
ATOM     86  F   UNL A   1      44.737  25.013  31.036  1.00  0.00    -0.206 F 
ATOM     87  C   UNL A   1      44.723  24.514  33.315  1.00  0.00     0.059 A 
ATOM     88  C   UNL A   1      45.160  26.257  34.938  1.00  0.00     0.059 A 
ATOM     89  F   UNL A   1      45.492  28.465  34.223  1.00  0.00    -0.206 F 
ATOM     90  C   UNL A   1      44.908  24.920  34.636  1.00  0.00     0.060 A 
BRANCH  90  91
ATOM     91  S   UNL A   1      44.903  23.676  35.945  1.00  0.00     0.124 S 
ATOM     92  O   UNL A   1      44.428  24.438  37.094  1.00  0.00    -0.237 OA
ATOM     93  O   UNL A   1      43.981  22.670  35.423  1.00  0.00    -0.237 OA
ATOM     94  O   UNL A   1      46.299  23.249  36.014  1.00  0.00    -0.744 OA
ENDBRANCH  90  91
ENDBRANCH  58  83
ENDBRANCH  32  33
ENDBRANCH  25  27
ENDBRANCH  24  25
ENDBRANCH  23  24
ENDBRANCH   1  23
TORSDOF 17
ENDMDL
MODEL 2
REMARK VINA RESULT:     -13.2      1.500      1.811
REMARK SMILES Cc1ccc(-c2cc3cccnc3n2CCC(=O)OCCOC(=O)c2ccc(-c3c4nc(c(-c5c(F)cc(S(=O)(=O)[O-])cc5F)c5ccc([nH]5)c(-c5c(F)cc(S(=O)(=O)[O-])cc5F)c5nc(c(-c6c(F)cc(S(=O)(=O)[O-])cc6F)c6ccc3[nH]6)C=C5)C=C4)cc2)cn1
REMARK SMILES IDX 20 1 19 2 17 3 18 4 16 5 15 6 14 7 6 8 7 9 8 10 13 11 9 12
REMARK SMILES IDX 12 13 10 14 11 15 5 16 1 17 2 18 3 19 92 20 4 21 91 22 21 23
REMARK SMILES IDX 22 24 23 25 24 26 25 27 26 28 90 29 27 30 89 31 28 32 29 33
REMARK SMILES IDX 30 34 83 35 31 36 88 37 82 38 84 39 32 40 87 41 81 42 80 43
REMARK SMILES IDX 33 45 67 46 46 47 66 48 47 49 50 50 65 51 85 52 48 53 49 54
REMARK SMILES IDX 64 56 86 57 51 58 34 59 35 60 44 61 36 62 37 63 43 64 45 65
REMARK SMILES IDX 38 66 39 67 40 68 41 69 42 70 68 71 69 72 78 73 70 74 71 75
REMARK SMILES IDX 77 76 79 77 72 78 73 79 74 80 75 81 76 82 52 83 53 84 62 85
REMARK SMILES IDX 54 86 55 87 61 88 63 89 56 90 57 91 58 92 59 93 60 94
REMARK H PARENT 84 44 50 55
REMARK Flexibility Score: inf
ROOT
ATOM      1  C   UNL A   1      37.986  22.063  25.737  1.00  0.00     0.274 C 
ENDROOT
BRANCH   1   2
ATOM      2  O   UNL A   1      37.115  23.162  25.327  1.00  0.00    -0.462 OA
BRANCH   2   3
ATOM      3  C   UNL A   1      35.800  23.092  25.671  1.00  0.00     0.307 C 
ATOM      4  O   UNL A   1      35.138  24.074  25.996  1.00  0.00    -0.252 OA
BRANCH   3   5
ATOM      5  C   UNL A   1      35.163  21.701  25.559  1.00  0.00     0.144 C 
BRANCH   5   6
ATOM      6  C   UNL A   1      33.660  21.506  25.808  1.00  0.00     0.136 C 
BRANCH   6   7
ATOM      7  N   UNL A   1      32.975  20.914  24.682  1.00  0.00    -0.325 N 
ATOM      8  C   UNL A   1      32.420  21.598  23.629  1.00  0.00     0.052 A 
ATOM      9  C   UNL A   1      32.143  20.655  22.649  1.00  0.00     0.039 A 
ATOM     10  C   UNL A   1      32.493  19.382  23.139  1.00  0.00     0.020 A 
ATOM     11  C   UNL A   1      32.937  19.561  24.442  1.00  0.00     0.140 A 
ATOM     12  C   UNL A   1      32.509  18.088  22.604  1.00  0.00     0.013 A 
ATOM     13  N   UNL A   1      33.340  18.597  25.293  1.00  0.00    -0.238 NA
ATOM     14  C   UNL A   1      32.896  17.054  23.452  1.00  0.00     0.021 A 
ATOM     15  C   UNL A   1      33.261  17.357  24.758  1.00  0.00     0.113 A 
BRANCH   8  16
ATOM     16  C   UNL A   1      32.350  23.046  23.450  1.00  0.00     0.017 A 
ATOM     17  C   UNL A   1      31.288  27.922  22.551  1.00  0.00     0.066 C 
ATOM     18  C   UNL A   1      31.637  26.482  22.757  1.00  0.00     0.037 A 
ATOM     19  C   UNL A   1      33.251  25.852  22.330  1.00  0.00     0.024 A 
ATOM     20  N   UNL A   1      30.411  25.470  23.487  1.00  0.00    -0.261 NA
ATOM     21  C   UNL A   1      33.640  24.134  22.726  1.00  0.00     0.014 A 
ATOM     22  C   UNL A   1      30.761  23.790  23.860  1.00  0.00     0.121 A 
ENDBRANCH   8  16
ENDBRANCH   6   7
ENDBRANCH   5   6
ENDBRANCH   3   5
ENDBRANCH   2   3
ENDBRANCH   1   2
BRANCH   1  23
ATOM     23  C   UNL A   1      39.487  22.395  26.481  1.00  0.00     0.275 C 
BRANCH  23  24
ATOM     24  O   UNL A   1      41.221  21.390  26.293  1.00  0.00    -0.458 OA
BRANCH  24  25
ATOM     25  C   UNL A   1      42.533  21.117  25.853  1.00  0.00     0.338 C 
ATOM     26  O   UNL A   1      42.993  20.086  25.374  1.00  0.00    -0.246 OA
BRANCH  25  27
ATOM     27  C   UNL A   1      43.325  22.326  25.764  1.00  0.00     0.060 A 
ATOM     28  C   UNL A   1      44.352  22.460  26.713  1.00  0.00     0.016 A 
ATOM     29  C   UNL A   1      42.676  23.390  25.156  1.00  0.00     0.016 A 
ATOM     30  C   UNL A   1      44.532  23.698  27.270  1.00  0.00     0.010 A 
ATOM     31  C   UNL A   1      42.880  24.625  25.688  1.00  0.00     0.010 A 
ATOM     32  C   UNL A   1      43.695  24.719  26.819  1.00  0.00    -0.014 A 
BRANCH  32  33
ATOM     33  C   UNL A   1      43.572  25.906  27.624  1.00  0.00     0.031 A 
ATOM     34  C   UNL A   1      44.661  26.869  27.394  1.00  0.00     0.074 A 
ATOM     35  C   UNL A   1      42.438  26.119  28.320  1.00  0.00     0.049 A 
ATOM     36  N   UNL A   1      45.527  27.317  28.238  1.00  0.00    -0.248 NA
ATOM     37  C   UNL A   1      44.930  27.242  25.993  1.00  0.00     0.031 C 
ATOM     38  C   UNL A   1      41.209  25.311  28.306  1.00  0.00     0.029 A 
ATOM     39  N   UNL A   1      42.083  27.190  29.067  1.00  0.00    -0.354 N 
ATOM     40  C   UNL A   1      46.298  28.215  27.512  1.00  0.00     0.074 A 
ATOM     41  C   UNL A   1      46.049  27.952  26.120  1.00  0.00     0.031 C 
ATOM     42  C   UNL A   1      40.189  26.051  28.796  1.00  0.00     0.029 A 
ATOM     43  C   UNL A   1      40.714  27.326  29.254  1.00  0.00     0.049 A 
ATOM     44  H   UNL A   1      42.739  27.819  29.446  1.00  0.00     0.167 HD
ATOM     45  C   UNL A   1      46.852  29.307  28.097  1.00  0.00     0.037 A 
ATOM     46  C   UNL A   1      40.077  28.457  29.646  1.00  0.00     0.037 A 
ATOM     47  C   UNL A   1      46.898  29.181  29.528  1.00  0.00     0.049 A 
ATOM     48  C   UNL A   1      41.115  29.355  30.231  1.00  0.00     0.074 A 
ATOM     49  C   UNL A   1      47.481  28.274  30.392  1.00  0.00     0.029 A 
ATOM     50  N   UNL A   1      45.946  29.850  30.262  1.00  0.00    -0.354 N 
ATOM     51  N   UNL A   1      41.763  29.107  31.337  1.00  0.00    -0.248 NA
ATOM     52  C   UNL A   1      41.755  30.319  29.345  1.00  0.00     0.031 C 
ATOM     53  C   UNL A   1      46.561  28.135  31.468  1.00  0.00     0.029 A 
ATOM     54  C   UNL A   1      45.484  28.993  31.231  1.00  0.00     0.049 A 
ATOM     55  H   UNL A   1      45.648  30.777  30.118  1.00  0.00     0.167 HD
ATOM     56  C   UNL A   1      43.059  29.556  31.107  1.00  0.00     0.074 A 
ATOM     57  C   UNL A   1      42.966  30.383  29.908  1.00  0.00     0.031 C 
ATOM     58  C   UNL A   1      44.128  28.986  31.739  1.00  0.00     0.037 A 
BRANCH  45  59
ATOM     59  C   UNL A   1      47.000  30.618  27.377  1.00  0.00     0.058 A 
ATOM     60  C   UNL A   1      48.264  31.222  27.289  1.00  0.00     0.135 A 
ATOM     61  C   UNL A   1      45.901  31.420  26.983  1.00  0.00     0.135 A 
ATOM     62  F   UNL A   1      49.365  30.554  27.669  1.00  0.00    -0.206 F 
ATOM     63  C   UNL A   1      48.423  32.545  26.880  1.00  0.00     0.059 A 
ATOM     64  C   UNL A   1      46.044  32.714  26.507  1.00  0.00     0.059 A 
ATOM     65  F   UNL A   1      44.632  31.023  27.137  1.00  0.00    -0.206 F 
ATOM     66  C   UNL A   1      47.304  33.284  26.501  1.00  0.00     0.060 A 
BRANCH  66  67
ATOM     67  S   UNL A   1      47.489  35.023  26.081  1.00  0.00     0.124 S 
ATOM     68  O   UNL A   1      48.503  34.958  25.034  1.00  0.00    -0.237 OA
ATOM     69  O   UNL A   1      46.141  35.377  25.648  1.00  0.00    -0.237 OA
ATOM     70  O   UNL A   1      47.917  35.628  27.339  1.00  0.00    -0.744 OA
ENDBRANCH  66  67
ENDBRANCH  45  59
BRANCH  46  71
ATOM     71  C   UNL A   1      38.729  28.941  29.237  1.00  0.00     0.058 A 
ATOM     72  C   UNL A   1      37.718  29.148  30.193  1.00  0.00     0.135 A 
ATOM     73  C   UNL A   1      38.473  29.458  27.949  1.00  0.00     0.135 A 
ATOM     74  F   UNL A   1      37.882  28.713  31.452  1.00  0.00    -0.206 F 
ATOM     75  C   UNL A   1      36.551  29.864  29.905  1.00  0.00     0.059 A 
ATOM     76  C   UNL A   1      37.309  30.157  27.633  1.00  0.00     0.059 A 
ATOM     77  F   UNL A   1      39.388  29.385  26.973  1.00  0.00    -0.206 F 
ATOM     78  C   UNL A   1      36.365  30.384  28.625  1.00  0.00     0.060 A 
BRANCH  78  79
ATOM     79  S   UNL A   1      34.949  31.459  28.299  1.00  0.00     0.124 S 
ATOM     80  O   UNL A   1      35.536  32.484  27.444  1.00  0.00    -0.237 OA
ATOM     81  O   UNL A   1      34.016  30.544  27.649  1.00  0.00    -0.237 OA
ATOM     82  O   UNL A   1      34.549  31.908  29.630  1.00  0.00    -0.744 OA
ENDBRANCH  78  79
ENDBRANCH  46  71
BRANCH  58  83
ATOM     83  C   UNL A   1      43.854  28.069  32.905  1.00  0.00     0.058 A 
ATOM     84  C   UNL A   1      43.758  26.670  32.800  1.00  0.00     0.135 A 
ATOM     85  C   UNL A   1      43.864  28.613  34.197  1.00  0.00     0.135 A 
ATOM     86  F   UNL A   1      43.849  26.062  31.610  1.00  0.00    -0.206 F 
ATOM     87  C   UNL A   1      43.642  25.851  33.924  1.00  0.00     0.059 A 
ATOM     88  C   UNL A   1      43.781  27.813  35.335  1.00  0.00     0.059 A 
ATOM     89  F   UNL A   1      44.019  29.936  34.368  1.00  0.00    -0.206 F 
ATOM     90  C   UNL A   1      43.661  26.433  35.191  1.00  0.00     0.060 A 
BRANCH  90  91
ATOM     91  S   UNL A   1      43.616  25.365  36.647  1.00  0.00     0.124 S 
ATOM     92  O   UNL A   1      43.651  24.033  36.054  1.00  0.00    -0.237 OA
ATOM     93  O   UNL A   1      44.816  25.769  37.374  1.00  0.00    -0.237 OA
ATOM     94  O   UNL A   1      42.358  25.727  37.295  1.00  0.00    -0.744 OA
ENDBRANCH  90  91
ENDBRANCH  58  83
ENDBRANCH  32  33
ENDBRANCH  25  27
ENDBRANCH  24  25
ENDBRANCH  23  24
ENDBRANCH   1  23
TORSDOF 17
ENDMDL
MODEL 3
REMARK VINA RESULT:     -13.1      4.670      9.699
REMARK SMILES Cc1ccc(-c2cc3cccnc3n2CCC(=O)OCCOC(=O)c2ccc(-c3c4nc(c(-c5c(F)cc(S(=O)(=O)[O-])cc5F)c5ccc([nH]5)c(-c5c(F)cc(S(=O)(=O)[O-])cc5F)c5nc(c(-c6c(F)cc(S(=O)(=O)[O-])cc6F)c6ccc3[nH]6)C=C5)C=C4)cc2)cn1
REMARK SMILES IDX 20 1 19 2 17 3 18 4 16 5 15 6 14 7 6 8 7 9 8 10 13 11 9 12
REMARK SMILES IDX 12 13 10 14 11 15 5 16 1 17 2 18 3 19 92 20 4 21 91 22 21 23
REMARK SMILES IDX 22 24 23 25 24 26 25 27 26 28 90 29 27 30 89 31 28 32 29 33
REMARK SMILES IDX 30 34 83 35 31 36 88 37 82 38 84 39 32 40 87 41 81 42 80 43
REMARK SMILES IDX 33 45 67 46 46 47 66 48 47 49 50 50 65 51 85 52 48 53 49 54
REMARK SMILES IDX 64 56 86 57 51 58 34 59 35 60 44 61 36 62 37 63 43 64 45 65
REMARK SMILES IDX 38 66 39 67 40 68 41 69 42 70 68 71 69 72 78 73 70 74 71 75
REMARK SMILES IDX 77 76 79 77 72 78 73 79 74 80 75 81 76 82 52 83 53 84 62 85
REMARK SMILES IDX 54 86 55 87 61 88 63 89 56 90 57 91 58 92 59 93 60 94
REMARK H PARENT 84 44 50 55
REMARK Flexibility Score: inf
ROOT
ATOM      1  C   UNL A   1      33.771  28.214  26.754  1.00  0.00     0.274 C 
ENDROOT
BRANCH   1   2
ATOM      2  O   UNL A   1      33.750  28.231  25.293  1.00  0.00    -0.462 OA
BRANCH   2   3
ATOM      3  C   UNL A   1      32.669  28.787  24.680  1.00  0.00     0.307 C 
ATOM      4  O   UNL A   1      31.768  29.354  25.293  1.00  0.00    -0.252 OA
BRANCH   3   5
ATOM      5  C   UNL A   1      32.677  28.727  23.148  1.00  0.00     0.144 C 
BRANCH   5   6
ATOM      6  C   UNL A   1      31.916  27.620  22.404  1.00  0.00     0.136 C 
BRANCH   6   7
ATOM      7  N   UNL A   1      30.505  27.604  22.709  1.00  0.00    -0.325 N 
ATOM      8  C   UNL A   1      29.863  26.678  23.495  1.00  0.00     0.052 A 
ATOM      9  C   UNL A   1      28.605  27.197  23.768  1.00  0.00     0.039 A 
ATOM     10  C   UNL A   1      28.472  28.429  23.098  1.00  0.00     0.020 A 
ATOM     11  C   UNL A   1      29.643  28.623  22.379  1.00  0.00     0.140 A 
ATOM     12  C   UNL A   1      27.488  29.424  23.045  1.00  0.00     0.013 A 
ATOM     13  N   UNL A   1      29.926  29.663  21.570  1.00  0.00    -0.238 NA
ATOM     14  C   UNL A   1      27.724  30.507  22.205  1.00  0.00     0.021 A 
ATOM     15  C   UNL A   1      28.914  30.556  21.488  1.00  0.00     0.113 A 
BRANCH   8  16
ATOM     16  C   UNL A   1      30.446  25.499  24.131  1.00  0.00     0.017 A 
ATOM     17  C   UNL A   1      33.038  21.976  26.697  1.00  0.00     0.066 C 
ATOM     18  C   UNL A   1      32.307  22.996  25.882  1.00  0.00     0.037 A 
ATOM     19  C   UNL A   1      31.760  22.635  24.222  1.00  0.00     0.024 A 
ATOM     20  N   UNL A   1      31.967  24.528  26.657  1.00  0.00    -0.261 NA
ATOM     21  C   UNL A   1      30.773  23.870  23.351  1.00  0.00     0.014 A 
ATOM     22  C   UNL A   1      31.028  25.751  25.818  1.00  0.00     0.121 A 
ENDBRANCH   8  16
ENDBRANCH   6   7
ENDBRANCH   5   6
ENDBRANCH   3   5
ENDBRANCH   2   3
ENDBRANCH   1   2
BRANCH   1  23
ATOM     23  C   UNL A   1      34.228  29.614  27.618  1.00  0.00     0.275 C 
BRANCH  23  24
ATOM     24  O   UNL A   1      33.553  31.496  27.390  1.00  0.00    -0.458 OA
BRANCH  24  25
ATOM     25  C   UNL A   1      33.241  32.825  27.745  1.00  0.00     0.338 C 
ATOM     26  O   UNL A   1      32.198  33.449  27.576  1.00  0.00    -0.246 OA
BRANCH  25  27
ATOM     27  C   UNL A   1      34.240  33.388  28.628  1.00  0.00     0.060 A 
ATOM     28  C   UNL A   1      35.264  34.124  28.009  1.00  0.00     0.016 A 
ATOM     29  C   UNL A   1      34.374  32.721  29.836  1.00  0.00     0.016 A 
ATOM     30  C   UNL A   1      36.537  33.946  28.483  1.00  0.00     0.010 A 
ATOM     31  C   UNL A   1      35.635  32.571  30.324  1.00  0.00     0.010 A 
ATOM     32  C   UNL A   1      36.692  33.070  29.557  1.00  0.00    -0.014 A 
BRANCH  32  33
ATOM     33  C   UNL A   1      38.007  32.552  29.831  1.00  0.00     0.031 A 
ATOM     34  C   UNL A   1      38.143  31.126  29.492  1.00  0.00     0.074 A 
ATOM     35  C   UNL A   1      38.999  33.404  30.158  1.00  0.00     0.049 A 
ATOM     36  N   UNL A   1      38.431  30.140  30.271  1.00  0.00    -0.248 NA
ATOM     37  C   UNL A   1      37.721  30.725  28.137  1.00  0.00     0.031 C 
ATOM     38  C   UNL A   1      38.948  34.874  30.190  1.00  0.00     0.029 A 
ATOM     39  N   UNL A   1      40.310  33.145  30.374  1.00  0.00    -0.354 N 
ATOM     40  C   UNL A   1      38.461  29.029  29.440  1.00  0.00     0.074 A 
ATOM     41  C   UNL A   1      37.795  29.399  28.220  1.00  0.00     0.031 C 
ATOM     42  C   UNL A   1      40.210  35.359  30.160  1.00  0.00     0.029 A 
ATOM     43  C   UNL A   1      41.141  34.246  30.218  1.00  0.00     0.049 A 
ATOM     44  H   UNL A   1      40.645  32.253  30.622  1.00  0.00     0.167 HD
ATOM     45  C   UNL A   1      39.290  27.983  29.686  1.00  0.00     0.037 A 
ATOM     46  C   UNL A   1      42.484  34.204  30.034  1.00  0.00     0.037 A 
ATOM     47  C   UNL A   1      39.766  27.986  31.042  1.00  0.00     0.049 A 
ATOM     48  C   UNL A   1      42.933  32.843  30.448  1.00  0.00     0.074 A 
ATOM     49  C   UNL A   1      39.146  27.940  32.276  1.00  0.00     0.029 A 
ATOM     50  N   UNL A   1      41.041  28.446  31.273  1.00  0.00    -0.354 N 
ATOM     51  N   UNL A   1      42.894  32.397  31.675  1.00  0.00    -0.248 NA
ATOM     52  C   UNL A   1      43.009  31.811  29.422  1.00  0.00     0.031 C 
ATOM     53  C   UNL A   1      39.921  28.783  33.119  1.00  0.00     0.029 A 
ATOM     54  C   UNL A   1      40.998  29.268  32.373  1.00  0.00     0.049 A 
ATOM     55  H   UNL A   1      41.842  28.226  30.744  1.00  0.00     0.167 HD
ATOM     56  C   UNL A   1      42.533  31.059  31.565  1.00  0.00     0.074 A 
ATOM     57  C   UNL A   1      42.719  30.732  30.154  1.00  0.00     0.031 C 
ATOM     58  C   UNL A   1      41.847  30.426  32.563  1.00  0.00     0.037 A 
BRANCH  45  59
ATOM     59  C   UNL A   1      39.938  27.192  28.584  1.00  0.00     0.058 A 
ATOM     60  C   UNL A   1      39.748  25.803  28.524  1.00  0.00     0.135 A 
ATOM     61  C   UNL A   1      40.936  27.719  27.729  1.00  0.00     0.135 A 
ATOM     62  F   UNL A   1      38.846  25.204  29.318  1.00  0.00    -0.206 F 
ATOM     63  C   UNL A   1      40.525  24.986  27.704  1.00  0.00     0.059 A 
ATOM     64  C   UNL A   1      41.672  26.934  26.856  1.00  0.00     0.059 A 
ATOM     65  F   UNL A   1      41.315  29.002  27.775  1.00  0.00    -0.206 F 
ATOM     66  C   UNL A   1      41.491  25.563  26.881  1.00  0.00     0.060 A 
BRANCH  66  67
ATOM     67  S   UNL A   1      42.572  24.507  25.906  1.00  0.00     0.124 S 
ATOM     68  O   UNL A   1      43.767  24.471  26.741  1.00  0.00    -0.237 OA
ATOM     69  O   UNL A   1      41.802  23.270  25.832  1.00  0.00    -0.237 OA
ATOM     70  O   UNL A   1      42.703  25.234  24.646  1.00  0.00    -0.744 OA
ENDBRANCH  66  67
ENDBRANCH  45  59
BRANCH  46  71
ATOM     71  C   UNL A   1      43.328  35.116  29.213  1.00  0.00     0.058 A 
ATOM     72  C   UNL A   1      42.922  35.507  27.925  1.00  0.00     0.135 A 
ATOM     73  C   UNL A   1      44.415  35.831  29.760  1.00  0.00     0.135 A 
ATOM     74  F   UNL A   1      41.882  34.901  27.333  1.00  0.00    -0.206 F 
ATOM     75  C   UNL A   1      43.522  36.572  27.242  1.00  0.00     0.059 A 
ATOM     76  C   UNL A   1      45.042  36.881  29.091  1.00  0.00     0.059 A 
ATOM     77  F   UNL A   1      44.848  35.598  31.007  1.00  0.00    -0.206 F 
ATOM     78  C   UNL A   1      44.570  37.267  27.844  1.00  0.00     0.060 A 
BRANCH  78  79
ATOM     79  S   UNL A   1      45.227  38.750  27.045  1.00  0.00     0.124 S 
ATOM     80  O   UNL A   1      46.203  38.189  26.118  1.00  0.00    -0.237 OA
ATOM     81  O   UNL A   1      44.030  39.325  26.441  1.00  0.00    -0.237 OA
ATOM     82  O   UNL A   1      45.788  39.514  28.156  1.00  0.00    -0.744 OA
ENDBRANCH  78  79
ENDBRANCH  46  71
BRANCH  58  83
ATOM     83  C   UNL A   1      41.750  31.115  33.902  1.00  0.00     0.058 A 
ATOM     84  C   UNL A   1      40.734  32.022  34.247  1.00  0.00     0.135 A 
ATOM     85  C   UNL A   1      42.617  30.707  34.925  1.00  0.00     0.135 A 
ATOM     86  F   UNL A   1      39.799  32.381  33.358  1.00  0.00    -0.206 F 
ATOM     87  C   UNL A   1      40.605  32.529  35.542  1.00  0.00     0.059 A 
ATOM     88  C   UNL A   1      42.489  31.174  36.232  1.00  0.00     0.059 A 
ATOM     89  F   UNL A   1      43.569  29.792  34.675  1.00  0.00    -0.206 F 
ATOM     90  C   UNL A   1      41.485  32.092  36.531  1.00  0.00     0.060 A 
BRANCH  90  91
ATOM     91  S   UNL A   1      41.254  32.668  38.227  1.00  0.00     0.124 S 
ATOM     92  O   UNL A   1      39.818  32.493  38.419  1.00  0.00    -0.237 OA
ATOM     93  O   UNL A   1      42.111  31.765  38.989  1.00  0.00    -0.237 OA
ATOM     94  O   UNL A   1      41.712  34.054  38.182  1.00  0.00    -0.744 OA
ENDBRANCH  90  91
ENDBRANCH  58  83
ENDBRANCH  32  33
ENDBRANCH  25  27
ENDBRANCH  24  25
ENDBRANCH  23  24
ENDBRANCH   1  23
TORSDOF 17
ENDMDL
