MODEL 1
REMARK VINA RESULT:      -9.4      0.000      0.000
REMARK SMILES C[C@@H](CC(=O)OCCOC(=O)c1ccc(-c2c3nc(c(-c4c(F)cc(S(=O)(=O)[O-])cc4F)c4ccc([nH]4)c(-c4c(F)cc(S(=O)(=O)[O-])cc4F)c4nc(c(-c5c(F)cc(S(=O)(=O)[O-])cc5F)c5ccc2[nH]5)C=C4)C=C3)cc1)CC(=O)N1C[C@H](C)[C@@H](C)C1
REMARK SMILES IDX 7 1 6 2 4 3 5 4 3 5 2 6 1 7 78 8 79 9 80 10 81 11 82 12
REMARK SMILES IDX 87 13 83 14 85 15 84 16 86 17 8 18 9 19 10 20 11 21 12 22
REMARK SMILES IDX 13 23 77 24 14 25 76 26 15 27 16 28 17 29 70 30 18 31 75 32
REMARK SMILES IDX 69 33 71 34 19 35 74 36 68 37 67 38 20 40 54 41 33 42 53 43
REMARK SMILES IDX 34 44 37 45 52 46 72 47 35 48 36 49 51 51 73 52 38 53 21 54
REMARK SMILES IDX 22 55 31 56 23 57 24 58 30 59 32 60 25 61 26 62 27 63 28 64
REMARK SMILES IDX 29 65 55 66 56 67 65 68 57 69 58 70 64 71 66 72 59 73 60 74
REMARK SMILES IDX 61 75 62 76 63 77 39 78 40 79 49 80 41 81 42 82 48 83 50 84
REMARK SMILES IDX 43 85 44 86 45 87 46 88 47 89
REMARK H PARENT 71 39 37 50
REMARK Flexibility Score: inf
ROOT
ATOM      1  C   UNL A   1      33.650  34.155  29.059  1.00  0.00     0.274 C 
ENDROOT
BRANCH   1   2
ATOM      2  O   UNL A   1      34.552  34.765  30.004  1.00  0.00    -0.462 OA
BRANCH   2   3
ATOM      3  C   UNL A   1      34.533  34.291  31.274  1.00  0.00     0.306 C 
ATOM      4  O   UNL A   1      33.604  34.445  32.057  1.00  0.00    -0.252 OA
BRANCH   3   5
ATOM      5  C   UNL A   1      35.777  33.495  31.647  1.00  0.00     0.126 C 
BRANCH   5   6
ATOM      6  C   UNL A   1      36.309  33.585  33.094  1.00  0.00     0.006 C 
ATOM      7  C   UNL A   1      37.446  34.613  33.130  1.00  0.00     0.009 C 
BRANCH   6   8
ATOM      8  C   UNL A   1      36.690  32.195  33.637  1.00  0.00     0.104 C 
BRANCH   8   9
ATOM      9  C   UNL A   1      37.601  32.098  34.856  1.00  0.00     0.222 C 
ATOM     10  O   UNL A   1      37.226  32.496  35.957  1.00  0.00    -0.275 OA
ATOM     11  N   UNL A   1      38.783  31.411  34.685  1.00  0.00    -0.342 N 
ATOM     12  C   UNL A   1      39.394  30.647  35.755  1.00  0.00     0.123 C 
ATOM     13  C   UNL A   1      39.697  31.621  33.589  1.00  0.00     0.123 C 
ATOM     14  C   UNL A   1      40.896  30.716  35.487  1.00  0.00     0.010 C 
ATOM     15  C   UNL A   1      40.994  30.903  33.961  1.00  0.00     0.010 C 
ATOM     16  C   UNL A   1      41.512  31.887  36.250  1.00  0.00     0.010 C 
ATOM     17  C   UNL A   1      41.115  29.582  33.206  1.00  0.00     0.010 C 
ENDBRANCH   8   9
ENDBRANCH   6   8
ENDBRANCH   5   6
ENDBRANCH   3   5
ENDBRANCH   2   3
ENDBRANCH   1   2
BRANCH   1  18
ATOM     18  C   UNL A   1      34.375  33.084  28.249  1.00  0.00     0.275 C 
BRANCH  18  19
ATOM     19  O   UNL A   1      34.400  31.855  28.993  1.00  0.00    -0.458 OA
BRANCH  19  20
ATOM     20  C   UNL A   1      34.450  30.726  28.248  1.00  0.00     0.338 C 
ATOM     21  O   UNL A   1      33.571  30.263  27.545  1.00  0.00    -0.246 OA
BRANCH  20  22
ATOM     22  C   UNL A   1      35.782  30.120  28.379  1.00  0.00     0.060 A 
ATOM     23  C   UNL A   1      36.214  29.685  29.632  1.00  0.00     0.016 A 
ATOM     24  C   UNL A   1      36.647  30.104  27.287  1.00  0.00     0.016 A 
ATOM     25  C   UNL A   1      37.538  29.300  29.819  1.00  0.00     0.010 A 
ATOM     26  C   UNL A   1      37.958  29.657  27.461  1.00  0.00     0.010 A 
ATOM     27  C   UNL A   1      38.426  29.288  28.736  1.00  0.00    -0.014 A 
BRANCH  27  28
ATOM     28  C   UNL A   1      39.860  28.967  28.943  1.00  0.00     0.031 A 
ATOM     29  C   UNL A   1      40.785  30.024  29.483  1.00  0.00     0.074 A 
ATOM     30  C   UNL A   1      40.330  27.738  28.655  1.00  0.00     0.049 A 
ATOM     31  N   UNL A   1      42.089  30.011  29.581  1.00  0.00    -0.248 NA
ATOM     32  C   UNL A   1      40.159  31.264  29.968  1.00  0.00     0.031 C 
ATOM     33  C   UNL A   1      39.523  26.615  28.174  1.00  0.00     0.029 A 
ATOM     34  N   UNL A   1      41.602  27.231  28.720  1.00  0.00    -0.354 N 
ATOM     35  C   UNL A   1      42.443  31.255  30.093  1.00  0.00     0.074 A 
ATOM     36  C   UNL A   1      41.216  31.999  30.283  1.00  0.00     0.031 C 
ATOM     37  C   UNL A   1      40.319  25.549  27.993  1.00  0.00     0.029 A 
ATOM     38  C   UNL A   1      41.697  25.930  28.287  1.00  0.00     0.049 A 
ATOM     39  H   UNL A   1      42.374  27.749  29.045  1.00  0.00     0.167 HD
ATOM     40  C   UNL A   1      43.680  31.730  30.376  1.00  0.00     0.037 A 
ATOM     41  C   UNL A   1      42.777  25.145  28.112  1.00  0.00     0.037 A 
ATOM     42  C   UNL A   1      44.890  30.966  30.222  1.00  0.00     0.049 A 
ATOM     43  C   UNL A   1      44.141  25.698  28.420  1.00  0.00     0.074 A 
ATOM     44  C   UNL A   1      46.194  31.352  30.479  1.00  0.00     0.029 A 
ATOM     45  N   UNL A   1      44.941  29.649  29.786  1.00  0.00    -0.354 N 
ATOM     46  N   UNL A   1      44.467  26.892  28.852  1.00  0.00    -0.248 NA
ATOM     47  C   UNL A   1      45.286  24.802  28.206  1.00  0.00     0.031 C 
ATOM     48  C   UNL A   1      47.036  30.275  30.176  1.00  0.00     0.029 A 
ATOM     49  C   UNL A   1      46.254  29.209  29.764  1.00  0.00     0.049 A 
ATOM     50  H   UNL A   1      44.160  29.109  29.530  1.00  0.00     0.167 HD
ATOM     51  C   UNL A   1      45.850  26.887  28.980  1.00  0.00     0.074 A 
ATOM     52  C   UNL A   1      46.300  25.566  28.588  1.00  0.00     0.031 C 
ATOM     53  C   UNL A   1      46.676  27.884  29.382  1.00  0.00     0.037 A 
BRANCH  40  54
ATOM     54  C   UNL A   1      43.785  33.153  30.847  1.00  0.00     0.058 A 
ATOM     55  C   UNL A   1      43.849  33.482  32.209  1.00  0.00     0.135 A 
ATOM     56  C   UNL A   1      43.843  34.204  29.916  1.00  0.00     0.135 A 
ATOM     57  F   UNL A   1      43.782  32.518  33.141  1.00  0.00    -0.206 F 
ATOM     58  C   UNL A   1      43.943  34.804  32.635  1.00  0.00     0.059 A 
ATOM     59  C   UNL A   1      43.959  35.531  30.318  1.00  0.00     0.059 A 
ATOM     60  F   UNL A   1      43.784  33.945  28.600  1.00  0.00    -0.206 F 
ATOM     61  C   UNL A   1      43.994  35.823  31.681  1.00  0.00     0.060 A 
BRANCH  61  62
ATOM     62  S   UNL A   1      44.117  37.536  32.241  1.00  0.00     0.124 S 
ATOM     63  O   UNL A   1      43.798  38.266  31.018  1.00  0.00    -0.237 OA
ATOM     64  O   UNL A   1      43.111  37.597  33.296  1.00  0.00    -0.237 OA
ATOM     65  O   UNL A   1      45.501  37.646  32.693  1.00  0.00    -0.744 OA
ENDBRANCH  61  62
ENDBRANCH  40  54
BRANCH  41  66
ATOM     66  C   UNL A   1      42.609  23.762  27.595  1.00  0.00     0.058 A 
ATOM     67  C   UNL A   1      42.582  23.503  26.218  1.00  0.00     0.135 A 
ATOM     68  C   UNL A   1      42.500  22.669  28.469  1.00  0.00     0.135 A 
ATOM     69  F   UNL A   1      42.674  24.516  25.343  1.00  0.00    -0.206 F 
ATOM     70  C   UNL A   1      42.445  22.210  25.723  1.00  0.00     0.059 A 
ATOM     71  C   UNL A   1      42.385  21.365  27.998  1.00  0.00     0.059 A 
ATOM     72  F   UNL A   1      42.533  22.864  29.797  1.00  0.00    -0.206 F 
ATOM     73  C   UNL A   1      42.351  21.146  26.622  1.00  0.00     0.060 A 
BRANCH  73  74
ATOM     74  S   UNL A   1      42.236  19.464  25.975  1.00  0.00     0.124 S 
ATOM     75  O   UNL A   1      40.830  19.391  25.595  1.00  0.00    -0.237 OA
ATOM     76  O   UNL A   1      43.194  19.489  24.874  1.00  0.00    -0.237 OA
ATOM     77  O   UNL A   1      42.626  18.640  27.115  1.00  0.00    -0.744 OA
ENDBRANCH  73  74
ENDBRANCH  41  66
BRANCH  53  78
ATOM     78  C   UNL A   1      48.142  27.572  29.454  1.00  0.00     0.058 A 
ATOM     79  C   UNL A   1      48.999  27.811  28.369  1.00  0.00     0.135 A 
ATOM     80  C   UNL A   1      48.702  27.063  30.637  1.00  0.00     0.135 A 
ATOM     81  F   UNL A   1      48.510  28.291  27.215  1.00  0.00    -0.206 F 
ATOM     82  C   UNL A   1      50.361  27.535  28.447  1.00  0.00     0.059 A 
ATOM     83  C   UNL A   1      50.063  26.798  30.743  1.00  0.00     0.059 A 
ATOM     84  F   UNL A   1      47.923  26.826  31.704  1.00  0.00    -0.206 F 
ATOM     85  C   UNL A   1      50.882  27.027  29.638  1.00  0.00     0.060 A 
BRANCH  85  86
ATOM     86  S   UNL A   1      52.654  26.695  29.740  1.00  0.00     0.124 S 
ATOM     87  O   UNL A   1      53.192  28.036  29.946  1.00  0.00    -0.237 OA
ATOM     88  O   UNL A   1      52.742  25.794  30.885  1.00  0.00    -0.237 OA
ATOM     89  O   UNL A   1      52.959  26.086  28.448  1.00  0.00    -0.744 OA
ENDBRANCH  85  86
ENDBRANCH  53  78
ENDBRANCH  27  28
ENDBRANCH  20  22
ENDBRANCH  19  20
ENDBRANCH  18  19
ENDBRANCH   1  18
TORSDOF 17
ENDMDL
MODEL 2
REMARK VINA RESULT:      -9.4      3.812      6.282
REMARK SMILES C[C@@H](CC(=O)OCCOC(=O)c1ccc(-c2c3nc(c(-c4c(F)cc(S(=O)(=O)[O-])cc4F)c4ccc([nH]4)c(-c4c(F)cc(S(=O)(=O)[O-])cc4F)c4nc(c(-c5c(F)cc(S(=O)(=O)[O-])cc5F)c5ccc2[nH]5)C=C4)C=C3)cc1)CC(=O)N1C[C@H](C)[C@@H](C)C1
REMARK SMILES IDX 7 1 6 2 4 3 5 4 3 5 2 6 1 7 78 8 79 9 80 10 81 11 82 12
REMARK SMILES IDX 87 13 83 14 85 15 84 16 86 17 8 18 9 19 10 20 11 21 12 22
REMARK SMILES IDX 13 23 77 24 14 25 76 26 15 27 16 28 17 29 70 30 18 31 75 32
REMARK SMILES IDX 69 33 71 34 19 35 74 36 68 37 67 38 20 40 54 41 33 42 53 43
REMARK SMILES IDX 34 44 37 45 52 46 72 47 35 48 36 49 51 51 73 52 38 53 21 54
REMARK SMILES IDX 22 55 31 56 23 57 24 58 30 59 32 60 25 61 26 62 27 63 28 64
REMARK SMILES IDX 29 65 55 66 56 67 65 68 57 69 58 70 64 71 66 72 59 73 60 74
REMARK SMILES IDX 61 75 62 76 63 77 39 78 40 79 49 80 41 81 42 82 48 83 50 84
REMARK SMILES IDX 43 85 44 86 45 87 46 88 47 89
REMARK H PARENT 71 39 37 50
REMARK Flexibility Score: inf
ROOT
ATOM      1  C   UNL A   1      33.169  30.426  27.241  1.00  0.00     0.274 C 
ENDROOT
BRANCH   1   2
ATOM      2  O   UNL A   1      33.274  30.190  25.822  1.00  0.00    -0.462 OA
BRANCH   2   3
ATOM      3  C   UNL A   1      32.441  29.266  25.283  1.00  0.00     0.306 C 
ATOM      4  O   UNL A   1      32.267  29.108  24.081  1.00  0.00    -0.252 OA
BRANCH   3   5
ATOM      5  C   UNL A   1      31.751  28.390  26.320  1.00  0.00     0.126 C 
BRANCH   5   6
ATOM      6  C   UNL A   1      32.256  26.945  26.526  1.00  0.00     0.006 C 
ATOM      7  C   UNL A   1      33.730  26.882  26.113  1.00  0.00     0.009 C 
BRANCH   6   8
ATOM      8  C   UNL A   1      31.349  25.928  25.805  1.00  0.00     0.104 C 
BRANCH   8   9
ATOM      9  C   UNL A   1      31.450  24.452  26.173  1.00  0.00     0.222 C 
ATOM     10  O   UNL A   1      31.025  24.041  27.251  1.00  0.00    -0.275 OA
ATOM     11  N   UNL A   1      31.894  23.602  25.184  1.00  0.00    -0.342 N 
ATOM     12  C   UNL A   1      31.429  22.233  25.076  1.00  0.00     0.123 C 
ATOM     13  C   UNL A   1      33.065  23.835  24.374  1.00  0.00     0.123 C 
ATOM     14  C   UNL A   1      32.601  21.461  24.472  1.00  0.00     0.010 C 
ATOM     15  C   UNL A   1      33.362  22.521  23.653  1.00  0.00     0.010 C 
ATOM     16  C   UNL A   1      33.464  20.863  25.582  1.00  0.00     0.010 C 
ATOM     17  C   UNL A   1      32.906  22.589  22.198  1.00  0.00     0.010 C 
ENDBRANCH   8   9
ENDBRANCH   6   8
ENDBRANCH   5   6
ENDBRANCH   3   5
ENDBRANCH   2   3
ENDBRANCH   1   2
BRANCH   1  18
ATOM     18  C   UNL A   1      34.476  30.998  27.782  1.00  0.00     0.275 C 
BRANCH  18  19
ATOM     19  O   UNL A   1      35.441  29.942  27.921  1.00  0.00    -0.458 OA
BRANCH  19  20
ATOM     20  C   UNL A   1      36.053  29.871  29.126  1.00  0.00     0.338 C 
ATOM     21  O   UNL A   1      35.528  29.878  30.225  1.00  0.00    -0.246 OA
BRANCH  20  22
ATOM     22  C   UNL A   1      37.503  29.744  28.925  1.00  0.00     0.060 A 
ATOM     23  C   UNL A   1      38.007  29.660  27.626  1.00  0.00     0.016 A 
ATOM     24  C   UNL A   1      38.344  29.579  30.023  1.00  0.00     0.016 A 
ATOM     25  C   UNL A   1      39.344  29.336  27.417  1.00  0.00     0.010 A 
ATOM     26  C   UNL A   1      39.699  29.316  29.812  1.00  0.00     0.010 A 
ATOM     27  C   UNL A   1      40.202  29.154  28.508  1.00  0.00    -0.014 A 
BRANCH  27  28
ATOM     28  C   UNL A   1      41.605  28.718  28.296  1.00  0.00     0.031 A 
ATOM     29  C   UNL A   1      42.714  29.733  28.370  1.00  0.00     0.074 A 
ATOM     30  C   UNL A   1      41.885  27.425  28.044  1.00  0.00     0.049 A 
ATOM     31  N   UNL A   1      43.977  29.603  28.054  1.00  0.00    -0.248 NA
ATOM     32  C   UNL A   1      42.350  31.074  28.854  1.00  0.00     0.031 C 
ATOM     33  C   UNL A   1      40.903  26.340  27.997  1.00  0.00     0.029 A 
ATOM     34  N   UNL A   1      43.078  26.806  27.775  1.00  0.00    -0.354 N 
ATOM     35  C   UNL A   1      44.548  30.855  28.256  1.00  0.00     0.074 A 
ATOM     36  C   UNL A   1      43.493  31.732  28.719  1.00  0.00     0.031 C 
ATOM     37  C   UNL A   1      41.535  25.188  27.722  1.00  0.00     0.029 A 
ATOM     38  C   UNL A   1      42.954  25.462  27.514  1.00  0.00     0.049 A 
ATOM     39  H   UNL A   1      43.942  27.279  27.767  1.00  0.00     0.167 HD
ATOM     40  C   UNL A   1      45.834  31.235  28.069  1.00  0.00     0.037 A 
ATOM     41  C   UNL A   1      43.872  24.562  27.117  1.00  0.00     0.037 A 
ATOM     42  C   UNL A   1      46.884  30.344  27.648  1.00  0.00     0.049 A 
ATOM     43  C   UNL A   1      45.291  25.008  26.903  1.00  0.00     0.074 A 
ATOM     44  C   UNL A   1      48.220  30.627  27.428  1.00  0.00     0.029 A 
ATOM     45  N   UNL A   1      46.716  28.989  27.401  1.00  0.00    -0.354 N 
ATOM     46  N   UNL A   1      45.808  26.205  27.046  1.00  0.00    -0.248 NA
ATOM     47  C   UNL A   1      46.252  23.987  26.465  1.00  0.00     0.031 C 
ATOM     48  C   UNL A   1      48.857  29.446  27.025  1.00  0.00     0.029 A 
ATOM     49  C   UNL A   1      47.923  28.422  27.028  1.00  0.00     0.049 A 
ATOM     50  H   UNL A   1      45.864  28.502  27.479  1.00  0.00     0.167 HD
ATOM     51  C   UNL A   1      47.155  26.079  26.732  1.00  0.00     0.074 A 
ATOM     52  C   UNL A   1      47.377  24.685  26.402  1.00  0.00     0.031 C 
ATOM     53  C   UNL A   1      48.122  27.029  26.715  1.00  0.00     0.037 A 
BRANCH  40  54
ATOM     54  C   UNL A   1      46.169  32.684  28.286  1.00  0.00     0.058 A 
ATOM     55  C   UNL A   1      46.599  33.169  29.530  1.00  0.00     0.135 A 
ATOM     56  C   UNL A   1      46.075  33.599  27.223  1.00  0.00     0.135 A 
ATOM     57  F   UNL A   1      46.691  32.342  30.583  1.00  0.00    -0.206 F 
ATOM     58  C   UNL A   1      46.902  34.515  29.721  1.00  0.00     0.059 A 
ATOM     59  C   UNL A   1      46.394  34.943  27.386  1.00  0.00     0.059 A 
ATOM     60  F   UNL A   1      45.666  33.188  26.012  1.00  0.00    -0.206 F 
ATOM     61  C   UNL A   1      46.793  35.396  28.643  1.00  0.00     0.060 A 
BRANCH  61  62
ATOM     62  S   UNL A   1      47.189  37.139  28.897  1.00  0.00     0.124 S 
ATOM     63  O   UNL A   1      47.276  37.622  27.523  1.00  0.00    -0.237 OA
ATOM     64  O   UNL A   1      46.043  37.616  29.664  1.00  0.00    -0.237 OA
ATOM     65  O   UNL A   1      48.452  37.096  29.628  1.00  0.00    -0.744 OA
ENDBRANCH  61  62
ENDBRANCH  40  54
BRANCH  41  66
ATOM     66  C   UNL A   1      43.466  23.152  26.872  1.00  0.00     0.058 A 
ATOM     67  C   UNL A   1      43.387  22.639  25.569  1.00  0.00     0.135 A 
ATOM     68  C   UNL A   1      43.176  22.285  27.936  1.00  0.00     0.135 A 
ATOM     69  F   UNL A   1      43.647  23.433  24.519  1.00  0.00    -0.206 F 
ATOM     70  C   UNL A   1      43.029  21.317  25.329  1.00  0.00     0.059 A 
ATOM     71  C   UNL A   1      42.837  20.953  27.722  1.00  0.00     0.059 A 
ATOM     72  F   UNL A   1      43.249  22.726  29.202  1.00  0.00    -0.206 F 
ATOM     73  C   UNL A   1      42.759  20.480  26.413  1.00  0.00     0.060 A 
BRANCH  73  74
ATOM     74  S   UNL A   1      42.354  18.748  26.099  1.00  0.00     0.124 S 
ATOM     75  O   UNL A   1      40.940  18.835  25.752  1.00  0.00    -0.237 OA
ATOM     76  O   UNL A   1      43.259  18.411  25.004  1.00  0.00    -0.237 OA
ATOM     77  O   UNL A   1      42.654  18.099  27.371  1.00  0.00    -0.744 OA
ENDBRANCH  73  74
ENDBRANCH  41  66
BRANCH  53  78
ATOM     78  C   UNL A   1      49.512  26.585  26.365  1.00  0.00     0.058 A 
ATOM     79  C   UNL A   1      50.365  26.015  27.323  1.00  0.00     0.135 A 
ATOM     80  C   UNL A   1      49.982  26.696  25.047  1.00  0.00     0.135 A 
ATOM     81  F   UNL A   1      49.963  25.894  28.598  1.00  0.00    -0.206 F 
ATOM     82  C   UNL A   1      51.647  25.590  26.990  1.00  0.00     0.059 A 
ATOM     83  C   UNL A   1      51.252  26.259  24.687  1.00  0.00     0.059 A 
ATOM     84  F   UNL A   1      49.199  27.226  24.094  1.00  0.00    -0.206 F 
ATOM     85  C   UNL A   1      52.082  25.718  25.669  1.00  0.00     0.060 A 
BRANCH  85  86
ATOM     86  S   UNL A   1      53.738  25.141  25.238  1.00  0.00     0.124 S 
ATOM     87  O   UNL A   1      53.590  23.696  25.378  1.00  0.00    -0.237 OA
ATOM     88  O   UNL A   1      53.899  25.631  23.873  1.00  0.00    -0.237 OA
ATOM     89  O   UNL A   1      54.590  25.786  26.233  1.00  0.00    -0.744 OA
ENDBRANCH  85  86
ENDBRANCH  53  78
ENDBRANCH  27  28
ENDBRANCH  20  22
ENDBRANCH  19  20
ENDBRANCH  18  19
ENDBRANCH   1  18
TORSDOF 17
ENDMDL
MODEL 3
REMARK VINA RESULT:      -9.3      5.177     12.386
REMARK SMILES C[C@@H](CC(=O)OCCOC(=O)c1ccc(-c2c3nc(c(-c4c(F)cc(S(=O)(=O)[O-])cc4F)c4ccc([nH]4)c(-c4c(F)cc(S(=O)(=O)[O-])cc4F)c4nc(c(-c5c(F)cc(S(=O)(=O)[O-])cc5F)c5ccc2[nH]5)C=C4)C=C3)cc1)CC(=O)N1C[C@H](C)[C@@H](C)C1
REMARK SMILES IDX 7 1 6 2 4 3 5 4 3 5 2 6 1 7 78 8 79 9 80 10 81 11 82 12
REMARK SMILES IDX 87 13 83 14 85 15 84 16 86 17 8 18 9 19 10 20 11 21 12 22
REMARK SMILES IDX 13 23 77 24 14 25 76 26 15 27 16 28 17 29 70 30 18 31 75 32
REMARK SMILES IDX 69 33 71 34 19 35 74 36 68 37 67 38 20 40 54 41 33 42 53 43
REMARK SMILES IDX 34 44 37 45 52 46 72 47 35 48 36 49 51 51 73 52 38 53 21 54
REMARK SMILES IDX 22 55 31 56 23 57 24 58 30 59 32 60 25 61 26 62 27 63 28 64
REMARK SMILES IDX 29 65 55 66 56 67 65 68 57 69 58 70 64 71 66 72 59 73 60 74
REMARK SMILES IDX 61 75 62 76 63 77 39 78 40 79 49 80 41 81 42 82 48 83 50 84
REMARK SMILES IDX 43 85 44 86 45 87 46 88 47 89
REMARK H PARENT 71 39 37 50
REMARK Flexibility Score: inf
ROOT
ATOM      1  C   UNL A   1      38.043  21.904  25.779  1.00  0.00     0.274 C 
ENDROOT
BRANCH   1   2
ATOM      2  O   UNL A   1      37.563  22.685  24.666  1.00  0.00    -0.462 OA
BRANCH   2   3
ATOM      3  C   UNL A   1      36.416  23.383  24.847  1.00  0.00     0.306 C 
ATOM      4  O   UNL A   1      36.150  24.033  25.851  1.00  0.00    -0.252 OA
BRANCH   3   5
ATOM      5  C   UNL A   1      35.472  23.326  23.652  1.00  0.00     0.126 C 
BRANCH   5   6
ATOM      6  C   UNL A   1      33.955  23.190  23.910  1.00  0.00     0.006 C 
ATOM      7  C   UNL A   1      33.658  21.740  24.308  1.00  0.00     0.009 C 
BRANCH   6   8
ATOM      8  C   UNL A   1      33.137  23.701  22.709  1.00  0.00     0.104 C 
BRANCH   8   9
ATOM      9  C   UNL A   1      33.062  25.201  22.446  1.00  0.00     0.222 C 
ATOM     10  O   UNL A   1      33.913  25.764  21.760  1.00  0.00    -0.275 OA
ATOM     11  N   UNL A   1      31.924  25.844  22.883  1.00  0.00    -0.342 N 
ATOM     12  C   UNL A   1      31.364  26.983  22.183  1.00  0.00     0.123 C 
ATOM     13  C   UNL A   1      31.362  25.698  24.204  1.00  0.00     0.123 C 
ATOM     14  C   UNL A   1      30.699  27.830  23.266  1.00  0.00     0.010 C 
ATOM     15  C   UNL A   1      30.324  26.809  24.358  1.00  0.00     0.010 C 
ATOM     16  C   UNL A   1      31.676  28.887  23.779  1.00  0.00     0.010 C 
ATOM     17  C   UNL A   1      28.911  26.256  24.195  1.00  0.00     0.010 C 
ENDBRANCH   8   9
ENDBRANCH   6   8
ENDBRANCH   5   6
ENDBRANCH   3   5
ENDBRANCH   2   3
ENDBRANCH   1   2
BRANCH   1  18
ATOM     18  C   UNL A   1      39.448  22.351  26.174  1.00  0.00     0.275 C 
BRANCH  18  19
ATOM     19  O   UNL A   1      39.377  23.620  26.845  1.00  0.00    -0.458 OA
BRANCH  19  20
ATOM     20  C   UNL A   1      40.539  24.310  26.905  1.00  0.00     0.338 C 
ATOM     21  O   UNL A   1      41.589  24.043  26.348  1.00  0.00    -0.246 OA
BRANCH  20  22
ATOM     22  C   UNL A   1      40.351  25.501  27.744  1.00  0.00     0.060 A 
ATOM     23  C   UNL A   1      41.284  26.537  27.677  1.00  0.00     0.016 A 
ATOM     24  C   UNL A   1      39.325  25.531  28.686  1.00  0.00     0.016 A 
ATOM     25  C   UNL A   1      41.240  27.575  28.603  1.00  0.00     0.010 A 
ATOM     26  C   UNL A   1      39.245  26.605  29.575  1.00  0.00     0.010 A 
ATOM     27  C   UNL A   1      40.224  27.616  29.566  1.00  0.00    -0.014 A 
BRANCH  27  28
ATOM     28  C   UNL A   1      40.223  28.668  30.613  1.00  0.00     0.031 A 
ATOM     29  C   UNL A   1      41.188  28.569  31.763  1.00  0.00     0.074 A 
ATOM     30  C   UNL A   1      39.368  29.706  30.533  1.00  0.00     0.049 A 
ATOM     31  N   UNL A   1      41.242  29.277  32.862  1.00  0.00    -0.248 NA
ATOM     32  C   UNL A   1      42.223  27.527  31.668  1.00  0.00     0.031 C 
ATOM     33  C   UNL A   1      38.420  29.939  29.442  1.00  0.00     0.029 A 
ATOM     34  N   UNL A   1      39.156  30.755  31.389  1.00  0.00    -0.354 N 
ATOM     35  C   UNL A   1      42.284  28.738  33.608  1.00  0.00     0.074 A 
ATOM     36  C   UNL A   1      42.833  27.642  32.839  1.00  0.00     0.031 C 
ATOM     37  C   UNL A   1      37.732  31.065  29.692  1.00  0.00     0.029 A 
ATOM     38  C   UNL A   1      38.146  31.597  30.986  1.00  0.00     0.049 A 
ATOM     39  H   UNL A   1      39.675  30.893  32.214  1.00  0.00     0.167 HD
ATOM     40  C   UNL A   1      42.737  29.124  34.825  1.00  0.00     0.037 A 
ATOM     41  C   UNL A   1      37.594  32.656  31.607  1.00  0.00     0.037 A 
ATOM     42  C   UNL A   1      42.210  30.242  35.563  1.00  0.00     0.049 A 
ATOM     43  C   UNL A   1      38.104  33.059  32.962  1.00  0.00     0.074 A 
ATOM     44  C   UNL A   1      42.597  30.718  36.804  1.00  0.00     0.029 A 
ATOM     45  N   UNL A   1      41.192  31.073  35.116  1.00  0.00    -0.354 N 
ATOM     46  N   UNL A   1      39.053  32.509  33.681  1.00  0.00    -0.248 NA
ATOM     47  C   UNL A   1      37.462  34.218  33.598  1.00  0.00     0.031 C 
ATOM     48  C   UNL A   1      41.796  31.823  37.117  1.00  0.00     0.029 A 
ATOM     49  C   UNL A   1      40.936  32.056  36.057  1.00  0.00     0.049 A 
ATOM     50  H   UNL A   1      40.722  30.977  34.256  1.00  0.00     0.167 HD
ATOM     51  C   UNL A   1      39.135  33.264  34.844  1.00  0.00     0.074 A 
ATOM     52  C   UNL A   1      38.146  34.317  34.729  1.00  0.00     0.031 C 
ATOM     53  C   UNL A   1      39.953  33.101  35.914  1.00  0.00     0.037 A 
BRANCH  40  54
ATOM     54  C   UNL A   1      43.835  28.308  35.448  1.00  0.00     0.058 A 
ATOM     55  C   UNL A   1      43.566  27.213  36.282  1.00  0.00     0.135 A 
ATOM     56  C   UNL A   1      45.181  28.618  35.187  1.00  0.00     0.135 A 
ATOM     57  F   UNL A   1      42.298  26.883  36.576  1.00  0.00    -0.206 F 
ATOM     58  C   UNL A   1      44.591  26.466  36.856  1.00  0.00     0.059 A 
ATOM     59  C   UNL A   1      46.222  27.872  35.733  1.00  0.00     0.059 A 
ATOM     60  F   UNL A   1      45.495  29.657  34.398  1.00  0.00    -0.206 F 
ATOM     61  C   UNL A   1      45.917  26.806  36.579  1.00  0.00     0.060 A 
BRANCH  61  62
ATOM     62  S   UNL A   1      47.242  25.832  37.326  1.00  0.00     0.124 S 
ATOM     63  O   UNL A   1      46.906  25.923  38.744  1.00  0.00    -0.237 OA
ATOM     64  O   UNL A   1      47.054  24.521  36.714  1.00  0.00    -0.237 OA
ATOM     65  O   UNL A   1      48.452  26.540  36.922  1.00  0.00    -0.744 OA
ENDBRANCH  61  62
ENDBRANCH  40  54
BRANCH  41  66
ATOM     66  C   UNL A   1      36.477  33.392  30.958  1.00  0.00     0.058 A 
ATOM     67  C   UNL A   1      36.701  34.203  29.837  1.00  0.00     0.135 A 
ATOM     68  C   UNL A   1      35.160  33.278  31.432  1.00  0.00     0.135 A 
ATOM     69  F   UNL A   1      37.943  34.351  29.353  1.00  0.00    -0.206 F 
ATOM     70  C   UNL A   1      35.660  34.881  29.209  1.00  0.00     0.059 A 
ATOM     71  C   UNL A   1      34.100  33.927  30.807  1.00  0.00     0.059 A 
ATOM     72  F   UNL A   1      34.893  32.504  32.495  1.00  0.00    -0.206 F 
ATOM     73  C   UNL A   1      34.362  34.733  29.700  1.00  0.00     0.060 A 
BRANCH  73  74
ATOM     74  S   UNL A   1      33.005  35.565  28.845  1.00  0.00     0.124 S 
ATOM     75  O   UNL A   1      32.228  36.085  29.964  1.00  0.00    -0.237 OA
ATOM     76  O   UNL A   1      33.709  36.560  28.041  1.00  0.00    -0.237 OA
ATOM     77  O   UNL A   1      32.379  34.488  28.086  1.00  0.00    -0.744 OA
ENDBRANCH  73  74
ENDBRANCH  41  66
BRANCH  53  78
ATOM     78  C   UNL A   1      39.837  34.105  37.024  1.00  0.00     0.058 A 
ATOM     79  C   UNL A   1      38.985  33.895  38.118  1.00  0.00     0.135 A 
ATOM     80  C   UNL A   1      40.617  35.272  37.009  1.00  0.00     0.135 A 
ATOM     81  F   UNL A   1      38.215  32.797  38.175  1.00  0.00    -0.206 F 
ATOM     82  C   UNL A   1      38.894  34.822  39.153  1.00  0.00     0.059 A 
ATOM     83  C   UNL A   1      40.556  36.202  38.041  1.00  0.00     0.059 A 
ATOM     84  F   UNL A   1      41.453  35.512  35.986  1.00  0.00    -0.206 F 
ATOM     85  C   UNL A   1      39.682  35.973  39.103  1.00  0.00     0.060 A 
BRANCH  85  86
ATOM     86  S   UNL A   1      39.577  37.158  40.461  1.00  0.00     0.124 S 
ATOM     87  O   UNL A   1      40.985  37.456  40.700  1.00  0.00    -0.237 OA
ATOM     88  O   UNL A   1      38.791  38.240  39.877  1.00  0.00    -0.237 OA
ATOM     89  O   UNL A   1      38.905  36.404  41.516  1.00  0.00    -0.744 OA
ENDBRANCH  85  86
ENDBRANCH  53  78
ENDBRANCH  27  28
ENDBRANCH  20  22
ENDBRANCH  19  20
ENDBRANCH  18  19
ENDBRANCH   1  18
TORSDOF 17
ENDMDL
