MODEL 1
REMARK VINA RESULT:     -13.6      0.000      0.000
REMARK SMILES Cc1c(NC(=O)[C@@H]2CC=CC[C@@H]2C(=O)OCCOC(=O)c2ccc(-c3c4nc(c(-c5c(F)cc(S(=O)(=O)[O-])cc5F)c5ccc([nH]5)c(-c5c(F)cc(S(=O)(=O)[O-])cc5F)c5nc(c(-c6c(F)cc(S(=O)(=O)[O-])cc6F)c6ccc3[nH]6)C=C5)C=C4)cc2)cccc1C(=O)N1CCOCC1
REMARK SMILES IDX 16 1 15 2 13 3 14 4 12 5 7 6 8 7 9 8 11 9 10 10 5 11 4 12
REMARK SMILES IDX 6 14 3 15 1 16 2 17 90 18 87 19 89 20 88 21 91 22 92 23
REMARK SMILES IDX 93 24 94 25 98 26 95 27 97 28 96 29 17 30 18 31 19 32 20 33
REMARK SMILES IDX 21 34 22 35 86 36 23 37 85 38 24 39 25 40 26 41 79 42 27 43
REMARK SMILES IDX 84 44 78 45 80 46 28 47 83 48 77 49 76 50 29 52 63 53 42 54
REMARK SMILES IDX 62 55 43 56 46 57 61 58 81 59 44 60 45 61 60 63 82 64 47 65
REMARK SMILES IDX 30 66 31 67 40 68 32 69 33 70 39 71 41 72 34 73 35 74 36 75
REMARK SMILES IDX 37 76 38 77 64 78 65 79 74 80 66 81 67 82 73 83 75 84 68 85
REMARK SMILES IDX 69 86 70 87 71 88 72 89 48 90 49 91 58 92 50 93 51 94 57 95
REMARK SMILES IDX 59 96 52 97 53 98 54 99 55 100 56 101
REMARK H PARENT 4 13 80 51 46 62
REMARK Flexibility Score: inf
ROOT
ATOM      1  C   UNL A   1      33.189  29.507  26.964  1.00  0.00     0.274 C 
ENDROOT
BRANCH   1   2
ATOM      2  O   UNL A   1      32.826  28.717  25.828  1.00  0.00    -0.462 OA
BRANCH   2   3
ATOM      3  C   UNL A   1      31.730  29.120  25.149  1.00  0.00     0.310 C 
ATOM      4  O   UNL A   1      31.264  30.250  25.221  1.00  0.00    -0.252 OA
BRANCH   3   5
ATOM      5  C   UNL A   1      31.010  28.000  24.414  1.00  0.00     0.116 C 
ATOM      6  C   UNL A   1      31.688  27.837  23.057  1.00  0.00     0.097 C 
ATOM      7  C   UNL A   1      31.516  29.079  22.181  1.00  0.00     0.041 C 
ATOM      8  C   UNL A   1      30.064  29.483  22.141  1.00  0.00    -0.030 C 
ATOM      9  C   UNL A   1      29.506  28.136  24.183  1.00  0.00     0.043 C 
ATOM     10  C   UNL A   1      29.157  29.031  23.026  1.00  0.00    -0.030 C 
BRANCH   6  11
ATOM     11  C   UNL A   1      33.116  27.440  23.310  1.00  0.00     0.228 C 
ATOM     12  N   UNL A   1      33.276  26.395  24.206  1.00  0.00    -0.326 N 
ATOM     13  H   UNL A   1      33.510  26.545  25.149  1.00  0.00     0.169 HD
ATOM     14  O   UNL A   1      34.081  28.047  22.853  1.00  0.00    -0.274 OA
BRANCH  12  15
ATOM     15  C   UNL A   1      33.078  25.095  23.673  1.00  0.00     0.044 A 
ATOM     16  C   UNL A   1      32.776  24.344  26.042  1.00  0.00     0.047 C 
ATOM     17  C   UNL A   1      32.841  24.031  24.570  1.00  0.00    -0.015 A 
ATOM     18  C   UNL A   1      32.763  22.724  24.046  1.00  0.00     0.045 A 
ATOM     19  C   UNL A   1      33.270  24.865  22.307  1.00  0.00     0.026 A 
ATOM     20  C   UNL A   1      33.061  22.508  22.683  1.00  0.00     0.014 A 
ATOM     21  C   UNL A   1      33.319  23.568  21.821  1.00  0.00     0.003 A 
BRANCH  18  22
ATOM     22  C   UNL A   1      32.602  21.487  24.870  1.00  0.00     0.254 C 
ATOM     23  O   UNL A   1      31.482  21.240  25.321  1.00  0.00    -0.269 OA
ATOM     24  N   UNL A   1      33.652  20.598  25.025  1.00  0.00    -0.334 N 
ATOM     25  C   UNL A   1      35.044  20.942  25.360  1.00  0.00     0.148 C 
ATOM     26  C   UNL A   1      33.320  19.186  25.168  1.00  0.00     0.148 C 
ATOM     27  C   UNL A   1      36.055  19.937  24.766  1.00  0.00     0.181 C 
ATOM     28  C   UNL A   1      34.351  18.333  24.433  1.00  0.00     0.181 C 
ATOM     29  O   UNL A   1      35.653  18.575  24.984  1.00  0.00    -0.378 OA
ENDBRANCH  18  22
ENDBRANCH  12  15
ENDBRANCH   6  11
ENDBRANCH   3   5
ENDBRANCH   2   3
ENDBRANCH   1   2
BRANCH   1  30
ATOM     30  C   UNL A   1      34.663  29.258  27.318  1.00  0.00     0.275 C 
BRANCH  30  31
ATOM     31  O   UNL A   1      35.498  30.389  27.684  1.00  0.00    -0.458 OA
BRANCH  31  32
ATOM     32  C   UNL A   1      36.288  30.299  28.785  1.00  0.00     0.338 C 
ATOM     33  O   UNL A   1      35.936  30.711  29.897  1.00  0.00    -0.246 OA
BRANCH  32  34
ATOM     34  C   UNL A   1      37.441  29.391  28.504  1.00  0.00     0.060 A 
ATOM     35  C   UNL A   1      38.372  29.624  27.472  1.00  0.00     0.016 A 
ATOM     36  C   UNL A   1      37.760  28.508  29.530  1.00  0.00     0.016 A 
ATOM     37  C   UNL A   1      39.657  29.071  27.544  1.00  0.00     0.010 A 
ATOM     38  C   UNL A   1      39.074  28.194  29.733  1.00  0.00     0.010 A 
ATOM     39  C   UNL A   1      40.013  28.399  28.713  1.00  0.00    -0.014 A 
BRANCH  39  40
ATOM     40  C   UNL A   1      41.184  27.550  28.889  1.00  0.00     0.031 A 
ATOM     41  C   UNL A   1      41.258  26.135  28.479  1.00  0.00     0.074 A 
ATOM     42  C   UNL A   1      42.233  28.296  29.314  1.00  0.00     0.049 A 
ATOM     43  N   UNL A   1      42.076  25.295  29.013  1.00  0.00    -0.248 NA
ATOM     44  C   UNL A   1      40.443  25.511  27.436  1.00  0.00     0.031 C 
ATOM     45  C   UNL A   1      43.653  28.041  29.413  1.00  0.00     0.029 A 
ATOM     46  N   UNL A   1      42.102  29.572  29.893  1.00  0.00    -0.354 N 
ATOM     47  C   UNL A   1      42.157  24.198  28.174  1.00  0.00     0.074 A 
ATOM     48  C   UNL A   1      41.025  24.311  27.293  1.00  0.00     0.031 C 
ATOM     49  C   UNL A   1      44.173  28.909  30.309  1.00  0.00     0.029 A 
ATOM     50  C   UNL A   1      43.069  29.683  30.874  1.00  0.00     0.049 A 
ATOM     51  H   UNL A   1      41.443  30.260  29.645  1.00  0.00     0.167 HD
ATOM     52  C   UNL A   1      43.295  23.445  28.191  1.00  0.00     0.037 A 
ATOM     53  C   UNL A   1      42.611  29.677  32.160  1.00  0.00     0.037 A 
ATOM     54  C   UNL A   1      44.219  23.997  29.180  1.00  0.00     0.049 A 
ATOM     55  C   UNL A   1      43.070  28.405  32.826  1.00  0.00     0.074 A 
ATOM     56  C   UNL A   1      45.263  24.898  29.048  1.00  0.00     0.029 A 
ATOM     57  N   UNL A   1      43.864  24.000  30.524  1.00  0.00    -0.354 N 
ATOM     58  N   UNL A   1      43.203  27.256  32.215  1.00  0.00    -0.248 NA
ATOM     59  C   UNL A   1      43.579  28.392  34.190  1.00  0.00     0.031 C 
ATOM     60  C   UNL A   1      45.482  25.501  30.311  1.00  0.00     0.029 A 
ATOM     61  C   UNL A   1      44.559  24.985  31.203  1.00  0.00     0.049 A 
ATOM     62  H   UNL A   1      43.210  23.388  30.935  1.00  0.00     0.167 HD
ATOM     63  C   UNL A   1      43.907  26.403  33.026  1.00  0.00     0.074 A 
ATOM     64  C   UNL A   1      44.090  27.151  34.259  1.00  0.00     0.031 C 
ATOM     65  C   UNL A   1      44.372  25.180  32.629  1.00  0.00     0.037 A 
BRANCH  52  66
ATOM     66  C   UNL A   1      43.713  22.450  27.124  1.00  0.00     0.058 A 
ATOM     67  C   UNL A   1      42.939  21.288  26.889  1.00  0.00     0.135 A 
ATOM     68  C   UNL A   1      44.844  22.579  26.294  1.00  0.00     0.135 A 
ATOM     69  F   UNL A   1      41.825  21.027  27.583  1.00  0.00    -0.206 F 
ATOM     70  C   UNL A   1      43.269  20.321  25.942  1.00  0.00     0.059 A 
ATOM     71  C   UNL A   1      45.208  21.606  25.343  1.00  0.00     0.059 A 
ATOM     72  F   UNL A   1      45.622  23.672  26.356  1.00  0.00    -0.206 F 
ATOM     73  C   UNL A   1      44.408  20.480  25.174  1.00  0.00     0.060 A 
BRANCH  73  74
ATOM     74  S   UNL A   1      44.786  19.200  23.958  1.00  0.00     0.124 S 
ATOM     75  O   UNL A   1      46.200  18.942  24.214  1.00  0.00    -0.237 OA
ATOM     76  O   UNL A   1      43.870  18.133  24.343  1.00  0.00    -0.237 OA
ATOM     77  O   UNL A   1      44.494  19.846  22.682  1.00  0.00    -0.744 OA
ENDBRANCH  73  74
ENDBRANCH  52  66
BRANCH  53  78
ATOM     78  C   UNL A   1      41.294  30.399  32.354  1.00  0.00     0.058 A 
ATOM     79  C   UNL A   1      40.168  29.638  32.764  1.00  0.00     0.135 A 
ATOM     80  C   UNL A   1      41.139  31.792  32.409  1.00  0.00     0.135 A 
ATOM     81  F   UNL A   1      40.223  28.295  32.741  1.00  0.00    -0.206 F 
ATOM     82  C   UNL A   1      39.009  30.212  33.290  1.00  0.00     0.059 A 
ATOM     83  C   UNL A   1      39.969  32.393  32.912  1.00  0.00     0.059 A 
ATOM     84  F   UNL A   1      42.144  32.599  32.041  1.00  0.00    -0.206 F 
ATOM     85  C   UNL A   1      38.920  31.596  33.375  1.00  0.00     0.060 A 
BRANCH  85  86
ATOM     86  S   UNL A   1      37.500  32.317  34.249  1.00  0.00     0.124 S 
ATOM     87  O   UNL A   1      36.386  31.919  33.397  1.00  0.00    -0.237 OA
ATOM     88  O   UNL A   1      37.570  31.649  35.547  1.00  0.00    -0.237 OA
ATOM     89  O   UNL A   1      37.812  33.743  34.258  1.00  0.00    -0.744 OA
ENDBRANCH  85  86
ENDBRANCH  53  78
BRANCH  65  90
ATOM     90  C   UNL A   1      44.851  24.087  33.552  1.00  0.00     0.058 A 
ATOM     91  C   UNL A   1      44.041  23.022  33.971  1.00  0.00     0.135 A 
ATOM     92  C   UNL A   1      46.221  23.993  33.916  1.00  0.00     0.135 A 
ATOM     93  F   UNL A   1      42.765  22.910  33.578  1.00  0.00    -0.206 F 
ATOM     94  C   UNL A   1      44.522  21.995  34.776  1.00  0.00     0.059 A 
ATOM     95  C   UNL A   1      46.738  22.933  34.647  1.00  0.00     0.059 A 
ATOM     96  F   UNL A   1      47.122  24.920  33.557  1.00  0.00    -0.206 F 
ATOM     97  C   UNL A   1      45.871  21.959  35.108  1.00  0.00     0.060 A 
BRANCH  97  98
ATOM     98  S   UNL A   1      46.497  20.612  36.116  1.00  0.00     0.124 S 
ATOM     99  O   UNL A   1      47.930  20.698  35.847  1.00  0.00    -0.237 OA
ATOM    100  O   UNL A   1      46.081  21.000  37.460  1.00  0.00    -0.237 OA
ATOM    101  O   UNL A   1      45.819  19.441  35.571  1.00  0.00    -0.744 OA
ENDBRANCH  97  98
ENDBRANCH  65  90
ENDBRANCH  39  40
ENDBRANCH  32  34
ENDBRANCH  31  32
ENDBRANCH  30  31
ENDBRANCH   1  30
TORSDOF 17
ENDMDL
MODEL 2
REMARK VINA RESULT:     -13.1      4.287     11.287
REMARK SMILES Cc1c(NC(=O)[C@@H]2CC=CC[C@@H]2C(=O)OCCOC(=O)c2ccc(-c3c4nc(c(-c5c(F)cc(S(=O)(=O)[O-])cc5F)c5ccc([nH]5)c(-c5c(F)cc(S(=O)(=O)[O-])cc5F)c5nc(c(-c6c(F)cc(S(=O)(=O)[O-])cc6F)c6ccc3[nH]6)C=C5)C=C4)cc2)cccc1C(=O)N1CCOCC1
REMARK SMILES IDX 16 1 15 2 13 3 14 4 12 5 7 6 8 7 9 8 11 9 10 10 5 11 4 12
REMARK SMILES IDX 6 14 3 15 1 16 2 17 90 18 87 19 89 20 88 21 91 22 92 23
REMARK SMILES IDX 93 24 94 25 98 26 95 27 97 28 96 29 17 30 18 31 19 32 20 33
REMARK SMILES IDX 21 34 22 35 86 36 23 37 85 38 24 39 25 40 26 41 79 42 27 43
REMARK SMILES IDX 84 44 78 45 80 46 28 47 83 48 77 49 76 50 29 52 63 53 42 54
REMARK SMILES IDX 62 55 43 56 46 57 61 58 81 59 44 60 45 61 60 63 82 64 47 65
REMARK SMILES IDX 30 66 31 67 40 68 32 69 33 70 39 71 41 72 34 73 35 74 36 75
REMARK SMILES IDX 37 76 38 77 64 78 65 79 74 80 66 81 67 82 73 83 75 84 68 85
REMARK SMILES IDX 69 86 70 87 71 88 72 89 48 90 49 91 58 92 50 93 51 94 57 95
REMARK SMILES IDX 59 96 52 97 53 98 54 99 55 100 56 101
REMARK H PARENT 4 13 80 51 46 62
REMARK Flexibility Score: inf
ROOT
ATOM      1  C   UNL A   1      37.017  22.155  25.498  1.00  0.00     0.274 C 
ENDROOT
BRANCH   1   2
ATOM      2  O   UNL A   1      35.803  22.213  24.743  1.00  0.00    -0.462 OA
BRANCH   2   3
ATOM      3  C   UNL A   1      35.057  21.087  24.728  1.00  0.00     0.310 C 
ATOM      4  O   UNL A   1      35.527  19.959  24.800  1.00  0.00    -0.252 OA
BRANCH   3   5
ATOM      5  C   UNL A   1      33.583  21.325  24.437  1.00  0.00     0.116 C 
ATOM      6  C   UNL A   1      32.814  21.040  25.723  1.00  0.00     0.097 C 
ATOM      7  C   UNL A   1      32.918  19.572  26.137  1.00  0.00     0.041 C 
ATOM      8  C   UNL A   1      32.584  18.683  24.965  1.00  0.00    -0.030 C 
ATOM      9  C   UNL A   1      32.931  20.532  23.306  1.00  0.00     0.043 C 
ATOM     10  C   UNL A   1      32.561  19.128  23.696  1.00  0.00    -0.030 C 
BRANCH   6  11
ATOM     11  C   UNL A   1      33.289  22.020  26.761  1.00  0.00     0.228 C 
ATOM     12  N   UNL A   1      33.622  23.271  26.265  1.00  0.00    -0.326 N 
ATOM     13  H   UNL A   1      34.553  23.532  26.087  1.00  0.00     0.169 HD
ATOM     14  O   UNL A   1      33.475  21.725  27.938  1.00  0.00    -0.274 OA
BRANCH  12  15
ATOM     15  C   UNL A   1      32.532  24.148  26.032  1.00  0.00     0.044 A 
ATOM     16  C   UNL A   1      34.190  25.649  24.906  1.00  0.00     0.047 C 
ATOM     17  C   UNL A   1      32.783  25.367  25.364  1.00  0.00    -0.015 A 
ATOM     18  C   UNL A   1      31.722  26.287  25.239  1.00  0.00     0.045 A 
ATOM     19  C   UNL A   1      31.281  23.869  26.590  1.00  0.00     0.026 A 
ATOM     20  C   UNL A   1      30.501  26.026  25.898  1.00  0.00     0.014 A 
ATOM     21  C   UNL A   1      30.283  24.830  26.574  1.00  0.00     0.003 A 
BRANCH  18  22
ATOM     22  C   UNL A   1      31.846  27.649  24.637  1.00  0.00     0.254 C 
ATOM     23  O   UNL A   1      31.421  27.812  23.492  1.00  0.00    -0.269 OA
ATOM     24  N   UNL A   1      32.322  28.713  25.384  1.00  0.00    -0.334 N 
ATOM     25  C   UNL A   1      33.517  28.709  26.244  1.00  0.00     0.148 C 
ATOM     26  C   UNL A   1      31.790  30.036  25.084  1.00  0.00     0.148 C 
ATOM     27  C   UNL A   1      33.386  29.682  27.436  1.00  0.00     0.181 C 
ATOM     28  C   UNL A   1      31.614  30.831  26.376  1.00  0.00     0.181 C 
ATOM     29  O   UNL A   1      32.881  30.965  27.032  1.00  0.00    -0.378 OA
ENDBRANCH  18  22
ENDBRANCH  12  15
ENDBRANCH   6  11
ENDBRANCH   3   5
ENDBRANCH   2   3
ENDBRANCH   1   2
BRANCH   1  30
ATOM     30  C   UNL A   1      37.678  23.541  25.524  1.00  0.00     0.275 C 
BRANCH  30  31
ATOM     31  O   UNL A   1      38.049  24.119  26.805  1.00  0.00    -0.458 OA
BRANCH  31  32
ATOM     32  C   UNL A   1      39.343  24.045  27.213  1.00  0.00     0.338 C 
ATOM     33  O   UNL A   1      40.077  23.086  26.942  1.00  0.00    -0.246 OA
BRANCH  32  34
ATOM     34  C   UNL A   1      39.781  25.375  27.733  1.00  0.00     0.060 A 
ATOM     35  C   UNL A   1      40.285  26.398  26.906  1.00  0.00     0.016 A 
ATOM     36  C   UNL A   1      39.330  25.684  29.012  1.00  0.00     0.016 A 
ATOM     37  C   UNL A   1      40.215  27.735  27.318  1.00  0.00     0.010 A 
ATOM     38  C   UNL A   1      39.022  26.985  29.296  1.00  0.00     0.010 A 
ATOM     39  C   UNL A   1      39.529  28.020  28.498  1.00  0.00    -0.014 A 
BRANCH  39  40
ATOM     40  C   UNL A   1      39.557  29.284  29.221  1.00  0.00     0.031 A 
ATOM     41  C   UNL A   1      38.547  30.349  29.078  1.00  0.00     0.074 A 
ATOM     42  C   UNL A   1      40.534  29.256  30.161  1.00  0.00     0.049 A 
ATOM     43  N   UNL A   1      38.790  31.584  29.349  1.00  0.00    -0.248 NA
ATOM     44  C   UNL A   1      37.167  30.155  28.629  1.00  0.00     0.031 C 
ATOM     45  C   UNL A   1      40.844  30.103  31.291  1.00  0.00     0.029 A 
ATOM     46  N   UNL A   1      41.604  28.343  30.149  1.00  0.00    -0.354 N 
ATOM     47  C   UNL A   1      37.576  32.235  29.472  1.00  0.00     0.074 A 
ATOM     48  C   UNL A   1      36.611  31.350  28.876  1.00  0.00     0.031 C 
ATOM     49  C   UNL A   1      42.145  29.917  31.608  1.00  0.00     0.029 A 
ATOM     50  C   UNL A   1      42.721  29.007  30.619  1.00  0.00     0.049 A 
ATOM     51  H   UNL A   1      41.566  27.403  29.859  1.00  0.00     0.167 HD
ATOM     52  C   UNL A   1      37.507  33.349  30.258  1.00  0.00     0.037 A 
ATOM     53  C   UNL A   1      43.684  29.277  29.691  1.00  0.00     0.037 A 
ATOM     54  C   UNL A   1      38.833  33.631  30.805  1.00  0.00     0.049 A 
ATOM     55  C   UNL A   1      43.742  30.768  29.480  1.00  0.00     0.074 A 
ATOM     56  C   UNL A   1      39.417  33.273  32.010  1.00  0.00     0.029 A 
ATOM     57  N   UNL A   1      39.875  33.957  29.944  1.00  0.00    -0.354 N 
ATOM     58  N   UNL A   1      42.706  31.565  29.541  1.00  0.00    -0.248 NA
ATOM     59  C   UNL A   1      45.006  31.480  29.361  1.00  0.00     0.031 C 
ATOM     60  C   UNL A   1      40.823  33.311  31.843  1.00  0.00     0.029 A 
ATOM     61  C   UNL A   1      41.093  33.670  30.534  1.00  0.00     0.049 A 
ATOM     62  H   UNL A   1      39.763  34.338  29.043  1.00  0.00     0.167 HD
ATOM     63  C   UNL A   1      43.149  32.862  29.595  1.00  0.00     0.074 A 
ATOM     64  C   UNL A   1      44.591  32.754  29.448  1.00  0.00     0.031 C 
ATOM     65  C   UNL A   1      42.339  33.937  29.839  1.00  0.00     0.037 A 
BRANCH  52  66
ATOM     66  C   UNL A   1      36.233  33.975  30.795  1.00  0.00     0.058 A 
ATOM     67  C   UNL A   1      35.290  34.549  29.908  1.00  0.00     0.135 A 
ATOM     68  C   UNL A   1      35.871  34.034  32.156  1.00  0.00     0.135 A 
ATOM     69  F   UNL A   1      35.479  34.558  28.584  1.00  0.00    -0.206 F 
ATOM     70  C   UNL A   1      34.110  35.158  30.328  1.00  0.00     0.059 A 
ATOM     71  C   UNL A   1      34.693  34.661  32.605  1.00  0.00     0.059 A 
ATOM     72  F   UNL A   1      36.636  33.458  33.097  1.00  0.00    -0.206 F 
ATOM     73  C   UNL A   1      33.816  35.218  31.678  1.00  0.00     0.060 A 
BRANCH  73  74
ATOM     74  S   UNL A   1      32.271  36.013  32.167  1.00  0.00     0.124 S 
ATOM     75  O   UNL A   1      32.720  36.950  33.194  1.00  0.00    -0.237 OA
ATOM     76  O   UNL A   1      31.828  36.615  30.914  1.00  0.00    -0.237 OA
ATOM     77  O   UNL A   1      31.455  34.904  32.652  1.00  0.00    -0.744 OA
ENDBRANCH  73  74
ENDBRANCH  52  66
BRANCH  53  78
ATOM     78  C   UNL A   1      43.870  28.189  28.654  1.00  0.00     0.058 A 
ATOM     79  C   UNL A   1      43.760  28.543  27.284  1.00  0.00     0.135 A 
ATOM     80  C   UNL A   1      44.391  26.912  28.912  1.00  0.00     0.135 A 
ATOM     81  F   UNL A   1      43.269  29.747  26.942  1.00  0.00    -0.206 F 
ATOM     82  C   UNL A   1      44.227  27.736  26.246  1.00  0.00     0.059 A 
ATOM     83  C   UNL A   1      44.844  26.069  27.878  1.00  0.00     0.059 A 
ATOM     84  F   UNL A   1      44.534  26.481  30.173  1.00  0.00    -0.206 F 
ATOM     85  C   UNL A   1      44.783  26.499  26.550  1.00  0.00     0.060 A 
BRANCH  85  86
ATOM     86  S   UNL A   1      45.572  25.555  25.214  1.00  0.00     0.124 S 
ATOM     87  O   UNL A   1      46.214  26.609  24.438  1.00  0.00    -0.237 OA
ATOM     88  O   UNL A   1      46.476  24.678  25.953  1.00  0.00    -0.237 OA
ATOM     89  O   UNL A   1      44.440  24.894  24.569  1.00  0.00    -0.744 OA
ENDBRANCH  85  86
ENDBRANCH  53  78
BRANCH  65  90
ATOM     90  C   UNL A   1      42.704  35.379  29.587  1.00  0.00     0.058 A 
ATOM     91  C   UNL A   1      43.552  36.116  30.424  1.00  0.00     0.135 A 
ATOM     92  C   UNL A   1      42.329  36.021  28.377  1.00  0.00     0.135 A 
ATOM     93  F   UNL A   1      44.097  35.581  31.526  1.00  0.00    -0.206 F 
ATOM     94  C   UNL A   1      43.920  37.427  30.140  1.00  0.00     0.059 A 
ATOM     95  C   UNL A   1      42.755  37.297  28.035  1.00  0.00     0.059 A 
ATOM     96  F   UNL A   1      41.549  35.425  27.463  1.00  0.00    -0.206 F 
ATOM     97  C   UNL A   1      43.517  38.009  28.944  1.00  0.00     0.060 A 
BRANCH  97  98
ATOM     98  S   UNL A   1      44.024  39.687  28.562  1.00  0.00     0.124 S 
ATOM     99  O   UNL A   1      42.740  40.309  28.252  1.00  0.00    -0.237 OA
ATOM    100  O   UNL A   1      44.654  40.120  29.805  1.00  0.00    -0.237 OA
ATOM    101  O   UNL A   1      44.933  39.516  27.434  1.00  0.00    -0.744 OA
ENDBRANCH  97  98
ENDBRANCH  65  90
ENDBRANCH  39  40
ENDBRANCH  32  34
ENDBRANCH  31  32
ENDBRANCH  30  31
ENDBRANCH   1  30
TORSDOF 17
ENDMDL
MODEL 3
REMARK VINA RESULT:     -12.7      2.340      3.388
REMARK SMILES Cc1c(NC(=O)[C@@H]2CC=CC[C@@H]2C(=O)OCCOC(=O)c2ccc(-c3c4nc(c(-c5c(F)cc(S(=O)(=O)[O-])cc5F)c5ccc([nH]5)c(-c5c(F)cc(S(=O)(=O)[O-])cc5F)c5nc(c(-c6c(F)cc(S(=O)(=O)[O-])cc6F)c6ccc3[nH]6)C=C5)C=C4)cc2)cccc1C(=O)N1CCOCC1
REMARK SMILES IDX 16 1 15 2 13 3 14 4 12 5 7 6 8 7 9 8 11 9 10 10 5 11 4 12
REMARK SMILES IDX 6 14 3 15 1 16 2 17 90 18 87 19 89 20 88 21 91 22 92 23
REMARK SMILES IDX 93 24 94 25 98 26 95 27 97 28 96 29 17 30 18 31 19 32 20 33
REMARK SMILES IDX 21 34 22 35 86 36 23 37 85 38 24 39 25 40 26 41 79 42 27 43
REMARK SMILES IDX 84 44 78 45 80 46 28 47 83 48 77 49 76 50 29 52 63 53 42 54
REMARK SMILES IDX 62 55 43 56 46 57 61 58 81 59 44 60 45 61 60 63 82 64 47 65
REMARK SMILES IDX 30 66 31 67 40 68 32 69 33 70 39 71 41 72 34 73 35 74 36 75
REMARK SMILES IDX 37 76 38 77 64 78 65 79 74 80 66 81 67 82 73 83 75 84 68 85
REMARK SMILES IDX 69 86 70 87 71 88 72 89 48 90 49 91 58 92 50 93 51 94 57 95
REMARK SMILES IDX 59 96 52 97 53 98 54 99 55 100 56 101
REMARK H PARENT 4 13 80 51 46 62
REMARK Flexibility Score: inf
ROOT
ATOM      1  C   UNL A   1      31.728  28.651  27.488  1.00  0.00     0.274 C 
ENDROOT
BRANCH   1   2
ATOM      2  O   UNL A   1      31.543  27.469  26.704  1.00  0.00    -0.462 OA
BRANCH   2   3
ATOM      3  C   UNL A   1      31.381  27.655  25.375  1.00  0.00     0.310 C 
ATOM      4  O   UNL A   1      31.213  28.752  24.859  1.00  0.00    -0.252 OA
BRANCH   3   5
ATOM      5  C   UNL A   1      31.248  26.365  24.581  1.00  0.00     0.116 C 
ATOM      6  C   UNL A   1      32.657  25.908  24.218  1.00  0.00     0.097 C 
ATOM      7  C   UNL A   1      33.354  26.895  23.282  1.00  0.00     0.041 C 
ATOM      8  C   UNL A   1      32.453  27.223  22.117  1.00  0.00    -0.030 C 
ATOM      9  C   UNL A   1      30.409  26.384  23.305  1.00  0.00     0.043 C 
ATOM     10  C   UNL A   1      31.134  26.962  22.121  1.00  0.00    -0.030 C 
BRANCH   6  11
ATOM     11  C   UNL A   1      33.390  25.637  25.503  1.00  0.00     0.228 C 
ATOM     12  N   UNL A   1      33.035  24.455  26.133  1.00  0.00    -0.326 N 
ATOM     13  H   UNL A   1      32.405  24.433  26.888  1.00  0.00     0.169 HD
ATOM     14  O   UNL A   1      34.165  26.434  26.024  1.00  0.00    -0.274 OA
BRANCH  12  15
ATOM     15  C   UNL A   1      33.640  23.280  25.619  1.00  0.00     0.044 A 
ATOM     16  C   UNL A   1      31.407  22.765  24.610  1.00  0.00     0.047 C 
ATOM     17  C   UNL A   1      32.845  22.392  24.860  1.00  0.00    -0.015 A 
ATOM     18  C   UNL A   1      33.418  21.171  24.451  1.00  0.00     0.045 A 
ATOM     19  C   UNL A   1      34.946  22.948  25.992  1.00  0.00     0.026 A 
ATOM     20  C   UNL A   1      34.699  20.816  24.926  1.00  0.00     0.014 A 
ATOM     21  C   UNL A   1      35.456  21.693  25.695  1.00  0.00     0.003 A 
BRANCH  18  22
ATOM     22  C   UNL A   1      32.686  20.093  23.718  1.00  0.00     0.254 C 
ATOM     23  O   UNL A   1      32.087  20.404  22.687  1.00  0.00    -0.269 OA
ATOM     24  N   UNL A   1      32.773  18.773  24.128  1.00  0.00    -0.334 N 
ATOM     25  C   UNL A   1      32.633  18.278  25.507  1.00  0.00     0.148 C 
ATOM     26  C   UNL A   1      32.698  17.744  23.099  1.00  0.00     0.148 C 
ATOM     27  C   UNL A   1      33.459  16.998  25.757  1.00  0.00     0.181 C 
ATOM     28  C   UNL A   1      33.655  16.603  23.435  1.00  0.00     0.181 C 
ATOM     29  O   UNL A   1      33.297  16.036  24.702  1.00  0.00    -0.378 OA
ENDBRANCH  18  22
ENDBRANCH  12  15
ENDBRANCH   6  11
ENDBRANCH   3   5
ENDBRANCH   2   3
ENDBRANCH   1   2
BRANCH   1  30
ATOM     30  C   UNL A   1      33.028  29.353  27.065  1.00  0.00     0.275 C 
BRANCH  30  31
ATOM     31  O   UNL A   1      33.849  29.983  28.085  1.00  0.00    -0.458 OA
BRANCH  31  32
ATOM     32  C   UNL A   1      34.444  31.174  27.812  1.00  0.00     0.338 C 
ATOM     33  O   UNL A   1      33.814  32.237  27.747  1.00  0.00    -0.246 OA
BRANCH  32  34
ATOM     34  C   UNL A   1      35.927  31.030  27.917  1.00  0.00     0.060 A 
ATOM     35  C   UNL A   1      36.753  31.987  28.541  1.00  0.00     0.016 A 
ATOM     36  C   UNL A   1      36.411  29.745  27.697  1.00  0.00     0.016 A 
ATOM     37  C   UNL A   1      38.003  31.613  29.049  1.00  0.00     0.010 A 
ATOM     38  C   UNL A   1      37.493  29.325  28.417  1.00  0.00     0.010 A 
ATOM     39  C   UNL A   1      38.340  30.260  29.028  1.00  0.00    -0.014 A 
BRANCH  39  40
ATOM     40  C   UNL A   1      39.664  29.703  29.268  1.00  0.00     0.031 A 
ATOM     41  C   UNL A   1      40.111  28.380  28.793  1.00  0.00     0.074 A 
ATOM     42  C   UNL A   1      40.465  30.644  29.826  1.00  0.00     0.049 A 
ATOM     43  N   UNL A   1      41.063  27.721  29.356  1.00  0.00    -0.248 NA
ATOM     44  C   UNL A   1      39.555  27.657  27.648  1.00  0.00     0.031 C 
ATOM     45  C   UNL A   1      41.892  30.725  30.043  1.00  0.00     0.029 A 
ATOM     46  N   UNL A   1      39.984  31.806  30.456  1.00  0.00    -0.354 N 
ATOM     47  C   UNL A   1      41.473  26.738  28.473  1.00  0.00     0.074 A 
ATOM     48  C   UNL A   1      40.420  26.643  27.498  1.00  0.00     0.031 C 
ATOM     49  C   UNL A   1      42.115  31.624  31.027  1.00  0.00     0.029 A 
ATOM     50  C   UNL A   1      40.816  32.072  31.527  1.00  0.00     0.049 A 
ATOM     51  H   UNL A   1      39.199  32.335  30.183  1.00  0.00     0.167 HD
ATOM     52  C   UNL A   1      42.755  26.277  28.557  1.00  0.00     0.037 A 
ATOM     53  C   UNL A   1      40.275  31.864  32.762  1.00  0.00     0.037 A 
ATOM     54  C   UNL A   1      43.438  26.959  29.654  1.00  0.00     0.049 A 
ATOM     55  C   UNL A   1      40.975  30.693  33.401  1.00  0.00     0.074 A 
ATOM     56  C   UNL A   1      44.240  28.089  29.667  1.00  0.00     0.029 A 
ATOM     57  N   UNL A   1      42.989  26.780  30.958  1.00  0.00    -0.354 N 
ATOM     58  N   UNL A   1      41.429  29.655  32.747  1.00  0.00    -0.248 NA
ATOM     59  C   UNL A   1      41.364  30.701  34.804  1.00  0.00     0.031 C 
ATOM     60  C   UNL A   1      44.207  28.634  30.974  1.00  0.00     0.029 A 
ATOM     61  C   UNL A   1      43.370  27.849  31.748  1.00  0.00     0.049 A 
ATOM     62  H   UNL A   1      42.474  26.003  31.275  1.00  0.00     0.167 HD
ATOM     63  C   UNL A   1      42.254  28.937  33.574  1.00  0.00     0.074 A 
ATOM     64  C   UNL A   1      42.154  29.615  34.856  1.00  0.00     0.031 C 
ATOM     65  C   UNL A   1      43.032  27.891  33.159  1.00  0.00     0.037 A 
BRANCH  52  66
ATOM     66  C   UNL A   1      43.483  25.489  27.483  1.00  0.00     0.058 A 
ATOM     67  C   UNL A   1      43.819  24.130  27.698  1.00  0.00     0.135 A 
ATOM     68  C   UNL A   1      43.867  25.997  26.226  1.00  0.00     0.135 A 
ATOM     69  F   UNL A   1      43.509  23.496  28.835  1.00  0.00    -0.206 F 
ATOM     70  C   UNL A   1      44.503  23.350  26.769  1.00  0.00     0.059 A 
ATOM     71  C   UNL A   1      44.575  25.233  25.279  1.00  0.00     0.059 A 
ATOM     72  F   UNL A   1      43.541  27.248  25.860  1.00  0.00    -0.206 F 
ATOM     73  C   UNL A   1      44.886  23.906  25.561  1.00  0.00     0.060 A 
BRANCH  73  74
ATOM     74  S   UNL A   1      45.764  22.849  24.391  1.00  0.00     0.124 S 
ATOM     75  O   UNL A   1      46.298  21.805  25.262  1.00  0.00    -0.237 OA
ATOM     76  O   UNL A   1      44.693  22.433  23.492  1.00  0.00    -0.237 OA
ATOM     77  O   UNL A   1      46.761  23.741  23.807  1.00  0.00    -0.744 OA
ENDBRANCH  73  74
ENDBRANCH  52  66
BRANCH  53  78
ATOM     78  C   UNL A   1      38.811  32.237  32.870  1.00  0.00     0.058 A 
ATOM     79  C   UNL A   1      38.477  33.612  32.981  1.00  0.00     0.135 A 
ATOM     80  C   UNL A   1      37.737  31.370  32.619  1.00  0.00     0.135 A 
ATOM     81  F   UNL A   1      39.442  34.517  33.224  1.00  0.00    -0.206 F 
ATOM     82  C   UNL A   1      37.192  34.107  32.755  1.00  0.00     0.059 A 
ATOM     83  C   UNL A   1      36.427  31.844  32.414  1.00  0.00     0.059 A 
ATOM     84  F   UNL A   1      37.947  30.051  32.499  1.00  0.00    -0.206 F 
ATOM     85  C   UNL A   1      36.168  33.217  32.458  1.00  0.00     0.060 A 
BRANCH  85  86
ATOM     86  S   UNL A   1      34.555  33.890  31.964  1.00  0.00     0.124 S 
ATOM     87  O   UNL A   1      33.632  33.019  32.682  1.00  0.00    -0.237 OA
ATOM     88  O   UNL A   1      34.634  35.264  32.454  1.00  0.00    -0.237 OA
ATOM     89  O   UNL A   1      34.568  33.738  30.512  1.00  0.00    -0.744 OA
ENDBRANCH  85  86
ENDBRANCH  53  78
BRANCH  65  90
ATOM     90  C   UNL A   1      43.688  26.879  34.065  1.00  0.00     0.058 A 
ATOM     91  C   UNL A   1      45.068  26.843  34.309  1.00  0.00     0.135 A 
ATOM     92  C   UNL A   1      42.904  25.998  34.857  1.00  0.00     0.135 A 
ATOM     93  F   UNL A   1      45.908  27.717  33.738  1.00  0.00    -0.206 F 
ATOM     94  C   UNL A   1      45.643  25.937  35.194  1.00  0.00     0.059 A 
ATOM     95  C   UNL A   1      43.450  25.146  35.806  1.00  0.00     0.059 A 
ATOM     96  F   UNL A   1      41.567  25.946  34.759  1.00  0.00    -0.206 F 
ATOM     97  C   UNL A   1      44.826  25.092  35.937  1.00  0.00     0.060 A 
BRANCH  97  98
ATOM     98  S   UNL A   1      45.568  23.949  37.106  1.00  0.00     0.124 S 
ATOM     99  O   UNL A   1      45.217  22.664  36.508  1.00  0.00    -0.237 OA
ATOM    100  O   UNL A   1      46.981  24.309  37.049  1.00  0.00    -0.237 OA
ATOM    101  O   UNL A   1      44.897  24.269  38.361  1.00  0.00    -0.744 OA
ENDBRANCH  97  98
ENDBRANCH  65  90
ENDBRANCH  39  40
ENDBRANCH  32  34
ENDBRANCH  31  32
ENDBRANCH  30  31
ENDBRANCH   1  30
TORSDOF 17
ENDMDL
