MODEL 1
REMARK VINA RESULT:     -11.2      0.000      0.000
REMARK SMILES CO[C@H]1CN(C(=O)c2cn(C(C)C)cc(C(=O)OCCOC(=O)c3ccc(-c4c5nc(c(-c6c(F)cc(S(=O)(=O)[O-])cc6F)c6ccc([nH]6)c(-c6c(F)cc(S(=O)(=O)[O-])cc6F)c6nc(c(-c7c(F)cc(S(=O)(=O)[O-])cc7F)c7ccc4[nH]7)C=C6)C=C5)cc3)c2=O)CC[C@H]1[NH3+]
REMARK SMILES IDX 19 1 18 2 16 3 17 4 15 5 8 6 9 7 90 8 10 9 91 10 14 11 6 12
REMARK SMILES IDX 7 13 5 14 3 15 4 16 94 17 93 18 92 19 2 20 1 21 95 22 11 26
REMARK SMILES IDX 12 27 13 28 20 29 21 30 22 31 23 32 24 33 25 34 89 35 26 36
REMARK SMILES IDX 88 37 27 38 28 39 29 40 82 41 30 42 87 43 81 44 83 45 31 46
REMARK SMILES IDX 86 47 80 48 79 49 32 51 66 52 45 53 65 54 46 55 49 56 64 57
REMARK SMILES IDX 84 58 47 59 48 60 63 62 85 63 50 64 33 65 34 66 43 67 35 68
REMARK SMILES IDX 36 69 42 70 44 71 37 72 38 73 39 74 40 75 41 76 67 77 68 78
REMARK SMILES IDX 77 79 69 80 70 81 76 82 78 83 71 84 72 85 73 86 74 87 75 88
REMARK SMILES IDX 51 89 52 90 61 91 53 92 54 93 60 94 62 95 55 96 56 97 57 98
REMARK SMILES IDX 58 99 59 100
REMARK H PARENT 95 23 95 24 95 25 83 50 49 61
REMARK Flexibility Score: inf
ROOT
ATOM      1  C   UNL A   1      33.307  30.213  27.056  1.00  0.00     0.275 C 
ENDROOT
BRANCH   1   2
ATOM      2  O   UNL A   1      33.520  28.790  27.054  1.00  0.00    -0.458 OA
BRANCH   2   3
ATOM      3  C   UNL A   1      32.421  28.001  27.011  1.00  0.00     0.343 C 
ATOM      4  O   UNL A   1      31.631  27.829  27.926  1.00  0.00    -0.246 OA
BRANCH   3   5
ATOM      5  C   UNL A   1      32.225  27.431  25.666  1.00  0.00     0.124 A 
ATOM      6  C   UNL A   1      32.687  25.888  23.721  1.00  0.00     0.104 A 
ATOM      7  C   UNL A   1      31.585  26.384  23.134  1.00  0.00     0.103 A 
ATOM      8  C   UNL A   1      33.169  26.507  24.987  1.00  0.00     0.208 A 
ATOM      9  N   UNL A   1      30.807  27.395  23.689  1.00  0.00    -0.350 N 
ATOM     10  O   UNL A   1      34.235  26.162  25.490  1.00  0.00    -0.288 OA
ATOM     11  C   UNL A   1      31.106  27.765  24.998  1.00  0.00     0.105 A 
BRANCH   6  12
ATOM     12  C   UNL A   1      33.246  24.632  23.183  1.00  0.00     0.259 C 
ATOM     13  O   UNL A   1      33.676  24.594  22.032  1.00  0.00    -0.269 OA
BRANCH  12  14
ATOM     14  N   UNL A   1      33.155  23.512  24.009  1.00  0.00    -0.335 N 
ATOM     15  C   UNL A   1      34.359  22.266  25.817  1.00  0.00     0.195 C 
ATOM     16  C   UNL A   1      34.263  22.594  24.320  1.00  0.00     0.158 C 
ATOM     17  C   UNL A   1      32.988  21.768  26.355  1.00  0.00     0.213 C 
ATOM     18  C   UNL A   1      31.903  22.802  26.010  1.00  0.00     0.089 C 
ATOM     19  C   UNL A   1      31.848  23.115  24.517  1.00  0.00     0.126 C 
BRANCH  15  20
ATOM     20  O   UNL A   1      35.371  21.281  26.076  1.00  0.00    -0.373 OA
ATOM     21  C   UNL A   1      36.673  21.670  25.657  1.00  0.00     0.195 C 
ENDBRANCH  15  20
BRANCH  17  22
ATOM     22  N   UNL A   1      32.606  20.424  25.888  1.00  0.00    -0.353 N 
ATOM     23  H   UNL A   1      32.422  20.452  24.885  1.00  0.00     0.344 HD
ATOM     24  H   UNL A   1      31.766  20.119  26.380  1.00  0.00     0.344 HD
ATOM     25  H   UNL A   1      33.367  19.770  26.076  1.00  0.00     0.344 HD
ENDBRANCH  17  22
ENDBRANCH  12  14
ENDBRANCH   6  12
BRANCH   9  26
ATOM     26  C   UNL A   1      29.700  28.065  22.955  1.00  0.00     0.080 C 
ATOM     27  C   UNL A   1      28.333  27.556  23.416  1.00  0.00     0.031 C 
ATOM     28  C   UNL A   1      29.812  29.581  23.063  1.00  0.00     0.031 C 
ENDBRANCH   9  26
ENDBRANCH   3   5
ENDBRANCH   2   3
ENDBRANCH   1   2
BRANCH   1  29
ATOM     29  C   UNL A   1      34.493  30.940  27.694  1.00  0.00     0.275 C 
BRANCH  29  30
ATOM     30  O   UNL A   1      35.546  30.015  28.030  1.00  0.00    -0.458 OA
BRANCH  30  31
ATOM     31  C   UNL A   1      36.134  30.221  29.230  1.00  0.00     0.338 C 
ATOM     32  O   UNL A   1      35.580  30.399  30.305  1.00  0.00    -0.246 OA
BRANCH  31  33
ATOM     33  C   UNL A   1      37.580  29.979  29.113  1.00  0.00     0.060 A 
ATOM     34  C   UNL A   1      38.433  29.906  30.209  1.00  0.00     0.016 A 
ATOM     35  C   UNL A   1      38.070  29.750  27.829  1.00  0.00     0.016 A 
ATOM     36  C   UNL A   1      39.790  29.621  29.995  1.00  0.00     0.010 A 
ATOM     37  C   UNL A   1      39.416  29.478  27.610  1.00  0.00     0.010 A 
ATOM     38  C   UNL A   1      40.293  29.407  28.693  1.00  0.00    -0.014 A 
BRANCH  38  39
ATOM     39  C   UNL A   1      41.701  28.992  28.471  1.00  0.00     0.031 A 
ATOM     40  C   UNL A   1      42.062  27.578  28.104  1.00  0.00     0.074 A 
ATOM     41  C   UNL A   1      42.676  29.901  28.671  1.00  0.00     0.049 A 
ATOM     42  N   UNL A   1      43.229  27.095  27.763  1.00  0.00    -0.248 NA
ATOM     43  C   UNL A   1      40.991  26.571  28.164  1.00  0.00     0.031 C 
ATOM     44  C   UNL A   1      42.464  31.261  29.170  1.00  0.00     0.029 A 
ATOM     45  N   UNL A   1      44.030  29.829  28.466  1.00  0.00    -0.354 N 
ATOM     46  C   UNL A   1      43.033  25.735  27.553  1.00  0.00     0.074 A 
ATOM     47  C   UNL A   1      41.650  25.456  27.876  1.00  0.00     0.031 C 
ATOM     48  C   UNL A   1      43.633  31.919  29.160  1.00  0.00     0.029 A 
ATOM     49  C   UNL A   1      44.676  31.027  28.662  1.00  0.00     0.049 A 
ATOM     50  H   UNL A   1      44.494  29.001  28.204  1.00  0.00     0.167 HD
ATOM     51  C   UNL A   1      43.918  24.815  27.096  1.00  0.00     0.037 A 
ATOM     52  C   UNL A   1      45.952  31.381  28.421  1.00  0.00     0.037 A 
ATOM     53  C   UNL A   1      45.283  25.115  26.748  1.00  0.00     0.049 A 
ATOM     54  C   UNL A   1      46.896  30.372  27.829  1.00  0.00     0.074 A 
ATOM     55  C   UNL A   1      46.234  24.276  26.193  1.00  0.00     0.029 A 
ATOM     56  N   UNL A   1      45.889  26.350  26.919  1.00  0.00    -0.354 N 
ATOM     57  N   UNL A   1      46.665  29.120  27.514  1.00  0.00    -0.248 NA
ATOM     58  C   UNL A   1      48.265  30.822  27.546  1.00  0.00     0.031 C 
ATOM     59  C   UNL A   1      47.424  24.997  26.054  1.00  0.00     0.029 A 
ATOM     60  C   UNL A   1      47.204  26.294  26.489  1.00  0.00     0.049 A 
ATOM     61  H   UNL A   1      45.451  27.148  27.291  1.00  0.00     0.167 HD
ATOM     62  C   UNL A   1      47.853  28.639  26.977  1.00  0.00     0.074 A 
ATOM     63  C   UNL A   1      48.799  29.735  27.002  1.00  0.00     0.031 C 
ATOM     64  C   UNL A   1      48.130  27.399  26.507  1.00  0.00     0.037 A 
BRANCH  51  65
ATOM     65  C   UNL A   1      43.430  23.405  26.890  1.00  0.00     0.058 A 
ATOM     66  C   UNL A   1      43.224  22.892  25.600  1.00  0.00     0.135 A 
ATOM     67  C   UNL A   1      43.244  22.535  27.976  1.00  0.00     0.135 A 
ATOM     68  F   UNL A   1      43.383  23.681  24.525  1.00  0.00    -0.206 F 
ATOM     69  C   UNL A   1      42.826  21.576  25.393  1.00  0.00     0.059 A 
ATOM     70  C   UNL A   1      42.871  21.205  27.792  1.00  0.00     0.059 A 
ATOM     71  F   UNL A   1      43.434  22.970  29.231  1.00  0.00    -0.206 F 
ATOM     72  C   UNL A   1      42.652  20.739  26.496  1.00  0.00     0.060 A 
BRANCH  72  73
ATOM     73  S   UNL A   1      42.150  19.029  26.205  1.00  0.00     0.124 S 
ATOM     74  O   UNL A   1      40.746  19.198  25.844  1.00  0.00    -0.237 OA
ATOM     75  O   UNL A   1      43.038  18.623  25.121  1.00  0.00    -0.237 OA
ATOM     76  O   UNL A   1      42.393  18.380  27.490  1.00  0.00    -0.744 OA
ENDBRANCH  72  73
ENDBRANCH  51  65
BRANCH  52  77
ATOM     77  C   UNL A   1      46.369  32.791  28.636  1.00  0.00     0.058 A 
ATOM     78  C   UNL A   1      46.222  33.738  27.612  1.00  0.00     0.135 A 
ATOM     79  C   UNL A   1      46.853  33.234  29.876  1.00  0.00     0.135 A 
ATOM     80  F   UNL A   1      45.759  33.359  26.410  1.00  0.00    -0.206 F 
ATOM     81  C   UNL A   1      46.545  35.075  27.806  1.00  0.00     0.059 A 
ATOM     82  C   UNL A   1      47.166  34.571  30.100  1.00  0.00     0.059 A 
ATOM     83  F   UNL A   1      46.987  32.368  30.893  1.00  0.00    -0.206 F 
ATOM     84  C   UNL A   1      47.012  35.484  29.056  1.00  0.00     0.060 A 
BRANCH  84  85
ATOM     85  S   UNL A   1      47.363  37.237  29.315  1.00  0.00     0.124 S 
ATOM     86  O   UNL A   1      48.736  37.191  29.804  1.00  0.00    -0.237 OA
ATOM     87  O   UNL A   1      47.180  37.786  27.975  1.00  0.00    -0.237 OA
ATOM     88  O   UNL A   1      46.356  37.639  30.292  1.00  0.00    -0.744 OA
ENDBRANCH  84  85
ENDBRANCH  52  77
BRANCH  64  89
ATOM     89  C   UNL A   1      49.508  27.143  25.967  1.00  0.00     0.058 A 
ATOM     90  C   UNL A   1      50.532  26.654  26.792  1.00  0.00     0.135 A 
ATOM     91  C   UNL A   1      49.766  27.263  24.593  1.00  0.00     0.135 A 
ATOM     92  F   UNL A   1      50.333  26.529  28.114  1.00  0.00    -0.206 F 
ATOM     93  C   UNL A   1      51.764  26.281  26.270  1.00  0.00     0.059 A 
ATOM     94  C   UNL A   1      50.986  26.878  24.046  1.00  0.00     0.059 A 
ATOM     95  F   UNL A   1      48.815  27.721  23.764  1.00  0.00    -0.206 F 
ATOM     96  C   UNL A   1      51.978  26.383  24.893  1.00  0.00     0.060 A 
BRANCH  96  97
ATOM     97  S   UNL A   1      53.548  25.799  24.219  1.00  0.00     0.124 S 
ATOM     98  O   UNL A   1      53.586  24.425  24.707  1.00  0.00    -0.237 OA
ATOM     99  O   UNL A   1      53.347  25.957  22.782  1.00  0.00    -0.237 OA
ATOM    100  O   UNL A   1      54.529  26.703  24.810  1.00  0.00    -0.744 OA
ENDBRANCH  96  97
ENDBRANCH  64  89
ENDBRANCH  38  39
ENDBRANCH  31  33
ENDBRANCH  30  31
ENDBRANCH  29  30
ENDBRANCH   1  29
TORSDOF 19
ENDMDL
MODEL 2
REMARK VINA RESULT:     -11.1      2.332      8.488
REMARK SMILES CO[C@H]1CN(C(=O)c2cn(C(C)C)cc(C(=O)OCCOC(=O)c3ccc(-c4c5nc(c(-c6c(F)cc(S(=O)(=O)[O-])cc6F)c6ccc([nH]6)c(-c6c(F)cc(S(=O)(=O)[O-])cc6F)c6nc(c(-c7c(F)cc(S(=O)(=O)[O-])cc7F)c7ccc4[nH]7)C=C6)C=C5)cc3)c2=O)CC[C@H]1[NH3+]
REMARK SMILES IDX 19 1 18 2 16 3 17 4 15 5 8 6 9 7 90 8 10 9 91 10 14 11 6 12
REMARK SMILES IDX 7 13 5 14 3 15 4 16 94 17 93 18 92 19 2 20 1 21 95 22 11 26
REMARK SMILES IDX 12 27 13 28 20 29 21 30 22 31 23 32 24 33 25 34 89 35 26 36
REMARK SMILES IDX 88 37 27 38 28 39 29 40 82 41 30 42 87 43 81 44 83 45 31 46
REMARK SMILES IDX 86 47 80 48 79 49 32 51 66 52 45 53 65 54 46 55 49 56 64 57
REMARK SMILES IDX 84 58 47 59 48 60 63 62 85 63 50 64 33 65 34 66 43 67 35 68
REMARK SMILES IDX 36 69 42 70 44 71 37 72 38 73 39 74 40 75 41 76 67 77 68 78
REMARK SMILES IDX 77 79 69 80 70 81 76 82 78 83 71 84 72 85 73 86 74 87 75 88
REMARK SMILES IDX 51 89 52 90 61 91 53 92 54 93 60 94 62 95 55 96 56 97 57 98
REMARK SMILES IDX 58 99 59 100
REMARK H PARENT 95 23 95 24 95 25 83 50 49 61
REMARK Flexibility Score: inf
ROOT
ATOM      1  C   UNL A   1      38.666  21.391  25.469  1.00  0.00     0.275 C 
ENDROOT
BRANCH   1   2
ATOM      2  O   UNL A   1      37.299  21.370  25.018  1.00  0.00    -0.458 OA
BRANCH   2   3
ATOM      3  C   UNL A   1      36.446  22.249  25.593  1.00  0.00     0.343 C 
ATOM      4  O   UNL A   1      36.762  23.284  26.158  1.00  0.00    -0.246 OA
BRANCH   3   5
ATOM      5  C   UNL A   1      35.043  21.854  25.370  1.00  0.00     0.124 A 
ATOM      6  C   UNL A   1      32.556  22.211  25.116  1.00  0.00     0.104 A 
ATOM      7  C   UNL A   1      32.459  20.915  24.773  1.00  0.00     0.103 A 
ATOM      8  C   UNL A   1      33.867  22.733  25.594  1.00  0.00     0.208 A 
ATOM      9  N   UNL A   1      33.542  20.041  24.753  1.00  0.00    -0.350 N 
ATOM     10  O   UNL A   1      33.967  23.877  26.027  1.00  0.00    -0.288 OA
ATOM     11  C   UNL A   1      34.802  20.608  24.927  1.00  0.00     0.105 A 
BRANCH   6  12
ATOM     12  C   UNL A   1      31.409  23.089  24.812  1.00  0.00     0.259 C 
ATOM     13  O   UNL A   1      30.373  22.997  25.467  1.00  0.00    -0.269 OA
BRANCH  12  14
ATOM     14  N   UNL A   1      31.548  23.924  23.703  1.00  0.00    -0.335 N 
ATOM     15  C   UNL A   1      31.522  26.328  23.002  1.00  0.00     0.195 C 
ATOM     16  C   UNL A   1      30.704  25.094  23.410  1.00  0.00     0.158 C 
ATOM     17  C   UNL A   1      32.496  25.977  21.844  1.00  0.00     0.213 C 
ATOM     18  C   UNL A   1      33.353  24.767  22.252  1.00  0.00     0.089 C 
ATOM     19  C   UNL A   1      32.507  23.565  22.666  1.00  0.00     0.126 C 
BRANCH  15  20
ATOM     20  O   UNL A   1      30.672  27.417  22.611  1.00  0.00    -0.373 OA
ATOM     21  C   UNL A   1      31.167  28.697  22.985  1.00  0.00     0.195 C 
ENDBRANCH  15  20
BRANCH  17  22
ATOM     22  N   UNL A   1      31.838  25.746  20.547  1.00  0.00    -0.353 N 
ATOM     23  H   UNL A   1      32.158  24.860  20.155  1.00  0.00     0.344 HD
ATOM     24  H   UNL A   1      32.072  26.505  19.906  1.00  0.00     0.344 HD
ATOM     25  H   UNL A   1      30.827  25.713  20.680  1.00  0.00     0.344 HD
ENDBRANCH  17  22
ENDBRANCH  12  14
ENDBRANCH   6  12
BRANCH   9  26
ATOM     26  C   UNL A   1      33.399  18.574  24.554  1.00  0.00     0.080 C 
ATOM     27  C   UNL A   1      32.696  17.913  25.742  1.00  0.00     0.031 C 
ATOM     28  C   UNL A   1      32.704  18.266  23.234  1.00  0.00     0.031 C 
ENDBRANCH   9  26
ENDBRANCH   3   5
ENDBRANCH   2   3
ENDBRANCH   1   2
BRANCH   1  29
ATOM     29  C   UNL A   1      39.194  19.967  25.668  1.00  0.00     0.275 C 
BRANCH  29  30
ATOM     30  O   UNL A   1      40.209  19.930  26.690  1.00  0.00    -0.458 OA
BRANCH  30  31
ATOM     31  C   UNL A   1      41.480  19.834  26.239  1.00  0.00     0.338 C 
ATOM     32  O   UNL A   1      41.967  18.921  25.586  1.00  0.00    -0.246 OA
BRANCH  31  33
ATOM     33  C   UNL A   1      42.174  21.112  26.456  1.00  0.00     0.060 A 
ATOM     34  C   UNL A   1      42.474  22.002  25.429  1.00  0.00     0.016 A 
ATOM     35  C   UNL A   1      42.468  21.443  27.777  1.00  0.00     0.016 A 
ATOM     36  C   UNL A   1      43.094  23.219  25.746  1.00  0.00     0.010 A 
ATOM     37  C   UNL A   1      43.092  22.644  28.095  1.00  0.00     0.010 A 
ATOM     38  C   UNL A   1      43.410  23.550  27.082  1.00  0.00    -0.014 A 
BRANCH  38  39
ATOM     39  C   UNL A   1      43.960  24.883  27.436  1.00  0.00     0.031 A 
ATOM     40  C   UNL A   1      45.409  25.225  27.222  1.00  0.00     0.074 A 
ATOM     41  C   UNL A   1      43.141  25.776  28.026  1.00  0.00     0.049 A 
ATOM     42  N   UNL A   1      46.007  26.379  27.369  1.00  0.00    -0.248 NA
ATOM     43  C   UNL A   1      46.310  24.130  26.830  1.00  0.00     0.031 C 
ATOM     44  C   UNL A   1      41.756  25.512  28.420  1.00  0.00     0.029 A 
ATOM     45  N   UNL A   1      43.344  27.086  28.380  1.00  0.00    -0.354 N 
ATOM     46  C   UNL A   1      47.347  26.157  27.075  1.00  0.00     0.074 A 
ATOM     47  C   UNL A   1      47.488  24.740  26.811  1.00  0.00     0.031 C 
ATOM     48  C   UNL A   1      41.210  26.643  28.891  1.00  0.00     0.029 A 
ATOM     49  C   UNL A   1      42.207  27.709  28.839  1.00  0.00     0.049 A 
ATOM     50  H   UNL A   1      44.217  27.535  28.313  1.00  0.00     0.167 HD
ATOM     51  C   UNL A   1      48.356  27.058  26.997  1.00  0.00     0.037 A 
ATOM     52  C   UNL A   1      41.979  29.002  29.136  1.00  0.00     0.037 A 
ATOM     53  C   UNL A   1      48.192  28.470  27.231  1.00  0.00     0.049 A 
ATOM     54  C   UNL A   1      43.085  30.004  28.956  1.00  0.00     0.074 A 
ATOM     55  C   UNL A   1      49.128  29.481  27.090  1.00  0.00     0.029 A 
ATOM     56  N   UNL A   1      47.016  29.071  27.651  1.00  0.00    -0.354 N 
ATOM     57  N   UNL A   1      44.317  29.801  28.553  1.00  0.00    -0.248 NA
ATOM     58  C   UNL A   1      42.772  31.408  29.253  1.00  0.00     0.031 C 
ATOM     59  C   UNL A   1      48.525  30.688  27.451  1.00  0.00     0.029 A 
ATOM     60  C   UNL A   1      47.203  30.436  27.783  1.00  0.00     0.049 A 
ATOM     61  H   UNL A   1      46.172  28.598  27.829  1.00  0.00     0.167 HD
ATOM     62  C   UNL A   1      44.919  31.054  28.530  1.00  0.00     0.074 A 
ATOM     63  C   UNL A   1      43.916  32.009  28.950  1.00  0.00     0.031 C 
ATOM     64  C   UNL A   1      46.190  31.378  28.190  1.00  0.00     0.037 A 
BRANCH  51  65
ATOM     65  C   UNL A   1      49.718  26.563  26.588  1.00  0.00     0.058 A 
ATOM     66  C   UNL A   1      50.611  26.039  27.536  1.00  0.00     0.135 A 
ATOM     67  C   UNL A   1      50.105  26.534  25.239  1.00  0.00     0.135 A 
ATOM     68  F   UNL A   1      50.294  26.046  28.841  1.00  0.00    -0.206 F 
ATOM     69  C   UNL A   1      51.850  25.528  27.165  1.00  0.00     0.059 A 
ATOM     70  C   UNL A   1      51.331  26.003  24.841  1.00  0.00     0.059 A 
ATOM     71  F   UNL A   1      49.288  27.015  24.290  1.00  0.00    -0.206 F 
ATOM     72  C   UNL A   1      52.201  25.513  25.815  1.00  0.00     0.060 A 
BRANCH  72  73
ATOM     73  S   UNL A   1      53.808  24.831  25.353  1.00  0.00     0.124 S 
ATOM     74  O   UNL A   1      54.586  25.078  26.564  1.00  0.00    -0.237 OA
ATOM     75  O   UNL A   1      53.488  23.434  25.081  1.00  0.00    -0.237 OA
ATOM     76  O   UNL A   1      54.193  25.624  24.190  1.00  0.00    -0.744 OA
ENDBRANCH  72  73
ENDBRANCH  51  65
BRANCH  52  77
ATOM     77  C   UNL A   1      40.610  29.429  29.524  1.00  0.00     0.058 A 
ATOM     78  C   UNL A   1      40.312  29.726  30.862  1.00  0.00     0.135 A 
ATOM     79  C   UNL A   1      39.600  29.614  28.569  1.00  0.00     0.135 A 
ATOM     80  F   UNL A   1      41.251  29.567  31.809  1.00  0.00    -0.206 F 
ATOM     81  C   UNL A   1      39.058  30.186  31.243  1.00  0.00     0.059 A 
ATOM     82  C   UNL A   1      38.342  30.090  28.924  1.00  0.00     0.059 A 
ATOM     83  F   UNL A   1      39.846  29.366  27.274  1.00  0.00    -0.206 F 
ATOM     84  C   UNL A   1      38.079  30.371  30.265  1.00  0.00     0.060 A 
BRANCH  84  85
ATOM     85  S   UNL A   1      36.476  31.035  30.765  1.00  0.00     0.124 S 
ATOM     86  O   UNL A   1      36.071  30.081  31.790  1.00  0.00    -0.237 OA
ATOM     87  O   UNL A   1      36.831  32.369  31.238  1.00  0.00    -0.237 OA
ATOM     88  O   UNL A   1      35.700  31.002  29.529  1.00  0.00    -0.744 OA
ENDBRANCH  84  85
ENDBRANCH  52  77
BRANCH  64  89
ATOM     89  C   UNL A   1      46.585  32.825  28.244  1.00  0.00     0.058 A 
ATOM     90  C   UNL A   1      47.257  33.353  29.357  1.00  0.00     0.135 A 
ATOM     91  C   UNL A   1      46.408  33.653  27.125  1.00  0.00     0.135 A 
ATOM     92  F   UNL A   1      47.443  32.602  30.453  1.00  0.00    -0.206 F 
ATOM     93  C   UNL A   1      47.751  34.653  29.353  1.00  0.00     0.059 A 
ATOM     94  C   UNL A   1      46.910  34.950  27.092  1.00  0.00     0.059 A 
ATOM     95  F   UNL A   1      45.777  33.189  26.035  1.00  0.00    -0.206 F 
ATOM     96  C   UNL A   1      47.585  35.439  28.210  1.00  0.00     0.060 A 
BRANCH  96  97
ATOM     97  S   UNL A   1      48.321  37.088  28.185  1.00  0.00     0.124 S 
ATOM     98  O   UNL A   1      48.142  37.470  26.789  1.00  0.00    -0.237 OA
ATOM     99  O   UNL A   1      47.498  37.809  29.151  1.00  0.00    -0.237 OA
ATOM    100  O   UNL A   1      49.700  36.852  28.600  1.00  0.00    -0.744 OA
ENDBRANCH  96  97
ENDBRANCH  64  89
ENDBRANCH  38  39
ENDBRANCH  31  33
ENDBRANCH  30  31
ENDBRANCH  29  30
ENDBRANCH   1  29
TORSDOF 19
ENDMDL
MODEL 3
REMARK VINA RESULT:     -11.1      2.297      8.456
REMARK SMILES CO[C@H]1CN(C(=O)c2cn(C(C)C)cc(C(=O)OCCOC(=O)c3ccc(-c4c5nc(c(-c6c(F)cc(S(=O)(=O)[O-])cc6F)c6ccc([nH]6)c(-c6c(F)cc(S(=O)(=O)[O-])cc6F)c6nc(c(-c7c(F)cc(S(=O)(=O)[O-])cc7F)c7ccc4[nH]7)C=C6)C=C5)cc3)c2=O)CC[C@H]1[NH3+]
REMARK SMILES IDX 19 1 18 2 16 3 17 4 15 5 8 6 9 7 90 8 10 9 91 10 14 11 6 12
REMARK SMILES IDX 7 13 5 14 3 15 4 16 94 17 93 18 92 19 2 20 1 21 95 22 11 26
REMARK SMILES IDX 12 27 13 28 20 29 21 30 22 31 23 32 24 33 25 34 89 35 26 36
REMARK SMILES IDX 88 37 27 38 28 39 29 40 82 41 30 42 87 43 81 44 83 45 31 46
REMARK SMILES IDX 86 47 80 48 79 49 32 51 66 52 45 53 65 54 46 55 49 56 64 57
REMARK SMILES IDX 84 58 47 59 48 60 63 62 85 63 50 64 33 65 34 66 43 67 35 68
REMARK SMILES IDX 36 69 42 70 44 71 37 72 38 73 39 74 40 75 41 76 67 77 68 78
REMARK SMILES IDX 77 79 69 80 70 81 76 82 78 83 71 84 72 85 73 86 74 87 75 88
REMARK SMILES IDX 51 89 52 90 61 91 53 92 54 93 60 94 62 95 55 96 56 97 57 98
REMARK SMILES IDX 58 99 59 100
REMARK H PARENT 95 23 95 24 95 25 83 50 49 61
REMARK Flexibility Score: inf
ROOT
ATOM      1  C   UNL A   1      38.555  21.434  25.745  1.00  0.00     0.275 C 
ENDROOT
BRANCH   1   2
ATOM      2  O   UNL A   1      37.248  21.368  25.146  1.00  0.00    -0.458 OA
BRANCH   2   3
ATOM      3  C   UNL A   1      36.333  22.276  25.558  1.00  0.00     0.343 C 
ATOM      4  O   UNL A   1      36.500  23.108  26.437  1.00  0.00    -0.246 OA
BRANCH   3   5
ATOM      5  C   UNL A   1      35.111  22.213  24.737  1.00  0.00     0.124 A 
ATOM      6  C   UNL A   1      33.435  23.009  23.024  1.00  0.00     0.104 A 
ATOM      7  C   UNL A   1      32.815  21.824  23.158  1.00  0.00     0.103 A 
ATOM      8  C   UNL A   1      34.561  23.340  23.941  1.00  0.00     0.208 A 
ATOM      9  N   UNL A   1      33.222  20.839  24.052  1.00  0.00    -0.350 N 
ATOM     10  O   UNL A   1      35.074  24.455  23.930  1.00  0.00    -0.288 OA
ATOM     11  C   UNL A   1      34.439  21.048  24.697  1.00  0.00     0.105 A 
BRANCH   6  12
ATOM     12  C   UNL A   1      33.094  23.834  21.848  1.00  0.00     0.259 C 
ATOM     13  O   UNL A   1      33.375  23.440  20.718  1.00  0.00    -0.269 OA
BRANCH  12  14
ATOM     14  N   UNL A   1      32.545  25.088  22.112  1.00  0.00    -0.335 N 
ATOM     15  C   UNL A   1      31.603  26.505  23.949  1.00  0.00     0.195 C 
ATOM     16  C   UNL A   1      31.379  25.341  22.974  1.00  0.00     0.158 C 
ATOM     17  C   UNL A   1      32.079  27.772  23.186  1.00  0.00     0.213 C 
ATOM     18  C   UNL A   1      33.315  27.419  22.340  1.00  0.00     0.089 C 
ATOM     19  C   UNL A   1      33.060  26.247  21.395  1.00  0.00     0.126 C 
BRANCH  15  20
ATOM     20  O   UNL A   1      30.412  26.804  24.694  1.00  0.00    -0.373 OA
ATOM     21  C   UNL A   1      30.019  25.772  25.590  1.00  0.00     0.195 C 
ENDBRANCH  15  20
BRANCH  17  22
ATOM     22  N   UNL A   1      31.039  28.411  22.362  1.00  0.00    -0.353 N 
ATOM     23  H   UNL A   1      30.258  27.765  22.239  1.00  0.00     0.344 HD
ATOM     24  H   UNL A   1      31.427  28.651  21.449  1.00  0.00     0.344 HD
ATOM     25  H   UNL A   1      30.710  29.258  22.826  1.00  0.00     0.344 HD
ENDBRANCH  17  22
ENDBRANCH  12  14
ENDBRANCH   6  12
BRANCH   9  26
ATOM     26  C   UNL A   1      32.429  19.612  24.327  1.00  0.00     0.080 C 
ATOM     27  C   UNL A   1      32.487  18.632  23.153  1.00  0.00     0.031 C 
ATOM     28  C   UNL A   1      32.861  18.962  25.636  1.00  0.00     0.031 C 
ENDBRANCH   9  26
ENDBRANCH   3   5
ENDBRANCH   2   3
ENDBRANCH   1   2
BRANCH   1  29
ATOM     29  C   UNL A   1      39.267  20.083  25.647  1.00  0.00     0.275 C 
BRANCH  29  30
ATOM     30  O   UNL A   1      40.264  19.947  26.678  1.00  0.00    -0.458 OA
BRANCH  30  31
ATOM     31  C   UNL A   1      41.538  19.826  26.239  1.00  0.00     0.338 C 
ATOM     32  O   UNL A   1      42.018  18.896  25.606  1.00  0.00    -0.246 OA
BRANCH  31  33
ATOM     33  C   UNL A   1      42.245  21.100  26.438  1.00  0.00     0.060 A 
ATOM     34  C   UNL A   1      42.543  21.978  25.400  1.00  0.00     0.016 A 
ATOM     35  C   UNL A   1      42.556  21.440  27.753  1.00  0.00     0.016 A 
ATOM     36  C   UNL A   1      43.178  23.192  25.700  1.00  0.00     0.010 A 
ATOM     37  C   UNL A   1      43.194  22.638  28.054  1.00  0.00     0.010 A 
ATOM     38  C   UNL A   1      43.510  23.531  27.030  1.00  0.00    -0.014 A 
BRANCH  38  39
ATOM     39  C   UNL A   1      44.076  24.862  27.367  1.00  0.00     0.031 A 
ATOM     40  C   UNL A   1      45.533  25.179  27.164  1.00  0.00     0.074 A 
ATOM     41  C   UNL A   1      43.264  25.779  27.930  1.00  0.00     0.049 A 
ATOM     42  N   UNL A   1      46.146  26.327  27.298  1.00  0.00    -0.248 NA
ATOM     43  C   UNL A   1      46.421  24.063  26.803  1.00  0.00     0.031 C 
ATOM     44  C   UNL A   1      41.871  25.542  28.313  1.00  0.00     0.029 A 
ATOM     45  N   UNL A   1      43.483  27.091  28.264  1.00  0.00    -0.354 N 
ATOM     46  C   UNL A   1      47.486  26.078  27.025  1.00  0.00     0.074 A 
ATOM     47  C   UNL A   1      47.609  24.656  26.788  1.00  0.00     0.031 C 
ATOM     48  C   UNL A   1      41.337  26.690  28.757  1.00  0.00     0.029 A 
ATOM     49  C   UNL A   1      42.350  27.740  28.697  1.00  0.00     0.049 A 
ATOM     50  H   UNL A   1      44.364  27.526  28.199  1.00  0.00     0.167 HD
ATOM     51  C   UNL A   1      48.510  26.964  26.942  1.00  0.00     0.037 A 
ATOM     52  C   UNL A   1      42.138  29.041  28.969  1.00  0.00     0.037 A 
ATOM     53  C   UNL A   1      48.365  28.382  27.149  1.00  0.00     0.049 A 
ATOM     54  C   UNL A   1      43.262  30.023  28.784  1.00  0.00     0.074 A 
ATOM     55  C   UNL A   1      49.318  29.375  27.001  1.00  0.00     0.029 A 
ATOM     56  N   UNL A   1      47.192  29.008  27.544  1.00  0.00    -0.354 N 
ATOM     57  N   UNL A   1      44.495  29.794  28.400  1.00  0.00    -0.248 NA
ATOM     58  C   UNL A   1      42.966  31.436  29.053  1.00  0.00     0.031 C 
ATOM     59  C   UNL A   1      48.728  30.598  27.334  1.00  0.00     0.029 A 
ATOM     60  C   UNL A   1      47.399  30.372  27.654  1.00  0.00     0.049 A 
ATOM     61  H   UNL A   1      46.339  28.550  27.720  1.00  0.00     0.167 HD
ATOM     62  C   UNL A   1      45.116  31.037  28.362  1.00  0.00     0.074 A 
ATOM     63  C   UNL A   1      44.122  32.015  28.753  1.00  0.00     0.031 C 
ATOM     64  C   UNL A   1      46.395  31.336  28.031  1.00  0.00     0.037 A 
BRANCH  51  65
ATOM     65  C   UNL A   1      49.869  26.441  26.559  1.00  0.00     0.058 A 
ATOM     66  C   UNL A   1      50.270  26.383  25.215  1.00  0.00     0.135 A 
ATOM     67  C   UNL A   1      50.806  26.072  27.537  1.00  0.00     0.135 A 
ATOM     68  F   UNL A   1      49.412  26.720  24.239  1.00  0.00    -0.206 F 
ATOM     69  C   UNL A   1      51.541  25.954  24.852  1.00  0.00     0.059 A 
ATOM     70  C   UNL A   1      52.094  25.663  27.198  1.00  0.00     0.059 A 
ATOM     71  F   UNL A   1      50.479  26.114  28.838  1.00  0.00    -0.206 F 
ATOM     72  C   UNL A   1      52.448  25.596  25.850  1.00  0.00     0.060 A 
BRANCH  72  73
ATOM     73  S   UNL A   1      54.099  25.056  25.357  1.00  0.00     0.124 S 
ATOM     74  O   UNL A   1      54.837  25.204  26.608  1.00  0.00    -0.237 OA
ATOM     75  O   UNL A   1      53.861  23.684  24.921  1.00  0.00    -0.237 OA
ATOM     76  O   UNL A   1      54.463  25.995  24.301  1.00  0.00    -0.744 OA
ENDBRANCH  72  73
ENDBRANCH  51  65
BRANCH  52  77
ATOM     77  C   UNL A   1      40.771  29.495  29.332  1.00  0.00     0.058 A 
ATOM     78  C   UNL A   1      39.775  29.601  28.350  1.00  0.00     0.135 A 
ATOM     79  C   UNL A   1      40.415  29.763  30.662  1.00  0.00     0.135 A 
ATOM     80  F   UNL A   1      40.071  29.350  27.065  1.00  0.00    -0.206 F 
ATOM     81  C   UNL A   1      38.473  29.963  28.672  1.00  0.00     0.059 A 
ATOM     82  C   UNL A   1      39.113  30.110  31.011  1.00  0.00     0.059 A 
ATOM     83  F   UNL A   1      41.329  29.650  31.638  1.00  0.00    -0.206 F 
ATOM     84  C   UNL A   1      38.150  30.211  30.007  1.00  0.00     0.060 A 
BRANCH  84  85
ATOM     85  S   UNL A   1      36.438  30.614  30.419  1.00  0.00     0.124 S 
ATOM     86  O   UNL A   1      36.558  32.005  30.838  1.00  0.00    -0.237 OA
ATOM     87  O   UNL A   1      35.755  30.386  29.149  1.00  0.00    -0.237 OA
ATOM     88  O   UNL A   1      36.115  29.660  31.476  1.00  0.00    -0.744 OA
ENDBRANCH  84  85
ENDBRANCH  52  77
BRANCH  64  89
ATOM     89  C   UNL A   1      46.812  32.778  28.065  1.00  0.00     0.058 A 
ATOM     90  C   UNL A   1      46.490  33.652  27.017  1.00  0.00     0.135 A 
ATOM     91  C   UNL A   1      47.422  33.314  29.210  1.00  0.00     0.135 A 
ATOM     92  F   UNL A   1      45.913  33.183  25.899  1.00  0.00    -0.206 F 
ATOM     93  C   UNL A   1      46.747  35.015  27.107  1.00  0.00     0.059 A 
ATOM     94  C   UNL A   1      47.671  34.678  29.329  1.00  0.00     0.059 A 
ATOM     95  F   UNL A   1      47.743  32.518  30.241  1.00  0.00    -0.206 F 
ATOM     96  C   UNL A   1      47.325  35.521  28.274  1.00  0.00     0.060 A 
BRANCH  96  97
ATOM     97  S   UNL A   1      47.559  37.307  28.415  1.00  0.00     0.124 S 
ATOM     98  O   UNL A   1      48.617  37.543  27.438  1.00  0.00    -0.237 OA
ATOM     99  O   UNL A   1      46.240  37.821  28.060  1.00  0.00    -0.237 OA
ATOM    100  O   UNL A   1      47.941  37.491  29.811  1.00  0.00    -0.744 OA
ENDBRANCH  96  97
ENDBRANCH  64  89
ENDBRANCH  38  39
ENDBRANCH  31  33
ENDBRANCH  30  31
ENDBRANCH  29  30
ENDBRANCH   1  29
TORSDOF 19
ENDMDL
