MODEL 1
REMARK VINA RESULT:     -11.6      0.000      0.000
REMARK SMILES Cc1cc(F)cc(N[C@](C)(C(=O)OCCOC(=O)c2ccc(-c3c4nc(c(-c5c(F)cc(S(=O)(=O)[O-])cc5F)c5ccc([nH]5)c(-c5c(F)cc(S(=O)(=O)[O-])cc5F)c5nc(c(-c6c(F)cc(S(=O)(=O)[O-])cc6F)c6ccc3[nH]6)C=C5)C=C4)cc2)c2cccc(F)c2)c1
REMARK SMILES IDX 15 1 14 2 13 3 11 4 12 5 9 6 10 7 8 8 7 10 1 11 2 12 3 13
REMARK SMILES IDX 92 14 4 15 5 16 6 17 85 18 86 19 91 20 87 21 89 22 88 23
REMARK SMILES IDX 90 24 16 25 17 26 18 27 19 28 20 29 84 30 21 31 83 32 22 33
REMARK SMILES IDX 23 34 24 35 77 36 25 37 82 38 76 39 78 40 26 41 81 42 75 43
REMARK SMILES IDX 74 44 27 46 61 47 40 48 60 49 41 50 44 51 59 52 79 53 42 54
REMARK SMILES IDX 43 55 58 57 80 58 45 59 28 60 29 61 38 62 30 63 31 64 37 65
REMARK SMILES IDX 39 66 32 67 33 68 34 69 35 70 36 71 62 72 63 73 72 74 64 75
REMARK SMILES IDX 65 76 71 77 73 78 66 79 67 80 68 81 69 82 70 83 46 84 47 85
REMARK SMILES IDX 56 86 48 87 49 88 55 89 57 90 50 91 51 92 52 93 53 94 54 95
REMARK H PARENT 8 9 78 45 44 56
REMARK Flexibility Score: inf
ROOT
ATOM      1  C   UNL A   1      34.667  31.472  27.948  1.00  0.00     0.275 C 
ENDROOT
BRANCH   1   2
ATOM      2  C   UNL A   1      33.307  31.104  27.340  1.00  0.00     0.274 C 
BRANCH   2   3
ATOM      3  O   UNL A   1      33.399  30.082  26.324  1.00  0.00    -0.460 OA
BRANCH   3   4
ATOM      4  C   UNL A   1      32.431  29.113  26.374  1.00  0.00     0.336 C 
ATOM      5  O   UNL A   1      31.728  28.958  27.366  1.00  0.00    -0.249 OA
BRANCH   4   6
ATOM      6  C   UNL A   1      32.382  28.245  25.052  1.00  0.00     0.159 C 
ATOM      7  C   UNL A   1      33.608  28.559  24.163  1.00  0.00     0.053 C 
BRANCH   6   8
ATOM      8  N   UNL A   1      32.413  26.774  25.321  1.00  0.00    -0.366 N 
ATOM      9  H   UNL A   1      31.707  26.444  25.923  1.00  0.00     0.162 HD
BRANCH   8  10
ATOM     10  C   UNL A   1      33.287  25.805  24.852  1.00  0.00     0.038 A 
ATOM     11  C   UNL A   1      33.277  23.258  21.977  1.00  0.00     0.044 C 
ATOM     12  C   UNL A   1      33.698  24.005  23.209  1.00  0.00    -0.046 A 
ATOM     13  C   UNL A   1      34.866  23.650  23.881  1.00  0.00     0.042 A 
ATOM     14  C   UNL A   1      32.935  25.090  23.690  1.00  0.00     0.029 A 
ATOM     15  C   UNL A   1      35.232  24.350  25.018  1.00  0.00     0.125 A 
ATOM     16  F   UNL A   1      36.349  24.009  25.676  1.00  0.00    -0.207 F 
ATOM     17  C   UNL A   1      34.456  25.403  25.502  1.00  0.00     0.065 A 
ENDBRANCH   8  10
ENDBRANCH   6   8
BRANCH   6  18
ATOM     18  C   UNL A   1      31.072  28.587  24.273  1.00  0.00    -0.009 A 
ATOM     19  C   UNL A   1      30.215  27.590  23.763  1.00  0.00     0.007 A 
ATOM     20  C   UNL A   1      30.650  29.924  24.117  1.00  0.00     0.046 A 
ATOM     21  C   UNL A   1      29.011  27.912  23.120  1.00  0.00     0.003 A 
ATOM     22  C   UNL A   1      29.448  30.234  23.483  1.00  0.00     0.123 A 
ATOM     23  C   UNL A   1      28.626  29.240  22.979  1.00  0.00     0.039 A 
ATOM     24  F   UNL A   1      29.079  31.519  23.372  1.00  0.00    -0.207 F 
ENDBRANCH   6  18
ENDBRANCH   4   6
ENDBRANCH   3   4
ENDBRANCH   2   3
ENDBRANCH   1   2
BRANCH   1  25
ATOM     25  O   UNL A   1      35.363  30.321  28.460  1.00  0.00    -0.458 OA
BRANCH  25  26
ATOM     26  C   UNL A   1      36.310  30.585  29.392  1.00  0.00     0.338 C 
ATOM     27  O   UNL A   1      36.142  31.132  30.469  1.00  0.00    -0.246 OA
BRANCH  26  28
ATOM     28  C   UNL A   1      37.599  29.994  28.993  1.00  0.00     0.060 A 
ATOM     29  C   UNL A   1      38.527  29.736  30.002  1.00  0.00     0.016 A 
ATOM     30  C   UNL A   1      37.939  29.785  27.657  1.00  0.00     0.016 A 
ATOM     31  C   UNL A   1      39.805  29.286  29.689  1.00  0.00     0.010 A 
ATOM     32  C   UNL A   1      39.226  29.326  27.338  1.00  0.00     0.010 A 
ATOM     33  C   UNL A   1      40.169  29.088  28.354  1.00  0.00    -0.014 A 
BRANCH  33  34
ATOM     34  C   UNL A   1      41.565  28.692  28.055  1.00  0.00     0.031 A 
ATOM     35  C   UNL A   1      42.673  29.692  28.219  1.00  0.00     0.074 A 
ATOM     36  C   UNL A   1      41.847  27.413  27.738  1.00  0.00     0.049 A 
ATOM     37  N   UNL A   1      43.957  29.543  28.019  1.00  0.00    -0.248 NA
ATOM     38  C   UNL A   1      42.285  31.034  28.679  1.00  0.00     0.031 C 
ATOM     39  C   UNL A   1      40.862  26.337  27.631  1.00  0.00     0.029 A 
ATOM     40  N   UNL A   1      43.045  26.800  27.480  1.00  0.00    -0.354 N 
ATOM     41  C   UNL A   1      44.529  30.778  28.299  1.00  0.00     0.074 A 
ATOM     42  C   UNL A   1      43.453  31.662  28.695  1.00  0.00     0.031 C 
ATOM     43  C   UNL A   1      41.502  25.186  27.361  1.00  0.00     0.029 A 
ATOM     44  C   UNL A   1      42.934  25.451  27.244  1.00  0.00     0.049 A 
ATOM     45  H   UNL A   1      43.904  27.280  27.466  1.00  0.00     0.167 HD
ATOM     46  C   UNL A   1      45.831  31.143  28.217  1.00  0.00     0.037 A 
ATOM     47  C   UNL A   1      43.883  24.536  26.962  1.00  0.00     0.037 A 
ATOM     48  C   UNL A   1      46.898  30.262  27.822  1.00  0.00     0.049 A 
ATOM     49  C   UNL A   1      45.318  24.975  26.848  1.00  0.00     0.074 A 
ATOM     50  C   UNL A   1      48.240  30.552  27.653  1.00  0.00     0.029 A 
ATOM     51  N   UNL A   1      46.742  28.912  27.538  1.00  0.00    -0.354 N 
ATOM     52  N   UNL A   1      45.839  26.160  27.058  1.00  0.00    -0.248 NA
ATOM     53  C   UNL A   1      46.293  23.955  26.435  1.00  0.00     0.031 C 
ATOM     54  C   UNL A   1      48.892  29.385  27.237  1.00  0.00     0.029 A 
ATOM     55  C   UNL A   1      47.961  28.359  27.182  1.00  0.00     0.049 A 
ATOM     56  H   UNL A   1      45.891  28.421  27.583  1.00  0.00     0.167 HD
ATOM     57  C   UNL A   1      47.198  26.030  26.798  1.00  0.00     0.074 A 
ATOM     58  C   UNL A   1      47.426  24.643  26.447  1.00  0.00     0.031 C 
ATOM     59  C   UNL A   1      48.168  26.977  26.831  1.00  0.00     0.037 A 
BRANCH  46  60
ATOM     60  C   UNL A   1      46.156  32.581  28.501  1.00  0.00     0.058 A 
ATOM     61  C   UNL A   1      46.116  33.563  27.501  1.00  0.00     0.135 A 
ATOM     62  C   UNL A   1      46.519  32.978  29.799  1.00  0.00     0.135 A 
ATOM     63  F   UNL A   1      45.794  33.231  26.240  1.00  0.00    -0.206 F 
ATOM     64  C   UNL A   1      46.450  34.887  27.771  1.00  0.00     0.059 A 
ATOM     65  C   UNL A   1      46.840  34.298  30.095  1.00  0.00     0.059 A 
ATOM     66  F   UNL A   1      46.577  32.073  30.789  1.00  0.00    -0.206 F 
ATOM     67  C   UNL A   1      46.821  35.242  29.070  1.00  0.00     0.060 A 
BRANCH  67  68
ATOM     68  S   UNL A   1      47.283  36.955  29.404  1.00  0.00     0.124 S 
ATOM     69  O   UNL A   1      46.776  37.132  30.762  1.00  0.00    -0.237 OA
ATOM     70  O   UNL A   1      48.736  36.923  29.269  1.00  0.00    -0.237 OA
ATOM     71  O   UNL A   1      46.578  37.704  28.368  1.00  0.00    -0.744 OA
ENDBRANCH  67  68
ENDBRANCH  46  60
BRANCH  47  72
ATOM     72  C   UNL A   1      43.511  23.110  26.769  1.00  0.00     0.058 A 
ATOM     73  C   UNL A   1      43.511  22.538  25.488  1.00  0.00     0.135 A 
ATOM     74  C   UNL A   1      43.144  22.295  27.851  1.00  0.00     0.135 A 
ATOM     75  F   UNL A   1      43.847  23.281  24.423  1.00  0.00    -0.206 F 
ATOM     76  C   UNL A   1      43.150  21.211  25.283  1.00  0.00     0.059 A 
ATOM     77  C   UNL A   1      42.800  20.958  27.673  1.00  0.00     0.059 A 
ATOM     78  F   UNL A   1      43.134  22.794  29.096  1.00  0.00    -0.206 F 
ATOM     79  C   UNL A   1      42.794  20.429  26.383  1.00  0.00     0.060 A 
BRANCH  79  80
ATOM     80  S   UNL A   1      42.371  18.692  26.121  1.00  0.00     0.124 S 
ATOM     81  O   UNL A   1      42.656  18.122  27.433  1.00  0.00    -0.237 OA
ATOM     82  O   UNL A   1      40.962  18.766  25.750  1.00  0.00    -0.237 OA
ATOM     83  O   UNL A   1      43.274  18.293  25.045  1.00  0.00    -0.744 OA
ENDBRANCH  79  80
ENDBRANCH  47  72
BRANCH  59  84
ATOM     84  C   UNL A   1      49.561  26.548  26.468  1.00  0.00     0.058 A 
ATOM     85  C   UNL A   1      50.442  26.043  27.437  1.00  0.00     0.135 A 
ATOM     86  C   UNL A   1      50.000  26.587  25.136  1.00  0.00     0.135 A 
ATOM     87  F   UNL A   1      50.071  25.989  28.725  1.00  0.00    -0.206 F 
ATOM     88  C   UNL A   1      51.719  25.607  27.100  1.00  0.00     0.059 A 
ATOM     89  C   UNL A   1      51.267  26.139  24.772  1.00  0.00     0.059 A 
ATOM     90  F   UNL A   1      49.192  27.053  24.171  1.00  0.00    -0.206 F 
ATOM     91  C   UNL A   1      52.123  25.659  25.764  1.00  0.00     0.060 A 
BRANCH  91  92
ATOM     92  S   UNL A   1      53.767  25.052  25.330  1.00  0.00     0.124 S 
ATOM     93  O   UNL A   1      54.502  25.284  26.568  1.00  0.00    -0.237 OA
ATOM     94  O   UNL A   1      53.511  23.653  24.998  1.00  0.00    -0.237 OA
ATOM     95  O   UNL A   1      54.152  25.895  24.202  1.00  0.00    -0.744 OA
ENDBRANCH  91  92
ENDBRANCH  59  84
ENDBRANCH  33  34
ENDBRANCH  26  28
ENDBRANCH  25  26
ENDBRANCH   1  25
TORSDOF 17
ENDMDL
MODEL 2
REMARK VINA RESULT:     -11.6      6.798     12.348
REMARK SMILES Cc1cc(F)cc(N[C@](C)(C(=O)OCCOC(=O)c2ccc(-c3c4nc(c(-c5c(F)cc(S(=O)(=O)[O-])cc5F)c5ccc([nH]5)c(-c5c(F)cc(S(=O)(=O)[O-])cc5F)c5nc(c(-c6c(F)cc(S(=O)(=O)[O-])cc6F)c6ccc3[nH]6)C=C5)C=C4)cc2)c2cccc(F)c2)c1
REMARK SMILES IDX 15 1 14 2 13 3 11 4 12 5 9 6 10 7 8 8 7 10 1 11 2 12 3 13
REMARK SMILES IDX 92 14 4 15 5 16 6 17 85 18 86 19 91 20 87 21 89 22 88 23
REMARK SMILES IDX 90 24 16 25 17 26 18 27 19 28 20 29 84 30 21 31 83 32 22 33
REMARK SMILES IDX 23 34 24 35 77 36 25 37 82 38 76 39 78 40 26 41 81 42 75 43
REMARK SMILES IDX 74 44 27 46 61 47 40 48 60 49 41 50 44 51 59 52 79 53 42 54
REMARK SMILES IDX 43 55 58 57 80 58 45 59 28 60 29 61 38 62 30 63 31 64 37 65
REMARK SMILES IDX 39 66 32 67 33 68 34 69 35 70 36 71 62 72 63 73 72 74 64 75
REMARK SMILES IDX 65 76 71 77 73 78 66 79 67 80 68 81 69 82 70 83 46 84 47 85
REMARK SMILES IDX 56 86 48 87 49 88 55 89 57 90 50 91 51 92 52 93 53 94 54 95
REMARK H PARENT 8 9 78 45 44 56
REMARK Flexibility Score: inf
ROOT
ATOM      1  C   UNL A   1      38.964  22.762  26.463  1.00  0.00     0.275 C 
ENDROOT
BRANCH   1   2
ATOM      2  C   UNL A   1      37.915  22.306  25.441  1.00  0.00     0.274 C 
BRANCH   2   3
ATOM      3  O   UNL A   1      36.643  22.970  25.598  1.00  0.00    -0.460 OA
BRANCH   3   4
ATOM      4  C   UNL A   1      35.684  22.635  24.678  1.00  0.00     0.336 C 
ATOM      5  O   UNL A   1      35.924  22.623  23.476  1.00  0.00    -0.249 OA
BRANCH   4   6
ATOM      6  C   UNL A   1      34.289  22.318  25.353  1.00  0.00     0.159 C 
ATOM      7  C   UNL A   1      34.476  22.056  26.865  1.00  0.00     0.053 C 
BRANCH   6   8
ATOM      8  N   UNL A   1      33.315  23.448  25.231  1.00  0.00    -0.366 N 
ATOM      9  H   UNL A   1      32.396  23.240  25.517  1.00  0.00     0.162 HD
BRANCH   8  10
ATOM     10  C   UNL A   1      33.511  24.741  24.775  1.00  0.00     0.038 A 
ATOM     11  C   UNL A   1      33.977  28.188  26.407  1.00  0.00     0.044 C 
ATOM     12  C   UNL A   1      33.789  27.126  25.362  1.00  0.00    -0.046 A 
ATOM     13  C   UNL A   1      33.721  27.473  24.013  1.00  0.00     0.042 A 
ATOM     14  C   UNL A   1      33.705  25.765  25.724  1.00  0.00     0.029 A 
ATOM     15  C   UNL A   1      33.543  26.477  23.068  1.00  0.00     0.125 A 
ATOM     16  F   UNL A   1      33.467  26.802  21.769  1.00  0.00    -0.207 F 
ATOM     17  C   UNL A   1      33.432  25.137  23.438  1.00  0.00     0.065 A 
ENDBRANCH   8  10
ENDBRANCH   6   8
BRANCH   6  18
ATOM     18  C   UNL A   1      33.678  21.050  24.675  1.00  0.00    -0.009 A 
ATOM     19  C   UNL A   1      32.677  21.132  23.685  1.00  0.00     0.007 A 
ATOM     20  C   UNL A   1      34.167  19.761  24.975  1.00  0.00     0.046 A 
ATOM     21  C   UNL A   1      32.182  19.988  23.041  1.00  0.00     0.003 A 
ATOM     22  C   UNL A   1      33.674  18.631  24.325  1.00  0.00     0.123 A 
ATOM     23  C   UNL A   1      32.683  18.732  23.363  1.00  0.00     0.039 A 
ATOM     24  F   UNL A   1      34.180  17.427  24.631  1.00  0.00    -0.207 F 
ENDBRANCH   6  18
ENDBRANCH   4   6
ENDBRANCH   3   4
ENDBRANCH   2   3
ENDBRANCH   1   2
BRANCH   1  25
ATOM     25  O   UNL A   1      38.958  24.190  26.647  1.00  0.00    -0.458 OA
BRANCH  25  26
ATOM     26  C   UNL A   1      40.177  24.781  26.618  1.00  0.00     0.338 C 
ATOM     27  O   UNL A   1      41.025  24.664  25.749  1.00  0.00    -0.246 OA
BRANCH  26  28
ATOM     28  C   UNL A   1      40.315  25.723  27.743  1.00  0.00     0.060 A 
ATOM     29  C   UNL A   1      39.370  25.645  28.766  1.00  0.00     0.016 A 
ATOM     30  C   UNL A   1      41.283  26.726  27.757  1.00  0.00     0.016 A 
ATOM     31  C   UNL A   1      39.370  26.573  29.800  1.00  0.00     0.010 A 
ATOM     32  C   UNL A   1      41.289  27.661  28.803  1.00  0.00     0.010 A 
ATOM     33  C   UNL A   1      40.322  27.596  29.822  1.00  0.00    -0.014 A 
BRANCH  33  34
ATOM     34  C   UNL A   1      40.236  28.617  30.892  1.00  0.00     0.031 A 
ATOM     35  C   UNL A   1      41.252  28.622  31.998  1.00  0.00     0.074 A 
ATOM     36  C   UNL A   1      39.313  29.595  30.815  1.00  0.00     0.049 A 
ATOM     37  N   UNL A   1      41.357  29.432  33.019  1.00  0.00    -0.248 NA
ATOM     38  C   UNL A   1      42.293  27.584  31.940  1.00  0.00     0.031 C 
ATOM     39  C   UNL A   1      38.327  29.738  29.743  1.00  0.00     0.029 A 
ATOM     40  N   UNL A   1      39.075  30.667  31.635  1.00  0.00    -0.354 N 
ATOM     41  C   UNL A   1      42.456  28.986  33.743  1.00  0.00     0.074 A 
ATOM     42  C   UNL A   1      42.992  27.841  33.037  1.00  0.00     0.031 C 
ATOM     43  C   UNL A   1      37.613  30.856  29.956  1.00  0.00     0.029 A 
ATOM     44  C   UNL A   1      38.066  31.487  31.193  1.00  0.00     0.049 A 
ATOM     45  H   UNL A   1      39.581  30.834  32.463  1.00  0.00     0.167 HD
ATOM     46  C   UNL A   1      42.961  29.479  34.900  1.00  0.00     0.037 A 
ATOM     47  C   UNL A   1      37.565  32.618  31.729  1.00  0.00     0.037 A 
ATOM     48  C   UNL A   1      42.427  30.617  35.600  1.00  0.00     0.049 A 
ATOM     49  C   UNL A   1      38.125  33.126  33.030  1.00  0.00     0.074 A 
ATOM     50  C   UNL A   1      42.832  31.156  36.807  1.00  0.00     0.029 A 
ATOM     51  N   UNL A   1      41.368  31.394  35.149  1.00  0.00    -0.354 N 
ATOM     52  N   UNL A   1      39.128  32.661  33.736  1.00  0.00    -0.248 NA
ATOM     53  C   UNL A   1      37.469  34.302  33.621  1.00  0.00     0.031 C 
ATOM     54  C   UNL A   1      41.999  32.243  37.103  1.00  0.00     0.029 A 
ATOM     55  C   UNL A   1      41.098  32.401  36.062  1.00  0.00     0.049 A 
ATOM     56  H   UNL A   1      40.881  31.250  34.306  1.00  0.00     0.167 HD
ATOM     57  C   UNL A   1      39.220  33.482  34.854  1.00  0.00     0.074 A 
ATOM     58  C   UNL A   1      38.192  34.493  34.716  1.00  0.00     0.031 C 
ATOM     59  C   UNL A   1      40.067  33.396  35.909  1.00  0.00     0.037 A 
BRANCH  46  60
ATOM     60  C   UNL A   1      44.117  28.740  35.509  1.00  0.00     0.058 A 
ATOM     61  C   UNL A   1      43.931  27.688  36.418  1.00  0.00     0.135 A 
ATOM     62  C   UNL A   1      45.435  29.098  35.179  1.00  0.00     0.135 A 
ATOM     63  F   UNL A   1      42.692  27.322  36.782  1.00  0.00    -0.206 F 
ATOM     64  C   UNL A   1      45.012  27.033  37.001  1.00  0.00     0.059 A 
ATOM     65  C   UNL A   1      46.530  28.445  35.735  1.00  0.00     0.059 A 
ATOM     66  F   UNL A   1      45.665  30.102  34.318  1.00  0.00    -0.206 F 
ATOM     67  C   UNL A   1      46.308  27.426  36.659  1.00  0.00     0.060 A 
BRANCH  67  68
ATOM     68  S   UNL A   1      47.704  26.591  37.442  1.00  0.00     0.124 S 
ATOM     69  O   UNL A   1      48.649  26.505  36.334  1.00  0.00    -0.237 OA
ATOM     70  O   UNL A   1      48.065  27.515  38.513  1.00  0.00    -0.237 OA
ATOM     71  O   UNL A   1      47.134  25.320  37.882  1.00  0.00    -0.744 OA
ENDBRANCH  67  68
ENDBRANCH  46  60
BRANCH  47  72
ATOM     72  C   UNL A   1      36.473  33.351  31.038  1.00  0.00     0.058 A 
ATOM     73  C   UNL A   1      35.173  33.361  31.567  1.00  0.00     0.135 A 
ATOM     74  C   UNL A   1      36.699  34.047  29.841  1.00  0.00     0.135 A 
ATOM     75  F   UNL A   1      34.907  32.703  32.705  1.00  0.00    -0.206 F 
ATOM     76  C   UNL A   1      34.133  34.027  30.927  1.00  0.00     0.059 A 
ATOM     77  C   UNL A   1      35.679  34.739  29.196  1.00  0.00     0.059 A 
ATOM     78  F   UNL A   1      37.926  34.072  29.300  1.00  0.00    -0.206 F 
ATOM     79  C   UNL A   1      34.396  34.712  29.740  1.00  0.00     0.060 A 
BRANCH  79  80
ATOM     80  S   UNL A   1      33.054  35.616  28.937  1.00  0.00     0.124 S 
ATOM     81  O   UNL A   1      33.791  36.629  28.190  1.00  0.00    -0.237 OA
ATOM     82  O   UNL A   1      32.411  34.577  28.139  1.00  0.00    -0.237 OA
ATOM     83  O   UNL A   1      32.266  36.106  30.064  1.00  0.00    -0.744 OA
ENDBRANCH  79  80
ENDBRANCH  47  72
BRANCH  59  84
ATOM     84  C   UNL A   1      39.913  34.416  37.001  1.00  0.00     0.058 A 
ATOM     85  C   UNL A   1      40.554  35.663  36.927  1.00  0.00     0.135 A 
ATOM     86  C   UNL A   1      39.074  34.171  38.099  1.00  0.00     0.135 A 
ATOM     87  F   UNL A   1      41.369  35.944  35.899  1.00  0.00    -0.206 F 
ATOM     88  C   UNL A   1      40.382  36.627  37.916  1.00  0.00     0.059 A 
ATOM     89  C   UNL A   1      38.872  35.128  39.089  1.00  0.00     0.059 A 
ATOM     90  F   UNL A   1      38.431  32.998  38.210  1.00  0.00    -0.206 F 
ATOM     91  C   UNL A   1      39.539  36.350  38.994  1.00  0.00     0.060 A 
BRANCH  91  92
ATOM     92  S   UNL A   1      39.290  37.622  40.250  1.00  0.00     0.124 S 
ATOM     93  O   UNL A   1      40.623  38.206  40.345  1.00  0.00    -0.237 OA
ATOM     94  O   UNL A   1      38.268  38.471  39.643  1.00  0.00    -0.237 OA
ATOM     95  O   UNL A   1      38.850  36.864  41.417  1.00  0.00    -0.744 OA
ENDBRANCH  91  92
ENDBRANCH  59  84
ENDBRANCH  33  34
ENDBRANCH  26  28
ENDBRANCH  25  26
ENDBRANCH   1  25
TORSDOF 17
ENDMDL
MODEL 3
REMARK VINA RESULT:     -11.6      0.973      2.095
REMARK SMILES Cc1cc(F)cc(N[C@](C)(C(=O)OCCOC(=O)c2ccc(-c3c4nc(c(-c5c(F)cc(S(=O)(=O)[O-])cc5F)c5ccc([nH]5)c(-c5c(F)cc(S(=O)(=O)[O-])cc5F)c5nc(c(-c6c(F)cc(S(=O)(=O)[O-])cc6F)c6ccc3[nH]6)C=C5)C=C4)cc2)c2cccc(F)c2)c1
REMARK SMILES IDX 15 1 14 2 13 3 11 4 12 5 9 6 10 7 8 8 7 10 1 11 2 12 3 13
REMARK SMILES IDX 92 14 4 15 5 16 6 17 85 18 86 19 91 20 87 21 89 22 88 23
REMARK SMILES IDX 90 24 16 25 17 26 18 27 19 28 20 29 84 30 21 31 83 32 22 33
REMARK SMILES IDX 23 34 24 35 77 36 25 37 82 38 76 39 78 40 26 41 81 42 75 43
REMARK SMILES IDX 74 44 27 46 61 47 40 48 60 49 41 50 44 51 59 52 79 53 42 54
REMARK SMILES IDX 43 55 58 57 80 58 45 59 28 60 29 61 38 62 30 63 31 64 37 65
REMARK SMILES IDX 39 66 32 67 33 68 34 69 35 70 36 71 62 72 63 73 72 74 64 75
REMARK SMILES IDX 65 76 71 77 73 78 66 79 67 80 68 81 69 82 70 83 46 84 47 85
REMARK SMILES IDX 56 86 48 87 49 88 55 89 57 90 50 91 51 92 52 93 53 94 54 95
REMARK H PARENT 8 9 78 45 44 56
REMARK Flexibility Score: inf
ROOT
ATOM      1  C   UNL A   1      34.517  30.815  27.936  1.00  0.00     0.275 C 
ENDROOT
BRANCH   1   2
ATOM      2  C   UNL A   1      33.557  30.298  26.857  1.00  0.00     0.274 C 
BRANCH   2   3
ATOM      3  O   UNL A   1      33.840  28.942  26.449  1.00  0.00    -0.460 OA
BRANCH   3   4
ATOM      4  C   UNL A   1      32.768  28.088  26.458  1.00  0.00     0.336 C 
ATOM      5  O   UNL A   1      32.056  27.962  27.448  1.00  0.00    -0.249 OA
BRANCH   4   6
ATOM      6  C   UNL A   1      32.615  27.303  25.093  1.00  0.00     0.159 C 
ATOM      7  C   UNL A   1      33.774  27.666  24.137  1.00  0.00     0.053 C 
BRANCH   6   8
ATOM      8  N   UNL A   1      32.654  25.817  25.270  1.00  0.00    -0.366 N 
ATOM      9  H   UNL A   1      32.057  25.464  25.968  1.00  0.00     0.162 HD
BRANCH   8  10
ATOM     10  C   UNL A   1      33.403  24.865  24.598  1.00  0.00     0.038 A 
ATOM     11  C   UNL A   1      36.957  23.441  24.915  1.00  0.00     0.044 C 
ATOM     12  C   UNL A   1      35.579  23.711  24.385  1.00  0.00    -0.046 A 
ATOM     13  C   UNL A   1      35.142  23.091  23.215  1.00  0.00     0.042 A 
ATOM     14  C   UNL A   1      34.698  24.572  25.072  1.00  0.00     0.029 A 
ATOM     15  C   UNL A   1      33.869  23.360  22.742  1.00  0.00     0.125 A 
ATOM     16  F   UNL A   1      33.445  22.775  21.612  1.00  0.00    -0.207 F 
ATOM     17  C   UNL A   1      33.016  24.235  23.413  1.00  0.00     0.065 A 
ENDBRANCH   8  10
ENDBRANCH   6   8
BRANCH   6  18
ATOM     18  C   UNL A   1      31.254  27.697  24.436  1.00  0.00    -0.009 A 
ATOM     19  C   UNL A   1      31.054  28.941  23.803  1.00  0.00     0.007 A 
ATOM     20  C   UNL A   1      30.183  26.780  24.379  1.00  0.00     0.046 A 
ATOM     21  C   UNL A   1      29.846  29.257  23.162  1.00  0.00     0.003 A 
ATOM     22  C   UNL A   1      28.989  27.099  23.734  1.00  0.00     0.123 A 
ATOM     23  C   UNL A   1      28.810  28.332  23.129  1.00  0.00     0.039 A 
ATOM     24  F   UNL A   1      28.004  26.190  23.692  1.00  0.00    -0.207 F 
ENDBRANCH   6  18
ENDBRANCH   4   6
ENDBRANCH   3   4
ENDBRANCH   2   3
ENDBRANCH   1   2
BRANCH   1  25
ATOM     25  O   UNL A   1      35.559  29.869  28.236  1.00  0.00    -0.458 OA
BRANCH  25  26
ATOM     26  C   UNL A   1      36.267  30.126  29.362  1.00  0.00     0.338 C 
ATOM     27  O   UNL A   1      35.815  30.389  30.464  1.00  0.00    -0.246 OA
BRANCH  26  28
ATOM     28  C   UNL A   1      37.705  29.916  29.121  1.00  0.00     0.060 A 
ATOM     29  C   UNL A   1      38.125  29.808  27.795  1.00  0.00     0.016 A 
ATOM     30  C   UNL A   1      38.613  29.729  30.162  1.00  0.00     0.016 A 
ATOM     31  C   UNL A   1      39.446  29.497  27.495  1.00  0.00     0.010 A 
ATOM     32  C   UNL A   1      39.948  29.420  29.863  1.00  0.00     0.010 A 
ATOM     33  C   UNL A   1      40.367  29.289  28.526  1.00  0.00    -0.014 A 
BRANCH  33  34
ATOM     34  C   UNL A   1      41.743  28.874  28.169  1.00  0.00     0.031 A 
ATOM     35  C   UNL A   1      42.874  29.853  28.306  1.00  0.00     0.074 A 
ATOM     36  C   UNL A   1      41.991  27.596  27.823  1.00  0.00     0.049 A 
ATOM     37  N   UNL A   1      44.147  29.685  28.055  1.00  0.00    -0.248 NA
ATOM     38  C   UNL A   1      42.527  31.194  28.800  1.00  0.00     0.031 C 
ATOM     39  C   UNL A   1      40.984  26.538  27.737  1.00  0.00     0.029 A 
ATOM     40  N   UNL A   1      43.168  26.966  27.511  1.00  0.00    -0.354 N 
ATOM     41  C   UNL A   1      44.750  30.906  28.331  1.00  0.00     0.074 A 
ATOM     42  C   UNL A   1      43.705  31.802  28.780  1.00  0.00     0.031 C 
ATOM     43  C   UNL A   1      41.594  25.381  27.427  1.00  0.00     0.029 A 
ATOM     44  C   UNL A   1      43.024  25.623  27.259  1.00  0.00     0.049 A 
ATOM     45  H   UNL A   1      44.034  27.432  27.472  1.00  0.00     0.167 HD
ATOM     46  C   UNL A   1      46.054  31.250  28.206  1.00  0.00     0.037 A 
ATOM     47  C   UNL A   1      43.946  24.696  26.929  1.00  0.00     0.037 A 
ATOM     48  C   UNL A   1      47.090  30.357  27.758  1.00  0.00     0.049 A 
ATOM     49  C   UNL A   1      45.383  25.113  26.767  1.00  0.00     0.074 A 
ATOM     50  C   UNL A   1      48.430  30.628  27.542  1.00  0.00     0.029 A 
ATOM     51  N   UNL A   1      46.900  29.015  27.460  1.00  0.00    -0.354 N 
ATOM     52  N   UNL A   1      45.932  26.286  26.975  1.00  0.00    -0.248 NA
ATOM     53  C   UNL A   1      46.324  24.083  26.302  1.00  0.00     0.031 C 
ATOM     54  C   UNL A   1      49.045  29.455  27.085  1.00  0.00     0.029 A 
ATOM     55  C   UNL A   1      48.096  28.447  27.050  1.00  0.00     0.049 A 
ATOM     56  H   UNL A   1      46.043  28.537  27.530  1.00  0.00     0.167 HD
ATOM     57  C   UNL A   1      47.278  26.137  26.662  1.00  0.00     0.074 A 
ATOM     58  C   UNL A   1      47.469  24.752  26.282  1.00  0.00     0.031 C 
ATOM     59  C   UNL A   1      48.265  27.067  26.672  1.00  0.00     0.037 A 
BRANCH  46  60
ATOM     60  C   UNL A   1      46.415  32.678  28.498  1.00  0.00     0.058 A 
ATOM     61  C   UNL A   1      46.820  33.096  29.774  1.00  0.00     0.135 A 
ATOM     62  C   UNL A   1      46.347  33.644  27.480  1.00  0.00     0.135 A 
ATOM     63  F   UNL A   1      46.882  32.215  30.785  1.00  0.00    -0.206 F 
ATOM     64  C   UNL A   1      47.121  34.428  30.039  1.00  0.00     0.059 A 
ATOM     65  C   UNL A   1      46.660  34.977  27.718  1.00  0.00     0.059 A 
ATOM     66  F   UNL A   1      45.960  33.294  26.243  1.00  0.00    -0.206 F 
ATOM     67  C   UNL A   1      47.029  35.364  29.005  1.00  0.00     0.060 A 
BRANCH  67  68
ATOM     68  S   UNL A   1      47.391  37.095  29.365  1.00  0.00     0.124 S 
ATOM     69  O   UNL A   1      48.504  36.970  30.300  1.00  0.00    -0.237 OA
ATOM     70  O   UNL A   1      47.726  37.629  28.048  1.00  0.00    -0.237 OA
ATOM     71  O   UNL A   1      46.142  37.590  29.938  1.00  0.00    -0.744 OA
ENDBRANCH  67  68
ENDBRANCH  46  60
BRANCH  47  72
ATOM     72  C   UNL A   1      43.542  23.280  26.729  1.00  0.00     0.058 A 
ATOM     73  C   UNL A   1      43.234  22.463  27.827  1.00  0.00     0.135 A 
ATOM     74  C   UNL A   1      43.462  22.715  25.448  1.00  0.00     0.135 A 
ATOM     75  F   UNL A   1      43.306  22.957  29.072  1.00  0.00    -0.206 F 
ATOM     76  C   UNL A   1      42.871  21.130  27.663  1.00  0.00     0.059 A 
ATOM     77  C   UNL A   1      43.078  21.391  25.257  1.00  0.00     0.059 A 
ATOM     78  F   UNL A   1      43.739  23.458  24.366  1.00  0.00    -0.206 F 
ATOM     79  C   UNL A   1      42.798  20.603  26.372  1.00  0.00     0.060 A 
BRANCH  79  80
ATOM     80  S   UNL A   1      42.279  18.886  26.158  1.00  0.00     0.124 S 
ATOM     81  O   UNL A   1      43.181  18.438  25.104  1.00  0.00    -0.237 OA
ATOM     82  O   UNL A   1      42.514  18.320  27.483  1.00  0.00    -0.237 OA
ATOM     83  O   UNL A   1      40.874  19.011  25.781  1.00  0.00    -0.744 OA
ENDBRANCH  79  80
ENDBRANCH  47  72
BRANCH  59  84
ATOM     84  C   UNL A   1      49.636  26.620  26.250  1.00  0.00     0.058 A 
ATOM     85  C   UNL A   1      50.089  26.806  24.934  1.00  0.00     0.135 A 
ATOM     86  C   UNL A   1      50.524  26.056  27.179  1.00  0.00     0.135 A 
ATOM     87  F   UNL A   1      49.276  27.337  24.009  1.00  0.00    -0.206 F 
ATOM     88  C   UNL A   1      51.372  26.432  24.549  1.00  0.00     0.059 A 
ATOM     89  C   UNL A   1      51.819  25.692  26.820  1.00  0.00     0.059 A 
ATOM     90  F   UNL A   1      50.142  25.866  28.451  1.00  0.00    -0.206 F 
ATOM     91  C   UNL A   1      52.230  25.875  25.499  1.00  0.00     0.060 A 
BRANCH  91  92
ATOM     92  S   UNL A   1      53.907  25.430  24.999  1.00  0.00     0.124 S 
ATOM     93  O   UNL A   1      54.704  26.086  26.030  1.00  0.00    -0.237 OA
ATOM     94  O   UNL A   1      53.877  23.971  25.054  1.00  0.00    -0.237 OA
ATOM     95  O   UNL A   1      54.022  25.996  23.658  1.00  0.00    -0.744 OA
ENDBRANCH  91  92
ENDBRANCH  59  84
ENDBRANCH  33  34
ENDBRANCH  26  28
ENDBRANCH  25  26
ENDBRANCH   1  25
TORSDOF 17
ENDMDL
