MODEL 1
REMARK VINA RESULT:     -15.3      0.000      0.000
REMARK SMILES Cc1ccccc1/C=C1\SC(=O)N(CC(=O)Nc2ccccc2C(=O)OCCOC(=O)c2ccc(-c3c4nc(c(-c5c(F)cc(S(=O)(=O)[O-])cc5F)c5ccc([nH]5)c(-c5c(F)cc(S(=O)(=O)[O-])cc5F)c5nc(c(-c6c(F)cc(S(=O)(=O)[O-])cc6F)c6ccc3[nH]6)C=C5)C=C4)cc2)C1=O
REMARK SMILES IDX 27 1 26 2 24 3 25 4 23 5 18 6 19 7 20 8 22 9 21 10 17 11
REMARK SMILES IDX 15 12 16 13 14 15 13 16 8 17 9 18 10 19 98 20 11 21 99 22
REMARK SMILES IDX 12 23 7 24 1 25 2 26 3 27 4 28 6 29 5 30 28 31 29 32 30 33
REMARK SMILES IDX 31 34 32 35 33 36 97 37 34 38 96 39 35 40 36 41 37 42 90 43
REMARK SMILES IDX 38 44 95 45 89 46 91 47 39 48 94 49 88 50 87 51 40 53 74 54
REMARK SMILES IDX 53 55 73 56 54 57 57 58 72 59 92 60 55 61 56 62 71 64 93 65
REMARK SMILES IDX 58 66 41 67 42 68 51 69 43 70 44 71 50 72 52 73 45 74 46 75
REMARK SMILES IDX 47 76 48 77 49 78 75 79 76 80 85 81 77 82 78 83 84 84 86 85
REMARK SMILES IDX 79 86 80 87 81 88 82 89 83 90 59 91 60 92 69 93 61 94 62 95
REMARK SMILES IDX 68 96 70 97 63 98 64 99 65 100 66 101 67 102
REMARK H PARENT 17 14 91 52 57 63
REMARK Flexibility Score: inf
ROOT
ATOM      1  C   UNL A   1      33.853  31.122  27.625  1.00  0.00     0.275 C 
ENDROOT
BRANCH   1   2
ATOM      2  O   UNL A   1      32.913  29.275  27.538  1.00  0.00    -0.458 OA
BRANCH   2   3
ATOM      3  C   UNL A   1      31.781  28.229  27.199  1.00  0.00     0.340 C 
ATOM      4  O   UNL A   1      31.335  27.719  28.243  1.00  0.00    -0.246 OA
BRANCH   3   5
ATOM      5  C   UNL A   1      31.015  27.539  25.863  1.00  0.00     0.083 A 
ATOM      6  C   UNL A   1      30.262  26.370  25.471  1.00  0.00     0.055 A 
ATOM      7  C   UNL A   1      29.723  26.192  24.137  1.00  0.00     0.027 A 
ATOM      8  C   UNL A   1      29.749  27.172  23.178  1.00  0.00     0.002 A 
ATOM      9  C   UNL A   1      31.042  28.478  24.777  1.00  0.00     0.018 A 
ATOM     10  C   UNL A   1      30.411  28.328  23.508  1.00  0.00     0.001 A 
BRANCH   6  11
ATOM     11  N   UNL A   1      29.773  25.276  26.184  1.00  0.00    -0.324 N 
ATOM     12  C   UNL A   1      30.198  24.008  26.241  1.00  0.00     0.244 C 
ATOM     13  O   UNL A   1      30.094  23.457  27.342  1.00  0.00    -0.273 OA
ATOM     14  H   UNL A   1      28.982  25.469  26.739  1.00  0.00     0.170 HD
BRANCH  12  15
ATOM     15  C   UNL A   1      31.005  23.498  25.088  1.00  0.00     0.230 C 
BRANCH  15  16
ATOM     16  N   UNL A   1      32.492  23.340  24.852  1.00  0.00    -0.259 N 
ATOM     17  C   UNL A   1      36.824  23.756  25.578  1.00  0.00     0.029 C 
ATOM     18  C   UNL A   1      35.605  23.218  25.346  1.00  0.00     0.083 C 
ATOM     19  S   UNL A   1      34.925  21.109  25.580  1.00  0.00    -0.022 SA
ATOM     20  C   UNL A   1      34.044  24.338  24.854  1.00  0.00     0.268 C 
ATOM     21  C   UNL A   1      32.711  21.587  25.170  1.00  0.00     0.294 C 
ATOM     22  O   UNL A   1      34.405  25.450  24.605  1.00  0.00    -0.268 OA
ATOM     23  O   UNL A   1      31.874  20.746  25.475  1.00  0.00    -0.261 OA
BRANCH  17  24
ATOM     24  C   UNL A   1      38.151  23.406  26.158  1.00  0.00    -0.021 A 
ATOM     25  C   UNL A   1      38.416  21.077  25.193  1.00  0.00     0.045 C 
ATOM     26  C   UNL A   1      38.823  22.184  26.111  1.00  0.00    -0.044 A 
ATOM     27  C   UNL A   1      39.965  21.977  26.924  1.00  0.00     0.004 A 
ATOM     28  C   UNL A   1      40.544  23.014  27.654  1.00  0.00     0.000 A 
ATOM     29  C   UNL A   1      38.829  24.460  26.822  1.00  0.00     0.008 A 
ATOM     30  C   UNL A   1      40.011  24.282  27.546  1.00  0.00     0.001 A 
ENDBRANCH  17  24
ENDBRANCH  15  16
ENDBRANCH  12  15
ENDBRANCH   6  11
ENDBRANCH   3   5
ENDBRANCH   2   3
ENDBRANCH   1   2
BRANCH   1  31
ATOM     31  C   UNL A   1      35.500  32.266  27.727  1.00  0.00     0.275 C 
BRANCH  31  32
ATOM     32  O   UNL A   1      37.247  32.413  28.601  1.00  0.00    -0.458 OA
BRANCH  32  33
ATOM     33  C   UNL A   1      38.432  31.213  29.346  1.00  0.00     0.338 C 
ATOM     34  O   UNL A   1      39.214  31.749  30.141  1.00  0.00    -0.246 OA
BRANCH  33  35
ATOM     35  C   UNL A   1      38.762  29.338  28.899  1.00  0.00     0.060 A 
ATOM     36  C   UNL A   1      38.842  28.267  29.835  1.00  0.00     0.016 A 
ATOM     37  C   UNL A   1      39.718  28.806  27.918  1.00  0.00     0.016 A 
ATOM     38  C   UNL A   1      40.157  27.348  30.014  1.00  0.00     0.010 A 
ATOM     39  C   UNL A   1      40.849  27.789  27.983  1.00  0.00     0.010 A 
ATOM     40  C   UNL A   1      41.322  27.353  29.179  1.00  0.00    -0.014 A 
BRANCH  40  41
ATOM     41  C   UNL A   1      42.936  27.621  29.530  1.00  0.00     0.031 A 
ATOM     42  C   UNL A   1      44.132  27.027  28.795  1.00  0.00     0.074 A 
ATOM     43  C   UNL A   1      43.478  28.631  30.313  1.00  0.00     0.049 A 
ATOM     44  N   UNL A   1      45.016  26.271  29.375  1.00  0.00    -0.248 NA
ATOM     45  C   UNL A   1      44.616  27.481  27.477  1.00  0.00     0.031 C 
ATOM     46  C   UNL A   1      44.817  28.909  30.892  1.00  0.00     0.029 A 
ATOM     47  N   UNL A   1      42.850  29.724  30.844  1.00  0.00    -0.354 N 
ATOM     48  C   UNL A   1      46.230  26.371  28.681  1.00  0.00     0.074 A 
ATOM     49  C   UNL A   1      45.874  26.993  27.422  1.00  0.00     0.031 C 
ATOM     50  C   UNL A   1      44.713  29.736  31.966  1.00  0.00     0.029 A 
ATOM     51  C   UNL A   1      43.329  30.101  32.100  1.00  0.00     0.049 A 
ATOM     52  H   UNL A   1      42.123  30.200  30.382  1.00  0.00     0.167 HD
ATOM     53  C   UNL A   1      47.443  26.180  29.316  1.00  0.00     0.037 A 
ATOM     54  C   UNL A   1      42.449  29.886  33.129  1.00  0.00     0.037 A 
ATOM     55  C   UNL A   1      47.253  26.298  30.779  1.00  0.00     0.049 A 
ATOM     56  C   UNL A   1      42.680  28.412  33.611  1.00  0.00     0.074 A 
ATOM     57  C   UNL A   1      47.702  27.214  31.724  1.00  0.00     0.029 A 
ATOM     58  N   UNL A   1      46.239  25.585  31.412  1.00  0.00    -0.354 N 
ATOM     59  N   UNL A   1      43.747  27.742  33.247  1.00  0.00    -0.248 NA
ATOM     60  C   UNL A   1      41.865  27.587  34.510  1.00  0.00     0.031 C 
ATOM     61  C   UNL A   1      46.837  27.149  32.852  1.00  0.00     0.029 A 
ATOM     62  C   UNL A   1      45.886  26.173  32.616  1.00  0.00     0.049 A 
ATOM     63  H   UNL A   1      45.825  24.767  31.051  1.00  0.00     0.167 HD
ATOM     64  C   UNL A   1      43.770  26.471  33.738  1.00  0.00     0.074 A 
ATOM     65  C   UNL A   1      42.582  26.439  34.575  1.00  0.00     0.031 C 
ATOM     66  C   UNL A   1      44.793  25.611  33.415  1.00  0.00     0.037 A 
BRANCH  53  67
ATOM     67  C   UNL A   1      48.875  26.149  28.701  1.00  0.00     0.058 A 
ATOM     68  C   UNL A   1      49.285  25.118  27.807  1.00  0.00     0.135 A 
ATOM     69  C   UNL A   1      49.850  27.160  28.853  1.00  0.00     0.135 A 
ATOM     70  F   UNL A   1      48.458  24.127  27.450  1.00  0.00    -0.206 F 
ATOM     71  C   UNL A   1      50.551  25.051  27.197  1.00  0.00     0.059 A 
ATOM     72  C   UNL A   1      51.134  27.112  28.257  1.00  0.00     0.059 A 
ATOM     73  F   UNL A   1      49.580  28.277  29.544  1.00  0.00    -0.206 F 
ATOM     74  C   UNL A   1      51.482  26.047  27.436  1.00  0.00     0.060 A 
BRANCH  74  75
ATOM     75  S   UNL A   1      53.100  25.937  26.628  1.00  0.00     0.124 S 
ATOM     76  O   UNL A   1      53.089  27.111  25.760  1.00  0.00    -0.237 OA
ATOM     77  O   UNL A   1      54.021  26.000  27.759  1.00  0.00    -0.237 OA
ATOM     78  O   UNL A   1      53.052  24.652  25.936  1.00  0.00    -0.744 OA
ENDBRANCH  74  75
ENDBRANCH  53  67
BRANCH  54  79
ATOM     79  C   UNL A   1      41.128  30.584  32.696  1.00  0.00     0.058 A 
ATOM     80  C   UNL A   1      39.915  30.020  33.093  1.00  0.00     0.135 A 
ATOM     81  C   UNL A   1      41.089  31.897  33.007  1.00  0.00     0.135 A 
ATOM     82  F   UNL A   1      39.531  28.862  32.532  1.00  0.00    -0.206 F 
ATOM     83  C   UNL A   1      39.011  30.647  34.103  1.00  0.00     0.059 A 
ATOM     84  C   UNL A   1      40.298  32.332  34.217  1.00  0.00     0.059 A 
ATOM     85  F   UNL A   1      42.134  32.640  32.609  1.00  0.00    -0.206 F 
ATOM     86  C   UNL A   1      39.140  32.003  34.968  1.00  0.00     0.060 A 
BRANCH  86  87
ATOM     87  S   UNL A   1      37.305  33.560  35.499  1.00  0.00     0.124 S 
ATOM     88  O   UNL A   1      37.299  33.827  36.914  1.00  0.00    -0.237 OA
ATOM     89  O   UNL A   1      37.412  34.898  34.855  1.00  0.00    -0.237 OA
ATOM     90  O   UNL A   1      36.053  33.054  34.957  1.00  0.00    -0.744 OA
ENDBRANCH  86  87
ENDBRANCH  54  79
BRANCH  66  91
ATOM     91  C   UNL A   1      44.993  24.187  33.891  1.00  0.00     0.058 A 
ATOM     92  C   UNL A   1      44.277  23.074  33.437  1.00  0.00     0.135 A 
ATOM     93  C   UNL A   1      46.021  23.903  34.837  1.00  0.00     0.135 A 
ATOM     94  F   UNL A   1      43.381  23.175  32.446  1.00  0.00    -0.206 F 
ATOM     95  C   UNL A   1      44.482  21.799  33.968  1.00  0.00     0.059 A 
ATOM     96  C   UNL A   1      46.301  22.631  35.308  1.00  0.00     0.059 A 
ATOM     97  F   UNL A   1      46.801  24.859  35.362  1.00  0.00    -0.206 F 
ATOM     98  C   UNL A   1      45.488  21.590  34.910  1.00  0.00     0.060 A 
BRANCH  98  99
ATOM     99  S   UNL A   1      45.739  19.957  35.613  1.00  0.00     0.124 S 
ATOM    100  O   UNL A   1      47.039  19.601  35.053  1.00  0.00    -0.237 OA
ATOM    101  O   UNL A   1      45.720  20.228  37.048  1.00  0.00    -0.237 OA
ATOM    102  O   UNL A   1      44.604  19.190  35.111  1.00  0.00    -0.744 OA
ENDBRANCH  98  99
ENDBRANCH  66  91
ENDBRANCH  40  41
ENDBRANCH  33  35
ENDBRANCH  32  33
ENDBRANCH  31  32
ENDBRANCH   1  31
TORSDOF 18
ENDMDL
MODEL 2
REMARK VINA RESULT:     -15.2      4.085      5.994
REMARK SMILES Cc1ccccc1/C=C1\SC(=O)N(CC(=O)Nc2ccccc2C(=O)OCCOC(=O)c2ccc(-c3c4nc(c(-c5c(F)cc(S(=O)(=O)[O-])cc5F)c5ccc([nH]5)c(-c5c(F)cc(S(=O)(=O)[O-])cc5F)c5nc(c(-c6c(F)cc(S(=O)(=O)[O-])cc6F)c6ccc3[nH]6)C=C5)C=C4)cc2)C1=O
REMARK SMILES IDX 27 1 26 2 24 3 25 4 23 5 18 6 19 7 20 8 22 9 21 10 17 11
REMARK SMILES IDX 15 12 16 13 14 15 13 16 8 17 9 18 10 19 98 20 11 21 99 22
REMARK SMILES IDX 12 23 7 24 1 25 2 26 3 27 4 28 6 29 5 30 28 31 29 32 30 33
REMARK SMILES IDX 31 34 32 35 33 36 97 37 34 38 96 39 35 40 36 41 37 42 90 43
REMARK SMILES IDX 38 44 95 45 89 46 91 47 39 48 94 49 88 50 87 51 40 53 74 54
REMARK SMILES IDX 53 55 73 56 54 57 57 58 72 59 92 60 55 61 56 62 71 64 93 65
REMARK SMILES IDX 58 66 41 67 42 68 51 69 43 70 44 71 50 72 52 73 45 74 46 75
REMARK SMILES IDX 47 76 48 77 49 78 75 79 76 80 85 81 77 82 78 83 84 84 86 85
REMARK SMILES IDX 79 86 80 87 81 88 82 89 83 90 59 91 60 92 69 93 61 94 62 95
REMARK SMILES IDX 68 96 70 97 63 98 64 99 65 100 66 101 67 102
REMARK H PARENT 17 14 91 52 57 63
REMARK Flexibility Score: inf
ROOT
ATOM      1  C   UNL A   1      35.121  29.376  27.861  1.00  0.00     0.275 C 
ENDROOT
BRANCH   1   2
ATOM      2  O   UNL A   1      33.525  28.383  26.984  1.00  0.00    -0.458 OA
BRANCH   2   3
ATOM      3  C   UNL A   1      32.051  27.841  26.831  1.00  0.00     0.340 C 
ATOM      4  O   UNL A   1      31.457  27.882  27.923  1.00  0.00    -0.246 OA
BRANCH   3   5
ATOM      5  C   UNL A   1      31.036  27.168  25.662  1.00  0.00     0.083 A 
ATOM      6  C   UNL A   1      30.218  26.004  25.411  1.00  0.00     0.055 A 
ATOM      7  C   UNL A   1      29.426  25.844  24.206  1.00  0.00     0.027 A 
ATOM      8  C   UNL A   1      29.264  26.837  23.275  1.00  0.00     0.002 A 
ATOM      9  C   UNL A   1      30.850  28.122  24.606  1.00  0.00     0.018 A 
ATOM     10  C   UNL A   1      29.981  27.989  23.483  1.00  0.00     0.001 A 
BRANCH   6  11
ATOM     11  N   UNL A   1      29.877  24.900  26.191  1.00  0.00    -0.324 N 
ATOM     12  C   UNL A   1      30.471  23.708  26.328  1.00  0.00     0.244 C 
ATOM     13  O   UNL A   1      30.434  23.218  27.462  1.00  0.00    -0.273 OA
ATOM     14  H   UNL A   1      29.063  25.017  26.733  1.00  0.00     0.170 HD
BRANCH  12  15
ATOM     15  C   UNL A   1      31.351  23.243  25.209  1.00  0.00     0.230 C 
BRANCH  15  16
ATOM     16  N   UNL A   1      32.844  23.306  24.969  1.00  0.00    -0.259 N 
ATOM     17  C   UNL A   1      37.124  23.843  25.892  1.00  0.00     0.029 C 
ATOM     18  C   UNL A   1      35.959  23.306  25.465  1.00  0.00     0.083 C 
ATOM     19  S   UNL A   1      35.478  21.188  24.969  1.00  0.00    -0.022 SA
ATOM     20  C   UNL A   1      34.297  24.381  25.338  1.00  0.00     0.268 C 
ATOM     21  C   UNL A   1      33.226  21.574  24.690  1.00  0.00     0.294 C 
ATOM     22  O   UNL A   1      34.552  25.541  25.481  1.00  0.00    -0.268 OA
ATOM     23  O   UNL A   1      32.472  20.609  24.679  1.00  0.00    -0.261 OA
BRANCH  17  24
ATOM     24  C   UNL A   1      38.483  23.440  26.353  1.00  0.00    -0.021 A 
ATOM     25  C   UNL A   1      39.118  25.537  27.628  1.00  0.00     0.045 C 
ATOM     26  C   UNL A   1      39.439  24.213  27.014  1.00  0.00    -0.044 A 
ATOM     27  C   UNL A   1      40.761  23.724  27.159  1.00  0.00     0.004 A 
ATOM     28  C   UNL A   1      41.104  22.420  26.806  1.00  0.00     0.000 A 
ATOM     29  C   UNL A   1      38.839  22.089  26.110  1.00  0.00     0.008 A 
ATOM     30  C   UNL A   1      40.117  21.574  26.343  1.00  0.00     0.001 A 
ENDBRANCH  17  24
ENDBRANCH  15  16
ENDBRANCH  12  15
ENDBRANCH   6  11
ENDBRANCH   3   5
ENDBRANCH   2   3
ENDBRANCH   1   2
BRANCH   1  31
ATOM     31  C   UNL A   1      36.399  29.677  29.380  1.00  0.00     0.275 C 
BRANCH  31  32
ATOM     32  O   UNL A   1      36.518  29.720  31.335  1.00  0.00    -0.458 OA
BRANCH  32  33
ATOM     33  C   UNL A   1      37.818  29.284  32.568  1.00  0.00     0.338 C 
ATOM     34  O   UNL A   1      37.476  28.355  33.310  1.00  0.00    -0.246 OA
BRANCH  33  35
ATOM     35  C   UNL A   1      39.493  30.198  32.997  1.00  0.00     0.060 A 
ATOM     36  C   UNL A   1      39.908  31.454  32.469  1.00  0.00     0.016 A 
ATOM     37  C   UNL A   1      40.827  29.600  33.139  1.00  0.00     0.016 A 
ATOM     38  C   UNL A   1      41.262  31.648  31.612  1.00  0.00     0.010 A 
ATOM     39  C   UNL A   1      42.185  29.874  32.506  1.00  0.00     0.010 A 
ATOM     40  C   UNL A   1      42.291  30.672  31.412  1.00  0.00    -0.014 A 
BRANCH  40  41
ATOM     41  C   UNL A   1      42.935  30.009  30.017  1.00  0.00     0.031 A 
ATOM     42  C   UNL A   1      43.015  28.526  29.673  1.00  0.00     0.074 A 
ATOM     43  C   UNL A   1      43.219  30.656  28.822  1.00  0.00     0.049 A 
ATOM     44  N   UNL A   1      44.138  27.906  29.462  1.00  0.00    -0.248 NA
ATOM     45  C   UNL A   1      41.873  27.707  29.219  1.00  0.00     0.031 C 
ATOM     46  C   UNL A   1      43.956  30.301  27.583  1.00  0.00     0.029 A 
ATOM     47  N   UNL A   1      42.897  31.933  28.451  1.00  0.00    -0.354 N 
ATOM     48  C   UNL A   1      43.903  26.804  28.628  1.00  0.00     0.074 A 
ATOM     49  C   UNL A   1      42.465  26.633  28.655  1.00  0.00     0.031 C 
ATOM     50  C   UNL A   1      44.367  31.422  26.932  1.00  0.00     0.029 A 
ATOM     51  C   UNL A   1      43.862  32.555  27.658  1.00  0.00     0.049 A 
ATOM     52  H   UNL A   1      42.059  32.373  28.721  1.00  0.00     0.167 HD
ATOM     53  C   UNL A   1      44.884  26.311  27.788  1.00  0.00     0.037 A 
ATOM     54  C   UNL A   1      44.528  33.580  28.279  1.00  0.00     0.037 A 
ATOM     55  C   UNL A   1      45.943  27.333  27.620  1.00  0.00     0.049 A 
ATOM     56  C   UNL A   1      45.736  32.931  29.038  1.00  0.00     0.074 A 
ATOM     57  C   UNL A   1      46.375  28.081  26.532  1.00  0.00     0.029 A 
ATOM     58  N   UNL A   1      46.502  27.950  28.736  1.00  0.00    -0.354 N 
ATOM     59  N   UNL A   1      46.113  31.702  28.782  1.00  0.00    -0.248 NA
ATOM     60  C   UNL A   1      46.627  33.518  30.046  1.00  0.00     0.031 C 
ATOM     61  C   UNL A   1      47.049  29.234  27.024  1.00  0.00     0.029 A 
ATOM     62  C   UNL A   1      47.062  29.174  28.406  1.00  0.00     0.049 A 
ATOM     63  H   UNL A   1      46.499  27.566  29.643  1.00  0.00     0.167 HD
ATOM     64  C   UNL A   1      47.160  31.295  29.553  1.00  0.00     0.074 A 
ATOM     65  C   UNL A   1      47.484  32.499  30.300  1.00  0.00     0.031 C 
ATOM     66  C   UNL A   1      47.653  30.016  29.451  1.00  0.00     0.037 A 
BRANCH  53  67
ATOM     67  C   UNL A   1      44.847  25.049  26.875  1.00  0.00     0.058 A 
ATOM     68  C   UNL A   1      45.416  23.809  27.285  1.00  0.00     0.135 A 
ATOM     69  C   UNL A   1      44.167  24.956  25.639  1.00  0.00     0.135 A 
ATOM     70  F   UNL A   1      46.007  23.668  28.478  1.00  0.00    -0.206 F 
ATOM     71  C   UNL A   1      45.388  22.629  26.521  1.00  0.00     0.059 A 
ATOM     72  C   UNL A   1      44.133  23.783  24.846  1.00  0.00     0.059 A 
ATOM     73  F   UNL A   1      43.454  25.988  25.168  1.00  0.00    -0.206 F 
ATOM     74  C   UNL A   1      44.755  22.623  25.290  1.00  0.00     0.060 A 
BRANCH  74  75
ATOM     75  S   UNL A   1      44.728  21.085  24.332  1.00  0.00     0.124 S 
ATOM     76  O   UNL A   1      44.498  21.573  22.975  1.00  0.00    -0.237 OA
ATOM     77  O   UNL A   1      46.056  20.533  24.586  1.00  0.00    -0.237 OA
ATOM     78  O   UNL A   1      43.620  20.335  24.918  1.00  0.00    -0.744 OA
ENDBRANCH  74  75
ENDBRANCH  53  67
BRANCH  54  79
ATOM     79  C   UNL A   1      43.418  34.526  28.820  1.00  0.00     0.058 A 
ATOM     80  C   UNL A   1      43.557  35.048  30.106  1.00  0.00     0.135 A 
ATOM     81  C   UNL A   1      43.136  35.553  27.990  1.00  0.00     0.135 A 
ATOM     82  F   UNL A   1      43.417  34.222  31.156  1.00  0.00    -0.206 F 
ATOM     83  C   UNL A   1      43.841  36.489  30.380  1.00  0.00     0.059 A 
ATOM     84  C   UNL A   1      43.707  36.915  28.304  1.00  0.00     0.059 A 
ATOM     85  F   UNL A   1      42.865  35.236  26.714  1.00  0.00    -0.206 F 
ATOM     86  C   UNL A   1      44.068  37.747  29.394  1.00  0.00     0.060 A 
BRANCH  86  87
ATOM     87  S   UNL A   1      43.246  40.041  29.763  1.00  0.00     0.124 S 
ATOM     88  O   UNL A   1      43.272  40.337  31.171  1.00  0.00    -0.237 OA
ATOM     89  O   UNL A   1      44.065  41.109  29.128  1.00  0.00    -0.237 OA
ATOM     90  O   UNL A   1      41.955  40.214  29.116  1.00  0.00    -0.744 OA
ENDBRANCH  86  87
ENDBRANCH  54  79
BRANCH  66  91
ATOM     91  C   UNL A   1      48.821  29.409  30.200  1.00  0.00     0.058 A 
ATOM     92  C   UNL A   1      50.163  29.497  29.815  1.00  0.00     0.135 A 
ATOM     93  C   UNL A   1      48.587  28.731  31.432  1.00  0.00     0.135 A 
ATOM     94  F   UNL A   1      50.541  30.225  28.755  1.00  0.00    -0.206 F 
ATOM     95  C   UNL A   1      51.179  28.860  30.531  1.00  0.00     0.059 A 
ATOM     96  C   UNL A   1      49.591  28.172  32.204  1.00  0.00     0.059 A 
ATOM     97  F   UNL A   1      47.357  28.570  31.943  1.00  0.00    -0.206 F 
ATOM     98  C   UNL A   1      50.881  28.192  31.717  1.00  0.00     0.060 A 
BRANCH  98  99
ATOM     99  S   UNL A   1      52.180  27.351  32.628  1.00  0.00     0.124 S 
ATOM    100  O   UNL A   1      52.225  26.065  31.940  1.00  0.00    -0.237 OA
ATOM    101  O   UNL A   1      53.329  28.225  32.415  1.00  0.00    -0.237 OA
ATOM    102  O   UNL A   1      51.671  27.317  33.995  1.00  0.00    -0.744 OA
ENDBRANCH  98  99
ENDBRANCH  66  91
ENDBRANCH  40  41
ENDBRANCH  33  35
ENDBRANCH  32  33
ENDBRANCH  31  32
ENDBRANCH   1  31
TORSDOF 18
ENDMDL
MODEL 3
REMARK VINA RESULT:     -14.9      2.499      4.431
REMARK SMILES Cc1ccccc1/C=C1\SC(=O)N(CC(=O)Nc2ccccc2C(=O)OCCOC(=O)c2ccc(-c3c4nc(c(-c5c(F)cc(S(=O)(=O)[O-])cc5F)c5ccc([nH]5)c(-c5c(F)cc(S(=O)(=O)[O-])cc5F)c5nc(c(-c6c(F)cc(S(=O)(=O)[O-])cc6F)c6ccc3[nH]6)C=C5)C=C4)cc2)C1=O
REMARK SMILES IDX 27 1 26 2 24 3 25 4 23 5 18 6 19 7 20 8 22 9 21 10 17 11
REMARK SMILES IDX 15 12 16 13 14 15 13 16 8 17 9 18 10 19 98 20 11 21 99 22
REMARK SMILES IDX 12 23 7 24 1 25 2 26 3 27 4 28 6 29 5 30 28 31 29 32 30 33
REMARK SMILES IDX 31 34 32 35 33 36 97 37 34 38 96 39 35 40 36 41 37 42 90 43
REMARK SMILES IDX 38 44 95 45 89 46 91 47 39 48 94 49 88 50 87 51 40 53 74 54
REMARK SMILES IDX 53 55 73 56 54 57 57 58 72 59 92 60 55 61 56 62 71 64 93 65
REMARK SMILES IDX 58 66 41 67 42 68 51 69 43 70 44 71 50 72 52 73 45 74 46 75
REMARK SMILES IDX 47 76 48 77 49 78 75 79 76 80 85 81 77 82 78 83 84 84 86 85
REMARK SMILES IDX 79 86 80 87 81 88 82 89 83 90 59 91 60 92 69 93 61 94 62 95
REMARK SMILES IDX 68 96 70 97 63 98 64 99 65 100 66 101 67 102
REMARK H PARENT 17 14 91 52 57 63
REMARK Flexibility Score: inf
ROOT
ATOM      1  C   UNL A   1      36.156  22.623  24.705  1.00  0.00     0.275 C 
ENDROOT
BRANCH   1   2
ATOM      2  O   UNL A   1      34.490  23.762  25.182  1.00  0.00    -0.458 OA
BRANCH   2   3
ATOM      3  C   UNL A   1      33.648  24.880  25.910  1.00  0.00     0.340 C 
ATOM      4  O   UNL A   1      32.974  24.386  26.832  1.00  0.00    -0.246 OA
BRANCH   3   5
ATOM      5  C   UNL A   1      33.325  26.534  25.801  1.00  0.00     0.083 A 
ATOM      6  C   UNL A   1      33.564  27.677  24.951  1.00  0.00     0.055 A 
ATOM      7  C   UNL A   1      33.029  28.995  25.236  1.00  0.00     0.027 A 
ATOM      8  C   UNL A   1      32.134  29.241  26.246  1.00  0.00     0.002 A 
ATOM      9  C   UNL A   1      32.432  26.902  26.861  1.00  0.00     0.018 A 
ATOM     10  C   UNL A   1      31.830  28.179  27.061  1.00  0.00     0.001 A 
BRANCH   6  11
ATOM     11  N   UNL A   1      34.175  27.821  23.706  1.00  0.00    -0.324 N 
ATOM     12  C   UNL A   1      33.671  27.733  22.469  1.00  0.00     0.244 C 
ATOM     13  O   UNL A   1      34.150  28.513  21.639  1.00  0.00    -0.273 OA
ATOM     14  H   UNL A   1      35.138  28.022  23.743  1.00  0.00     0.170 HD
BRANCH  12  15
ATOM     15  C   UNL A   1      32.415  26.937  22.290  1.00  0.00     0.230 C 
BRANCH  15  16
ATOM     16  N   UNL A   1      32.113  25.455  22.330  1.00  0.00    -0.259 N 
ATOM     17  C   UNL A   1      32.757  21.160  23.108  1.00  0.00     0.029 C 
ATOM     18  C   UNL A   1      32.214  22.398  23.104  1.00  0.00     0.083 C 
ATOM     19  S   UNL A   1      30.634  23.251  24.423  1.00  0.00    -0.022 SA
ATOM     20  C   UNL A   1      32.893  23.835  21.917  1.00  0.00     0.268 C 
ATOM     21  C   UNL A   1      30.849  25.391  23.603  1.00  0.00     0.294 C 
ATOM     22  O   UNL A   1      33.655  23.375  21.118  1.00  0.00    -0.268 OA
ATOM     23  O   UNL A   1      30.355  26.308  24.248  1.00  0.00    -0.261 OA
BRANCH  17  24
ATOM     24  C   UNL A   1      32.766  19.904  23.909  1.00  0.00    -0.021 A 
ATOM     25  C   UNL A   1      32.380  18.229  22.046  1.00  0.00     0.045 C 
ATOM     26  C   UNL A   1      32.477  18.605  23.488  1.00  0.00    -0.044 A 
ATOM     27  C   UNL A   1      32.307  17.576  24.449  1.00  0.00     0.004 A 
ATOM     28  C   UNL A   1      32.582  17.780  25.800  1.00  0.00     0.000 A 
ATOM     29  C   UNL A   1      33.143  20.045  25.269  1.00  0.00     0.008 A 
ATOM     30  C   UNL A   1      33.070  19.006  26.201  1.00  0.00     0.001 A 
ENDBRANCH  17  24
ENDBRANCH  15  16
ENDBRANCH  12  15
ENDBRANCH   6  11
ENDBRANCH   3   5
ENDBRANCH   2   3
ENDBRANCH   1   2
BRANCH   1  31
ATOM     31  C   UNL A   1      37.752  21.518  25.220  1.00  0.00     0.275 C 
BRANCH  31  32
ATOM     32  O   UNL A   1      39.433  21.577  26.225  1.00  0.00    -0.458 OA
BRANCH  32  33
ATOM     33  C   UNL A   1      40.363  22.890  27.125  1.00  0.00     0.338 C 
ATOM     34  O   UNL A   1      41.347  22.446  27.729  1.00  0.00    -0.246 OA
BRANCH  33  35
ATOM     35  C   UNL A   1      39.899  24.764  27.436  1.00  0.00     0.060 A 
ATOM     36  C   UNL A   1      39.878  25.786  26.444  1.00  0.00     0.016 A 
ATOM     37  C   UNL A   1      40.295  25.608  28.571  1.00  0.00     0.016 A 
ATOM     38  C   UNL A   1      40.799  27.110  26.520  1.00  0.00     0.010 A 
ATOM     39  C   UNL A   1      40.986  26.960  28.698  1.00  0.00     0.010 A 
ATOM     40  C   UNL A   1      41.606  27.524  27.629  1.00  0.00    -0.014 A 
BRANCH  40  41
ATOM     41  C   UNL A   1      43.244  27.842  27.750  1.00  0.00     0.031 A 
ATOM     42  C   UNL A   1      44.370  27.046  27.101  1.00  0.00     0.074 A 
ATOM     43  C   UNL A   1      43.852  29.014  28.180  1.00  0.00     0.049 A 
ATOM     44  N   UNL A   1      45.306  26.456  27.783  1.00  0.00    -0.248 NA
ATOM     45  C   UNL A   1      44.732  27.117  25.672  1.00  0.00     0.031 C 
ATOM     46  C   UNL A   1      45.237  29.408  28.541  1.00  0.00     0.029 A 
ATOM     47  N   UNL A   1      43.271  30.222  28.449  1.00  0.00    -0.354 N 
ATOM     48  C   UNL A   1      46.451  26.339  26.983  1.00  0.00     0.074 A 
ATOM     49  C   UNL A   1      45.981  26.605  25.639  1.00  0.00     0.031 C 
ATOM     50  C   UNL A   1      45.228  30.497  29.356  1.00  0.00     0.029 A 
ATOM     51  C   UNL A   1      43.861  30.914  29.508  1.00  0.00     0.049 A 
ATOM     52  H   UNL A   1      42.504  30.572  27.941  1.00  0.00     0.167 HD
ATOM     53  C   UNL A   1      47.718  26.300  27.536  1.00  0.00     0.037 A 
ATOM     54  C   UNL A   1      43.080  31.003  30.630  1.00  0.00     0.037 A 
ATOM     55  C   UNL A   1      47.662  26.813  28.924  1.00  0.00     0.049 A 
ATOM     56  C   UNL A   1      43.359  29.710  31.471  1.00  0.00     0.074 A 
ATOM     57  C   UNL A   1      48.192  27.939  29.542  1.00  0.00     0.029 A 
ATOM     58  N   UNL A   1      46.712  26.318  29.813  1.00  0.00    -0.354 N 
ATOM     59  N   UNL A   1      44.390  28.943  31.209  1.00  0.00    -0.248 NA
ATOM     60  C   UNL A   1      42.631  29.175  32.628  1.00  0.00     0.031 C 
ATOM     61  C   UNL A   1      47.434  28.200  30.718  1.00  0.00     0.029 A 
ATOM     62  C   UNL A   1      46.468  27.217  30.840  1.00  0.00     0.049 A 
ATOM     63  H   UNL A   1      46.270  25.443  29.725  1.00  0.00     0.167 HD
ATOM     64  C   UNL A   1      44.461  27.852  32.021  1.00  0.00     0.074 A 
ATOM     65  C   UNL A   1      43.355  28.072  32.938  1.00  0.00     0.031 C 
ATOM     66  C   UNL A   1      45.454  26.915  31.854  1.00  0.00     0.037 A 
BRANCH  53  67
ATOM     67  C   UNL A   1      49.088  26.074  26.828  1.00  0.00     0.058 A 
ATOM     68  C   UNL A   1      49.517  26.895  25.745  1.00  0.00     0.135 A 
ATOM     69  C   UNL A   1      50.076  25.150  27.237  1.00  0.00     0.135 A 
ATOM     70  F   UNL A   1      48.763  27.903  25.286  1.00  0.00    -0.206 F 
ATOM     71  C   UNL A   1      50.751  26.761  25.085  1.00  0.00     0.059 A 
ATOM     72  C   UNL A   1      51.322  24.989  26.584  1.00  0.00     0.059 A 
ATOM     73  F   UNL A   1      49.899  24.395  28.330  1.00  0.00    -0.206 F 
ATOM     74  C   UNL A   1      51.650  25.794  25.500  1.00  0.00     0.060 A 
BRANCH  74  75
ATOM     75  S   UNL A   1      53.237  25.653  24.636  1.00  0.00     0.124 S 
ATOM     76  O   UNL A   1      52.929  26.233  23.332  1.00  0.00    -0.237 OA
ATOM     77  O   UNL A   1      54.127  26.443  25.482  1.00  0.00    -0.237 OA
ATOM     78  O   UNL A   1      53.498  24.216  24.631  1.00  0.00    -0.744 OA
ENDBRANCH  74  75
ENDBRANCH  53  67
BRANCH  54  79
ATOM     79  C   UNL A   1      41.722  31.587  30.143  1.00  0.00     0.058 A 
ATOM     80  C   UNL A   1      40.558  30.858  30.386  1.00  0.00     0.135 A 
ATOM     81  C   UNL A   1      41.505  32.854  30.556  1.00  0.00     0.135 A 
ATOM     82  F   UNL A   1      40.357  29.720  29.702  1.00  0.00    -0.206 F 
ATOM     83  C   UNL A   1      39.511  31.286  31.362  1.00  0.00     0.059 A 
ATOM     84  C   UNL A   1      40.577  33.086  31.725  1.00  0.00     0.059 A 
ATOM     85  F   UNL A   1      42.482  33.742  30.311  1.00  0.00    -0.206 F 
ATOM     86  C   UNL A   1      39.412  32.564  32.343  1.00  0.00     0.060 A 
BRANCH  86  87
ATOM     87  S   UNL A   1      37.371  33.853  32.838  1.00  0.00     0.124 S 
ATOM     88  O   UNL A   1      36.740  34.241  31.604  1.00  0.00    -0.237 OA
ATOM     89  O   UNL A   1      36.325  33.105  33.589  1.00  0.00    -0.237 OA
ATOM     90  O   UNL A   1      37.684  34.946  33.746  1.00  0.00    -0.744 OA
ENDBRANCH  86  87
ENDBRANCH  54  79
BRANCH  66  91
ATOM     91  C   UNL A   1      45.701  25.668  32.678  1.00  0.00     0.058 A 
ATOM     92  C   UNL A   1      44.985  24.472  32.569  1.00  0.00     0.135 A 
ATOM     93  C   UNL A   1      46.777  25.649  33.614  1.00  0.00     0.135 A 
ATOM     94  F   UNL A   1      44.042  24.303  31.633  1.00  0.00    -0.206 F 
ATOM     95  C   UNL A   1      45.237  23.383  33.407  1.00  0.00     0.059 A 
ATOM     96  C   UNL A   1      47.101  24.548  34.389  1.00  0.00     0.059 A 
ATOM     97  F   UNL A   1      47.563  26.713  33.828  1.00  0.00    -0.206 F 
ATOM     98  C   UNL A   1      46.289  23.435  34.319  1.00  0.00     0.060 A 
BRANCH  98  99
ATOM     99  S   UNL A   1      46.602  22.047  35.415  1.00  0.00     0.124 S 
ATOM    100  O   UNL A   1      45.582  22.255  36.437  1.00  0.00    -0.237 OA
ATOM    101  O   UNL A   1      46.394  20.900  34.536  1.00  0.00    -0.237 OA
ATOM    102  O   UNL A   1      47.980  22.257  35.846  1.00  0.00    -0.744 OA
ENDBRANCH  98  99
ENDBRANCH  66  91
ENDBRANCH  40  41
ENDBRANCH  33  35
ENDBRANCH  32  33
ENDBRANCH  31  32
ENDBRANCH   1  31
TORSDOF 18
ENDMDL
