MODEL 1
REMARK VINA RESULT:     -11.6      0.000      0.000
REMARK SMILES CC[C@@H](C)[C@H](NC(=O)[C@H](C)N1C(=O)N2CCC3=c4cc(OC)ccc4=N[C@H]3[C@@]2(C)C1=O)C(=O)OCCOC(=O)c1ccc(-c2c3nc(c(-c4c(F)cc(S(=O)(=O)[O-])cc4F)c4ccc([nH]4)c(-c4c(F)cc(S(=O)(=O)[O-])cc4F)c4nc(c(-c5c(F)cc(S(=O)(=O)[O-])cc5F)c5ccc2[nH]5)C=C4)C=C3)cc1
REMARK SMILES IDX 35 1 34 2 32 3 33 4 5 5 3 6 4 7 2 8 1 9 6 10 7 11 8 13 9 14
REMARK SMILES IDX 10 15 11 16 12 17 30 18 14 19 13 20 28 21 31 22 15 23 27 24
REMARK SMILES IDX 29 25 16 26 17 27 26 28 18 29 25 30 19 31 24 32 20 33 23 34
REMARK SMILES IDX 21 35 22 36 36 37 37 38 38 39 39 40 40 41 41 42 105 43 42 44
REMARK SMILES IDX 104 45 43 46 44 47 45 48 98 49 46 50 103 51 97 52 99 53
REMARK SMILES IDX 47 54 102 55 96 56 95 57 48 59 82 60 61 61 81 62 62 63 65 64
REMARK SMILES IDX 80 65 100 66 63 67 64 68 79 70 101 71 66 72 49 73 50 74
REMARK SMILES IDX 59 75 51 76 52 77 58 78 60 79 53 80 54 81 55 82 56 83 57 84
REMARK SMILES IDX 83 85 84 86 93 87 85 88 86 89 92 90 94 91 87 92 88 93 89 94
REMARK SMILES IDX 90 95 91 96 67 97 68 98 77 99 69 100 70 101 76 102 78 103
REMARK SMILES IDX 71 104 72 105 73 106 74 107 75 108
REMARK H PARENT 6 12 99 58 65 69
REMARK Flexibility Score: inf
ROOT
ATOM      1  C   UNL A   1      31.859  29.091  27.253  1.00  0.00     0.274 C 
ENDROOT
BRANCH   1   2
ATOM      2  O   UNL A   1      31.405  28.497  26.025  1.00  0.00    -0.461 OA
BRANCH   2   3
ATOM      3  C   UNL A   1      31.247  27.167  25.906  1.00  0.00     0.329 C 
ATOM      4  O   UNL A   1      30.959  26.426  26.832  1.00  0.00    -0.250 OA
BRANCH   3   5
ATOM      5  C   UNL A   1      31.443  26.720  24.436  1.00  0.00     0.195 C 
BRANCH   5   6
ATOM      6  C   UNL A   1      31.564  27.797  23.306  1.00  0.00     0.019 C 
ATOM      7  C   UNL A   1      30.380  27.800  22.352  1.00  0.00     0.010 C 
BRANCH   6   8
ATOM      8  C   UNL A   1      32.871  27.666  22.547  1.00  0.00     0.002 C 
ATOM      9  C   UNL A   1      34.061  28.544  22.899  1.00  0.00     0.004 C 
ENDBRANCH   6   8
ENDBRANCH   5   6
BRANCH   5  10
ATOM     10  N   UNL A   1      30.830  25.442  24.011  1.00  0.00    -0.341 N 
ATOM     11  C   UNL A   1      31.129  24.128  23.938  1.00  0.00     0.243 C 
ATOM     12  H   UNL A   1      29.917  25.599  23.676  1.00  0.00     0.164 HD
ATOM     13  O   UNL A   1      30.439  23.600  23.045  1.00  0.00    -0.273 OA
BRANCH  11  14
ATOM     14  C   UNL A   1      32.247  23.307  24.683  1.00  0.00     0.181 C 
ATOM     15  C   UNL A   1      31.617  22.698  26.021  1.00  0.00     0.042 C 
BRANCH  14  16
ATOM     16  N   UNL A   1      33.639  23.861  24.857  1.00  0.00    -0.250 N 
ATOM     17  C   UNL A   1      34.550  23.687  25.901  1.00  0.00     0.328 C 
ATOM     18  C   UNL A   1      34.382  23.796  23.715  1.00  0.00     0.259 C 
ATOM     19  N   UNL A   1      35.888  23.476  25.328  1.00  0.00    -0.307 N 
ATOM     20  O   UNL A   1      34.346  23.329  27.048  1.00  0.00    -0.248 OA
ATOM     21  C   UNL A   1      35.534  22.890  24.065  1.00  0.00     0.147 C 
ATOM     22  O   UNL A   1      34.071  24.188  22.599  1.00  0.00    -0.271 OA
ATOM     23  C   UNL A   1      36.952  22.676  26.075  1.00  0.00     0.127 C 
ATOM     24  C   UNL A   1      35.045  21.465  24.576  1.00  0.00     0.168 C 
ATOM     25  C   UNL A   1      36.645  22.982  23.038  1.00  0.00     0.048 C 
ATOM     26  C   UNL A   1      37.121  21.015  25.608  1.00  0.00     0.055 C 
ATOM     27  C   UNL A   1      35.955  20.321  24.709  1.00  0.00    -0.032 C 
ATOM     28  N   UNL A   1      33.721  21.136  25.145  1.00  0.00    -0.274 NA
ATOM     29  C   UNL A   1      35.101  19.255  24.913  1.00  0.00     0.005 A 
ATOM     30  C   UNL A   1      33.967  19.954  25.633  1.00  0.00     0.066 A 
ATOM     31  C   UNL A   1      34.279  18.614  23.789  1.00  0.00     0.056 A 
ATOM     32  C   UNL A   1      32.959  19.127  26.287  1.00  0.00     0.032 A 
ATOM     33  C   UNL A   1      32.958  18.308  24.003  1.00  0.00     0.119 A 
ATOM     34  C   UNL A   1      32.412  18.326  25.365  1.00  0.00     0.048 A 
BRANCH  33  35
ATOM     35  O   UNL A   1      32.056  18.055  22.986  1.00  0.00    -0.497 OA
ATOM     36  C   UNL A   1      32.122  18.955  21.855  1.00  0.00     0.278 C 
ENDBRANCH  33  35
ENDBRANCH  14  16
ENDBRANCH  11  14
ENDBRANCH   5  10
ENDBRANCH   3   5
ENDBRANCH   2   3
ENDBRANCH   1   2
BRANCH   1  37
ATOM     37  C   UNL A   1      32.983  30.071  26.910  1.00  0.00     0.275 C 
BRANCH  37  38
ATOM     38  O   UNL A   1      34.187  29.627  27.550  1.00  0.00    -0.458 OA
BRANCH  38  39
ATOM     39  C   UNL A   1      34.861  30.534  28.304  1.00  0.00     0.338 C 
ATOM     40  O   UNL A   1      34.453  31.562  28.791  1.00  0.00    -0.246 OA
BRANCH  39  41
ATOM     41  C   UNL A   1      36.210  29.970  28.459  1.00  0.00     0.060 A 
ATOM     42  C   UNL A   1      36.615  29.538  29.720  1.00  0.00     0.016 A 
ATOM     43  C   UNL A   1      37.104  30.001  27.385  1.00  0.00     0.016 A 
ATOM     44  C   UNL A   1      37.951  29.212  29.925  1.00  0.00     0.010 A 
ATOM     45  C   UNL A   1      38.445  29.682  27.593  1.00  0.00     0.010 A 
ATOM     46  C   UNL A   1      38.878  29.314  28.872  1.00  0.00    -0.014 A 
BRANCH  46  47
ATOM     47  C   UNL A   1      40.295  28.981  29.136  1.00  0.00     0.031 A 
ATOM     48  C   UNL A   1      40.848  27.637  28.772  1.00  0.00     0.074 A 
ATOM     49  C   UNL A   1      41.079  29.943  29.652  1.00  0.00     0.049 A 
ATOM     50  N   UNL A   1      42.094  27.241  28.741  1.00  0.00    -0.248 NA
ATOM     51  C   UNL A   1      39.877  26.594  28.404  1.00  0.00     0.031 C 
ATOM     52  C   UNL A   1      40.603  31.261  30.076  1.00  0.00     0.029 A 
ATOM     53  N   UNL A   1      42.430  29.985  29.868  1.00  0.00    -0.354 N 
ATOM     54  C   UNL A   1      42.063  25.914  28.329  1.00  0.00     0.074 A 
ATOM     55  C   UNL A   1      40.669  25.552  28.186  1.00  0.00     0.031 C 
ATOM     56  C   UNL A   1      41.656  32.007  30.443  1.00  0.00     0.029 A 
ATOM     57  C   UNL A   1      42.872  31.215  30.291  1.00  0.00     0.049 A 
ATOM     58  H   UNL A   1      43.024  29.212  29.735  1.00  0.00     0.167 HD
ATOM     59  C   UNL A   1      43.109  25.091  28.069  1.00  0.00     0.037 A 
ATOM     60  C   UNL A   1      44.124  31.663  30.497  1.00  0.00     0.037 A 
ATOM     61  C   UNL A   1      44.486  25.484  28.242  1.00  0.00     0.049 A 
ATOM     62  C   UNL A   1      45.269  30.737  30.206  1.00  0.00     0.074 A 
ATOM     63  C   UNL A   1      45.633  24.755  27.991  1.00  0.00     0.029 A 
ATOM     64  N   UNL A   1      44.898  26.724  28.721  1.00  0.00    -0.354 N 
ATOM     65  N   UNL A   1      45.234  29.506  29.750  1.00  0.00    -0.248 NA
ATOM     66  C   UNL A   1      46.620  31.254  30.450  1.00  0.00     0.031 C 
ATOM     67  C   UNL A   1      46.736  25.535  28.363  1.00  0.00     0.029 A 
ATOM     68  C   UNL A   1      46.280  26.770  28.797  1.00  0.00     0.049 A 
ATOM     69  H   UNL A   1      44.296  27.461  28.969  1.00  0.00     0.167 HD
ATOM     70  C   UNL A   1      46.558  29.100  29.646  1.00  0.00     0.074 A 
ATOM     71  C   UNL A   1      47.369  30.229  30.066  1.00  0.00     0.031 C 
ATOM     72  C   UNL A   1      47.058  27.904  29.244  1.00  0.00     0.037 A 
BRANCH  59  73
ATOM     73  C   UNL A   1      42.799  23.700  27.576  1.00  0.00     0.058 A 
ATOM     74  C   UNL A   1      42.555  22.641  28.469  1.00  0.00     0.135 A 
ATOM     75  C   UNL A   1      42.731  23.414  26.203  1.00  0.00     0.135 A 
ATOM     76  F   UNL A   1      42.609  22.849  29.795  1.00  0.00    -0.206 F 
ATOM     77  C   UNL A   1      42.301  21.348  28.020  1.00  0.00     0.059 A 
ATOM     78  C   UNL A   1      42.449  22.132  25.731  1.00  0.00     0.059 A 
ATOM     79  F   UNL A   1      42.948  24.382  25.299  1.00  0.00    -0.206 F 
ATOM     80  C   UNL A   1      42.257  21.101  26.648  1.00  0.00     0.060 A 
BRANCH  80  81
ATOM     81  S   UNL A   1      41.953  19.411  26.086  1.00  0.00     0.124 S 
ATOM     82  O   UNL A   1      42.883  19.303  24.967  1.00  0.00    -0.237 OA
ATOM     83  O   UNL A   1      42.292  18.624  27.269  1.00  0.00    -0.237 OA
ATOM     84  O   UNL A   1      40.539  19.420  25.727  1.00  0.00    -0.744 OA
ENDBRANCH  80  81
ENDBRANCH  59  73
BRANCH  60  85
ATOM     85  C   UNL A   1      44.324  33.075  30.917  1.00  0.00     0.058 A 
ATOM     86  C   UNL A   1      44.247  34.119  29.983  1.00  0.00     0.135 A 
ATOM     87  C   UNL A   1      44.468  33.417  32.271  1.00  0.00     0.135 A 
ATOM     88  F   UNL A   1      44.111  33.843  28.678  1.00  0.00    -0.206 F 
ATOM     89  C   UNL A   1      44.287  35.453  30.379  1.00  0.00     0.059 A 
ATOM     90  C   UNL A   1      44.488  34.744  32.693  1.00  0.00     0.059 A 
ATOM     91  F   UNL A   1      44.524  32.455  33.205  1.00  0.00    -0.206 F 
ATOM     92  C   UNL A   1      44.391  35.755  31.738  1.00  0.00     0.060 A 
BRANCH  92  93
ATOM     93  S   UNL A   1      44.328  37.488  32.243  1.00  0.00     0.124 S 
ATOM     94  O   UNL A   1      43.961  38.146  30.995  1.00  0.00    -0.237 OA
ATOM     95  O   UNL A   1      43.300  37.464  33.280  1.00  0.00    -0.237 OA
ATOM     96  O   UNL A   1      45.683  37.750  32.721  1.00  0.00    -0.744 OA
ENDBRANCH  92  93
ENDBRANCH  60  85
BRANCH  72  97
ATOM     97  C   UNL A   1      48.553  27.751  29.262  1.00  0.00     0.058 A 
ATOM     98  C   UNL A   1      49.340  28.139  28.167  1.00  0.00     0.135 A 
ATOM     99  C   UNL A   1      49.210  27.273  30.408  1.00  0.00     0.135 A 
ATOM    100  F   UNL A   1      48.759  28.595  27.045  1.00  0.00    -0.206 F 
ATOM    101  C   UNL A   1      50.726  28.043  28.199  1.00  0.00     0.059 A 
ATOM    102  C   UNL A   1      50.597  27.195  30.473  1.00  0.00     0.059 A 
ATOM    103  F   UNL A   1      48.503  26.897  31.486  1.00  0.00    -0.206 F 
ATOM    104  C   UNL A   1      51.345  27.576  29.360  1.00  0.00     0.060 A 
BRANCH 104 105
ATOM    105  S   UNL A   1      53.148  27.498  29.399  1.00  0.00     0.124 S 
ATOM    106  O   UNL A   1      53.408  27.399  30.831  1.00  0.00    -0.237 OA
ATOM    107  O   UNL A   1      53.424  26.294  28.620  1.00  0.00    -0.237 OA
ATOM    108  O   UNL A   1      53.557  28.752  28.773  1.00  0.00    -0.744 OA
ENDBRANCH 104 105
ENDBRANCH  72  97
ENDBRANCH  46  47
ENDBRANCH  39  41
ENDBRANCH  38  39
ENDBRANCH  37  38
ENDBRANCH   1  37
TORSDOF 20
ENDMDL
MODEL 2
REMARK VINA RESULT:     -11.2      3.598      8.126
REMARK SMILES CC[C@@H](C)[C@H](NC(=O)[C@H](C)N1C(=O)N2CCC3=c4cc(OC)ccc4=N[C@H]3[C@@]2(C)C1=O)C(=O)OCCOC(=O)c1ccc(-c2c3nc(c(-c4c(F)cc(S(=O)(=O)[O-])cc4F)c4ccc([nH]4)c(-c4c(F)cc(S(=O)(=O)[O-])cc4F)c4nc(c(-c5c(F)cc(S(=O)(=O)[O-])cc5F)c5ccc2[nH]5)C=C4)C=C3)cc1
REMARK SMILES IDX 35 1 34 2 32 3 33 4 5 5 3 6 4 7 2 8 1 9 6 10 7 11 8 13 9 14
REMARK SMILES IDX 10 15 11 16 12 17 30 18 14 19 13 20 28 21 31 22 15 23 27 24
REMARK SMILES IDX 29 25 16 26 17 27 26 28 18 29 25 30 19 31 24 32 20 33 23 34
REMARK SMILES IDX 21 35 22 36 36 37 37 38 38 39 39 40 40 41 41 42 105 43 42 44
REMARK SMILES IDX 104 45 43 46 44 47 45 48 98 49 46 50 103 51 97 52 99 53
REMARK SMILES IDX 47 54 102 55 96 56 95 57 48 59 82 60 61 61 81 62 62 63 65 64
REMARK SMILES IDX 80 65 100 66 63 67 64 68 79 70 101 71 66 72 49 73 50 74
REMARK SMILES IDX 59 75 51 76 52 77 58 78 60 79 53 80 54 81 55 82 56 83 57 84
REMARK SMILES IDX 83 85 84 86 93 87 85 88 86 89 92 90 94 91 87 92 88 93 89 94
REMARK SMILES IDX 90 95 91 96 67 97 68 98 77 99 69 100 70 101 76 102 78 103
REMARK SMILES IDX 71 104 72 105 73 106 74 107 75 108
REMARK H PARENT 6 12 99 58 65 69
REMARK Flexibility Score: inf
ROOT
ATOM      1  C   UNL A   1      32.662  28.040  27.066  1.00  0.00     0.274 C 
ENDROOT
BRANCH   1   2
ATOM      2  O   UNL A   1      32.319  27.230  25.928  1.00  0.00    -0.461 OA
BRANCH   2   3
ATOM      3  C   UNL A   1      31.148  26.574  25.862  1.00  0.00     0.329 C 
ATOM      4  O   UNL A   1      30.548  26.145  26.835  1.00  0.00    -0.250 OA
BRANCH   3   5
ATOM      5  C   UNL A   1      30.655  26.475  24.397  1.00  0.00     0.195 C 
BRANCH   5   6
ATOM      6  C   UNL A   1      29.779  27.623  23.793  1.00  0.00     0.019 C 
ATOM      7  C   UNL A   1      28.314  27.246  23.647  1.00  0.00     0.010 C 
BRANCH   6   8
ATOM      8  C   UNL A   1      30.344  28.124  22.477  1.00  0.00     0.002 C 
ATOM      9  C   UNL A   1      30.458  29.613  22.200  1.00  0.00     0.004 C 
ENDBRANCH   6   8
ENDBRANCH   5   6
BRANCH   5  10
ATOM     10  N   UNL A   1      30.379  25.129  23.846  1.00  0.00    -0.341 N 
ATOM     11  C   UNL A   1      30.945  23.906  23.779  1.00  0.00     0.243 C 
ATOM     12  H   UNL A   1      29.510  25.125  23.382  1.00  0.00     0.164 HD
ATOM     13  O   UNL A   1      30.510  23.309  22.775  1.00  0.00    -0.273 OA
BRANCH  11  14
ATOM     14  C   UNL A   1      32.089  23.277  24.658  1.00  0.00     0.181 C 
ATOM     15  C   UNL A   1      31.469  22.872  26.076  1.00  0.00     0.042 C 
BRANCH  14  16
ATOM     16  N   UNL A   1      33.452  23.917  24.744  1.00  0.00    -0.250 N 
ATOM     17  C   UNL A   1      34.403  23.867  25.765  1.00  0.00     0.328 C 
ATOM     18  C   UNL A   1      34.161  23.812  23.584  1.00  0.00     0.259 C 
ATOM     19  N   UNL A   1      35.732  23.690  25.161  1.00  0.00    -0.307 N 
ATOM     20  O   UNL A   1      34.256  23.581  26.940  1.00  0.00    -0.248 OA
ATOM     21  C   UNL A   1      35.374  22.997  23.955  1.00  0.00     0.147 C 
ATOM     22  O   UNL A   1      33.793  24.107  22.455  1.00  0.00    -0.271 OA
ATOM     23  C   UNL A   1      36.863  23.005  25.923  1.00  0.00     0.127 C 
ATOM     24  C   UNL A   1      34.983  21.588  24.579  1.00  0.00     0.168 C 
ATOM     25  C   UNL A   1      36.445  23.077  22.885  1.00  0.00     0.048 C 
ATOM     26  C   UNL A   1      37.113  21.326  25.566  1.00  0.00     0.055 C 
ATOM     27  C   UNL A   1      35.961  20.507  24.759  1.00  0.00    -0.032 C 
ATOM     28  N   UNL A   1      33.698  21.227  25.216  1.00  0.00    -0.274 NA
ATOM     29  C   UNL A   1      35.175  19.414  25.066  1.00  0.00     0.005 A 
ATOM     30  C   UNL A   1      34.027  20.099  25.775  1.00  0.00     0.066 A 
ATOM     31  C   UNL A   1      34.357  18.650  24.018  1.00  0.00     0.056 A 
ATOM     32  C   UNL A   1      33.089  19.265  26.520  1.00  0.00     0.032 A 
ATOM     33  C   UNL A   1      33.063  18.289  24.299  1.00  0.00     0.119 A 
ATOM     34  C   UNL A   1      32.560  18.372  25.675  1.00  0.00     0.048 A 
BRANCH  33  35
ATOM     35  O   UNL A   1      32.146  17.915  23.334  1.00  0.00    -0.497 OA
ATOM     36  C   UNL A   1      32.252  18.610  22.069  1.00  0.00     0.278 C 
ENDBRANCH  33  35
ENDBRANCH  14  16
ENDBRANCH  11  14
ENDBRANCH   5  10
ENDBRANCH   3   5
ENDBRANCH   2   3
ENDBRANCH   1   2
BRANCH   1  37
ATOM     37  C   UNL A   1      32.591  29.505  26.634  1.00  0.00     0.275 C 
BRANCH  37  38
ATOM     38  O   UNL A   1      33.926  30.022  26.554  1.00  0.00    -0.458 OA
BRANCH  38  39
ATOM     39  C   UNL A   1      34.258  31.022  27.413  1.00  0.00     0.338 C 
ATOM     40  O   UNL A   1      33.586  31.959  27.775  1.00  0.00    -0.246 OA
BRANCH  39  41
ATOM     41  C   UNL A   1      35.617  30.693  27.868  1.00  0.00     0.060 A 
ATOM     42  C   UNL A   1      35.920  29.367  28.171  1.00  0.00     0.016 A 
ATOM     43  C   UNL A   1      36.533  31.718  28.118  1.00  0.00     0.016 A 
ATOM     44  C   UNL A   1      37.121  29.078  28.808  1.00  0.00     0.010 A 
ATOM     45  C   UNL A   1      37.734  31.429  28.764  1.00  0.00     0.010 A 
ATOM     46  C   UNL A   1      38.018  30.110  29.138  1.00  0.00    -0.014 A 
BRANCH  46  47
ATOM     47  C   UNL A   1      39.276  29.764  29.836  1.00  0.00     0.031 A 
ATOM     48  C   UNL A   1      39.592  30.344  31.181  1.00  0.00     0.074 A 
ATOM     49  C   UNL A   1      40.089  28.866  29.254  1.00  0.00     0.049 A 
ATOM     50  N   UNL A   1      40.534  30.005  32.022  1.00  0.00    -0.248 NA
ATOM     51  C   UNL A   1      38.748  31.459  31.641  1.00  0.00     0.031 C 
ATOM     52  C   UNL A   1      39.873  28.293  27.924  1.00  0.00     0.029 A 
ATOM     53  N   UNL A   1      41.223  28.250  29.708  1.00  0.00    -0.354 N 
ATOM     54  C   UNL A   1      40.385  30.845  33.120  1.00  0.00     0.074 A 
ATOM     55  C   UNL A   1      39.304  31.754  32.809  1.00  0.00     0.031 C 
ATOM     56  C   UNL A   1      40.809  27.360  27.694  1.00  0.00     0.029 A 
ATOM     57  C   UNL A   1      41.693  27.283  28.853  1.00  0.00     0.049 A 
ATOM     58  H   UNL A   1      41.659  28.479  30.560  1.00  0.00     0.167 HD
ATOM     59  C   UNL A   1      41.075  30.831  34.287  1.00  0.00     0.037 A 
ATOM     60  C   UNL A   1      42.703  26.406  29.005  1.00  0.00     0.037 A 
ATOM     61  C   UNL A   1      42.161  29.918  34.552  1.00  0.00     0.049 A 
ATOM     62  C   UNL A   1      43.457  26.407  30.304  1.00  0.00     0.074 A 
ATOM     63  C   UNL A   1      42.921  29.786  35.700  1.00  0.00     0.029 A 
ATOM     64  N   UNL A   1      42.645  28.982  33.644  1.00  0.00    -0.354 N 
ATOM     65  N   UNL A   1      43.265  27.157  31.364  1.00  0.00    -0.248 NA
ATOM     66  C   UNL A   1      44.556  25.445  30.433  1.00  0.00     0.031 C 
ATOM     67  C   UNL A   1      43.894  28.805  35.468  1.00  0.00     0.029 A 
ATOM     68  C   UNL A   1      43.709  28.288  34.195  1.00  0.00     0.049 A 
ATOM     69  H   UNL A   1      42.284  28.834  32.740  1.00  0.00     0.167 HD
ATOM     70  C   UNL A   1      44.217  26.756  32.292  1.00  0.00     0.074 A 
ATOM     71  C   UNL A   1      44.967  25.678  31.672  1.00  0.00     0.031 C 
ATOM     72  C   UNL A   1      44.452  27.235  33.540  1.00  0.00     0.037 A 
BRANCH  59  73
ATOM     73  C   UNL A   1      40.675  31.823  35.350  1.00  0.00     0.058 A 
ATOM     74  C   UNL A   1      41.429  32.985  35.590  1.00  0.00     0.135 A 
ATOM     75  C   UNL A   1      39.524  31.627  36.130  1.00  0.00     0.135 A 
ATOM     76  F   UNL A   1      42.542  33.228  34.880  1.00  0.00    -0.206 F 
ATOM     77  C   UNL A   1      41.083  33.889  36.591  1.00  0.00     0.059 A 
ATOM     78  C   UNL A   1      39.142  32.535  37.119  1.00  0.00     0.059 A 
ATOM     79  F   UNL A   1      38.758  30.542  35.945  1.00  0.00    -0.206 F 
ATOM     80  C   UNL A   1      39.940  33.652  37.356  1.00  0.00     0.060 A 
BRANCH  80  81
ATOM     81  S   UNL A   1      39.523  34.821  38.668  1.00  0.00     0.124 S 
ATOM     82  O   UNL A   1      38.378  34.166  39.292  1.00  0.00    -0.237 OA
ATOM     83  O   UNL A   1      40.748  34.847  39.463  1.00  0.00    -0.237 OA
ATOM     84  O   UNL A   1      39.223  36.053  37.945  1.00  0.00    -0.744 OA
ENDBRANCH  80  81
ENDBRANCH  59  73
BRANCH  60  85
ATOM     85  C   UNL A   1      42.971  25.422  27.925  1.00  0.00     0.058 A 
ATOM     86  C   UNL A   1      44.022  25.619  27.017  1.00  0.00     0.135 A 
ATOM     87  C   UNL A   1      42.266  24.209  27.856  1.00  0.00     0.135 A 
ATOM     88  F   UNL A   1      44.724  26.762  27.043  1.00  0.00    -0.206 F 
ATOM     89  C   UNL A   1      44.378  24.642  26.092  1.00  0.00     0.059 A 
ATOM     90  C   UNL A   1      42.618  23.208  26.955  1.00  0.00     0.059 A 
ATOM     91  F   UNL A   1      41.266  23.964  28.716  1.00  0.00    -0.206 F 
ATOM     92  C   UNL A   1      43.680  23.433  26.081  1.00  0.00     0.060 A 
BRANCH  92  93
ATOM     93  S   UNL A   1      44.228  22.133  24.952  1.00  0.00     0.124 S 
ATOM     94  O   UNL A   1      43.361  21.025  25.335  1.00  0.00    -0.237 OA
ATOM     95  O   UNL A   1      43.961  22.732  23.648  1.00  0.00    -0.237 OA
ATOM     96  O   UNL A   1      45.641  21.973  25.283  1.00  0.00    -0.744 OA
ENDBRANCH  92  93
ENDBRANCH  60  85
BRANCH  72  97
ATOM     97  C   UNL A   1      45.583  26.609  34.308  1.00  0.00     0.058 A 
ATOM     98  C   UNL A   1      46.889  27.114  34.222  1.00  0.00     0.135 A 
ATOM     99  C   UNL A   1      45.347  25.539  35.185  1.00  0.00     0.135 A 
ATOM    100  F   UNL A   1      47.168  28.131  33.391  1.00  0.00    -0.206 F 
ATOM    101  C   UNL A   1      47.928  26.567  34.966  1.00  0.00     0.059 A 
ATOM    102  C   UNL A   1      46.365  24.995  35.961  1.00  0.00     0.059 A 
ATOM    103  F   UNL A   1      44.112  25.025  35.310  1.00  0.00    -0.206 F 
ATOM    104  C   UNL A   1      47.654  25.512  35.838  1.00  0.00     0.060 A 
BRANCH 104 105
ATOM    105  S   UNL A   1      49.007  24.844  36.829  1.00  0.00     0.124 S 
ATOM    106  O   UNL A   1      50.106  25.731  36.464  1.00  0.00    -0.237 OA
ATOM    107  O   UNL A   1      48.498  24.992  38.189  1.00  0.00    -0.237 OA
ATOM    108  O   UNL A   1      49.128  23.468  36.356  1.00  0.00    -0.744 OA
ENDBRANCH 104 105
ENDBRANCH  72  97
ENDBRANCH  46  47
ENDBRANCH  39  41
ENDBRANCH  38  39
ENDBRANCH  37  38
ENDBRANCH   1  37
TORSDOF 20
ENDMDL
MODEL 3
REMARK VINA RESULT:     -10.1      5.748     15.577
REMARK SMILES CC[C@@H](C)[C@H](NC(=O)[C@H](C)N1C(=O)N2CCC3=c4cc(OC)ccc4=N[C@H]3[C@@]2(C)C1=O)C(=O)OCCOC(=O)c1ccc(-c2c3nc(c(-c4c(F)cc(S(=O)(=O)[O-])cc4F)c4ccc([nH]4)c(-c4c(F)cc(S(=O)(=O)[O-])cc4F)c4nc(c(-c5c(F)cc(S(=O)(=O)[O-])cc5F)c5ccc2[nH]5)C=C4)C=C3)cc1
REMARK SMILES IDX 35 1 34 2 32 3 33 4 5 5 3 6 4 7 2 8 1 9 6 10 7 11 8 13 9 14
REMARK SMILES IDX 10 15 11 16 12 17 30 18 14 19 13 20 28 21 31 22 15 23 27 24
REMARK SMILES IDX 29 25 16 26 17 27 26 28 18 29 25 30 19 31 24 32 20 33 23 34
REMARK SMILES IDX 21 35 22 36 36 37 37 38 38 39 39 40 40 41 41 42 105 43 42 44
REMARK SMILES IDX 104 45 43 46 44 47 45 48 98 49 46 50 103 51 97 52 99 53
REMARK SMILES IDX 47 54 102 55 96 56 95 57 48 59 82 60 61 61 81 62 62 63 65 64
REMARK SMILES IDX 80 65 100 66 63 67 64 68 79 70 101 71 66 72 49 73 50 74
REMARK SMILES IDX 59 75 51 76 52 77 58 78 60 79 53 80 54 81 55 82 56 83 57 84
REMARK SMILES IDX 83 85 84 86 93 87 85 88 86 89 92 90 94 91 87 92 88 93 89 94
REMARK SMILES IDX 90 95 91 96 67 97 68 98 77 99 69 100 70 101 76 102 78 103
REMARK SMILES IDX 71 104 72 105 73 106 74 107 75 108
REMARK H PARENT 6 12 99 58 65 69
REMARK Flexibility Score: inf
ROOT
ATOM      1  C   UNL A   1      45.606  37.822  30.846  1.00  0.00     0.274 C 
ENDROOT
BRANCH   1   2
ATOM      2  O   UNL A   1      45.028  38.545  29.746  1.00  0.00    -0.461 OA
BRANCH   2   3
ATOM      3  C   UNL A   1      43.697  38.626  29.583  1.00  0.00     0.329 C 
ATOM      4  O   UNL A   1      42.939  39.151  30.384  1.00  0.00    -0.250 OA
BRANCH   3   5
ATOM      5  C   UNL A   1      43.270  38.001  28.231  1.00  0.00     0.195 C 
BRANCH   5   6
ATOM      6  C   UNL A   1      43.724  36.548  27.869  1.00  0.00     0.019 C 
ATOM      7  C   UNL A   1      43.278  36.107  26.484  1.00  0.00     0.010 C 
BRANCH   6   8
ATOM      8  C   UNL A   1      43.286  35.547  28.923  1.00  0.00     0.002 C 
ATOM      9  C   UNL A   1      41.813  35.335  29.224  1.00  0.00     0.004 C 
ENDBRANCH   6   8
ENDBRANCH   5   6
BRANCH   5  10
ATOM     10  N   UNL A   1      43.100  38.904  27.071  1.00  0.00    -0.341 N 
ATOM     11  C   UNL A   1      43.759  39.888  26.424  1.00  0.00     0.243 C 
ATOM     12  H   UNL A   1      42.233  38.735  26.634  1.00  0.00     0.164 HD
ATOM     13  O   UNL A   1      42.935  40.618  25.839  1.00  0.00    -0.273 OA
BRANCH  11  14
ATOM     14  C   UNL A   1      45.289  40.260  26.449  1.00  0.00     0.181 C 
ATOM     15  C   UNL A   1      46.131  38.951  26.079  1.00  0.00     0.042 C 
BRANCH  14  16
ATOM     16  N   UNL A   1      45.878  41.072  27.575  1.00  0.00    -0.250 N 
ATOM     17  C   UNL A   1      47.120  41.704  27.670  1.00  0.00     0.328 C 
ATOM     18  C   UNL A   1      44.986  41.943  28.124  1.00  0.00     0.259 C 
ATOM     19  N   UNL A   1      46.926  43.029  28.278  1.00  0.00    -0.307 N 
ATOM     20  O   UNL A   1      48.138  41.500  27.033  1.00  0.00    -0.248 OA
ATOM     21  C   UNL A   1      45.578  43.305  27.865  1.00  0.00     0.147 C 
ATOM     22  O   UNL A   1      43.856  41.700  28.526  1.00  0.00    -0.271 OA
ATOM     23  C   UNL A   1      47.882  44.183  27.983  1.00  0.00     0.127 C 
ATOM     24  C   UNL A   1      45.835  43.564  26.317  1.00  0.00     0.168 C 
ATOM     25  C   UNL A   1      44.908  44.372  28.707  1.00  0.00     0.048 C 
ATOM     26  C   UNL A   1      47.369  45.304  26.764  1.00  0.00     0.055 C 
ATOM     27  C   UNL A   1      46.137  44.897  25.781  1.00  0.00    -0.032 C 
ATOM     28  N   UNL A   1      45.992  42.540  25.262  1.00  0.00    -0.274 NA
ATOM     29  C   UNL A   1      46.024  44.725  24.415  1.00  0.00     0.005 A 
ATOM     30  C   UNL A   1      46.447  43.278  24.291  1.00  0.00     0.066 A 
ATOM     31  C   UNL A   1      44.675  44.618  23.694  1.00  0.00     0.056 A 
ATOM     32  C   UNL A   1      46.739  42.763  22.957  1.00  0.00     0.032 A 
ATOM     33  C   UNL A   1      44.493  43.655  22.734  1.00  0.00     0.119 A 
ATOM     34  C   UNL A   1      45.649  42.926  22.198  1.00  0.00     0.048 A 
BRANCH  33  35
ATOM     35  O   UNL A   1      43.251  43.253  22.277  1.00  0.00    -0.497 OA
ATOM     36  C   UNL A   1      42.118  43.925  22.877  1.00  0.00     0.278 C 
ENDBRANCH  33  35
ENDBRANCH  14  16
ENDBRANCH  11  14
ENDBRANCH   5  10
ENDBRANCH   3   5
ENDBRANCH   2   3
ENDBRANCH   1   2
BRANCH   1  37
ATOM     37  C   UNL A   1      46.911  37.192  30.357  1.00  0.00     0.275 C 
BRANCH  37  38
ATOM     38  O   UNL A   1      46.902  37.180  28.923  1.00  0.00    -0.458 OA
BRANCH  38  39
ATOM     39  C   UNL A   1      47.992  36.662  28.298  1.00  0.00     0.338 C 
ATOM     40  O   UNL A   1      48.986  37.235  27.918  1.00  0.00    -0.246 OA
BRANCH  39  41
ATOM     41  C   UNL A   1      47.735  35.215  28.226  1.00  0.00     0.060 A 
ATOM     42  C   UNL A   1      46.897  34.733  27.222  1.00  0.00     0.016 A 
ATOM     43  C   UNL A   1      48.217  34.373  29.231  1.00  0.00     0.016 A 
ATOM     44  C   UNL A   1      46.472  33.411  27.276  1.00  0.00     0.010 A 
ATOM     45  C   UNL A   1      47.784  33.049  29.289  1.00  0.00     0.010 A 
ATOM     46  C   UNL A   1      46.886  32.572  28.326  1.00  0.00    -0.014 A 
BRANCH  46  47
ATOM     47  C   UNL A   1      46.394  31.178  28.361  1.00  0.00     0.031 A 
ATOM     48  C   UNL A   1      44.988  30.870  28.778  1.00  0.00     0.074 A 
ATOM     49  C   UNL A   1      47.227  30.209  27.944  1.00  0.00     0.049 A 
ATOM     50  N   UNL A   1      44.328  29.746  28.677  1.00  0.00    -0.248 NA
ATOM     51  C   UNL A   1      44.224  31.961  29.403  1.00  0.00     0.031 C 
ATOM     52  C   UNL A   1      48.625  30.424  27.567  1.00  0.00     0.029 A 
ATOM     53  N   UNL A   1      47.020  28.874  27.727  1.00  0.00    -0.354 N 
ATOM     54  C   UNL A   1      43.064  29.997  29.201  1.00  0.00     0.074 A 
ATOM     55  C   UNL A   1      43.074  31.362  29.680  1.00  0.00     0.031 C 
ATOM     56  C   UNL A   1      49.134  29.273  27.103  1.00  0.00     0.029 A 
ATOM     57  C   UNL A   1      48.103  28.242  27.165  1.00  0.00     0.049 A 
ATOM     58  H   UNL A   1      46.180  28.413  27.953  1.00  0.00     0.167 HD
ATOM     59  C   UNL A   1      41.994  29.166  29.246  1.00  0.00     0.037 A 
ATOM     60  C   UNL A   1      48.235  26.981  26.716  1.00  0.00     0.037 A 
ATOM     61  C   UNL A   1      42.031  27.804  28.773  1.00  0.00     0.049 A 
ATOM     62  C   UNL A   1      47.039  26.074  26.776  1.00  0.00     0.074 A 
ATOM     63  C   UNL A   1      41.011  26.870  28.740  1.00  0.00     0.029 A 
ATOM     64  N   UNL A   1      43.160  27.178  28.254  1.00  0.00    -0.354 N 
ATOM     65  N   UNL A   1      45.828  26.340  27.208  1.00  0.00    -0.248 NA
ATOM     66  C   UNL A   1      47.220  24.704  26.286  1.00  0.00     0.031 C 
ATOM     67  C   UNL A   1      41.536  25.668  28.247  1.00  0.00     0.029 A 
ATOM     68  C   UNL A   1      42.870  25.865  27.923  1.00  0.00     0.049 A 
ATOM     69  H   UNL A   1      44.039  27.607  28.138  1.00  0.00     0.167 HD
ATOM     70  C   UNL A   1      45.098  25.172  27.039  1.00  0.00     0.074 A 
ATOM     71  C   UNL A   1      46.001  24.205  26.441  1.00  0.00     0.031 C 
ATOM     72  C   UNL A   1      43.801  24.919  27.350  1.00  0.00     0.037 A 
BRANCH  59  73
ATOM     73  C   UNL A   1      40.710  29.708  29.821  1.00  0.00     0.058 A 
ATOM     74  C   UNL A   1      39.621  30.045  28.998  1.00  0.00     0.135 A 
ATOM     75  C   UNL A   1      40.551  29.885  31.205  1.00  0.00     0.135 A 
ATOM     76  F   UNL A   1      39.711  29.903  27.666  1.00  0.00    -0.206 F 
ATOM     77  C   UNL A   1      38.444  30.576  29.520  1.00  0.00     0.059 A 
ATOM     78  C   UNL A   1      39.371  30.388  31.752  1.00  0.00     0.059 A 
ATOM     79  F   UNL A   1      41.551  29.576  32.045  1.00  0.00    -0.206 F 
ATOM     80  C   UNL A   1      38.331  30.751  30.899  1.00  0.00     0.060 A 
BRANCH  80  81
ATOM     81  S   UNL A   1      36.808  31.467  31.555  1.00  0.00     0.124 S 
ATOM     82  O   UNL A   1      36.221  30.324  32.247  1.00  0.00    -0.237 OA
ATOM     83  O   UNL A   1      37.310  32.537  32.413  1.00  0.00    -0.237 OA
ATOM     84  O   UNL A   1      36.096  31.909  30.360  1.00  0.00    -0.744 OA
ENDBRANCH  80  81
ENDBRANCH  59  73
BRANCH  60  85
ATOM     85  C   UNL A   1      49.523  26.566  26.101  1.00  0.00     0.058 A 
ATOM     86  C   UNL A   1      49.819  26.888  24.768  1.00  0.00     0.135 A 
ATOM     87  C   UNL A   1      50.530  25.955  26.866  1.00  0.00     0.135 A 
ATOM     88  F   UNL A   1      48.890  27.472  23.997  1.00  0.00    -0.206 F 
ATOM     89  C   UNL A   1      51.074  26.636  24.221  1.00  0.00     0.059 A 
ATOM     90  C   UNL A   1      51.799  25.714  26.347  1.00  0.00     0.059 A 
ATOM     91  F   UNL A   1      50.302  25.647  28.152  1.00  0.00    -0.206 F 
ATOM     92  C   UNL A   1      52.062  26.064  25.024  1.00  0.00     0.060 A 
BRANCH  92  93
ATOM     93  S   UNL A   1      53.717  25.848  24.332  1.00  0.00     0.124 S 
ATOM     94  O   UNL A   1      54.073  24.523  24.825  1.00  0.00    -0.237 OA
ATOM     95  O   UNL A   1      53.462  25.951  22.899  1.00  0.00    -0.237 OA
ATOM     96  O   UNL A   1      54.470  26.959  24.908  1.00  0.00    -0.744 OA
ENDBRANCH  92  93
ENDBRANCH  60  85
BRANCH  72  97
ATOM     97  C   UNL A   1      43.291  23.533  27.071  1.00  0.00     0.058 A 
ATOM     98  C   UNL A   1      42.883  23.152  25.783  1.00  0.00     0.135 A 
ATOM     99  C   UNL A   1      43.272  22.559  28.082  1.00  0.00     0.135 A 
ATOM    100  F   UNL A   1      42.875  24.048  24.783  1.00  0.00    -0.206 F 
ATOM    101  C   UNL A   1      42.456  21.858  25.511  1.00  0.00     0.059 A 
ATOM    102  C   UNL A   1      42.876  21.251  27.827  1.00  0.00     0.059 A 
ATOM    103  F   UNL A   1      43.661  22.871  29.329  1.00  0.00    -0.206 F 
ATOM    104  C   UNL A   1      42.463  20.912  26.539  1.00  0.00     0.060 A 
BRANCH 104 105
ATOM    105  S   UNL A   1      41.946  19.226  26.157  1.00  0.00     0.124 S 
ATOM    106  O   UNL A   1      40.549  19.423  25.784  1.00  0.00    -0.237 OA
ATOM    107  O   UNL A   1      42.848  18.864  25.067  1.00  0.00    -0.237 OA
ATOM    108  O   UNL A   1      42.166  18.510  27.410  1.00  0.00    -0.744 OA
ENDBRANCH 104 105
ENDBRANCH  72  97
ENDBRANCH  46  47
ENDBRANCH  39  41
ENDBRANCH  38  39
ENDBRANCH  37  38
ENDBRANCH   1  37
TORSDOF 20
ENDMDL
