MODEL 1
REMARK VINA RESULT:     -12.5      0.000      0.000
REMARK SMILES CS(=O)(=O)c1ccc(C(=O)N2C[C@@H](C(=O)OCCOC(=O)c3ccc(-c4c5nc(c(-c6c(F)cc(S(=O)(=O)[O-])cc6F)c6ccc([nH]6)c(-c6c(F)cc(S(=O)(=O)[O-])cc6F)c6nc(c(-c7c(F)cc(S(=O)(=O)[O-])cc7F)c7ccc4[nH]7)C=C6)C=C5)cc3)[C@H](c3ccncc3)C2)cc1
REMARK SMILES IDX 17 1 16 2 14 3 15 4 13 5 11 6 12 7 95 8 88 9 9 10 10 11 8 12
REMARK SMILES IDX 5 13 6 14 97 15 7 16 96 17 2 18 1 19 3 20 4 21 89 22 90 23
REMARK SMILES IDX 94 24 91 25 93 26 92 27 18 28 19 29 20 30 21 31 22 32 23 33
REMARK SMILES IDX 87 34 24 35 86 36 25 37 26 38 27 39 80 40 28 41 85 42 79 43
REMARK SMILES IDX 81 44 29 45 84 46 78 47 77 48 30 50 64 51 43 52 63 53 44 54
REMARK SMILES IDX 47 55 62 56 82 57 45 58 46 59 61 61 83 62 48 63 31 64 32 65
REMARK SMILES IDX 41 66 33 67 34 68 40 69 42 70 35 71 36 72 37 73 38 74 39 75
REMARK SMILES IDX 65 76 66 77 75 78 67 79 68 80 74 81 76 82 69 83 70 84 71 85
REMARK SMILES IDX 72 86 73 87 49 88 50 89 59 90 51 91 52 92 58 93 60 94 53 95
REMARK SMILES IDX 54 96 55 97 56 98 57 99
REMARK H PARENT 81 49 47 60
REMARK Flexibility Score: inf
ROOT
ATOM      1  C   UNL A   1      37.827  23.110  25.733  1.00  0.00     0.274 C 
ENDROOT
BRANCH   1   2
ATOM      2  O   UNL A   1      36.869  22.096  25.366  1.00  0.00    -0.462 OA
BRANCH   2   3
ATOM      3  C   UNL A   1      36.009  22.423  24.362  1.00  0.00     0.311 C 
ATOM      4  O   UNL A   1      36.371  22.868  23.282  1.00  0.00    -0.252 OA
BRANCH   3   5
ATOM      5  C   UNL A   1      34.558  22.267  24.775  1.00  0.00     0.128 C 
ATOM      6  N   UNL A   1      32.959  22.801  26.359  1.00  0.00    -0.337 N 
ATOM      7  C   UNL A   1      34.156  23.350  25.767  1.00  0.00     0.135 C 
ATOM      8  C   UNL A   1      33.169  21.392  26.617  1.00  0.00     0.129 C 
ATOM      9  C   UNL A   1      34.186  20.943  25.527  1.00  0.00     0.055 C 
BRANCH   6  10
ATOM     10  C   UNL A   1      31.752  23.414  26.621  1.00  0.00     0.253 C 
ATOM     11  O   UNL A   1      30.884  22.912  27.329  1.00  0.00    -0.269 OA
BRANCH  10  12
ATOM     12  C   UNL A   1      31.425  24.684  25.922  1.00  0.00     0.040 A 
ATOM     13  C   UNL A   1      31.097  27.057  24.491  1.00  0.00     0.067 A 
ATOM     14  C   UNL A   1      30.785  25.835  23.886  1.00  0.00     0.021 A 
ATOM     15  C   UNL A   1      31.559  27.105  25.807  1.00  0.00     0.021 A 
ATOM     16  C   UNL A   1      30.957  24.647  24.603  1.00  0.00     0.015 A 
ATOM     17  C   UNL A   1      31.744  25.917  26.511  1.00  0.00     0.015 A 
BRANCH  13  18
ATOM     18  S   UNL A   1      30.991  28.571  23.567  1.00  0.00     0.175 S 
ATOM     19  C   UNL A   1      29.442  28.473  22.710  1.00  0.00     0.163 C 
ATOM     20  O   UNL A   1      32.033  28.537  22.556  1.00  0.00    -0.224 OA
ATOM     21  O   UNL A   1      30.921  29.652  24.530  1.00  0.00    -0.224 OA
ENDBRANCH  13  18
ENDBRANCH  10  12
ENDBRANCH   6  10
BRANCH   9  22
ATOM     22  C   UNL A   1      33.767  19.804  24.602  1.00  0.00    -0.039 A 
ATOM     23  C   UNL A   1      34.524  18.622  24.573  1.00  0.00     0.024 A 
ATOM     24  C   UNL A   1      32.625  19.828  23.794  1.00  0.00     0.024 A 
ATOM     25  C   UNL A   1      34.150  17.572  23.743  1.00  0.00     0.111 A 
ATOM     26  C   UNL A   1      32.313  18.718  23.015  1.00  0.00     0.111 A 
ATOM     27  N   UNL A   1      33.062  17.600  22.953  1.00  0.00    -0.265 NA
ENDBRANCH   9  22
ENDBRANCH   3   5
ENDBRANCH   2   3
ENDBRANCH   1   2
BRANCH   1  28
ATOM     28  C   UNL A   1      39.146  22.484  26.183  1.00  0.00     0.275 C 
BRANCH  28  29
ATOM     29  O   UNL A   1      39.721  23.239  27.265  1.00  0.00    -0.458 OA
BRANCH  29  30
ATOM     30  C   UNL A   1      40.610  24.196  26.908  1.00  0.00     0.338 C 
ATOM     31  O   UNL A   1      41.388  24.168  25.971  1.00  0.00    -0.246 OA
BRANCH  30  32
ATOM     32  C   UNL A   1      40.479  25.357  27.804  1.00  0.00     0.060 A 
ATOM     33  C   UNL A   1      41.538  26.253  27.911  1.00  0.00     0.016 A 
ATOM     34  C   UNL A   1      39.368  25.486  28.636  1.00  0.00     0.016 A 
ATOM     35  C   UNL A   1      41.544  27.219  28.913  1.00  0.00     0.010 A 
ATOM     36  C   UNL A   1      39.325  26.531  29.568  1.00  0.00     0.010 A 
ATOM     37  C   UNL A   1      40.425  27.390  29.740  1.00  0.00    -0.014 A 
BRANCH  37  38
ATOM     38  C   UNL A   1      40.410  28.470  30.767  1.00  0.00     0.031 A 
ATOM     39  C   UNL A   1      41.379  28.448  31.921  1.00  0.00     0.074 A 
ATOM     40  C   UNL A   1      39.524  29.482  30.661  1.00  0.00     0.049 A 
ATOM     41  N   UNL A   1      41.421  29.217  32.980  1.00  0.00    -0.248 NA
ATOM     42  C   UNL A   1      42.429  27.418  31.890  1.00  0.00     0.031 C 
ATOM     43  C   UNL A   1      38.544  29.643  29.584  1.00  0.00     0.029 A 
ATOM     44  N   UNL A   1      39.306  30.571  31.468  1.00  0.00    -0.354 N 
ATOM     45  C   UNL A   1      42.467  28.739  33.760  1.00  0.00     0.074 A 
ATOM     46  C   UNL A   1      43.031  27.606  33.056  1.00  0.00     0.031 C 
ATOM     47  C   UNL A   1      37.857  30.778  29.776  1.00  0.00     0.029 A 
ATOM     48  C   UNL A   1      38.289  31.386  31.028  1.00  0.00     0.049 A 
ATOM     49  H   UNL A   1      39.827  30.753  32.283  1.00  0.00     0.167 HD
ATOM     50  C   UNL A   1      42.915  29.200  34.954  1.00  0.00     0.037 A 
ATOM     51  C   UNL A   1      37.735  32.481  31.584  1.00  0.00     0.037 A 
ATOM     52  C   UNL A   1      42.381  30.355  35.630  1.00  0.00     0.049 A 
ATOM     53  C   UNL A   1      38.243  32.969  32.909  1.00  0.00     0.074 A 
ATOM     54  C   UNL A   1      42.781  30.912  36.834  1.00  0.00     0.029 A 
ATOM     55  N   UNL A   1      41.341  31.142  35.157  1.00  0.00    -0.354 N 
ATOM     56  N   UNL A   1      39.203  32.474  33.655  1.00  0.00    -0.248 NA
ATOM     57  C   UNL A   1      37.585  34.152  33.476  1.00  0.00     0.031 C 
ATOM     58  C   UNL A   1      41.965  32.017  37.102  1.00  0.00     0.029 A 
ATOM     59  C   UNL A   1      41.078  32.171  36.048  1.00  0.00     0.049 A 
ATOM     60  H   UNL A   1      40.859  30.991  34.312  1.00  0.00     0.167 HD
ATOM     61  C   UNL A   1      39.262  33.286  34.780  1.00  0.00     0.074 A 
ATOM     62  C   UNL A   1      38.262  34.319  34.604  1.00  0.00     0.031 C 
ATOM     63  C   UNL A   1      40.069  33.182  35.865  1.00  0.00     0.037 A 
BRANCH  50  64
ATOM     64  C   UNL A   1      44.025  28.437  35.624  1.00  0.00     0.058 A 
ATOM     65  C   UNL A   1      43.769  27.399  36.534  1.00  0.00     0.135 A 
ATOM     66  C   UNL A   1      45.365  28.729  35.323  1.00  0.00     0.135 A 
ATOM     67  F   UNL A   1      42.507  27.091  36.870  1.00  0.00    -0.206 F 
ATOM     68  C   UNL A   1      44.804  26.694  37.142  1.00  0.00     0.059 A 
ATOM     69  C   UNL A   1      46.415  28.021  35.902  1.00  0.00     0.059 A 
ATOM     70  F   UNL A   1      45.666  29.711  34.460  1.00  0.00    -0.206 F 
ATOM     71  C   UNL A   1      46.124  27.015  36.823  1.00  0.00     0.060 A 
BRANCH  71  72
ATOM     72  S   UNL A   1      47.460  26.096  37.618  1.00  0.00     0.124 S 
ATOM     73  O   UNL A   1      47.381  24.813  36.926  1.00  0.00    -0.237 OA
ATOM     74  O   UNL A   1      48.630  26.910  37.308  1.00  0.00    -0.237 OA
ATOM     75  O   UNL A   1      47.069  26.076  39.024  1.00  0.00    -0.744 OA
ENDBRANCH  71  72
ENDBRANCH  50  64
BRANCH  51  76
ATOM     76  C   UNL A   1      36.609  33.167  30.897  1.00  0.00     0.058 A 
ATOM     77  C   UNL A   1      35.293  33.033  31.360  1.00  0.00     0.135 A 
ATOM     78  C   UNL A   1      36.834  33.995  29.787  1.00  0.00     0.135 A 
ATOM     79  F   UNL A   1      35.029  32.244  32.412  1.00  0.00    -0.206 F 
ATOM     80  C   UNL A   1      34.235  33.694  30.743  1.00  0.00     0.059 A 
ATOM     81  C   UNL A   1      35.797  34.684  29.169  1.00  0.00     0.059 A 
ATOM     82  F   UNL A   1      38.079  34.165  29.315  1.00  0.00    -0.206 F 
ATOM     83  C   UNL A   1      34.499  34.520  29.650  1.00  0.00     0.060 A 
BRANCH  83  84
ATOM     84  S   UNL A   1      33.135  35.434  28.896  1.00  0.00     0.124 S 
ATOM     85  O   UNL A   1      33.850  36.447  28.131  1.00  0.00    -0.237 OA
ATOM     86  O   UNL A   1      32.462  34.399  28.115  1.00  0.00    -0.237 OA
ATOM     87  O   UNL A   1      32.383  35.923  30.049  1.00  0.00    -0.744 OA
ENDBRANCH  83  84
ENDBRANCH  51  76
BRANCH  63  88
ATOM     88  C   UNL A   1      39.898  34.221  36.936  1.00  0.00     0.058 A 
ATOM     89  C   UNL A   1      39.084  33.990  38.056  1.00  0.00     0.135 A 
ATOM     90  C   UNL A   1      40.548  35.460  36.837  1.00  0.00     0.135 A 
ATOM     91  F   UNL A   1      38.435  32.823  38.190  1.00  0.00    -0.206 F 
ATOM     92  C   UNL A   1      38.892  34.967  39.026  1.00  0.00     0.059 A 
ATOM     93  C   UNL A   1      40.387  36.445  37.808  1.00  0.00     0.059 A 
ATOM     94  F   UNL A   1      41.344  35.727  35.790  1.00  0.00    -0.206 F 
ATOM     95  C   UNL A   1      39.541  36.196  38.889  1.00  0.00     0.060 A 
BRANCH  95  96
ATOM     96  S   UNL A   1      39.281  37.463  40.147  1.00  0.00     0.124 S 
ATOM     97  O   UNL A   1      38.672  36.688  41.222  1.00  0.00    -0.237 OA
ATOM     98  O   UNL A   1      40.637  37.943  40.401  1.00  0.00    -0.237 OA
ATOM     99  O   UNL A   1      38.400  38.420  39.484  1.00  0.00    -0.744 OA
ENDBRANCH  95  96
ENDBRANCH  63  88
ENDBRANCH  37  38
ENDBRANCH  30  32
ENDBRANCH  29  30
ENDBRANCH  28  29
ENDBRANCH   1  28
TORSDOF 18
ENDMDL
MODEL 2
REMARK VINA RESULT:     -12.2      0.716      1.621
REMARK SMILES CS(=O)(=O)c1ccc(C(=O)N2C[C@@H](C(=O)OCCOC(=O)c3ccc(-c4c5nc(c(-c6c(F)cc(S(=O)(=O)[O-])cc6F)c6ccc([nH]6)c(-c6c(F)cc(S(=O)(=O)[O-])cc6F)c6nc(c(-c7c(F)cc(S(=O)(=O)[O-])cc7F)c7ccc4[nH]7)C=C6)C=C5)cc3)[C@H](c3ccncc3)C2)cc1
REMARK SMILES IDX 17 1 16 2 14 3 15 4 13 5 11 6 12 7 95 8 88 9 9 10 10 11 8 12
REMARK SMILES IDX 5 13 6 14 97 15 7 16 96 17 2 18 1 19 3 20 4 21 89 22 90 23
REMARK SMILES IDX 94 24 91 25 93 26 92 27 18 28 19 29 20 30 21 31 22 32 23 33
REMARK SMILES IDX 87 34 24 35 86 36 25 37 26 38 27 39 80 40 28 41 85 42 79 43
REMARK SMILES IDX 81 44 29 45 84 46 78 47 77 48 30 50 64 51 43 52 63 53 44 54
REMARK SMILES IDX 47 55 62 56 82 57 45 58 46 59 61 61 83 62 48 63 31 64 32 65
REMARK SMILES IDX 41 66 33 67 34 68 40 69 42 70 35 71 36 72 37 73 38 74 39 75
REMARK SMILES IDX 65 76 66 77 75 78 67 79 68 80 74 81 76 82 69 83 70 84 71 85
REMARK SMILES IDX 72 86 73 87 49 88 50 89 59 90 51 91 52 92 58 93 60 94 53 95
REMARK SMILES IDX 54 96 55 97 56 98 57 99
REMARK H PARENT 81 49 47 60
REMARK Flexibility Score: inf
ROOT
ATOM      1  C   UNL A   1      37.639  23.029  26.039  1.00  0.00     0.274 C 
ENDROOT
BRANCH   1   2
ATOM      2  O   UNL A   1      37.047  22.536  24.819  1.00  0.00    -0.462 OA
BRANCH   2   3
ATOM      3  C   UNL A   1      36.413  21.334  24.906  1.00  0.00     0.311 C 
ATOM      4  O   UNL A   1      37.002  20.264  24.972  1.00  0.00    -0.252 OA
BRANCH   3   5
ATOM      5  C   UNL A   1      34.906  21.471  24.810  1.00  0.00     0.128 C 
ATOM      6  N   UNL A   1      33.012  22.403  25.757  1.00  0.00    -0.337 N 
ATOM      7  C   UNL A   1      34.419  22.682  25.594  1.00  0.00     0.135 C 
ATOM      8  C   UNL A   1      32.849  21.003  26.090  1.00  0.00     0.129 C 
ATOM      9  C   UNL A   1      34.058  20.297  25.411  1.00  0.00     0.055 C 
BRANCH   6  10
ATOM     10  C   UNL A   1      31.929  23.239  25.590  1.00  0.00     0.253 C 
ATOM     11  O   UNL A   1      30.773  22.834  25.514  1.00  0.00    -0.269 OA
BRANCH  10  12
ATOM     12  C   UNL A   1      32.168  24.690  25.368  1.00  0.00     0.040 A 
ATOM     13  C   UNL A   1      32.311  27.437  24.898  1.00  0.00     0.067 A 
ATOM     14  C   UNL A   1      32.052  26.968  26.191  1.00  0.00     0.021 A 
ATOM     15  C   UNL A   1      32.511  26.546  23.842  1.00  0.00     0.021 A 
ATOM     16  C   UNL A   1      31.974  25.590  26.422  1.00  0.00     0.015 A 
ATOM     17  C   UNL A   1      32.415  25.176  24.076  1.00  0.00     0.015 A 
BRANCH  13  18
ATOM     18  S   UNL A   1      32.308  29.181  24.557  1.00  0.00     0.175 S 
ATOM     19  C   UNL A   1      32.947  29.933  26.030  1.00  0.00     0.163 C 
ATOM     20  O   UNL A   1      30.922  29.598  24.440  1.00  0.00    -0.224 OA
ATOM     21  O   UNL A   1      33.248  29.404  23.477  1.00  0.00    -0.224 OA
ENDBRANCH  13  18
ENDBRANCH  10  12
ENDBRANCH   6  10
BRANCH   9  22
ATOM     22  C   UNL A   1      33.753  19.183  24.414  1.00  0.00    -0.039 A 
ATOM     23  C   UNL A   1      34.526  18.011  24.428  1.00  0.00     0.024 A 
ATOM     24  C   UNL A   1      32.700  19.219  23.494  1.00  0.00     0.024 A 
ATOM     25  C   UNL A   1      34.255  16.984  23.533  1.00  0.00     0.111 A 
ATOM     26  C   UNL A   1      32.486  18.131  22.654  1.00  0.00     0.111 A 
ATOM     27  N   UNL A   1      33.254  17.024  22.637  1.00  0.00    -0.265 NA
ENDBRANCH   9  22
ENDBRANCH   3   5
ENDBRANCH   2   3
ENDBRANCH   1   2
BRANCH   1  28
ATOM     28  C   UNL A   1      39.109  22.625  26.140  1.00  0.00     0.275 C 
BRANCH  28  29
ATOM     29  O   UNL A   1      39.731  23.260  27.272  1.00  0.00    -0.458 OA
BRANCH  29  30
ATOM     30  C   UNL A   1      40.683  24.177  26.982  1.00  0.00     0.338 C 
ATOM     31  O   UNL A   1      41.527  24.113  26.105  1.00  0.00    -0.246 OA
BRANCH  30  32
ATOM     32  C   UNL A   1      40.536  25.346  27.865  1.00  0.00     0.060 A 
ATOM     33  C   UNL A   1      41.599  26.233  27.998  1.00  0.00     0.016 A 
ATOM     34  C   UNL A   1      39.401  25.491  28.661  1.00  0.00     0.016 A 
ATOM     35  C   UNL A   1      41.583  27.207  28.993  1.00  0.00     0.010 A 
ATOM     36  C   UNL A   1      39.339  26.544  29.583  1.00  0.00     0.010 A 
ATOM     37  C   UNL A   1      40.441  27.394  29.783  1.00  0.00    -0.014 A 
BRANCH  37  38
ATOM     38  C   UNL A   1      40.405  28.482  30.801  1.00  0.00     0.031 A 
ATOM     39  C   UNL A   1      41.354  28.473  31.971  1.00  0.00     0.074 A 
ATOM     40  C   UNL A   1      39.516  29.489  30.673  1.00  0.00     0.049 A 
ATOM     41  N   UNL A   1      41.375  29.251  33.024  1.00  0.00    -0.248 NA
ATOM     42  C   UNL A   1      42.409  27.448  31.965  1.00  0.00     0.031 C 
ATOM     43  C   UNL A   1      38.552  29.637  29.579  1.00  0.00     0.029 A 
ATOM     44  N   UNL A   1      39.280  30.583  31.468  1.00  0.00    -0.354 N 
ATOM     45  C   UNL A   1      42.412  28.783  33.826  1.00  0.00     0.074 A 
ATOM     46  C   UNL A   1      42.991  27.648  33.140  1.00  0.00     0.031 C 
ATOM     47  C   UNL A   1      37.857  30.770  29.751  1.00  0.00     0.029 A 
ATOM     48  C   UNL A   1      38.266  31.390  31.006  1.00  0.00     0.049 A 
ATOM     49  H   UNL A   1      39.787  30.774  32.290  1.00  0.00     0.167 HD
ATOM     50  C   UNL A   1      42.837  29.256  35.023  1.00  0.00     0.037 A 
ATOM     51  C   UNL A   1      37.698  32.487  31.544  1.00  0.00     0.037 A 
ATOM     52  C   UNL A   1      42.287  30.413  35.681  1.00  0.00     0.049 A 
ATOM     53  C   UNL A   1      38.183  32.987  32.873  1.00  0.00     0.074 A 
ATOM     54  C   UNL A   1      42.666  30.981  36.887  1.00  0.00     0.029 A 
ATOM     55  N   UNL A   1      41.251  31.191  35.185  1.00  0.00    -0.354 N 
ATOM     56  N   UNL A   1      39.132  32.502  33.638  1.00  0.00    -0.248 NA
ATOM     57  C   UNL A   1      37.510  34.171  33.420  1.00  0.00     0.031 C 
ATOM     58  C   UNL A   1      41.840  32.085  37.133  1.00  0.00     0.029 A 
ATOM     59  C   UNL A   1      40.970  32.227  36.064  1.00  0.00     0.049 A 
ATOM     60  H   UNL A   1      40.784  31.032  34.334  1.00  0.00     0.167 HD
ATOM     61  C   UNL A   1      39.170  33.323  34.757  1.00  0.00     0.074 A 
ATOM     62  C   UNL A   1      38.168  34.350  34.557  1.00  0.00     0.031 C 
ATOM     63  C   UNL A   1      39.959  33.231  35.856  1.00  0.00     0.037 A 
BRANCH  50  64
ATOM     64  C   UNL A   1      43.939  28.503  35.716  1.00  0.00     0.058 A 
ATOM     65  C   UNL A   1      45.293  28.816  35.518  1.00  0.00     0.135 A 
ATOM     66  C   UNL A   1      43.632  27.472  36.620  1.00  0.00     0.135 A 
ATOM     67  F   UNL A   1      45.643  29.781  34.653  1.00  0.00    -0.206 F 
ATOM     68  C   UNL A   1      46.304  28.118  36.172  1.00  0.00     0.059 A 
ATOM     69  C   UNL A   1      44.626  26.776  37.301  1.00  0.00     0.059 A 
ATOM     70  F   UNL A   1      42.354  27.132  36.846  1.00  0.00    -0.206 F 
ATOM     71  C   UNL A   1      45.961  27.096  37.058  1.00  0.00     0.060 A 
BRANCH  71  72
ATOM     72  S   UNL A   1      47.280  26.195  37.901  1.00  0.00     0.124 S 
ATOM     73  O   UNL A   1      46.533  25.116  38.538  1.00  0.00    -0.237 OA
ATOM     74  O   UNL A   1      48.147  25.799  36.795  1.00  0.00    -0.237 OA
ATOM     75  O   UNL A   1      47.845  27.189  38.808  1.00  0.00    -0.744 OA
ENDBRANCH  71  72
ENDBRANCH  50  64
BRANCH  51  76
ATOM     76  C   UNL A   1      36.581  33.162  30.833  1.00  0.00     0.058 A 
ATOM     77  C   UNL A   1      35.257  33.024  31.275  1.00  0.00     0.135 A 
ATOM     78  C   UNL A   1      36.820  33.984  29.721  1.00  0.00     0.135 A 
ATOM     79  F   UNL A   1      34.980  32.240  32.327  1.00  0.00    -0.206 F 
ATOM     80  C   UNL A   1      34.207  33.675  30.635  1.00  0.00     0.059 A 
ATOM     81  C   UNL A   1      35.790  34.663  29.081  1.00  0.00     0.059 A 
ATOM     82  F   UNL A   1      38.072  34.158  29.270  1.00  0.00    -0.206 F 
ATOM     83  C   UNL A   1      34.485  34.496  29.542  1.00  0.00     0.060 A 
BRANCH  83  84
ATOM     84  S   UNL A   1      33.129  35.397  28.759  1.00  0.00     0.124 S 
ATOM     85  O   UNL A   1      32.416  35.918  29.918  1.00  0.00    -0.237 OA
ATOM     86  O   UNL A   1      33.839  36.384  27.949  1.00  0.00    -0.237 OA
ATOM     87  O   UNL A   1      32.435  34.361  28.000  1.00  0.00    -0.744 OA
ENDBRANCH  83  84
ENDBRANCH  51  76
BRANCH  63  88
ATOM     88  C   UNL A   1      39.766  34.278  36.916  1.00  0.00     0.058 A 
ATOM     89  C   UNL A   1      40.375  35.538  36.818  1.00  0.00     0.135 A 
ATOM     90  C   UNL A   1      38.972  34.015  38.043  1.00  0.00     0.135 A 
ATOM     91  F   UNL A   1      41.151  35.833  35.763  1.00  0.00    -0.206 F 
ATOM     92  C   UNL A   1      40.232  36.493  37.819  1.00  0.00     0.059 A 
ATOM     93  C   UNL A   1      38.798  34.964  39.046  1.00  0.00     0.059 A 
ATOM     94  F   UNL A   1      38.361  32.828  38.179  1.00  0.00    -0.206 F 
ATOM     95  C   UNL A   1      39.448  36.193  38.935  1.00  0.00     0.060 A 
BRANCH  95  96
ATOM     96  S   UNL A   1      39.273  37.432  40.234  1.00  0.00     0.124 S 
ATOM     97  O   UNL A   1      38.731  36.635  41.329  1.00  0.00    -0.237 OA
ATOM     98  O   UNL A   1      40.644  37.903  40.411  1.00  0.00    -0.237 OA
ATOM     99  O   UNL A   1      38.355  38.406  39.650  1.00  0.00    -0.744 OA
ENDBRANCH  95  96
ENDBRANCH  63  88
ENDBRANCH  37  38
ENDBRANCH  30  32
ENDBRANCH  29  30
ENDBRANCH  28  29
ENDBRANCH   1  28
TORSDOF 18
ENDMDL
MODEL 3
REMARK VINA RESULT:     -12.0      6.250     10.516
REMARK SMILES CS(=O)(=O)c1ccc(C(=O)N2C[C@@H](C(=O)OCCOC(=O)c3ccc(-c4c5nc(c(-c6c(F)cc(S(=O)(=O)[O-])cc6F)c6ccc([nH]6)c(-c6c(F)cc(S(=O)(=O)[O-])cc6F)c6nc(c(-c7c(F)cc(S(=O)(=O)[O-])cc7F)c7ccc4[nH]7)C=C6)C=C5)cc3)[C@H](c3ccncc3)C2)cc1
REMARK SMILES IDX 17 1 16 2 14 3 15 4 13 5 11 6 12 7 95 8 88 9 9 10 10 11 8 12
REMARK SMILES IDX 5 13 6 14 97 15 7 16 96 17 2 18 1 19 3 20 4 21 89 22 90 23
REMARK SMILES IDX 94 24 91 25 93 26 92 27 18 28 19 29 20 30 21 31 22 32 23 33
REMARK SMILES IDX 87 34 24 35 86 36 25 37 26 38 27 39 80 40 28 41 85 42 79 43
REMARK SMILES IDX 81 44 29 45 84 46 78 47 77 48 30 50 64 51 43 52 63 53 44 54
REMARK SMILES IDX 47 55 62 56 82 57 45 58 46 59 61 61 83 62 48 63 31 64 32 65
REMARK SMILES IDX 41 66 33 67 34 68 40 69 42 70 35 71 36 72 37 73 38 74 39 75
REMARK SMILES IDX 65 76 66 77 75 78 67 79 68 80 74 81 76 82 69 83 70 84 71 85
REMARK SMILES IDX 72 86 73 87 49 88 50 89 59 90 51 91 52 92 58 93 60 94 53 95
REMARK SMILES IDX 54 96 55 97 56 98 57 99
REMARK H PARENT 81 49 47 60
REMARK Flexibility Score: inf
ROOT
ATOM      1  C   UNL A   1      38.543  21.524  25.559  1.00  0.00     0.274 C 
ENDROOT
BRANCH   1   2
ATOM      2  O   UNL A   1      37.112  21.515  25.747  1.00  0.00    -0.462 OA
BRANCH   2   3
ATOM      3  C   UNL A   1      36.366  21.886  24.670  1.00  0.00     0.311 C 
ATOM      4  O   UNL A   1      36.850  22.232  23.602  1.00  0.00    -0.252 OA
BRANCH   3   5
ATOM      5  C   UNL A   1      34.883  21.916  24.983  1.00  0.00     0.128 C 
ATOM      6  N   UNL A   1      33.263  22.618  26.478  1.00  0.00    -0.337 N 
ATOM      7  C   UNL A   1      34.560  23.016  25.984  1.00  0.00     0.135 C 
ATOM      8  C   UNL A   1      33.266  21.187  26.698  1.00  0.00     0.129 C 
ATOM      9  C   UNL A   1      34.287  20.635  25.661  1.00  0.00     0.055 C 
BRANCH   6  10
ATOM     10  C   UNL A   1      32.133  23.381  26.683  1.00  0.00     0.253 C 
ATOM     11  O   UNL A   1      31.310  23.138  27.560  1.00  0.00    -0.269 OA
BRANCH  10  12
ATOM     12  C   UNL A   1      31.823  24.478  25.728  1.00  0.00     0.040 A 
ATOM     13  C   UNL A   1      31.524  26.651  24.004  1.00  0.00     0.067 A 
ATOM     14  C   UNL A   1      32.111  25.472  23.535  1.00  0.00     0.021 A 
ATOM     15  C   UNL A   1      31.074  26.750  25.322  1.00  0.00     0.021 A 
ATOM     16  C   UNL A   1      32.267  24.386  24.404  1.00  0.00     0.015 A 
ATOM     17  C   UNL A   1      31.247  25.671  26.187  1.00  0.00     0.015 A 
BRANCH  13  18
ATOM     18  S   UNL A   1      31.413  28.080  22.954  1.00  0.00     0.175 S 
ATOM     19  C   UNL A   1      30.957  29.406  24.037  1.00  0.00     0.163 C 
ATOM     20  O   UNL A   1      30.296  27.871  22.051  1.00  0.00    -0.224 OA
ATOM     21  O   UNL A   1      32.746  28.335  22.443  1.00  0.00    -0.224 OA
ENDBRANCH  13  18
ENDBRANCH  10  12
ENDBRANCH   6  10
BRANCH   9  22
ATOM     22  C   UNL A   1      33.785  19.589  24.669  1.00  0.00    -0.039 A 
ATOM     23  C   UNL A   1      32.669  19.875  23.867  1.00  0.00     0.024 A 
ATOM     24  C   UNL A   1      34.400  18.351  24.455  1.00  0.00     0.024 A 
ATOM     25  C   UNL A   1      32.206  18.938  22.953  1.00  0.00     0.111 A 
ATOM     26  C   UNL A   1      33.882  17.485  23.496  1.00  0.00     0.111 A 
ATOM     27  N   UNL A   1      32.785  17.740  22.757  1.00  0.00    -0.265 NA
ENDBRANCH   9  22
ENDBRANCH   3   5
ENDBRANCH   2   3
ENDBRANCH   1   2
BRANCH   1  28
ATOM     28  C   UNL A   1      39.109  20.105  25.571  1.00  0.00     0.275 C 
BRANCH  28  29
ATOM     29  O   UNL A   1      40.096  19.963  26.609  1.00  0.00    -0.458 OA
BRANCH  29  30
ATOM     30  C   UNL A   1      41.373  19.806  26.190  1.00  0.00     0.338 C 
ATOM     31  O   UNL A   1      41.860  18.823  25.660  1.00  0.00    -0.246 OA
BRANCH  30  32
ATOM     32  C   UNL A   1      42.128  21.049  26.414  1.00  0.00     0.060 A 
ATOM     33  C   UNL A   1      42.524  21.378  27.707  1.00  0.00     0.016 A 
ATOM     34  C   UNL A   1      42.328  21.953  25.372  1.00  0.00     0.016 A 
ATOM     35  C   UNL A   1      43.026  22.645  27.989  1.00  0.00     0.010 A 
ATOM     36  C   UNL A   1      42.940  23.184  25.638  1.00  0.00     0.010 A 
ATOM     37  C   UNL A   1      43.267  23.559  26.954  1.00  0.00    -0.014 A 
BRANCH  37  38
ATOM     38  C   UNL A   1      43.867  24.890  27.253  1.00  0.00     0.031 A 
ATOM     39  C   UNL A   1      43.023  26.007  27.809  1.00  0.00     0.074 A 
ATOM     40  C   UNL A   1      45.181  25.097  27.030  1.00  0.00     0.049 A 
ATOM     41  N   UNL A   1      43.336  27.265  27.996  1.00  0.00    -0.248 NA
ATOM     42  C   UNL A   1      41.642  25.673  28.192  1.00  0.00     0.031 C 
ATOM     43  C   UNL A   1      46.123  24.098  26.515  1.00  0.00     0.029 A 
ATOM     44  N   UNL A   1      45.957  26.215  27.210  1.00  0.00    -0.354 N 
ATOM     45  C   UNL A   1      42.183  27.880  28.473  1.00  0.00     0.074 A 
ATOM     46  C   UNL A   1      41.161  26.858  28.540  1.00  0.00     0.031 C 
ATOM     47  C   UNL A   1      47.350  24.634  26.456  1.00  0.00     0.029 A 
ATOM     48  C   UNL A   1      47.273  26.036  26.850  1.00  0.00     0.049 A 
ATOM     49  H   UNL A   1      45.606  27.064  27.563  1.00  0.00     0.167 HD
ATOM     50  C   UNL A   1      41.996  29.177  28.821  1.00  0.00     0.037 A 
ATOM     51  C   UNL A   1      48.300  26.906  26.805  1.00  0.00     0.037 A 
ATOM     52  C   UNL A   1      43.028  30.182  28.796  1.00  0.00     0.049 A 
ATOM     53  C   UNL A   1      48.065  28.338  27.188  1.00  0.00     0.074 A 
ATOM     54  C   UNL A   1      42.940  31.519  29.148  1.00  0.00     0.029 A 
ATOM     55  N   UNL A   1      44.342  29.960  28.410  1.00  0.00    -0.354 N 
ATOM     56  N   UNL A   1      46.956  28.911  27.591  1.00  0.00    -0.248 NA
ATOM     57  C   UNL A   1      49.216  29.245  27.096  1.00  0.00     0.031 C 
ATOM     58  C   UNL A   1      44.192  32.111  28.949  1.00  0.00     0.029 A 
ATOM     59  C   UNL A   1      45.071  31.136  28.505  1.00  0.00     0.049 A 
ATOM     60  H   UNL A   1      44.704  29.095  28.111  1.00  0.00     0.167 HD
ATOM     61  C   UNL A   1      47.276  30.246  27.800  1.00  0.00     0.074 A 
ATOM     62  C   UNL A   1      48.687  30.389  27.505  1.00  0.00     0.031 C 
ATOM     63  C   UNL A   1      46.472  31.264  28.194  1.00  0.00     0.037 A 
BRANCH  50  64
ATOM     64  C   UNL A   1      40.611  29.594  29.234  1.00  0.00     0.058 A 
ATOM     65  C   UNL A   1      39.559  29.695  28.310  1.00  0.00     0.135 A 
ATOM     66  C   UNL A   1      40.327  29.865  30.583  1.00  0.00     0.135 A 
ATOM     67  F   UNL A   1      39.779  29.464  27.007  1.00  0.00    -0.206 F 
ATOM     68  C   UNL A   1      38.279  30.074  28.706  1.00  0.00     0.059 A 
ATOM     69  C   UNL A   1      39.049  30.223  31.003  1.00  0.00     0.059 A 
ATOM     70  F   UNL A   1      41.296  29.783  31.506  1.00  0.00    -0.206 F 
ATOM     71  C   UNL A   1      38.034  30.340  30.054  1.00  0.00     0.060 A 
BRANCH  71  72
ATOM     72  S   UNL A   1      36.371  30.832  30.556  1.00  0.00     0.124 S 
ATOM     73  O   UNL A   1      35.668  30.826  29.278  1.00  0.00    -0.237 OA
ATOM     74  O   UNL A   1      35.998  29.774  31.489  1.00  0.00    -0.237 OA
ATOM     75  O   UNL A   1      36.573  32.148  31.155  1.00  0.00    -0.744 OA
ENDBRANCH  71  72
ENDBRANCH  50  64
BRANCH  51  76
ATOM     76  C   UNL A   1      49.635  26.447  26.344  1.00  0.00     0.058 A 
ATOM     77  C   UNL A   1      50.053  26.654  25.021  1.00  0.00     0.135 A 
ATOM     78  C   UNL A   1      50.531  25.822  27.225  1.00  0.00     0.135 A 
ATOM     79  F   UNL A   1      49.226  27.237  24.141  1.00  0.00    -0.206 F 
ATOM     80  C   UNL A   1      51.312  26.254  24.586  1.00  0.00     0.059 A 
ATOM     81  C   UNL A   1      51.804  25.436  26.819  1.00  0.00     0.059 A 
ATOM     82  F   UNL A   1      50.183  25.614  28.505  1.00  0.00    -0.206 F 
ATOM     83  C   UNL A   1      52.182  25.650  25.495  1.00  0.00     0.060 A 
BRANCH  83  84
ATOM     84  S   UNL A   1      53.843  25.198  24.947  1.00  0.00     0.124 S 
ATOM     85  O   UNL A   1      54.667  25.786  25.995  1.00  0.00    -0.237 OA
ATOM     86  O   UNL A   1      53.778  23.739  24.928  1.00  0.00    -0.237 OA
ATOM     87  O   UNL A   1      53.943  25.827  23.633  1.00  0.00    -0.744 OA
ENDBRANCH  83  84
ENDBRANCH  51  76
BRANCH  63  88
ATOM     88  C   UNL A   1      47.111  32.616  28.333  1.00  0.00     0.058 A 
ATOM     89  C   UNL A   1      47.712  33.020  29.535  1.00  0.00     0.135 A 
ATOM     90  C   UNL A   1      47.117  33.517  27.257  1.00  0.00     0.135 A 
ATOM     91  F   UNL A   1      47.724  32.197  30.595  1.00  0.00    -0.206 F 
ATOM     92  C   UNL A   1      48.267  34.288  29.678  1.00  0.00     0.059 A 
ATOM     93  C   UNL A   1      47.686  34.782  27.371  1.00  0.00     0.059 A 
ATOM     94  F   UNL A   1      46.563  33.175  26.083  1.00  0.00    -0.206 F 
ATOM     95  C   UNL A   1      48.242  35.165  28.592  1.00  0.00     0.060 A 
BRANCH  95  96
ATOM     96  S   UNL A   1      48.955  36.811  28.787  1.00  0.00     0.124 S 
ATOM     97  O   UNL A   1      49.370  37.114  27.421  1.00  0.00    -0.237 OA
ATOM     98  O   UNL A   1      47.829  37.589  29.294  1.00  0.00    -0.237 OA
ATOM     99  O   UNL A   1      50.040  36.597  29.741  1.00  0.00    -0.744 OA
ENDBRANCH  95  96
ENDBRANCH  63  88
ENDBRANCH  37  38
ENDBRANCH  30  32
ENDBRANCH  29  30
ENDBRANCH  28  29
ENDBRANCH   1  28
TORSDOF 18
ENDMDL
