MODEL 1
REMARK VINA RESULT:     -10.8      0.000      0.000
REMARK SMILES O=C(Cc1ccn(C(F)F)c(=O)c1)OCCOC(=O)c1ccc(-c2c3nc(c(-c4c(F)cc(S(=O)(=O)[O-])cc4F)c4ccc([nH]4)c(-c4c(F)cc(S(=O)(=O)[O-])cc4F)c4nc(c(-c5c(F)cc(S(=O)(=O)[O-])cc5F)c5ccc2[nH]5)C=C4)C=C3)cc1
REMARK SMILES IDX 16 1 15 2 14 3 2 4 1 5 3 6 4 7 5 8 13 9 6 10 11 11 7 12
REMARK SMILES IDX 12 13 8 14 9 15 10 16 17 17 18 18 19 19 20 20 21 21 85 22
REMARK SMILES IDX 22 23 84 24 23 25 24 26 25 27 78 28 26 29 83 30 77 31 79 32
REMARK SMILES IDX 27 33 82 34 76 35 75 36 28 38 62 39 41 40 61 41 42 42 45 43
REMARK SMILES IDX 60 44 80 45 43 46 44 47 59 49 81 50 46 51 29 52 30 53 39 54
REMARK SMILES IDX 31 55 32 56 38 57 40 58 33 59 34 60 35 61 36 62 37 63 63 64
REMARK SMILES IDX 64 65 73 66 65 67 66 68 72 69 74 70 67 71 68 72 69 73 70 74
REMARK SMILES IDX 71 75 47 76 48 77 57 78 49 79 50 80 56 81 58 82 51 83 52 84
REMARK SMILES IDX 53 85 54 86 55 87
REMARK H PARENT 79 37 45 48
REMARK Flexibility Score: inf
ROOT
ATOM      1  C   UNL A   1      43.141  24.778  24.992  1.00  0.00     0.275 C 
ENDROOT
BRANCH   1   2
ATOM      2  C   UNL A   1      44.488  25.396  25.367  1.00  0.00     0.274 C 
BRANCH   2   3
ATOM      3  O   UNL A   1      45.573  24.737  24.673  1.00  0.00    -0.462 OA
BRANCH   3   4
ATOM      4  C   UNL A   1      46.208  23.609  25.071  1.00  0.00     0.310 C 
ATOM      5  O   UNL A   1      46.801  23.581  26.147  1.00  0.00    -0.252 OA
BRANCH   4   6
ATOM      6  C   UNL A   1      46.152  22.379  24.181  1.00  0.00     0.158 C 
BRANCH   6   7
ATOM      7  C   UNL A   1      45.401  21.204  24.740  1.00  0.00    -0.030 A 
ATOM      8  C   UNL A   1      44.102  21.493  25.320  1.00  0.00     0.023 A 
ATOM      9  C   UNL A   1      45.859  19.941  24.755  1.00  0.00     0.076 A 
ATOM     10  C   UNL A   1      43.384  20.521  25.890  1.00  0.00     0.095 A 
ATOM     11  C   UNL A   1      45.077  18.850  25.401  1.00  0.00     0.255 A 
ATOM     12  N   UNL A   1      43.854  19.221  25.936  1.00  0.00    -0.258 N 
ATOM     13  O   UNL A   1      45.567  17.726  25.446  1.00  0.00    -0.269 OA
BRANCH  12  14
ATOM     14  C   UNL A   1      43.085  18.194  26.588  1.00  0.00     0.451 C 
ATOM     15  F   UNL A   1      42.445  18.668  27.683  1.00  0.00    -0.185 F 
ATOM     16  F   UNL A   1      42.152  17.690  25.742  1.00  0.00    -0.185 F 
ENDBRANCH  12  14
ENDBRANCH   6   7
ENDBRANCH   4   6
ENDBRANCH   3   4
ENDBRANCH   2   3
ENDBRANCH   1   2
BRANCH   1  17
ATOM     17  O   UNL A   1      42.080  25.562  25.563  1.00  0.00    -0.458 OA
BRANCH  17  18
ATOM     18  C   UNL A   1      41.331  24.950  26.516  1.00  0.00     0.338 C 
ATOM     19  O   UNL A   1      41.054  23.765  26.571  1.00  0.00    -0.246 OA
BRANCH  18  20
ATOM     20  C   UNL A   1      41.088  25.917  27.613  1.00  0.00     0.060 A 
ATOM     21  C   UNL A   1      39.973  25.812  28.452  1.00  0.00     0.016 A 
ATOM     22  C   UNL A   1      41.968  26.999  27.747  1.00  0.00     0.016 A 
ATOM     23  C   UNL A   1      39.749  26.781  29.431  1.00  0.00     0.010 A 
ATOM     24  C   UNL A   1      41.747  27.964  28.734  1.00  0.00     0.010 A 
ATOM     25  C   UNL A   1      40.644  27.853  29.592  1.00  0.00    -0.014 A 
BRANCH  25  26
ATOM     26  C   UNL A   1      40.510  28.741  30.772  1.00  0.00     0.031 A 
ATOM     27  C   UNL A   1      41.391  28.609  31.977  1.00  0.00     0.074 A 
ATOM     28  C   UNL A   1      39.564  29.698  30.726  1.00  0.00     0.049 A 
ATOM     29  N   UNL A   1      41.467  29.396  33.019  1.00  0.00    -0.248 NA
ATOM     30  C   UNL A   1      42.299  27.453  32.026  1.00  0.00     0.031 C 
ATOM     31  C   UNL A   1      38.625  29.893  29.618  1.00  0.00     0.029 A 
ATOM     32  N   UNL A   1      39.239  30.687  31.617  1.00  0.00    -0.354 N 
ATOM     33  C   UNL A   1      42.446  28.851  33.840  1.00  0.00     0.074 A 
ATOM     34  C   UNL A   1      42.908  27.640  33.192  1.00  0.00     0.031 C 
ATOM     35  C   UNL A   1      37.848  30.954  29.885  1.00  0.00     0.029 A 
ATOM     36  C   UNL A   1      38.221  31.502  31.184  1.00  0.00     0.049 A 
ATOM     37  H   UNL A   1      39.692  30.803  32.484  1.00  0.00     0.167 HD
ATOM     38  C   UNL A   1      42.921  29.332  35.014  1.00  0.00     0.037 A 
ATOM     39  C   UNL A   1      37.654  32.577  31.763  1.00  0.00     0.037 A 
ATOM     40  C   UNL A   1      42.441  30.531  35.657  1.00  0.00     0.049 A 
ATOM     41  C   UNL A   1      38.174  33.065  33.083  1.00  0.00     0.074 A 
ATOM     42  C   UNL A   1      42.905  31.126  36.819  1.00  0.00     0.029 A 
ATOM     43  N   UNL A   1      41.379  31.305  35.213  1.00  0.00    -0.354 N 
ATOM     44  N   UNL A   1      39.168  32.595  33.797  1.00  0.00    -0.248 NA
ATOM     45  C   UNL A   1      37.503  34.230  33.675  1.00  0.00     0.031 C 
ATOM     46  C   UNL A   1      42.097  32.230  37.102  1.00  0.00     0.029 A 
ATOM     47  C   UNL A   1      41.155  32.352  36.093  1.00  0.00     0.049 A 
ATOM     48  H   UNL A   1      40.862  31.136  34.393  1.00  0.00     0.167 HD
ATOM     49  C   UNL A   1      39.254  33.417  34.913  1.00  0.00     0.074 A 
ATOM     50  C   UNL A   1      38.217  34.419  34.779  1.00  0.00     0.031 C 
ATOM     51  C   UNL A   1      40.119  33.344  35.953  1.00  0.00     0.037 A 
BRANCH  38  52
ATOM     52  C   UNL A   1      44.042  28.589  35.686  1.00  0.00     0.058 A 
ATOM     53  C   UNL A   1      43.779  27.553  36.595  1.00  0.00     0.135 A 
ATOM     54  C   UNL A   1      45.379  28.825  35.327  1.00  0.00     0.135 A 
ATOM     55  F   UNL A   1      42.519  27.292  36.978  1.00  0.00    -0.206 F 
ATOM     56  C   UNL A   1      44.802  26.774  37.124  1.00  0.00     0.059 A 
ATOM     57  C   UNL A   1      46.418  28.046  35.830  1.00  0.00     0.059 A 
ATOM     58  F   UNL A   1      45.682  29.802  34.459  1.00  0.00    -0.206 F 
ATOM     59  C   UNL A   1      46.119  27.023  36.729  1.00  0.00     0.060 A 
BRANCH  59  60
ATOM     60  S   UNL A   1      47.425  25.965  37.390  1.00  0.00     0.124 S 
ATOM     61  O   UNL A   1      48.292  25.815  36.225  1.00  0.00    -0.237 OA
ATOM     62  O   UNL A   1      47.961  26.777  38.478  1.00  0.00    -0.237 OA
ATOM     63  O   UNL A   1      46.713  24.761  37.801  1.00  0.00    -0.744 OA
ENDBRANCH  59  60
ENDBRANCH  38  52
BRANCH  39  64
ATOM     64  C   UNL A   1      36.554  33.285  31.061  1.00  0.00     0.058 A 
ATOM     65  C   UNL A   1      35.224  33.132  31.476  1.00  0.00     0.135 A 
ATOM     66  C   UNL A   1      36.818  34.166  30.001  1.00  0.00     0.135 A 
ATOM     67  F   UNL A   1      34.928  32.301  32.485  1.00  0.00    -0.206 F 
ATOM     68  C   UNL A   1      34.189  33.824  30.858  1.00  0.00     0.059 A 
ATOM     69  C   UNL A   1      35.802  34.885  29.382  1.00  0.00     0.059 A 
ATOM     70  F   UNL A   1      38.079  34.360  29.586  1.00  0.00    -0.206 F 
ATOM     71  C   UNL A   1      34.489  34.702  29.815  1.00  0.00     0.060 A 
BRANCH  71  72
ATOM     72  S   UNL A   1      33.143  35.643  29.065  1.00  0.00     0.124 S 
ATOM     73  O   UNL A   1      32.421  34.599  28.347  1.00  0.00    -0.237 OA
ATOM     74  O   UNL A   1      32.469  36.198  30.235  1.00  0.00    -0.237 OA
ATOM     75  O   UNL A   1      33.840  36.618  28.232  1.00  0.00    -0.744 OA
ENDBRANCH  71  72
ENDBRANCH  39  64
BRANCH  51  76
ATOM     76  C   UNL A   1      39.996  34.376  37.038  1.00  0.00     0.058 A 
ATOM     77  C   UNL A   1      40.716  35.579  36.985  1.00  0.00     0.135 A 
ATOM     78  C   UNL A   1      39.078  34.204  38.087  1.00  0.00     0.135 A 
ATOM     79  F   UNL A   1      41.615  35.785  36.010  1.00  0.00    -0.206 F 
ATOM     80  C   UNL A   1      40.526  36.580  37.932  1.00  0.00     0.059 A 
ATOM     81  C   UNL A   1      38.857  35.201  39.032  1.00  0.00     0.059 A 
ATOM     82  F   UNL A   1      38.361  33.073  38.178  1.00  0.00    -0.206 F 
ATOM     83  C   UNL A   1      39.587  36.386  38.947  1.00  0.00     0.060 A 
BRANCH  83  84
ATOM     84  S   UNL A   1      39.296  37.727  40.121  1.00  0.00     0.124 S 
ATOM     85  O   UNL A   1      39.047  36.990  41.355  1.00  0.00    -0.237 OA
ATOM     86  O   UNL A   1      40.553  38.467  40.065  1.00  0.00    -0.237 OA
ATOM     87  O   UNL A   1      38.141  38.423  39.562  1.00  0.00    -0.744 OA
ENDBRANCH  83  84
ENDBRANCH  51  76
ENDBRANCH  25  26
ENDBRANCH  18  20
ENDBRANCH  17  18
ENDBRANCH   1  17
TORSDOF 16
ENDMDL
MODEL 2
REMARK VINA RESULT:     -10.6      4.676     12.291
REMARK SMILES O=C(Cc1ccn(C(F)F)c(=O)c1)OCCOC(=O)c1ccc(-c2c3nc(c(-c4c(F)cc(S(=O)(=O)[O-])cc4F)c4ccc([nH]4)c(-c4c(F)cc(S(=O)(=O)[O-])cc4F)c4nc(c(-c5c(F)cc(S(=O)(=O)[O-])cc5F)c5ccc2[nH]5)C=C4)C=C3)cc1
REMARK SMILES IDX 16 1 15 2 14 3 2 4 1 5 3 6 4 7 5 8 13 9 6 10 11 11 7 12
REMARK SMILES IDX 12 13 8 14 9 15 10 16 17 17 18 18 19 19 20 20 21 21 85 22
REMARK SMILES IDX 22 23 84 24 23 25 24 26 25 27 78 28 26 29 83 30 77 31 79 32
REMARK SMILES IDX 27 33 82 34 76 35 75 36 28 38 62 39 41 40 61 41 42 42 45 43
REMARK SMILES IDX 60 44 80 45 43 46 44 47 59 49 81 50 46 51 29 52 30 53 39 54
REMARK SMILES IDX 31 55 32 56 38 57 40 58 33 59 34 60 35 61 36 62 37 63 63 64
REMARK SMILES IDX 64 65 73 66 65 67 66 68 72 69 74 70 67 71 68 72 69 73 70 74
REMARK SMILES IDX 71 75 47 76 48 77 57 78 49 79 50 80 56 81 58 82 51 83 52 84
REMARK SMILES IDX 53 85 54 86 55 87
REMARK H PARENT 79 37 45 48
REMARK Flexibility Score: inf
ROOT
ATOM      1  C   UNL A   1      33.164  32.753  27.880  1.00  0.00     0.275 C 
ENDROOT
BRANCH   1   2
ATOM      2  C   UNL A   1      33.372  34.252  28.104  1.00  0.00     0.274 C 
BRANCH   2   3
ATOM      3  O   UNL A   1      32.686  34.700  29.295  1.00  0.00    -0.462 OA
BRANCH   3   4
ATOM      4  C   UNL A   1      32.990  35.798  30.028  1.00  0.00     0.310 C 
ATOM      5  O   UNL A   1      33.012  36.907  29.498  1.00  0.00    -0.252 OA
BRANCH   4   6
ATOM      6  C   UNL A   1      33.274  35.638  31.512  1.00  0.00     0.158 C 
BRANCH   6   7
ATOM      7  C   UNL A   1      34.286  34.588  31.872  1.00  0.00    -0.030 A 
ATOM      8  C   UNL A   1      34.163  34.013  33.199  1.00  0.00     0.023 A 
ATOM      9  C   UNL A   1      35.281  34.178  31.069  1.00  0.00     0.076 A 
ATOM     10  C   UNL A   1      35.050  33.110  33.629  1.00  0.00     0.095 A 
ATOM     11  C   UNL A   1      36.286  33.184  31.540  1.00  0.00     0.255 A 
ATOM     12  N   UNL A   1      36.095  32.697  32.823  1.00  0.00    -0.258 N 
ATOM     13  O   UNL A   1      37.214  32.890  30.793  1.00  0.00    -0.269 OA
BRANCH  12  14
ATOM     14  C   UNL A   1      37.063  31.753  33.316  1.00  0.00     0.451 C 
ATOM     15  F   UNL A   1      37.138  31.772  34.668  1.00  0.00    -0.185 F 
ATOM     16  F   UNL A   1      36.735  30.493  32.933  1.00  0.00    -0.185 F 
ENDBRANCH  12  14
ENDBRANCH   6   7
ENDBRANCH   4   6
ENDBRANCH   3   4
ENDBRANCH   2   3
ENDBRANCH   1   2
BRANCH   1  17
ATOM     17  O   UNL A   1      34.284  32.030  28.418  1.00  0.00    -0.458 OA
BRANCH  17  18
ATOM     18  C   UNL A   1      34.343  30.709  28.114  1.00  0.00     0.338 C 
ATOM     19  O   UNL A   1      33.471  30.047  27.580  1.00  0.00    -0.246 OA
BRANCH  18  20
ATOM     20  C   UNL A   1      35.733  30.241  28.328  1.00  0.00     0.060 A 
ATOM     21  C   UNL A   1      36.651  30.155  27.275  1.00  0.00     0.016 A 
ATOM     22  C   UNL A   1      36.094  29.806  29.611  1.00  0.00     0.016 A 
ATOM     23  C   UNL A   1      37.930  29.649  27.510  1.00  0.00     0.010 A 
ATOM     24  C   UNL A   1      37.378  29.307  29.846  1.00  0.00     0.010 A 
ATOM     25  C   UNL A   1      38.309  29.239  28.801  1.00  0.00    -0.014 A 
BRANCH  25  26
ATOM     26  C   UNL A   1      39.731  28.916  29.073  1.00  0.00     0.031 A 
ATOM     27  C   UNL A   1      40.324  27.579  28.746  1.00  0.00     0.074 A 
ATOM     28  C   UNL A   1      40.494  29.880  29.622  1.00  0.00     0.049 A 
ATOM     29  N   UNL A   1      41.576  27.207  28.813  1.00  0.00    -0.248 NA
ATOM     30  C   UNL A   1      39.405  26.526  28.291  1.00  0.00     0.031 C 
ATOM     31  C   UNL A   1      40.010  31.206  30.015  1.00  0.00     0.029 A 
ATOM     32  N   UNL A   1      41.828  29.904  29.934  1.00  0.00    -0.354 N 
ATOM     33  C   UNL A   1      41.606  25.886  28.385  1.00  0.00     0.074 A 
ATOM     34  C   UNL A   1      40.238  25.507  28.100  1.00  0.00     0.031 C 
ATOM     35  C   UNL A   1      41.040  31.923  30.492  1.00  0.00     0.029 A 
ATOM     36  C   UNL A   1      42.247  31.105  30.453  1.00  0.00     0.049 A 
ATOM     37  H   UNL A   1      42.428  29.135  29.799  1.00  0.00     0.167 HD
ATOM     38  C   UNL A   1      42.683  25.077  28.231  1.00  0.00     0.037 A 
ATOM     39  C   UNL A   1      43.469  31.510  30.847  1.00  0.00     0.037 A 
ATOM     40  C   UNL A   1      44.040  25.461  28.534  1.00  0.00     0.049 A 
ATOM     41  C   UNL A   1      44.637  30.579  30.702  1.00  0.00     0.074 A 
ATOM     42  C   UNL A   1      45.200  24.725  28.353  1.00  0.00     0.029 A 
ATOM     43  N   UNL A   1      44.421  26.668  29.100  1.00  0.00    -0.354 N 
ATOM     44  N   UNL A   1      44.663  29.368  30.202  1.00  0.00    -0.248 NA
ATOM     45  C   UNL A   1      45.942  31.068  31.168  1.00  0.00     0.031 C 
ATOM     46  C   UNL A   1      46.275  25.468  28.850  1.00  0.00     0.029 A 
ATOM     47  C   UNL A   1      45.792  26.685  29.302  1.00  0.00     0.049 A 
ATOM     48  H   UNL A   1      43.808  27.405  29.325  1.00  0.00     0.167 HD
ATOM     49  C   UNL A   1      45.987  28.956  30.275  1.00  0.00     0.074 A 
ATOM     50  C   UNL A   1      46.736  30.049  30.861  1.00  0.00     0.031 C 
ATOM     51  C   UNL A   1      46.529  27.777  29.888  1.00  0.00     0.037 A 
BRANCH  38  52
ATOM     52  C   UNL A   1      42.462  23.695  27.683  1.00  0.00     0.058 A 
ATOM     53  C   UNL A   1      42.412  23.466  26.300  1.00  0.00     0.135 A 
ATOM     54  C   UNL A   1      42.427  22.579  28.535  1.00  0.00     0.135 A 
ATOM     55  F   UNL A   1      42.434  24.498  25.441  1.00  0.00    -0.206 F 
ATOM     56  C   UNL A   1      42.338  22.179  25.779  1.00  0.00     0.059 A 
ATOM     57  C   UNL A   1      42.371  21.281  28.036  1.00  0.00     0.059 A 
ATOM     58  F   UNL A   1      42.475  22.746  29.867  1.00  0.00    -0.206 F 
ATOM     59  C   UNL A   1      42.326  21.091  26.656  1.00  0.00     0.060 A 
BRANCH  59  60
ATOM     60  S   UNL A   1      42.281  19.427  25.955  1.00  0.00     0.124 S 
ATOM     61  O   UNL A   1      40.870  19.299  25.604  1.00  0.00    -0.237 OA
ATOM     62  O   UNL A   1      43.204  19.539  24.830  1.00  0.00    -0.237 OA
ATOM     63  O   UNL A   1      42.734  18.582  27.054  1.00  0.00    -0.744 OA
ENDBRANCH  59  60
ENDBRANCH  38  52
BRANCH  39  64
ATOM     64  C   UNL A   1      43.644  32.885  31.376  1.00  0.00     0.058 A 
ATOM     65  C   UNL A   1      43.835  33.969  30.508  1.00  0.00     0.135 A 
ATOM     66  C   UNL A   1      43.571  33.148  32.753  1.00  0.00     0.135 A 
ATOM     67  F   UNL A   1      43.910  33.763  29.185  1.00  0.00    -0.206 F 
ATOM     68  C   UNL A   1      43.954  35.268  30.986  1.00  0.00     0.059 A 
ATOM     69  C   UNL A   1      43.666  34.442  33.253  1.00  0.00     0.059 A 
ATOM     70  F   UNL A   1      43.368  32.144  33.619  1.00  0.00    -0.206 F 
ATOM     71  C   UNL A   1      43.863  35.495  32.360  1.00  0.00     0.060 A 
BRANCH  71  72
ATOM     72  S   UNL A   1      43.954  37.194  32.963  1.00  0.00     0.124 S 
ATOM     73  O   UNL A   1      42.802  37.249  33.856  1.00  0.00    -0.237 OA
ATOM     74  O   UNL A   1      45.264  37.221  33.608  1.00  0.00    -0.237 OA
ATOM     75  O   UNL A   1      43.847  37.989  31.744  1.00  0.00    -0.744 OA
ENDBRANCH  71  72
ENDBRANCH  39  64
BRANCH  51  76
ATOM     76  C   UNL A   1      48.009  27.592  30.075  1.00  0.00     0.058 A 
ATOM     77  C   UNL A   1      48.527  26.991  31.231  1.00  0.00     0.135 A 
ATOM     78  C   UNL A   1      48.906  27.930  29.049  1.00  0.00     0.135 A 
ATOM     79  F   UNL A   1      47.712  26.661  32.245  1.00  0.00    -0.206 F 
ATOM     80  C   UNL A   1      49.886  26.724  31.362  1.00  0.00     0.059 A 
ATOM     81  C   UNL A   1      50.266  27.653  29.151  1.00  0.00     0.059 A 
ATOM     82  F   UNL A   1      48.458  28.504  27.921  1.00  0.00    -0.206 F 
ATOM     83  C   UNL A   1      50.747  27.050  30.312  1.00  0.00     0.060 A 
BRANCH  83  84
ATOM     84  S   UNL A   1      52.495  26.624  30.465  1.00  0.00     0.124 S 
ATOM     85  O   UNL A   1      52.444  25.497  31.390  1.00  0.00    -0.237 OA
ATOM     86  O   UNL A   1      52.858  26.300  29.089  1.00  0.00    -0.237 OA
ATOM     87  O   UNL A   1      53.097  27.844  30.995  1.00  0.00    -0.744 OA
ENDBRANCH  83  84
ENDBRANCH  51  76
ENDBRANCH  25  26
ENDBRANCH  18  20
ENDBRANCH  17  18
ENDBRANCH   1  17
TORSDOF 16
ENDMDL
MODEL 3
REMARK VINA RESULT:     -10.6      2.345      3.426
REMARK SMILES O=C(Cc1ccn(C(F)F)c(=O)c1)OCCOC(=O)c1ccc(-c2c3nc(c(-c4c(F)cc(S(=O)(=O)[O-])cc4F)c4ccc([nH]4)c(-c4c(F)cc(S(=O)(=O)[O-])cc4F)c4nc(c(-c5c(F)cc(S(=O)(=O)[O-])cc5F)c5ccc2[nH]5)C=C4)C=C3)cc1
REMARK SMILES IDX 16 1 15 2 14 3 2 4 1 5 3 6 4 7 5 8 13 9 6 10 11 11 7 12
REMARK SMILES IDX 12 13 8 14 9 15 10 16 17 17 18 18 19 19 20 20 21 21 85 22
REMARK SMILES IDX 22 23 84 24 23 25 24 26 25 27 78 28 26 29 83 30 77 31 79 32
REMARK SMILES IDX 27 33 82 34 76 35 75 36 28 38 62 39 41 40 61 41 42 42 45 43
REMARK SMILES IDX 60 44 80 45 43 46 44 47 59 49 81 50 46 51 29 52 30 53 39 54
REMARK SMILES IDX 31 55 32 56 38 57 40 58 33 59 34 60 35 61 36 62 37 63 63 64
REMARK SMILES IDX 64 65 73 66 65 67 66 68 72 69 74 70 67 71 68 72 69 73 70 74
REMARK SMILES IDX 71 75 47 76 48 77 57 78 49 79 50 80 56 81 58 82 51 83 52 84
REMARK SMILES IDX 53 85 54 86 55 87
REMARK H PARENT 79 37 45 48
REMARK Flexibility Score: inf
ROOT
ATOM      1  C   UNL A   1      43.675  23.900  25.069  1.00  0.00     0.275 C 
ENDROOT
BRANCH   1   2
ATOM      2  C   UNL A   1      43.747  22.411  25.410  1.00  0.00     0.274 C 
BRANCH   2   3
ATOM      3  O   UNL A   1      42.428  21.821  25.444  1.00  0.00    -0.462 OA
BRANCH   3   4
ATOM      4  C   UNL A   1      41.831  21.259  26.522  1.00  0.00     0.310 C 
ATOM      5  O   UNL A   1      42.134  20.120  26.872  1.00  0.00    -0.252 OA
BRANCH   4   6
ATOM      6  C   UNL A   1      40.808  22.067  27.303  1.00  0.00     0.158 C 
BRANCH   6   7
ATOM      7  C   UNL A   1      39.526  22.367  26.580  1.00  0.00    -0.030 A 
ATOM      8  C   UNL A   1      39.008  23.714  26.732  1.00  0.00     0.023 A 
ATOM      9  C   UNL A   1      38.840  21.481  25.840  1.00  0.00     0.076 A 
ATOM     10  C   UNL A   1      37.846  24.059  26.170  1.00  0.00     0.095 A 
ATOM     11  C   UNL A   1      37.535  21.846  25.220  1.00  0.00     0.255 A 
ATOM     12  N   UNL A   1      37.115  23.150  25.427  1.00  0.00    -0.258 N 
ATOM     13  O   UNL A   1      36.915  20.982  24.608  1.00  0.00    -0.269 OA
BRANCH  12  14
ATOM     14  C   UNL A   1      35.847  23.527  24.861  1.00  0.00     0.451 C 
ATOM     15  F   UNL A   1      35.344  24.635  25.454  1.00  0.00    -0.185 F 
ATOM     16  F   UNL A   1      35.976  23.784  23.535  1.00  0.00    -0.185 F 
ENDBRANCH  12  14
ENDBRANCH   6   7
ENDBRANCH   4   6
ENDBRANCH   3   4
ENDBRANCH   2   3
ENDBRANCH   1   2
BRANCH   1  17
ATOM     17  O   UNL A   1      42.956  24.593  26.103  1.00  0.00    -0.458 OA
BRANCH  17  18
ATOM     18  C   UNL A   1      42.571  25.863  25.815  1.00  0.00     0.338 C 
ATOM     19  O   UNL A   1      42.285  26.303  24.716  1.00  0.00    -0.246 OA
BRANCH  18  20
ATOM     20  C   UNL A   1      42.334  26.580  27.090  1.00  0.00     0.060 A 
ATOM     21  C   UNL A   1      43.089  27.701  27.454  1.00  0.00     0.016 A 
ATOM     22  C   UNL A   1      41.378  26.061  27.973  1.00  0.00     0.016 A 
ATOM     23  C   UNL A   1      42.875  28.308  28.693  1.00  0.00     0.010 A 
ATOM     24  C   UNL A   1      41.159  26.674  29.210  1.00  0.00     0.010 A 
ATOM     25  C   UNL A   1      41.896  27.810  29.572  1.00  0.00    -0.014 A 
BRANCH  25  26
ATOM     26  C   UNL A   1      41.535  28.595  30.777  1.00  0.00     0.031 A 
ATOM     27  C   UNL A   1      42.302  28.490  32.060  1.00  0.00     0.074 A 
ATOM     28  C   UNL A   1      40.483  29.430  30.683  1.00  0.00     0.049 A 
ATOM     29  N   UNL A   1      42.174  29.210  33.145  1.00  0.00    -0.248 NA
ATOM     30  C   UNL A   1      43.340  27.453  32.143  1.00  0.00     0.031 C 
ATOM     31  C   UNL A   1      39.641  29.582  29.493  1.00  0.00     0.029 A 
ATOM     32  N   UNL A   1      39.948  30.310  31.586  1.00  0.00    -0.354 N 
ATOM     33  C   UNL A   1      43.128  28.734  34.035  1.00  0.00     0.074 A 
ATOM     34  C   UNL A   1      43.802  27.635  33.376  1.00  0.00     0.031 C 
ATOM     35  C   UNL A   1      38.712  30.521  29.732  1.00  0.00     0.029 A 
ATOM     36  C   UNL A   1      38.881  31.022  31.091  1.00  0.00     0.049 A 
ATOM     37  H   UNL A   1      40.294  30.422  32.501  1.00  0.00     0.167 HD
ATOM     38  C   UNL A   1      43.419  29.191  35.277  1.00  0.00     0.037 A 
ATOM     39  C   UNL A   1      38.128  31.980  31.664  1.00  0.00     0.037 A 
ATOM     40  C   UNL A   1      42.729  30.277  35.929  1.00  0.00     0.049 A 
ATOM     41  C   UNL A   1      38.448  32.438  33.056  1.00  0.00     0.074 A 
ATOM     42  C   UNL A   1      42.996  30.845  37.164  1.00  0.00     0.029 A 
ATOM     43  N   UNL A   1      41.626  30.944  35.416  1.00  0.00    -0.354 N 
ATOM     44  N   UNL A   1      39.419  32.047  33.845  1.00  0.00    -0.248 NA
ATOM     45  C   UNL A   1      37.578  33.471  33.635  1.00  0.00     0.031 C 
ATOM     46  C   UNL A   1      42.029  31.822  37.418  1.00  0.00     0.029 A 
ATOM     47  C   UNL A   1      41.184  31.894  36.323  1.00  0.00     0.049 A 
ATOM     48  H   UNL A   1      41.218  30.768  34.539  1.00  0.00     0.167 HD
ATOM     49  C   UNL A   1      39.289  32.797  35.007  1.00  0.00     0.074 A 
ATOM     50  C   UNL A   1      38.150  33.672  34.817  1.00  0.00     0.031 C 
ATOM     51  C   UNL A   1      40.049  32.760  36.127  1.00  0.00     0.037 A 
BRANCH  38  52
ATOM     52  C   UNL A   1      44.554  28.546  36.024  1.00  0.00     0.058 A 
ATOM     53  C   UNL A   1      44.333  27.443  36.861  1.00  0.00     0.135 A 
ATOM     54  C   UNL A   1      45.881  28.950  35.804  1.00  0.00     0.135 A 
ATOM     55  F   UNL A   1      43.083  27.022  37.111  1.00  0.00    -0.206 F 
ATOM     56  C   UNL A   1      45.389  26.759  37.454  1.00  0.00     0.059 A 
ATOM     57  C   UNL A   1      46.954  28.269  36.373  1.00  0.00     0.059 A 
ATOM     58  F   UNL A   1      46.145  29.998  35.008  1.00  0.00    -0.206 F 
ATOM     59  C   UNL A   1      46.698  27.175  37.198  1.00  0.00     0.060 A 
BRANCH  59  60
ATOM     60  S   UNL A   1      48.054  26.240  37.938  1.00  0.00     0.124 S 
ATOM     61  O   UNL A   1      47.419  24.947  38.175  1.00  0.00    -0.237 OA
ATOM     62  O   UNL A   1      49.061  26.266  36.882  1.00  0.00    -0.237 OA
ATOM     63  O   UNL A   1      48.382  27.006  39.135  1.00  0.00    -0.744 OA
ENDBRANCH  59  60
ENDBRANCH  38  52
BRANCH  39  64
ATOM     64  C   UNL A   1      37.021  32.594  30.888  1.00  0.00     0.058 A 
ATOM     65  C   UNL A   1      35.703  32.138  31.035  1.00  0.00     0.135 A 
ATOM     66  C   UNL A   1      37.252  33.679  30.028  1.00  0.00     0.135 A 
ATOM     67  F   UNL A   1      35.439  31.104  31.847  1.00  0.00    -0.206 F 
ATOM     68  C   UNL A   1      34.651  32.733  30.351  1.00  0.00     0.059 A 
ATOM     69  C   UNL A   1      36.212  34.304  29.349  1.00  0.00     0.059 A 
ATOM     70  F   UNL A   1      38.494  34.162  29.874  1.00  0.00    -0.206 F 
ATOM     71  C   UNL A   1      34.915  33.819  29.514  1.00  0.00     0.060 A 
BRANCH  71  72
ATOM     72  S   UNL A   1      33.530  34.624  28.682  1.00  0.00     0.124 S 
ATOM     73  O   UNL A   1      34.193  35.752  28.038  1.00  0.00    -0.237 OA
ATOM     74  O   UNL A   1      33.052  33.570  27.791  1.00  0.00    -0.237 OA
ATOM     75  O   UNL A   1      32.629  34.963  29.779  1.00  0.00    -0.744 OA
ENDBRANCH  71  72
ENDBRANCH  39  64
BRANCH  51  76
ATOM     76  C   UNL A   1      39.688  33.695  37.247  1.00  0.00     0.058 A 
ATOM     77  C   UNL A   1      38.800  33.309  38.261  1.00  0.00     0.135 A 
ATOM     78  C   UNL A   1      40.312  34.949  37.359  1.00  0.00     0.135 A 
ATOM     79  F   UNL A   1      38.169  32.127  38.192  1.00  0.00    -0.206 F 
ATOM     80  C   UNL A   1      38.545  34.132  39.353  1.00  0.00     0.059 A 
ATOM     81  C   UNL A   1      40.087  35.778  38.454  1.00  0.00     0.059 A 
ATOM     82  F   UNL A   1      41.174  35.361  36.416  1.00  0.00    -0.206 F 
ATOM     83  C   UNL A   1      39.201  35.361  39.446  1.00  0.00     0.060 A 
BRANCH  83  84
ATOM     84  S   UNL A   1      38.920  36.381  40.910  1.00  0.00     0.124 S 
ATOM     85  O   UNL A   1      38.533  37.654  40.312  1.00  0.00    -0.237 OA
ATOM     86  O   UNL A   1      37.858  35.653  41.597  1.00  0.00    -0.237 OA
ATOM     87  O   UNL A   1      40.215  36.372  41.584  1.00  0.00    -0.744 OA
ENDBRANCH  83  84
ENDBRANCH  51  76
ENDBRANCH  25  26
ENDBRANCH  18  20
ENDBRANCH  17  18
ENDBRANCH   1  17
TORSDOF 16
ENDMDL
