MODEL 1
REMARK VINA RESULT:     -10.3      0.000      0.000
REMARK SMILES COc1ccc2c(c1)[C@H]([NH2+][C@@H](C(=O)OCCOC(=O)c1ccc(-c3c4nc(c(-c5c(F)cc(S(=O)(=O)[O-])cc5F)c5ccc([nH]5)c(-c5c(F)cc(S(=O)(=O)[O-])cc5F)c5nc(c(-c6c(F)cc(S(=O)(=O)[O-])cc6F)c6ccc3[nH]6)C=C5)C=C4)cc1)C1CC1)CC2
REMARK SMILES IDX 15 1 14 2 12 3 13 4 11 5 10 6 9 9 3 10 4 11 8 12 5 13 7 14
REMARK SMILES IDX 6 15 90 16 89 17 2 18 1 19 86 20 87 21 88 22 16 23 17 24
REMARK SMILES IDX 18 25 19 26 20 27 21 28 85 29 22 30 84 31 23 32 24 33 25 34
REMARK SMILES IDX 78 35 26 36 83 37 77 38 79 39 27 40 82 41 76 42 75 43 28 45
REMARK SMILES IDX 62 46 41 47 61 48 42 49 45 50 60 51 80 52 43 53 44 54 59 56
REMARK SMILES IDX 81 57 46 58 29 59 30 60 39 61 31 62 32 63 38 64 40 65 33 66
REMARK SMILES IDX 34 67 35 68 36 69 37 70 63 71 64 72 73 73 65 74 66 75 72 76
REMARK SMILES IDX 74 77 67 78 68 79 69 80 70 81 71 82 47 83 48 84 57 85 49 86
REMARK SMILES IDX 50 87 56 88 58 89 51 90 52 91 53 92 54 93 55 94
REMARK H PARENT 10 7 10 8 79 44 45 55
REMARK Flexibility Score: inf
ROOT
ATOM      1  C   UNL A   1      31.871  29.116  25.799  1.00  0.00     0.274 C 
ENDROOT
BRANCH   1   2
ATOM      2  O   UNL A   1      31.909  27.918  25.006  1.00  0.00    -0.458 OA
BRANCH   2   3
ATOM      3  C   UNL A   1      33.012  27.774  24.204  1.00  0.00     0.365 C 
ATOM      4  O   UNL A   1      33.581  28.730  23.691  1.00  0.00    -0.245 OA
BRANCH   3   5
ATOM      5  C   UNL A   1      33.362  26.278  23.971  1.00  0.00     0.297 C 
BRANCH   5   6
ATOM      6  N   UNL A   1      34.503  25.879  24.836  1.00  0.00    -0.328 N 
ATOM      7  H   UNL A   1      35.343  25.988  24.268  1.00  0.00     0.347 HD
ATOM      8  H   UNL A   1      34.371  26.478  25.651  1.00  0.00     0.347 HD
BRANCH   6   9
ATOM      9  C   UNL A   1      34.591  24.553  25.445  1.00  0.00     0.215 C 
ATOM     10  C   UNL A   1      31.003  23.657  26.397  1.00  0.00     0.119 A 
ATOM     11  C   UNL A   1      30.974  22.360  25.865  1.00  0.00     0.047 A 
ATOM     12  C   UNL A   1      32.185  24.390  26.392  1.00  0.00     0.056 A 
ATOM     13  C   UNL A   1      32.138  21.780  25.346  1.00  0.00     0.008 A 
ATOM     14  C   UNL A   1      33.301  23.857  25.768  1.00  0.00     0.016 A 
ATOM     15  C   UNL A   1      33.295  22.542  25.297  1.00  0.00    -0.038 A 
ATOM     16  C   UNL A   1      34.641  22.150  24.778  1.00  0.00     0.042 C 
ATOM     17  C   UNL A   1      35.311  23.515  24.544  1.00  0.00     0.075 C 
BRANCH  10  18
ATOM     18  O   UNL A   1      29.898  24.346  26.816  1.00  0.00    -0.497 OA
ATOM     19  C   UNL A   1      29.628  25.517  26.062  1.00  0.00     0.278 C 
ENDBRANCH  10  18
ENDBRANCH   6   9
ENDBRANCH   5   6
BRANCH   5  20
ATOM     20  C   UNL A   1      33.528  25.860  22.513  1.00  0.00     0.059 C 
ATOM     21  C   UNL A   1      32.905  24.540  22.096  1.00  0.00     0.011 C 
ATOM     22  C   UNL A   1      32.469  25.803  21.425  1.00  0.00     0.011 C 
ENDBRANCH   5  20
ENDBRANCH   3   5
ENDBRANCH   2   3
ENDBRANCH   1   2
BRANCH   1  23
ATOM     23  C   UNL A   1      32.278  28.845  27.252  1.00  0.00     0.275 C 
BRANCH  23  24
ATOM     24  O   UNL A   1      33.708  28.813  27.422  1.00  0.00    -0.458 OA
BRANCH  24  25
ATOM     25  C   UNL A   1      34.264  29.990  27.801  1.00  0.00     0.338 C 
ATOM     26  O   UNL A   1      33.681  31.055  27.954  1.00  0.00    -0.246 OA
BRANCH  25  27
ATOM     27  C   UNL A   1      35.676  29.803  28.198  1.00  0.00     0.060 A 
ATOM     28  C   UNL A   1      36.640  30.000  27.204  1.00  0.00     0.016 A 
ATOM     29  C   UNL A   1      36.069  29.419  29.481  1.00  0.00     0.016 A 
ATOM     30  C   UNL A   1      37.992  29.846  27.484  1.00  0.00     0.010 A 
ATOM     31  C   UNL A   1      37.430  29.225  29.756  1.00  0.00     0.010 A 
ATOM     32  C   UNL A   1      38.395  29.433  28.755  1.00  0.00    -0.014 A 
BRANCH  32  33
ATOM     33  C   UNL A   1      39.816  29.072  28.956  1.00  0.00     0.031 A 
ATOM     34  C   UNL A   1      40.733  30.096  29.560  1.00  0.00     0.074 A 
ATOM     35  C   UNL A   1      40.263  27.833  28.684  1.00  0.00     0.049 A 
ATOM     36  N   UNL A   1      41.999  29.998  29.867  1.00  0.00    -0.248 NA
ATOM     37  C   UNL A   1      40.133  31.402  29.878  1.00  0.00     0.031 C 
ATOM     38  C   UNL A   1      39.448  26.733  28.171  1.00  0.00     0.029 A 
ATOM     39  N   UNL A   1      41.518  27.292  28.811  1.00  0.00    -0.354 N 
ATOM     40  C   UNL A   1      42.347  31.222  30.424  1.00  0.00     0.074 A 
ATOM     41  C   UNL A   1      41.164  32.055  30.393  1.00  0.00     0.031 C 
ATOM     42  C   UNL A   1      40.230  25.650  28.009  1.00  0.00     0.029 A 
ATOM     43  C   UNL A   1      41.604  25.989  28.383  1.00  0.00     0.049 A 
ATOM     44  H   UNL A   1      42.286  27.791  29.174  1.00  0.00     0.167 HD
ATOM     45  C   UNL A   1      43.544  31.617  30.915  1.00  0.00     0.037 A 
ATOM     46  C   UNL A   1      42.673  25.174  28.289  1.00  0.00     0.037 A 
ATOM     47  C   UNL A   1      44.730  30.801  30.901  1.00  0.00     0.049 A 
ATOM     48  C   UNL A   1      44.024  25.676  28.743  1.00  0.00     0.074 A 
ATOM     49  C   UNL A   1      46.002  31.124  31.338  1.00  0.00     0.029 A 
ATOM     50  N   UNL A   1      44.792  29.504  30.411  1.00  0.00    -0.354 N 
ATOM     51  N   UNL A   1      44.342  26.835  29.270  1.00  0.00    -0.248 NA
ATOM     52  C   UNL A   1      45.160  24.754  28.596  1.00  0.00     0.031 C 
ATOM     53  C   UNL A   1      46.846  30.042  31.061  1.00  0.00     0.029 A 
ATOM     54  C   UNL A   1      46.085  29.020  30.515  1.00  0.00     0.049 A 
ATOM     55  H   UNL A   1      44.029  29.002  30.044  1.00  0.00     0.167 HD
ATOM     56  C   UNL A   1      45.703  26.764  29.559  1.00  0.00     0.074 A 
ATOM     57  C   UNL A   1      46.145  25.448  29.149  1.00  0.00     0.031 C 
ATOM     58  C   UNL A   1      46.509  27.698  30.122  1.00  0.00     0.037 A 
BRANCH  45  59
ATOM     59  C   UNL A   1      43.635  33.014  31.458  1.00  0.00     0.058 A 
ATOM     60  C   UNL A   1      43.981  34.104  30.642  1.00  0.00     0.135 A 
ATOM     61  C   UNL A   1      43.372  33.267  32.814  1.00  0.00     0.135 A 
ATOM     62  F   UNL A   1      44.266  33.913  29.345  1.00  0.00    -0.206 F 
ATOM     63  C   UNL A   1      44.090  35.391  31.159  1.00  0.00     0.059 A 
ATOM     64  C   UNL A   1      43.450  34.550  33.346  1.00  0.00     0.059 A 
ATOM     65  F   UNL A   1      43.046  32.260  33.639  1.00  0.00    -0.206 F 
ATOM     66  C   UNL A   1      43.825  35.603  32.512  1.00  0.00     0.060 A 
BRANCH  66  67
ATOM     67  S   UNL A   1      43.981  37.277  33.171  1.00  0.00     0.124 S 
ATOM     68  O   UNL A   1      45.311  37.229  33.770  1.00  0.00    -0.237 OA
ATOM     69  O   UNL A   1      43.856  38.097  31.970  1.00  0.00    -0.237 OA
ATOM     70  O   UNL A   1      42.872  37.377  34.114  1.00  0.00    -0.744 OA
ENDBRANCH  66  67
ENDBRANCH  45  59
BRANCH  46  71
ATOM     71  C   UNL A   1      42.528  23.803  27.726  1.00  0.00     0.058 A 
ATOM     72  C   UNL A   1      42.403  22.680  28.557  1.00  0.00     0.135 A 
ATOM     73  C   UNL A   1      42.548  23.585  26.339  1.00  0.00     0.135 A 
ATOM     74  F   UNL A   1      42.393  22.832  29.891  1.00  0.00    -0.206 F 
ATOM     75  C   UNL A   1      42.328  21.391  28.038  1.00  0.00     0.059 A 
ATOM     76  C   UNL A   1      42.446  22.309  25.794  1.00  0.00     0.059 A 
ATOM     77  F   UNL A   1      42.662  24.624  25.496  1.00  0.00    -0.206 F 
ATOM     78  C   UNL A   1      42.351  21.216  26.654  1.00  0.00     0.060 A 
BRANCH  78  79
ATOM     79  S   UNL A   1      42.231  19.541  25.989  1.00  0.00     0.124 S 
ATOM     80  O   UNL A   1      43.137  19.611  24.847  1.00  0.00    -0.237 OA
ATOM     81  O   UNL A   1      42.684  18.731  27.115  1.00  0.00    -0.237 OA
ATOM     82  O   UNL A   1      40.814  19.409  25.662  1.00  0.00    -0.744 OA
ENDBRANCH  78  79
ENDBRANCH  46  71
BRANCH  58  83
ATOM     83  C   UNL A   1      47.940  27.316  30.396  1.00  0.00     0.058 A 
ATOM     84  C   UNL A   1      48.988  27.656  29.527  1.00  0.00     0.135 A 
ATOM     85  C   UNL A   1      48.271  26.638  31.583  1.00  0.00     0.135 A 
ATOM     86  F   UNL A   1      48.731  28.303  28.379  1.00  0.00    -0.206 F 
ATOM     87  C   UNL A   1      50.307  27.309  29.807  1.00  0.00     0.059 A 
ATOM     88  C   UNL A   1      49.585  26.311  31.898  1.00  0.00     0.059 A 
ATOM     89  F   UNL A   1      47.311  26.301  32.459  1.00  0.00    -0.206 F 
ATOM     90  C   UNL A   1      50.596  26.637  30.997  1.00  0.00     0.060 A 
BRANCH  90  91
ATOM     91  S   UNL A   1      52.313  26.211  31.360  1.00  0.00     0.124 S 
ATOM     92  O   UNL A   1      52.156  24.966  32.104  1.00  0.00    -0.237 OA
ATOM     93  O   UNL A   1      52.893  26.085  30.027  1.00  0.00    -0.237 OA
ATOM     94  O   UNL A   1      52.788  27.352  32.138  1.00  0.00    -0.744 OA
ENDBRANCH  90  91
ENDBRANCH  58  83
ENDBRANCH  32  33
ENDBRANCH  25  27
ENDBRANCH  24  25
ENDBRANCH  23  24
ENDBRANCH   1  23
TORSDOF 18
ENDMDL
MODEL 2
REMARK VINA RESULT:     -10.3      4.780     10.445
REMARK SMILES COc1ccc2c(c1)[C@H]([NH2+][C@@H](C(=O)OCCOC(=O)c1ccc(-c3c4nc(c(-c5c(F)cc(S(=O)(=O)[O-])cc5F)c5ccc([nH]5)c(-c5c(F)cc(S(=O)(=O)[O-])cc5F)c5nc(c(-c6c(F)cc(S(=O)(=O)[O-])cc6F)c6ccc3[nH]6)C=C5)C=C4)cc1)C1CC1)CC2
REMARK SMILES IDX 15 1 14 2 12 3 13 4 11 5 10 6 9 9 3 10 4 11 8 12 5 13 7 14
REMARK SMILES IDX 6 15 90 16 89 17 2 18 1 19 86 20 87 21 88 22 16 23 17 24
REMARK SMILES IDX 18 25 19 26 20 27 21 28 85 29 22 30 84 31 23 32 24 33 25 34
REMARK SMILES IDX 78 35 26 36 83 37 77 38 79 39 27 40 82 41 76 42 75 43 28 45
REMARK SMILES IDX 62 46 41 47 61 48 42 49 45 50 60 51 80 52 43 53 44 54 59 56
REMARK SMILES IDX 81 57 46 58 29 59 30 60 39 61 31 62 32 63 38 64 40 65 33 66
REMARK SMILES IDX 34 67 35 68 36 69 37 70 63 71 64 72 73 73 65 74 66 75 72 76
REMARK SMILES IDX 74 77 67 78 68 79 69 80 70 81 71 82 47 83 48 84 57 85 49 86
REMARK SMILES IDX 50 87 56 88 58 89 51 90 52 91 53 92 54 93 55 94
REMARK H PARENT 10 7 10 8 79 44 45 55
REMARK Flexibility Score: inf
ROOT
ATOM      1  C   UNL A   1      38.641  21.981  25.771  1.00  0.00     0.274 C 
ENDROOT
BRANCH   1   2
ATOM      2  O   UNL A   1      37.362  22.534  26.121  1.00  0.00    -0.458 OA
BRANCH   2   3
ATOM      3  C   UNL A   1      36.571  22.909  25.065  1.00  0.00     0.365 C 
ATOM      4  O   UNL A   1      37.036  23.284  23.995  1.00  0.00    -0.245 OA
BRANCH   3   5
ATOM      5  C   UNL A   1      35.062  22.884  25.439  1.00  0.00     0.297 C 
BRANCH   5   6
ATOM      6  N   UNL A   1      34.574  24.266  25.683  1.00  0.00    -0.328 N 
ATOM      7  H   UNL A   1      34.149  24.258  26.609  1.00  0.00     0.347 HD
ATOM      8  H   UNL A   1      35.417  24.820  25.526  1.00  0.00     0.347 HD
BRANCH   6   9
ATOM      9  C   UNL A   1      33.612  24.919  24.797  1.00  0.00     0.215 C 
ATOM     10  C   UNL A   1      33.292  28.482  26.132  1.00  0.00     0.119 A 
ATOM     11  C   UNL A   1      33.429  29.164  24.916  1.00  0.00     0.047 A 
ATOM     12  C   UNL A   1      33.234  27.093  26.155  1.00  0.00     0.056 A 
ATOM     13  C   UNL A   1      33.481  28.456  23.708  1.00  0.00     0.008 A 
ATOM     14  C   UNL A   1      33.409  26.396  24.971  1.00  0.00     0.016 A 
ATOM     15  C   UNL A   1      33.478  27.071  23.750  1.00  0.00    -0.038 A 
ATOM     16  C   UNL A   1      33.543  26.110  22.606  1.00  0.00     0.042 C 
ATOM     17  C   UNL A   1      33.993  24.811  23.297  1.00  0.00     0.075 C 
BRANCH  10  18
ATOM     18  O   UNL A   1      33.350  29.077  27.363  1.00  0.00    -0.497 OA
ATOM     19  C   UNL A   1      33.604  30.472  27.319  1.00  0.00     0.278 C 
ENDBRANCH  10  18
ENDBRANCH   6   9
ENDBRANCH   5   6
BRANCH   5  20
ATOM     20  C   UNL A   1      34.671  21.897  26.533  1.00  0.00     0.059 C 
ATOM     21  C   UNL A   1      33.459  22.245  27.378  1.00  0.00     0.011 C 
ATOM     22  C   UNL A   1      33.462  20.979  26.583  1.00  0.00     0.011 C 
ENDBRANCH   5  20
ENDBRANCH   3   5
ENDBRANCH   2   3
ENDBRANCH   1   2
BRANCH   1  23
ATOM     23  C   UNL A   1      39.785  22.705  26.491  1.00  0.00     0.275 C 
BRANCH  23  24
ATOM     24  O   UNL A   1      39.610  24.135  26.497  1.00  0.00    -0.458 OA
BRANCH  24  25
ATOM     25  C   UNL A   1      40.762  24.850  26.505  1.00  0.00     0.338 C 
ATOM     26  O   UNL A   1      41.615  24.866  25.627  1.00  0.00    -0.246 OA
BRANCH  25  27
ATOM     27  C   UNL A   1      40.797  25.782  27.652  1.00  0.00     0.060 A 
ATOM     28  C   UNL A   1      39.703  25.750  28.523  1.00  0.00     0.016 A 
ATOM     29  C   UNL A   1      41.837  26.687  27.875  1.00  0.00     0.016 A 
ATOM     30  C   UNL A   1      39.648  26.591  29.628  1.00  0.00     0.010 A 
ATOM     31  C   UNL A   1      41.765  27.564  28.967  1.00  0.00     0.010 A 
ATOM     32  C   UNL A   1      40.668  27.521  29.843  1.00  0.00    -0.014 A 
BRANCH  32  33
ATOM     33  C   UNL A   1      40.473  28.539  30.898  1.00  0.00     0.031 A 
ATOM     34  C   UNL A   1      41.345  28.476  32.120  1.00  0.00     0.074 A 
ATOM     35  C   UNL A   1      39.597  29.548  30.737  1.00  0.00     0.049 A 
ATOM     36  N   UNL A   1      41.387  29.276  33.152  1.00  0.00    -0.248 NA
ATOM     37  C   UNL A   1      42.313  27.368  32.173  1.00  0.00     0.031 C 
ATOM     38  C   UNL A   1      38.756  29.758  29.561  1.00  0.00     0.029 A 
ATOM     39  N   UNL A   1      39.279  30.591  31.571  1.00  0.00    -0.354 N 
ATOM     40  C   UNL A   1      42.391  28.779  33.972  1.00  0.00     0.074 A 
ATOM     41  C   UNL A   1      42.918  27.594  33.329  1.00  0.00     0.031 C 
ATOM     42  C   UNL A   1      38.001  30.855  29.756  1.00  0.00     0.029 A 
ATOM     43  C   UNL A   1      38.290  31.408  31.080  1.00  0.00     0.049 A 
ATOM     44  H   UNL A   1      39.718  30.740  32.440  1.00  0.00     0.167 HD
ATOM     45  C   UNL A   1      42.833  29.264  35.156  1.00  0.00     0.037 A 
ATOM     46  C   UNL A   1      37.677  32.467  31.645  1.00  0.00     0.037 A 
ATOM     47  C   UNL A   1      42.273  30.415  35.814  1.00  0.00     0.049 A 
ATOM     48  C   UNL A   1      38.114  32.925  33.017  1.00  0.00     0.074 A 
ATOM     49  C   UNL A   1      42.623  30.963  37.035  1.00  0.00     0.029 A 
ATOM     50  N   UNL A   1      41.235  31.187  35.311  1.00  0.00    -0.354 N 
ATOM     51  N   UNL A   1      39.066  32.448  33.785  1.00  0.00    -0.248 NA
ATOM     52  C   UNL A   1      37.396  34.070  33.596  1.00  0.00     0.031 C 
ATOM     53  C   UNL A   1      41.759  32.033  37.297  1.00  0.00     0.029 A 
ATOM     54  C   UNL A   1      40.917  32.194  36.207  1.00  0.00     0.049 A 
ATOM     55  H   UNL A   1      40.791  31.041  34.446  1.00  0.00     0.167 HD
ATOM     56  C   UNL A   1      39.092  33.263  34.914  1.00  0.00     0.074 A 
ATOM     57  C   UNL A   1      38.060  34.262  34.728  1.00  0.00     0.031 C 
ATOM     58  C   UNL A   1      39.901  33.197  36.001  1.00  0.00     0.037 A 
BRANCH  45  59
ATOM     59  C   UNL A   1      43.941  28.512  35.834  1.00  0.00     0.058 A 
ATOM     60  C   UNL A   1      45.292  28.824  35.612  1.00  0.00     0.135 A 
ATOM     61  C   UNL A   1      43.647  27.463  36.721  1.00  0.00     0.135 A 
ATOM     62  F   UNL A   1      45.628  29.800  34.755  1.00  0.00    -0.206 F 
ATOM     63  C   UNL A   1      46.313  28.104  36.224  1.00  0.00     0.059 A 
ATOM     64  C   UNL A   1      44.652  26.747  37.364  1.00  0.00     0.059 A 
ATOM     65  F   UNL A   1      42.373  27.119  36.962  1.00  0.00    -0.206 F 
ATOM     66  C   UNL A   1      45.982  27.066  37.096  1.00  0.00     0.060 A 
BRANCH  66  67
ATOM     67  S   UNL A   1      47.318  26.133  37.874  1.00  0.00     0.124 S 
ATOM     68  O   UNL A   1      46.980  24.766  37.489  1.00  0.00    -0.237 OA
ATOM     69  O   UNL A   1      48.504  26.696  37.237  1.00  0.00    -0.237 OA
ATOM     70  O   UNL A   1      47.167  26.439  39.293  1.00  0.00    -0.744 OA
ENDBRANCH  66  67
ENDBRANCH  45  59
BRANCH  46  71
ATOM     71  C   UNL A   1      36.570  33.165  30.934  1.00  0.00     0.058 A 
ATOM     72  C   UNL A   1      36.823  34.036  29.863  1.00  0.00     0.135 A 
ATOM     73  C   UNL A   1      35.235  33.001  31.337  1.00  0.00     0.135 A 
ATOM     74  F   UNL A   1      38.083  34.239  29.448  1.00  0.00    -0.206 F 
ATOM     75  C   UNL A   1      35.799  34.737  29.234  1.00  0.00     0.059 A 
ATOM     76  C   UNL A   1      34.190  33.670  30.705  1.00  0.00     0.059 A 
ATOM     77  F   UNL A   1      34.935  32.177  32.353  1.00  0.00    -0.206 F 
ATOM     78  C   UNL A   1      34.485  34.548  29.664  1.00  0.00     0.060 A 
BRANCH  78  79
ATOM     79  S   UNL A   1      33.160  35.446  28.827  1.00  0.00     0.124 S 
ATOM     80  O   UNL A   1      32.428  36.010  29.955  1.00  0.00    -0.237 OA
ATOM     81  O   UNL A   1      33.905  36.397  28.008  1.00  0.00    -0.237 OA
ATOM     82  O   UNL A   1      32.464  34.401  28.082  1.00  0.00    -0.744 OA
ENDBRANCH  78  79
ENDBRANCH  46  71
BRANCH  58  83
ATOM     83  C   UNL A   1      39.760  34.271  37.047  1.00  0.00     0.058 A 
ATOM     84  C   UNL A   1      39.033  34.075  38.231  1.00  0.00     0.135 A 
ATOM     85  C   UNL A   1      40.411  35.506  36.878  1.00  0.00     0.135 A 
ATOM     86  F   UNL A   1      38.389  32.916  38.444  1.00  0.00    -0.206 F 
ATOM     87  C   UNL A   1      38.928  35.074  39.195  1.00  0.00     0.059 A 
ATOM     88  C   UNL A   1      40.348  36.506  37.843  1.00  0.00     0.059 A 
ATOM     89  F   UNL A   1      41.134  35.743  35.772  1.00  0.00    -0.206 F 
ATOM     90  C   UNL A   1      39.591  36.287  38.991  1.00  0.00     0.060 A 
BRANCH  90  91
ATOM     91  S   UNL A   1      39.467  37.568  40.259  1.00  0.00     0.124 S 
ATOM     92  O   UNL A   1      38.607  38.547  39.603  1.00  0.00    -0.237 OA
ATOM     93  O   UNL A   1      38.869  36.845  41.377  1.00  0.00    -0.237 OA
ATOM     94  O   UNL A   1      40.853  37.984  40.458  1.00  0.00    -0.744 OA
ENDBRANCH  90  91
ENDBRANCH  58  83
ENDBRANCH  32  33
ENDBRANCH  25  27
ENDBRANCH  24  25
ENDBRANCH  23  24
ENDBRANCH   1  23
TORSDOF 18
ENDMDL
MODEL 3
REMARK VINA RESULT:     -10.1      2.916      4.221
REMARK SMILES COc1ccc2c(c1)[C@H]([NH2+][C@@H](C(=O)OCCOC(=O)c1ccc(-c3c4nc(c(-c5c(F)cc(S(=O)(=O)[O-])cc5F)c5ccc([nH]5)c(-c5c(F)cc(S(=O)(=O)[O-])cc5F)c5nc(c(-c6c(F)cc(S(=O)(=O)[O-])cc6F)c6ccc3[nH]6)C=C5)C=C4)cc1)C1CC1)CC2
REMARK SMILES IDX 15 1 14 2 12 3 13 4 11 5 10 6 9 9 3 10 4 11 8 12 5 13 7 14
REMARK SMILES IDX 6 15 90 16 89 17 2 18 1 19 86 20 87 21 88 22 16 23 17 24
REMARK SMILES IDX 18 25 19 26 20 27 21 28 85 29 22 30 84 31 23 32 24 33 25 34
REMARK SMILES IDX 78 35 26 36 83 37 77 38 79 39 27 40 82 41 76 42 75 43 28 45
REMARK SMILES IDX 62 46 41 47 61 48 42 49 45 50 60 51 80 52 43 53 44 54 59 56
REMARK SMILES IDX 81 57 46 58 29 59 30 60 39 61 31 62 32 63 38 64 40 65 33 66
REMARK SMILES IDX 34 67 35 68 36 69 37 70 63 71 64 72 73 73 65 74 66 75 72 76
REMARK SMILES IDX 74 77 67 78 68 79 69 80 70 81 71 82 47 83 48 84 57 85 49 86
REMARK SMILES IDX 50 87 56 88 58 89 51 90 52 91 53 92 54 93 55 94
REMARK H PARENT 10 7 10 8 79 44 45 55
REMARK Flexibility Score: inf
ROOT
ATOM      1  C   UNL A   1      34.912  31.614  27.686  1.00  0.00     0.274 C 
ENDROOT
BRANCH   1   2
ATOM      2  O   UNL A   1      33.859  30.766  27.201  1.00  0.00    -0.458 OA
BRANCH   2   3
ATOM      3  C   UNL A   1      34.257  29.544  26.721  1.00  0.00     0.365 C 
ATOM      4  O   UNL A   1      35.371  29.083  26.938  1.00  0.00    -0.245 OA
BRANCH   3   5
ATOM      5  C   UNL A   1      33.169  28.898  25.818  1.00  0.00     0.297 C 
BRANCH   5   6
ATOM      6  N   UNL A   1      33.118  29.592  24.505  1.00  0.00    -0.328 N 
ATOM      7  H   UNL A   1      32.592  30.453  24.658  1.00  0.00     0.347 HD
ATOM      8  H   UNL A   1      34.105  29.649  24.255  1.00  0.00     0.347 HD
BRANCH   6   9
ATOM      9  C   UNL A   1      32.540  28.968  23.316  1.00  0.00     0.215 C 
ATOM     10  C   UNL A   1      33.647  25.317  23.475  1.00  0.00     0.119 A 
ATOM     11  C   UNL A   1      32.404  24.720  23.222  1.00  0.00     0.047 A 
ATOM     12  C   UNL A   1      33.787  26.699  23.414  1.00  0.00     0.056 A 
ATOM     13  C   UNL A   1      31.296  25.507  22.879  1.00  0.00     0.008 A 
ATOM     14  C   UNL A   1      32.662  27.477  23.194  1.00  0.00     0.016 A 
ATOM     15  C   UNL A   1      31.437  26.885  22.876  1.00  0.00    -0.038 A 
ATOM     16  C   UNL A   1      30.405  27.921  22.562  1.00  0.00     0.042 C 
ATOM     17  C   UNL A   1      31.008  29.186  23.196  1.00  0.00     0.075 C 
BRANCH  10  18
ATOM     18  O   UNL A   1      34.748  24.645  23.929  1.00  0.00    -0.497 OA
ATOM     19  C   UNL A   1      34.709  24.340  25.314  1.00  0.00     0.278 C 
ENDBRANCH  10  18
ENDBRANCH   6   9
ENDBRANCH   5   6
BRANCH   5  20
ATOM     20  C   UNL A   1      31.801  28.714  26.464  1.00  0.00     0.059 C 
ATOM     21  C   UNL A   1      31.281  27.294  26.593  1.00  0.00     0.011 C 
ATOM     22  C   UNL A   1      31.475  28.119  27.824  1.00  0.00     0.011 C 
ENDBRANCH   5  20
ENDBRANCH   3   5
ENDBRANCH   2   3
ENDBRANCH   1   2
BRANCH   1  23
ATOM     23  C   UNL A   1      34.943  31.656  29.218  1.00  0.00     0.275 C 
BRANCH  23  24
ATOM     24  O   UNL A   1      35.771  30.619  29.778  1.00  0.00    -0.458 OA
BRANCH  24  25
ATOM     25  C   UNL A   1      36.633  31.034  30.739  1.00  0.00     0.338 C 
ATOM     26  O   UNL A   1      36.336  31.490  31.835  1.00  0.00    -0.246 OA
BRANCH  25  27
ATOM     27  C   UNL A   1      38.027  30.699  30.378  1.00  0.00     0.060 A 
ATOM     28  C   UNL A   1      38.328  30.639  29.014  1.00  0.00     0.016 A 
ATOM     29  C   UNL A   1      39.018  30.420  31.321  1.00  0.00     0.016 A 
ATOM     30  C   UNL A   1      39.611  30.330  28.580  1.00  0.00     0.010 A 
ATOM     31  C   UNL A   1      40.304  30.070  30.886  1.00  0.00     0.010 A 
ATOM     32  C   UNL A   1      40.602  30.020  29.513  1.00  0.00    -0.014 A 
BRANCH  32  33
ATOM     33  C   UNL A   1      41.890  29.490  29.015  1.00  0.00     0.031 A 
ATOM     34  C   UNL A   1      43.069  30.419  28.955  1.00  0.00     0.074 A 
ATOM     35  C   UNL A   1      42.031  28.189  28.700  1.00  0.00     0.049 A 
ATOM     36  N   UNL A   1      44.300  30.175  28.595  1.00  0.00    -0.248 NA
ATOM     37  C   UNL A   1      42.826  31.808  29.378  1.00  0.00     0.031 C 
ATOM     38  C   UNL A   1      40.981  27.177  28.795  1.00  0.00     0.029 A 
ATOM     39  N   UNL A   1      43.125  27.498  28.242  1.00  0.00    -0.354 N 
ATOM     40  C   UNL A   1      44.984  31.373  28.756  1.00  0.00     0.074 A 
ATOM     41  C   UNL A   1      44.025  32.350  29.227  1.00  0.00     0.031 C 
ATOM     42  C   UNL A   1      41.477  25.995  28.389  1.00  0.00     0.029 A 
ATOM     43  C   UNL A   1      42.872  26.173  27.982  1.00  0.00     0.049 A 
ATOM     44  H   UNL A   1      44.009  27.913  28.111  1.00  0.00     0.167 HD
ATOM     45  C   UNL A   1      46.292  31.636  28.532  1.00  0.00     0.037 A 
ATOM     46  C   UNL A   1      43.671  25.222  27.459  1.00  0.00     0.037 A 
ATOM     47  C   UNL A   1      47.232  30.674  28.020  1.00  0.00     0.049 A 
ATOM     48  C   UNL A   1      45.100  25.569  27.113  1.00  0.00     0.074 A 
ATOM     49  C   UNL A   1      48.570  30.853  27.718  1.00  0.00     0.029 A 
ATOM     50  N   UNL A   1      46.926  29.355  27.718  1.00  0.00    -0.354 N 
ATOM     51  N   UNL A   1      45.738  26.705  27.272  1.00  0.00    -0.248 NA
ATOM     52  C   UNL A   1      45.920  24.501  26.524  1.00  0.00     0.031 C 
ATOM     53  C   UNL A   1      49.060  29.657  27.183  1.00  0.00     0.029 A 
ATOM     54  C   UNL A   1      48.046  28.713  27.214  1.00  0.00     0.049 A 
ATOM     55  H   UNL A   1      46.045  28.935  27.843  1.00  0.00     0.167 HD
ATOM     56  C   UNL A   1      47.044  26.475  26.846  1.00  0.00     0.074 A 
ATOM     57  C   UNL A   1      47.103  25.091  26.424  1.00  0.00     0.031 C 
ATOM     58  C   UNL A   1      48.099  27.327  26.816  1.00  0.00     0.037 A 
BRANCH  45  59
ATOM     59  C   UNL A   1      46.763  33.039  28.791  1.00  0.00     0.058 A 
ATOM     60  C   UNL A   1      47.284  33.428  30.035  1.00  0.00     0.135 A 
ATOM     61  C   UNL A   1      46.693  34.008  27.777  1.00  0.00     0.135 A 
ATOM     62  F   UNL A   1      47.349  32.546  31.046  1.00  0.00    -0.206 F 
ATOM     63  C   UNL A   1      47.693  34.736  30.275  1.00  0.00     0.059 A 
ATOM     64  C   UNL A   1      47.121  35.315  27.986  1.00  0.00     0.059 A 
ATOM     65  F   UNL A   1      46.197  33.691  26.571  1.00  0.00    -0.206 F 
ATOM     66  C   UNL A   1      47.605  35.672  29.244  1.00  0.00     0.060 A 
BRANCH  66  67
ATOM     67  S   UNL A   1      48.129  37.368  29.572  1.00  0.00     0.124 S 
ATOM     68  O   UNL A   1      46.859  38.085  29.491  1.00  0.00    -0.237 OA
ATOM     69  O   UNL A   1      48.711  37.262  30.906  1.00  0.00    -0.237 OA
ATOM     70  O   UNL A   1      49.075  37.647  28.498  1.00  0.00    -0.744 OA
ENDBRANCH  66  67
ENDBRANCH  45  59
BRANCH  46  71
ATOM     71  C   UNL A   1      43.145  23.851  27.207  1.00  0.00     0.058 A 
ATOM     72  C   UNL A   1      43.065  22.899  28.233  1.00  0.00     0.135 A 
ATOM     73  C   UNL A   1      42.745  23.456  25.920  1.00  0.00     0.135 A 
ATOM     74  F   UNL A   1      43.449  23.221  29.478  1.00  0.00    -0.206 F 
ATOM     75  C   UNL A   1      42.632  21.598  27.991  1.00  0.00     0.059 A 
ATOM     76  C   UNL A   1      42.282  22.170  25.658  1.00  0.00     0.059 A 
ATOM     77  F   UNL A   1      42.797  24.329  24.902  1.00  0.00    -0.206 F 
ATOM     78  C   UNL A   1      42.243  21.244  26.699  1.00  0.00     0.060 A 
BRANCH  78  79
ATOM     79  S   UNL A   1      41.661  19.560  26.398  1.00  0.00     0.124 S 
ATOM     80  O   UNL A   1      40.229  19.771  26.219  1.00  0.00    -0.237 OA
ATOM     81  O   UNL A   1      42.408  19.188  25.200  1.00  0.00    -0.237 OA
ATOM     82  O   UNL A   1      42.048  18.849  27.614  1.00  0.00    -0.744 OA
ENDBRANCH  78  79
ENDBRANCH  46  71
BRANCH  58  83
ATOM     83  C   UNL A   1      49.431  26.778  26.378  1.00  0.00     0.058 A 
ATOM     84  C   UNL A   1      49.907  26.921  25.066  1.00  0.00     0.135 A 
ATOM     85  C   UNL A   1      50.269  26.141  27.310  1.00  0.00     0.135 A 
ATOM     86  F   UNL A   1      49.149  27.520  24.133  1.00  0.00    -0.206 F 
ATOM     87  C   UNL A   1      51.150  26.422  24.684  1.00  0.00     0.059 A 
ATOM     88  C   UNL A   1      51.528  25.665  26.959  1.00  0.00     0.059 A 
ATOM     89  F   UNL A   1      49.872  25.992  28.584  1.00  0.00    -0.206 F 
ATOM     90  C   UNL A   1      51.953  25.796  25.640  1.00  0.00     0.060 A 
BRANCH  90  91
ATOM     91  S   UNL A   1      53.573  25.173  25.139  1.00  0.00     0.124 S 
ATOM     92  O   UNL A   1      53.660  25.653  23.764  1.00  0.00    -0.237 OA
ATOM     93  O   UNL A   1      54.466  25.818  26.095  1.00  0.00    -0.237 OA
ATOM     94  O   UNL A   1      53.442  23.726  25.291  1.00  0.00    -0.744 OA
ENDBRANCH  90  91
ENDBRANCH  58  83
ENDBRANCH  32  33
ENDBRANCH  25  27
ENDBRANCH  24  25
ENDBRANCH  23  24
ENDBRANCH   1  23
TORSDOF 18
ENDMDL
