MODEL 1
REMARK VINA RESULT:     -12.3      0.000      0.000
REMARK SMILES CC(C)N1C[C@@]2(CCCN(c3ccc(C(=O)OCCOC(=O)c4ccc(-c5c6nc(c(-c7c(F)cc(S(=O)(=O)[O-])cc7F)c7ccc([nH]7)c(-c7c(F)cc(S(=O)(=O)[O-])cc7F)c7nc(c(-c8c(F)cc(S(=O)(=O)[O-])cc8F)c8ccc5[nH]8)C=C7)C=C6)cc4)cn3)C2)CCC1=O
REMARK SMILES IDX 19 1 18 2 17 3 15 4 16 5 14 6 11 7 12 8 90 9 13 10 89 11
REMARK SMILES IDX 10 12 4 13 5 14 94 15 6 16 93 17 95 18 7 19 91 20 92 21 8 22
REMARK SMILES IDX 9 23 2 24 1 25 3 26 20 27 21 28 22 29 23 30 24 31 88 32
REMARK SMILES IDX 25 33 87 34 26 35 27 36 28 37 81 38 29 39 86 40 80 41 82 42
REMARK SMILES IDX 30 43 85 44 79 45 78 46 31 48 65 49 44 50 64 51 45 52 48 53
REMARK SMILES IDX 63 54 83 55 46 56 47 57 62 59 84 60 49 61 32 62 33 63 42 64
REMARK SMILES IDX 34 65 35 66 41 67 43 68 36 69 37 70 38 71 39 72 40 73 66 74
REMARK SMILES IDX 67 75 76 76 68 77 69 78 75 79 77 80 70 81 71 82 72 83 73 84
REMARK SMILES IDX 74 85 50 86 51 87 60 88 52 89 53 90 59 91 61 92 54 93 55 94
REMARK SMILES IDX 56 95 57 96 58 97
REMARK H PARENT 82 47 48 58
REMARK Flexibility Score: inf
ROOT
ATOM      1  C   UNL A   1      34.879  32.679  29.078  1.00  0.00     0.275 C 
ENDROOT
BRANCH   1   2
ATOM      2  C   UNL A   1      33.731  32.449  28.092  1.00  0.00     0.275 C 
BRANCH   2   3
ATOM      3  O   UNL A   1      33.714  31.101  27.583  1.00  0.00    -0.458 OA
BRANCH   3   4
ATOM      4  C   UNL A   1      32.639  30.786  26.830  1.00  0.00     0.339 C 
ATOM      5  O   UNL A   1      31.535  31.311  26.856  1.00  0.00    -0.246 OA
BRANCH   4   6
ATOM      6  C   UNL A   1      32.940  29.644  25.973  1.00  0.00     0.078 A 
ATOM      7  C   UNL A   1      33.340  27.407  24.390  1.00  0.00     0.128 A 
ATOM      8  C   UNL A   1      34.007  27.534  25.612  1.00  0.00     0.048 A 
ATOM      9  N   UNL A   1      32.464  28.355  24.001  1.00  0.00    -0.238 NA
ATOM     10  C   UNL A   1      33.824  28.669  26.402  1.00  0.00     0.021 A 
ATOM     11  C   UNL A   1      32.277  29.445  24.780  1.00  0.00     0.129 A 
BRANCH   7  12
ATOM     12  N   UNL A   1      33.628  26.404  23.484  1.00  0.00    -0.356 N 
ATOM     13  N   UNL A   1      32.754  22.656  25.769  1.00  0.00    -0.340 N 
ATOM     14  C   UNL A   1      32.405  22.901  24.370  1.00  0.00     0.128 C 
ATOM     15  C   UNL A   1      32.096  23.364  26.772  1.00  0.00     0.222 C 
ATOM     16  C   UNL A   1      32.298  24.386  23.987  1.00  0.00     0.006 C 
ATOM     17  C   UNL A   1      31.720  24.790  26.427  1.00  0.00     0.101 C 
ATOM     18  O   UNL A   1      31.910  22.956  27.916  1.00  0.00    -0.275 OA
ATOM     19  C   UNL A   1      31.753  24.484  22.529  1.00  0.00     0.012 C 
ATOM     20  C   UNL A   1      33.710  25.045  24.035  1.00  0.00     0.127 C 
ATOM     21  C   UNL A   1      31.285  24.988  24.985  1.00  0.00     0.020 C 
ATOM     22  C   UNL A   1      31.888  25.869  21.878  1.00  0.00     0.022 C 
ATOM     23  C   UNL A   1      33.279  26.471  22.078  1.00  0.00     0.118 C 
BRANCH  13  24
ATOM     24  C   UNL A   1      33.645  21.504  26.034  1.00  0.00     0.078 C 
ATOM     25  C   UNL A   1      33.801  20.672  24.753  1.00  0.00     0.031 C 
ATOM     26  C   UNL A   1      35.040  21.813  26.583  1.00  0.00     0.031 C 
ENDBRANCH  13  24
ENDBRANCH   7  12
ENDBRANCH   4   6
ENDBRANCH   3   4
ENDBRANCH   2   3
ENDBRANCH   1   2
BRANCH   1  27
ATOM     27  O   UNL A   1      36.016  31.847  28.778  1.00  0.00    -0.458 OA
BRANCH  27  28
ATOM     28  C   UNL A   1      36.405  31.058  29.805  1.00  0.00     0.338 C 
ATOM     29  O   UNL A   1      35.865  30.950  30.891  1.00  0.00    -0.246 OA
BRANCH  28  30
ATOM     30  C   UNL A   1      37.535  30.200  29.424  1.00  0.00     0.060 A 
ATOM     31  C   UNL A   1      38.373  29.760  30.443  1.00  0.00     0.016 A 
ATOM     32  C   UNL A   1      37.922  30.073  28.092  1.00  0.00     0.016 A 
ATOM     33  C   UNL A   1      39.662  29.342  30.151  1.00  0.00     0.010 A 
ATOM     34  C   UNL A   1      39.177  29.525  27.794  1.00  0.00     0.010 A 
ATOM     35  C   UNL A   1      40.086  29.208  28.823  1.00  0.00    -0.014 A 
BRANCH  35  36
ATOM     36  C   UNL A   1      41.490  28.796  28.537  1.00  0.00     0.031 A 
ATOM     37  C   UNL A   1      42.613  29.797  28.647  1.00  0.00     0.074 A 
ATOM     38  C   UNL A   1      41.772  27.513  28.228  1.00  0.00     0.049 A 
ATOM     39  N   UNL A   1      43.865  29.683  28.281  1.00  0.00    -0.248 NA
ATOM     40  C   UNL A   1      42.283  31.109  29.229  1.00  0.00     0.031 C 
ATOM     41  C   UNL A   1      40.792  26.425  28.143  1.00  0.00     0.029 A 
ATOM     42  N   UNL A   1      42.966  26.897  27.945  1.00  0.00    -0.354 N 
ATOM     43  C   UNL A   1      44.451  30.921  28.524  1.00  0.00     0.074 A 
ATOM     44  C   UNL A   1      43.417  31.776  29.065  1.00  0.00     0.031 C 
ATOM     45  C   UNL A   1      41.428  25.274  27.883  1.00  0.00     0.029 A 
ATOM     46  C   UNL A   1      42.843  25.554  27.676  1.00  0.00     0.049 A 
ATOM     47  H   UNL A   1      43.828  27.373  27.936  1.00  0.00     0.167 HD
ATOM     48  C   UNL A   1      45.734  31.305  28.315  1.00  0.00     0.037 A 
ATOM     49  C   UNL A   1      43.752  24.652  27.259  1.00  0.00     0.037 A 
ATOM     50  C   UNL A   1      46.771  30.422  27.842  1.00  0.00     0.049 A 
ATOM     51  C   UNL A   1      45.163  25.105  27.017  1.00  0.00     0.074 A 
ATOM     52  C   UNL A   1      48.105  30.707  27.604  1.00  0.00     0.029 A 
ATOM     53  N   UNL A   1      46.595  29.075  27.555  1.00  0.00    -0.354 N 
ATOM     54  N   UNL A   1      45.684  26.300  27.177  1.00  0.00    -0.248 NA
ATOM     55  C   UNL A   1      46.105  24.096  26.520  1.00  0.00     0.031 C 
ATOM     56  C   UNL A   1      48.727  29.542  27.140  1.00  0.00     0.029 A 
ATOM     57  C   UNL A   1      47.793  28.519  27.136  1.00  0.00     0.049 A 
ATOM     58  H   UNL A   1      45.744  28.587  27.639  1.00  0.00     0.167 HD
ATOM     59  C   UNL A   1      47.020  26.181  26.813  1.00  0.00     0.074 A 
ATOM     60  C   UNL A   1      47.230  24.794  26.448  1.00  0.00     0.031 C 
ATOM     61  C   UNL A   1      47.984  27.135  26.778  1.00  0.00     0.037 A 
BRANCH  48  62
ATOM     62  C   UNL A   1      46.083  32.751  28.556  1.00  0.00     0.058 A 
ATOM     63  C   UNL A   1      46.555  33.216  29.795  1.00  0.00     0.135 A 
ATOM     64  C   UNL A   1      45.967  33.686  27.513  1.00  0.00     0.135 A 
ATOM     65  F   UNL A   1      46.672  32.371  30.832  1.00  0.00    -0.206 F 
ATOM     66  C   UNL A   1      46.869  34.557  29.999  1.00  0.00     0.059 A 
ATOM     67  C   UNL A   1      46.304  35.026  27.685  1.00  0.00     0.059 A 
ATOM     68  F   UNL A   1      45.523  33.300  26.306  1.00  0.00    -0.206 F 
ATOM     69  C   UNL A   1      46.738  35.455  28.938  1.00  0.00     0.060 A 
BRANCH  69  70
ATOM     70  S   UNL A   1      47.154  37.191  29.215  1.00  0.00     0.124 S 
ATOM     71  O   UNL A   1      45.866  37.839  28.988  1.00  0.00    -0.237 OA
ATOM     72  O   UNL A   1      47.626  37.183  30.596  1.00  0.00    -0.237 OA
ATOM     73  O   UNL A   1      48.177  37.461  28.210  1.00  0.00    -0.744 OA
ENDBRANCH  69  70
ENDBRANCH  48  62
BRANCH  49  74
ATOM     74  C   UNL A   1      43.338  23.247  26.998  1.00  0.00     0.058 A 
ATOM     75  C   UNL A   1      43.223  22.754  25.691  1.00  0.00     0.135 A 
ATOM     76  C   UNL A   1      43.067  22.360  28.055  1.00  0.00     0.135 A 
ATOM     77  F   UNL A   1      43.459  23.563  24.646  1.00  0.00    -0.206 F 
ATOM     78  C   UNL A   1      42.845  21.439  25.437  1.00  0.00     0.059 A 
ATOM     79  C   UNL A   1      42.720  21.033  27.827  1.00  0.00     0.059 A 
ATOM     80  F   UNL A   1      43.175  22.776  29.326  1.00  0.00    -0.206 F 
ATOM     81  C   UNL A   1      42.601  20.585  26.514  1.00  0.00     0.060 A 
BRANCH  81  82
ATOM     82  S   UNL A   1      42.162  18.865  26.178  1.00  0.00     0.124 S 
ATOM     83  O   UNL A   1      40.760  18.990  25.796  1.00  0.00    -0.237 OA
ATOM     84  O   UNL A   1      43.088  18.515  25.105  1.00  0.00    -0.237 OA
ATOM     85  O   UNL A   1      42.412  18.200  27.453  1.00  0.00    -0.744 OA
ENDBRANCH  81  82
ENDBRANCH  49  74
BRANCH  61  86
ATOM     86  C   UNL A   1      49.360  26.693  26.367  1.00  0.00     0.058 A 
ATOM     87  C   UNL A   1      49.823  26.844  25.050  1.00  0.00     0.135 A 
ATOM     88  C   UNL A   1      50.231  26.120  27.307  1.00  0.00     0.135 A 
ATOM     89  F   UNL A   1      49.026  27.380  24.111  1.00  0.00    -0.206 F 
ATOM     90  C   UNL A   1      51.087  26.406  24.670  1.00  0.00     0.059 A 
ATOM     91  C   UNL A   1      51.510  25.702  26.956  1.00  0.00     0.059 A 
ATOM     92  F   UNL A   1      49.842  25.964  28.582  1.00  0.00    -0.206 F 
ATOM     93  C   UNL A   1      51.922  25.832  25.630  1.00  0.00     0.060 A 
BRANCH  93  94
ATOM     94  S   UNL A   1      53.561  25.267  25.127  1.00  0.00     0.124 S 
ATOM     95  O   UNL A   1      54.424  26.050  26.006  1.00  0.00    -0.237 OA
ATOM     96  O   UNL A   1      53.500  23.837  25.408  1.00  0.00    -0.237 OA
ATOM     97  O   UNL A   1      53.621  25.619  23.712  1.00  0.00    -0.744 OA
ENDBRANCH  93  94
ENDBRANCH  61  86
ENDBRANCH  35  36
ENDBRANCH  28  30
ENDBRANCH  27  28
ENDBRANCH   1  27
TORSDOF 16
ENDMDL
MODEL 2
REMARK VINA RESULT:     -12.2      6.268     11.920
REMARK SMILES CC(C)N1C[C@@]2(CCCN(c3ccc(C(=O)OCCOC(=O)c4ccc(-c5c6nc(c(-c7c(F)cc(S(=O)(=O)[O-])cc7F)c7ccc([nH]7)c(-c7c(F)cc(S(=O)(=O)[O-])cc7F)c7nc(c(-c8c(F)cc(S(=O)(=O)[O-])cc8F)c8ccc5[nH]8)C=C7)C=C6)cc4)cn3)C2)CCC1=O
REMARK SMILES IDX 19 1 18 2 17 3 15 4 16 5 14 6 11 7 12 8 90 9 13 10 89 11
REMARK SMILES IDX 10 12 4 13 5 14 94 15 6 16 93 17 95 18 7 19 91 20 92 21 8 22
REMARK SMILES IDX 9 23 2 24 1 25 3 26 20 27 21 28 22 29 23 30 24 31 88 32
REMARK SMILES IDX 25 33 87 34 26 35 27 36 28 37 81 38 29 39 86 40 80 41 82 42
REMARK SMILES IDX 30 43 85 44 79 45 78 46 31 48 65 49 44 50 64 51 45 52 48 53
REMARK SMILES IDX 63 54 83 55 46 56 47 57 62 59 84 60 49 61 32 62 33 63 42 64
REMARK SMILES IDX 34 65 35 66 41 67 43 68 36 69 37 70 38 71 39 72 40 73 66 74
REMARK SMILES IDX 67 75 76 76 68 77 69 78 75 79 77 80 70 81 71 82 72 83 73 84
REMARK SMILES IDX 74 85 50 86 51 87 60 88 52 89 53 90 59 91 61 92 54 93 55 94
REMARK SMILES IDX 56 95 57 96 58 97
REMARK H PARENT 82 47 48 58
REMARK Flexibility Score: inf
ROOT
ATOM      1  C   UNL A   1      41.325  21.954  26.151  1.00  0.00     0.275 C 
ENDROOT
BRANCH   1   2
ATOM      2  C   UNL A   1      40.040  21.123  26.131  1.00  0.00     0.275 C 
BRANCH   2   3
ATOM      3  O   UNL A   1      38.868  21.942  25.948  1.00  0.00    -0.458 OA
BRANCH   3   4
ATOM      4  C   UNL A   1      37.817  21.319  25.375  1.00  0.00     0.339 C 
ATOM      5  O   UNL A   1      37.841  20.323  24.664  1.00  0.00    -0.246 OA
BRANCH   4   6
ATOM      6  C   UNL A   1      36.582  22.039  25.665  1.00  0.00     0.078 A 
ATOM      7  C   UNL A   1      34.173  23.352  26.047  1.00  0.00     0.128 A 
ATOM      8  C   UNL A   1      35.335  24.078  25.771  1.00  0.00     0.048 A 
ATOM      9  N   UNL A   1      34.215  22.004  26.082  1.00  0.00    -0.238 NA
ATOM     10  C   UNL A   1      36.555  23.422  25.600  1.00  0.00     0.021 A 
ATOM     11  C   UNL A   1      35.397  21.373  25.896  1.00  0.00     0.129 A 
BRANCH   7  12
ATOM     12  N   UNL A   1      32.986  23.955  26.414  1.00  0.00    -0.356 N 
ATOM     13  N   UNL A   1      32.143  26.747  23.018  1.00  0.00    -0.340 N 
ATOM     14  C   UNL A   1      31.154  25.913  23.700  1.00  0.00     0.128 C 
ATOM     15  C   UNL A   1      33.113  26.144  22.220  1.00  0.00     0.222 C 
ATOM     16  C   UNL A   1      31.737  24.681  24.413  1.00  0.00     0.006 C 
ATOM     17  C   UNL A   1      33.606  24.794  22.697  1.00  0.00     0.101 C 
ATOM     18  O   UNL A   1      33.654  26.671  21.251  1.00  0.00    -0.275 OA
ATOM     19  C   UNL A   1      30.556  23.806  24.935  1.00  0.00     0.012 C 
ATOM     20  C   UNL A   1      32.596  25.135  25.631  1.00  0.00     0.127 C 
ATOM     21  C   UNL A   1      32.531  23.924  23.326  1.00  0.00     0.020 C 
ATOM     22  C   UNL A   1      30.953  22.716  25.942  1.00  0.00     0.022 C 
ATOM     23  C   UNL A   1      31.884  23.244  27.033  1.00  0.00     0.118 C 
BRANCH  13  24
ATOM     24  C   UNL A   1      31.912  28.209  23.057  1.00  0.00     0.078 C 
ATOM     25  C   UNL A   1      30.452  28.485  23.444  1.00  0.00     0.031 C 
ATOM     26  C   UNL A   1      32.820  29.035  23.971  1.00  0.00     0.031 C 
ENDBRANCH  13  24
ENDBRANCH   7  12
ENDBRANCH   4   6
ENDBRANCH   3   4
ENDBRANCH   2   3
ENDBRANCH   1   2
BRANCH   1  27
ATOM     27  O   UNL A   1      41.219  23.083  27.038  1.00  0.00    -0.458 OA
BRANCH  27  28
ATOM     28  C   UNL A   1      41.671  24.242  26.508  1.00  0.00     0.338 C 
ATOM     29  O   UNL A   1      42.298  24.380  25.473  1.00  0.00    -0.246 OA
BRANCH  28  30
ATOM     30  C   UNL A   1      41.201  25.403  27.277  1.00  0.00     0.060 A 
ATOM     31  C   UNL A   1      42.034  26.516  27.323  1.00  0.00     0.016 A 
ATOM     32  C   UNL A   1      40.124  25.294  28.153  1.00  0.00     0.016 A 
ATOM     33  C   UNL A   1      41.897  27.445  28.343  1.00  0.00     0.010 A 
ATOM     34  C   UNL A   1      39.909  26.305  29.101  1.00  0.00     0.010 A 
ATOM     35  C   UNL A   1      40.828  27.363  29.244  1.00  0.00    -0.014 A 
BRANCH  35  36
ATOM     36  C   UNL A   1      40.727  28.351  30.357  1.00  0.00     0.031 A 
ATOM     37  C   UNL A   1      41.684  28.285  31.521  1.00  0.00     0.074 A 
ATOM     38  C   UNL A   1      39.811  29.341  30.304  1.00  0.00     0.049 A 
ATOM     39  N   UNL A   1      41.656  28.938  32.656  1.00  0.00    -0.248 NA
ATOM     40  C   UNL A   1      42.814  27.347  31.404  1.00  0.00     0.031 C 
ATOM     41  C   UNL A   1      38.860  29.561  29.211  1.00  0.00     0.029 A 
ATOM     42  N   UNL A   1      39.540  30.362  31.181  1.00  0.00    -0.354 N 
ATOM     43  C   UNL A   1      42.717  28.444  33.409  1.00  0.00     0.074 A 
ATOM     44  C   UNL A   1      43.367  27.433  32.606  1.00  0.00     0.031 C 
ATOM     45  C   UNL A   1      38.151  30.671  29.456  1.00  0.00     0.029 A 
ATOM     46  C   UNL A   1      38.517  31.184  30.769  1.00  0.00     0.049 A 
ATOM     47  H   UNL A   1      40.032  30.493  32.024  1.00  0.00     0.167 HD
ATOM     48  C   UNL A   1      43.109  28.805  34.655  1.00  0.00     0.037 A 
ATOM     49  C   UNL A   1      37.902  32.206  31.394  1.00  0.00     0.037 A 
ATOM     50  C   UNL A   1      42.494  29.864  35.417  1.00  0.00     0.049 A 
ATOM     51  C   UNL A   1      38.342  32.576  32.782  1.00  0.00     0.074 A 
ATOM     52  C   UNL A   1      42.819  30.316  36.684  1.00  0.00     0.029 A 
ATOM     53  N   UNL A   1      41.441  30.653  34.971  1.00  0.00    -0.354 N 
ATOM     54  N   UNL A   1      39.296  32.047  33.513  1.00  0.00    -0.248 NA
ATOM     55  C   UNL A   1      37.611  33.666  33.438  1.00  0.00     0.031 C 
ATOM     56  C   UNL A   1      41.940  31.353  37.019  1.00  0.00     0.029 A 
ATOM     57  C   UNL A   1      41.100  31.581  35.942  1.00  0.00     0.049 A 
ATOM     58  H   UNL A   1      41.003  30.565  34.094  1.00  0.00     0.167 HD
ATOM     59  C   UNL A   1      39.288  32.751  34.711  1.00  0.00     0.074 A 
ATOM     60  C   UNL A   1      38.251  33.757  34.595  1.00  0.00     0.031 C 
ATOM     61  C   UNL A   1      40.065  32.577  35.809  1.00  0.00     0.037 A 
BRANCH  48  62
ATOM     62  C   UNL A   1      44.228  28.024  35.293  1.00  0.00     0.058 A 
ATOM     63  C   UNL A   1      45.566  28.445  35.239  1.00  0.00     0.135 A 
ATOM     64  C   UNL A   1      43.947  26.841  35.999  1.00  0.00     0.135 A 
ATOM     65  F   UNL A   1      45.897  29.559  34.566  1.00  0.00    -0.206 F 
ATOM     66  C   UNL A   1      46.588  27.707  35.833  1.00  0.00     0.059 A 
ATOM     67  C   UNL A   1      44.948  26.103  36.627  1.00  0.00     0.059 A 
ATOM     68  F   UNL A   1      42.686  26.390  36.088  1.00  0.00    -0.206 F 
ATOM     69  C   UNL A   1      46.268  26.537  36.523  1.00  0.00     0.060 A 
BRANCH  69  70
ATOM     70  S   UNL A   1      47.602  25.592  37.293  1.00  0.00     0.124 S 
ATOM     71  O   UNL A   1      47.208  25.621  38.697  1.00  0.00    -0.237 OA
ATOM     72  O   UNL A   1      47.491  24.297  36.629  1.00  0.00    -0.237 OA
ATOM     73  O   UNL A   1      48.798  26.360  36.961  1.00  0.00    -0.744 OA
ENDBRANCH  69  70
ENDBRANCH  48  62
BRANCH  49  74
ATOM     74  C   UNL A   1      36.774  32.913  30.729  1.00  0.00     0.058 A 
ATOM     75  C   UNL A   1      35.444  32.665  31.096  1.00  0.00     0.135 A 
ATOM     76  C   UNL A   1      37.006  33.867  29.723  1.00  0.00     0.135 A 
ATOM     77  F   UNL A   1      35.168  31.755  32.043  1.00  0.00    -0.206 F 
ATOM     78  C   UNL A   1      34.383  33.329  30.486  1.00  0.00     0.059 A 
ATOM     79  C   UNL A   1      35.966  34.566  29.122  1.00  0.00     0.059 A 
ATOM     80  F   UNL A   1      38.261  34.152  29.343  1.00  0.00    -0.206 F 
ATOM     81  C   UNL A   1      34.656  34.281  29.502  1.00  0.00     0.060 A 
BRANCH  81  82
ATOM     82  S   UNL A   1      33.278  35.174  28.751  1.00  0.00     0.124 S 
ATOM     83  O   UNL A   1      33.976  36.204  27.990  1.00  0.00    -0.237 OA
ATOM     84  O   UNL A   1      32.624  34.131  27.966  1.00  0.00    -0.237 OA
ATOM     85  O   UNL A   1      32.518  35.648  29.904  1.00  0.00    -0.744 OA
ENDBRANCH  81  82
ENDBRANCH  49  74
BRANCH  61  86
ATOM     86  C   UNL A   1      39.843  33.524  36.954  1.00  0.00     0.058 A 
ATOM     87  C   UNL A   1      40.590  34.703  37.095  1.00  0.00     0.135 A 
ATOM     88  C   UNL A   1      38.859  33.251  37.918  1.00  0.00     0.135 A 
ATOM     89  F   UNL A   1      41.548  35.007  36.203  1.00  0.00    -0.206 F 
ATOM     90  C   UNL A   1      40.399  35.560  38.173  1.00  0.00     0.059 A 
ATOM     91  C   UNL A   1      38.631  34.109  38.989  1.00  0.00     0.059 A 
ATOM     92  F   UNL A   1      38.108  32.142  37.824  1.00  0.00    -0.206 F 
ATOM     93  C   UNL A   1      39.419  35.252  39.118  1.00  0.00     0.060 A 
BRANCH  93  94
ATOM     94  S   UNL A   1      39.178  36.370  40.514  1.00  0.00     0.124 S 
ATOM     95  O   UNL A   1      38.529  37.508  39.870  1.00  0.00    -0.237 OA
ATOM     96  O   UNL A   1      38.334  35.582  41.406  1.00  0.00    -0.237 OA
ATOM     97  O   UNL A   1      40.535  36.610  40.995  1.00  0.00    -0.744 OA
ENDBRANCH  93  94
ENDBRANCH  61  86
ENDBRANCH  35  36
ENDBRANCH  28  30
ENDBRANCH  27  28
ENDBRANCH   1  27
TORSDOF 16
ENDMDL
MODEL 3
REMARK VINA RESULT:     -12.1      6.502     11.521
REMARK SMILES CC(C)N1C[C@@]2(CCCN(c3ccc(C(=O)OCCOC(=O)c4ccc(-c5c6nc(c(-c7c(F)cc(S(=O)(=O)[O-])cc7F)c7ccc([nH]7)c(-c7c(F)cc(S(=O)(=O)[O-])cc7F)c7nc(c(-c8c(F)cc(S(=O)(=O)[O-])cc8F)c8ccc5[nH]8)C=C7)C=C6)cc4)cn3)C2)CCC1=O
REMARK SMILES IDX 19 1 18 2 17 3 15 4 16 5 14 6 11 7 12 8 90 9 13 10 89 11
REMARK SMILES IDX 10 12 4 13 5 14 94 15 6 16 93 17 95 18 7 19 91 20 92 21 8 22
REMARK SMILES IDX 9 23 2 24 1 25 3 26 20 27 21 28 22 29 23 30 24 31 88 32
REMARK SMILES IDX 25 33 87 34 26 35 27 36 28 37 81 38 29 39 86 40 80 41 82 42
REMARK SMILES IDX 30 43 85 44 79 45 78 46 31 48 65 49 44 50 64 51 45 52 48 53
REMARK SMILES IDX 63 54 83 55 46 56 47 57 62 59 84 60 49 61 32 62 33 63 42 64
REMARK SMILES IDX 34 65 35 66 41 67 43 68 36 69 37 70 38 71 39 72 40 73 66 74
REMARK SMILES IDX 67 75 76 76 68 77 69 78 75 79 77 80 70 81 71 82 72 83 73 84
REMARK SMILES IDX 74 85 50 86 51 87 60 88 52 89 53 90 59 91 61 92 54 93 55 94
REMARK SMILES IDX 56 95 57 96 58 97
REMARK H PARENT 82 47 48 58
REMARK Flexibility Score: inf
ROOT
ATOM      1  C   UNL A   1      40.757  22.618  26.914  1.00  0.00     0.275 C 
ENDROOT
BRANCH   1   2
ATOM      2  C   UNL A   1      39.876  21.467  26.425  1.00  0.00     0.275 C 
BRANCH   2   3
ATOM      3  O   UNL A   1      38.957  21.886  25.397  1.00  0.00    -0.458 OA
BRANCH   3   4
ATOM      4  C   UNL A   1      37.865  21.106  25.251  1.00  0.00     0.339 C 
ATOM      5  O   UNL A   1      37.827  19.951  24.849  1.00  0.00    -0.246 OA
BRANCH   4   6
ATOM      6  C   UNL A   1      36.659  21.854  25.590  1.00  0.00     0.078 A 
ATOM      7  C   UNL A   1      34.307  23.238  26.059  1.00  0.00     0.128 A 
ATOM      8  C   UNL A   1      35.505  23.931  25.865  1.00  0.00     0.048 A 
ATOM      9  N   UNL A   1      34.287  21.892  25.973  1.00  0.00    -0.238 NA
ATOM     10  C   UNL A   1      36.696  23.237  25.649  1.00  0.00     0.021 A 
ATOM     11  C   UNL A   1      35.442  21.226  25.746  1.00  0.00     0.129 A 
BRANCH   7  12
ATOM     12  N   UNL A   1      33.143  23.861  26.465  1.00  0.00    -0.356 N 
ATOM     13  N   UNL A   1      32.263  26.704  23.121  1.00  0.00    -0.340 N 
ATOM     14  C   UNL A   1      31.276  25.882  23.822  1.00  0.00     0.128 C 
ATOM     15  C   UNL A   1      33.198  26.090  22.291  1.00  0.00     0.222 C 
ATOM     16  C   UNL A   1      31.854  24.632  24.506  1.00  0.00     0.006 C 
ATOM     17  C   UNL A   1      33.677  24.725  22.740  1.00  0.00     0.101 C 
ATOM     18  O   UNL A   1      33.723  26.616  21.312  1.00  0.00    -0.275 OA
ATOM     19  C   UNL A   1      30.671  23.775  25.053  1.00  0.00     0.012 C 
ATOM     20  C   UNL A   1      32.755  25.056  25.705  1.00  0.00     0.127 C 
ATOM     21  C   UNL A   1      32.603  23.871  23.391  1.00  0.00     0.020 C 
ATOM     22  C   UNL A   1      31.073  22.667  26.037  1.00  0.00     0.022 C 
ATOM     23  C   UNL A   1      32.044  23.165  27.108  1.00  0.00     0.118 C 
BRANCH  13  24
ATOM     24  C   UNL A   1      32.062  28.169  23.180  1.00  0.00     0.078 C 
ATOM     25  C   UNL A   1      30.924  28.490  24.159  1.00  0.00     0.031 C 
ATOM     26  C   UNL A   1      33.275  29.025  23.552  1.00  0.00     0.031 C 
ENDBRANCH  13  24
ENDBRANCH   7  12
ENDBRANCH   4   6
ENDBRANCH   3   4
ENDBRANCH   2   3
ENDBRANCH   1   2
BRANCH   1  27
ATOM     27  O   UNL A   1      40.198  23.902  26.576  1.00  0.00    -0.458 OA
BRANCH  27  28
ATOM     28  C   UNL A   1      41.086  24.920  26.634  1.00  0.00     0.338 C 
ATOM     29  O   UNL A   1      42.102  25.045  25.975  1.00  0.00    -0.246 OA
BRANCH  28  30
ATOM     30  C   UNL A   1      40.621  25.986  27.531  1.00  0.00     0.060 A 
ATOM     31  C   UNL A   1      41.374  27.154  27.577  1.00  0.00     0.016 A 
ATOM     32  C   UNL A   1      39.652  25.736  28.500  1.00  0.00     0.016 A 
ATOM     33  C   UNL A   1      41.282  27.999  28.673  1.00  0.00     0.010 A 
ATOM     34  C   UNL A   1      39.469  26.661  29.538  1.00  0.00     0.010 A 
ATOM     35  C   UNL A   1      40.323  27.775  29.668  1.00  0.00    -0.014 A 
BRANCH  35  36
ATOM     36  C   UNL A   1      40.271  28.674  30.856  1.00  0.00     0.031 A 
ATOM     37  C   UNL A   1      39.241  29.775  30.931  1.00  0.00     0.074 A 
ATOM     38  C   UNL A   1      41.109  28.477  31.894  1.00  0.00     0.049 A 
ATOM     39  N   UNL A   1      39.140  30.759  31.789  1.00  0.00    -0.248 NA
ATOM     40  C   UNL A   1      38.197  29.784  29.892  1.00  0.00     0.031 C 
ATOM     41  C   UNL A   1      42.116  27.415  31.983  1.00  0.00     0.029 A 
ATOM     42  N   UNL A   1      41.240  29.149  33.085  1.00  0.00    -0.354 N 
ATOM     43  C   UNL A   1      38.069  31.536  31.358  1.00  0.00     0.074 A 
ATOM     44  C   UNL A   1      37.555  30.913  30.157  1.00  0.00     0.031 C 
ATOM     45  C   UNL A   1      42.719  27.475  33.178  1.00  0.00     0.029 A 
ATOM     46  C   UNL A   1      42.224  28.640  33.899  1.00  0.00     0.049 A 
ATOM     47  H   UNL A   1      40.682  29.922  33.331  1.00  0.00     0.167 HD
ATOM     48  C   UNL A   1      37.564  32.663  31.915  1.00  0.00     0.037 A 
ATOM     49  C   UNL A   1      42.714  29.083  35.072  1.00  0.00     0.037 A 
ATOM     50  C   UNL A   1      38.041  33.233  33.150  1.00  0.00     0.049 A 
ATOM     51  C   UNL A   1      42.151  30.345  35.662  1.00  0.00     0.074 A 
ATOM     52  C   UNL A   1      37.594  34.367  33.807  1.00  0.00     0.029 A 
ATOM     53  N   UNL A   1      39.060  32.699  33.929  1.00  0.00    -0.354 N 
ATOM     54  N   UNL A   1      41.191  31.112  35.201  1.00  0.00    -0.248 NA
ATOM     55  C   UNL A   1      42.749  30.812  36.918  1.00  0.00     0.031 C 
ATOM     56  C   UNL A   1      38.366  34.538  34.962  1.00  0.00     0.029 A 
ATOM     57  C   UNL A   1      39.260  33.484  35.053  1.00  0.00     0.049 A 
ATOM     58  H   UNL A   1      39.564  31.881  33.713  1.00  0.00     0.167 HD
ATOM     59  C   UNL A   1      41.060  32.147  36.119  1.00  0.00     0.074 A 
ATOM     60  C   UNL A   1      42.024  31.892  37.172  1.00  0.00     0.031 C 
ATOM     61  C   UNL A   1      40.223  33.214  36.091  1.00  0.00     0.037 A 
BRANCH  48  62
ATOM     62  C   UNL A   1      36.465  33.381  31.176  1.00  0.00     0.058 A 
ATOM     63  C   UNL A   1      36.690  34.063  29.969  1.00  0.00     0.135 A 
ATOM     64  C   UNL A   1      35.151  33.360  31.674  1.00  0.00     0.135 A 
ATOM     65  F   UNL A   1      37.928  34.130  29.452  1.00  0.00    -0.206 F 
ATOM     66  C   UNL A   1      35.661  34.723  29.301  1.00  0.00     0.059 A 
ATOM     67  C   UNL A   1      34.101  33.987  31.009  1.00  0.00     0.059 A 
ATOM     68  F   UNL A   1      34.874  32.721  32.822  1.00  0.00    -0.206 F 
ATOM     69  C   UNL A   1      34.370  34.681  29.830  1.00  0.00     0.060 A 
BRANCH  69  70
ATOM     70  S   UNL A   1      33.044  35.538  28.952  1.00  0.00     0.124 S 
ATOM     71  O   UNL A   1      33.794  36.530  28.188  1.00  0.00    -0.237 OA
ATOM     72  O   UNL A   1      32.439  34.462  28.173  1.00  0.00    -0.237 OA
ATOM     73  O   UNL A   1      32.213  36.071  30.027  1.00  0.00    -0.744 OA
ENDBRANCH  69  70
ENDBRANCH  48  62
BRANCH  49  74
ATOM     74  C   UNL A   1      43.829  28.354  35.735  1.00  0.00     0.058 A 
ATOM     75  C   UNL A   1      45.167  28.645  35.436  1.00  0.00     0.135 A 
ATOM     76  C   UNL A   1      43.578  27.361  36.698  1.00  0.00     0.135 A 
ATOM     77  F   UNL A   1      45.461  29.577  34.515  1.00  0.00    -0.206 F 
ATOM     78  C   UNL A   1      46.217  27.975  36.058  1.00  0.00     0.059 A 
ATOM     79  C   UNL A   1      44.609  26.700  37.356  1.00  0.00     0.059 A 
ATOM     80  F   UNL A   1      42.315  27.051  37.031  1.00  0.00    -0.206 F 
ATOM     81  C   UNL A   1      45.926  27.006  37.020  1.00  0.00     0.060 A 
BRANCH  81  82
ATOM     82  S   UNL A   1      47.293  26.177  37.860  1.00  0.00     0.124 S 
ATOM     83  O   UNL A   1      47.800  27.243  38.716  1.00  0.00    -0.237 OA
ATOM     84  O   UNL A   1      46.616  25.078  38.541  1.00  0.00    -0.237 OA
ATOM     85  O   UNL A   1      48.169  25.779  36.762  1.00  0.00    -0.744 OA
ENDBRANCH  81  82
ENDBRANCH  49  74
BRANCH  61  86
ATOM     86  C   UNL A   1      40.292  34.160  37.257  1.00  0.00     0.058 A 
ATOM     87  C   UNL A   1      39.511  33.974  38.408  1.00  0.00     0.135 A 
ATOM     88  C   UNL A   1      41.160  35.263  37.224  1.00  0.00     0.135 A 
ATOM     89  F   UNL A   1      38.658  32.938  38.487  1.00  0.00    -0.206 F 
ATOM     90  C   UNL A   1      39.558  34.870  39.470  1.00  0.00     0.059 A 
ATOM     91  C   UNL A   1      41.245  36.156  38.287  1.00  0.00     0.059 A 
ATOM     92  F   UNL A   1      41.938  35.480  36.151  1.00  0.00    -0.206 F 
ATOM     93  C   UNL A   1      40.426  35.961  39.399  1.00  0.00     0.060 A 
BRANCH  93  94
ATOM     94  S   UNL A   1      40.481  37.119  40.783  1.00  0.00     0.124 S 
ATOM     95  O   UNL A   1      40.641  38.395  40.092  1.00  0.00    -0.237 OA
ATOM     96  O   UNL A   1      39.188  36.904  41.423  1.00  0.00    -0.237 OA
ATOM     97  O   UNL A   1      41.637  36.672  41.553  1.00  0.00    -0.744 OA
ENDBRANCH  93  94
ENDBRANCH  61  86
ENDBRANCH  35  36
ENDBRANCH  28  30
ENDBRANCH  27  28
ENDBRANCH   1  27
TORSDOF 16
ENDMDL
