MODEL 1
REMARK VINA RESULT:     -14.7      0.000      0.000
REMARK SMILES Cc1ccc(-c2cc(Cl)cc3c2O[C@@H](C(F)(F)F)C(C(=O)OCCOC(=O)c2ccc(-c4c5nc(c(-c6c(F)cc(S(=O)(=O)[O-])cc6F)c6ccc([nH]6)c(-c6c(F)cc(S(=O)(=O)[O-])cc6F)c6nc(c(-c7c(F)cc(S(=O)(=O)[O-])cc7F)c7ccc4[nH]7)C=C6)C=C5)cc2)=C3)cc1
REMARK SMILES IDX 24 1 23 2 22 3 20 4 21 5 19 6 6 7 7 8 12 9 8 10 11 11 13 12
REMARK SMILES IDX 9 13 10 14 94 15 14 16 5 17 1 18 2 19 3 20 96 21 4 22 95 23
REMARK SMILES IDX 15 24 16 25 17 26 18 27 25 28 26 29 27 30 28 31 29 32 93 33
REMARK SMILES IDX 30 34 92 35 31 36 32 37 33 38 86 39 34 40 91 41 85 42 87 43
REMARK SMILES IDX 35 44 90 45 84 46 83 47 36 49 70 50 49 51 69 52 50 53 53 54
REMARK SMILES IDX 68 55 88 56 51 57 52 58 67 60 89 61 54 62 37 63 38 64 47 65
REMARK SMILES IDX 39 66 40 67 46 68 48 69 41 70 42 71 43 72 44 73 45 74 71 75
REMARK SMILES IDX 72 76 81 77 73 78 74 79 80 80 82 81 75 82 76 83 77 84 78 85
REMARK SMILES IDX 79 86 55 87 56 88 65 89 57 90 58 91 64 92 66 93 59 94 60 95
REMARK SMILES IDX 61 96 62 97 63 98
REMARK H PARENT 87 48 53 59
REMARK Flexibility Score: inf
ROOT
ATOM      1  C   UNL A   1      39.554  22.471  26.526  1.00  0.00     0.275 C 
ENDROOT
BRANCH   1   2
ATOM      2  C   UNL A   1      38.576  23.819  26.492  1.00  0.00     0.275 C 
BRANCH   2   3
ATOM      3  O   UNL A   1      37.231  23.846  25.498  1.00  0.00    -0.459 OA
BRANCH   3   4
ATOM      4  C   UNL A   1      35.742  23.200  25.735  1.00  0.00     0.338 C 
ATOM      5  O   UNL A   1      35.361  23.312  26.855  1.00  0.00    -0.246 OA
BRANCH   4   6
ATOM      6  C   UNL A   1      34.437  22.634  24.305  1.00  0.00     0.087 C 
ATOM      7  C   UNL A   1      32.474  27.512  25.744  1.00  0.00     0.026 A 
ATOM      8  C   UNL A   1      30.667  27.940  25.077  1.00  0.00     0.033 A 
ATOM      9  C   UNL A   1      33.048  25.669  25.400  1.00  0.00     0.135 A 
ATOM     10  C   UNL A   1      29.597  26.590  24.190  1.00  0.00     0.042 A 
ATOM     11  C   UNL A   1      32.064  24.434  24.136  1.00  0.00     0.019 A 
ATOM     12  O   UNL A   1      34.863  24.722  25.492  1.00  0.00    -0.475 OA
ATOM     13  Cl  UNL A   1      28.088  27.098  23.504  1.00  0.00    -0.084 Cl
ATOM     14  C   UNL A   1      30.318  24.923  23.561  1.00  0.00     0.032 A 
ATOM     15  C   UNL A   1      33.103  22.983  23.602  1.00  0.00     0.027 C 
ATOM     16  C   UNL A   1      35.615  23.323  24.246  1.00  0.00     0.316 C 
BRANCH   7  17
ATOM     17  C   UNL A   1      33.091  28.714  26.457  1.00  0.00    -0.015 A 
ATOM     18  C   UNL A   1      35.482  31.872  28.091  1.00  0.00     0.044 C 
ATOM     19  C   UNL A   1      34.609  30.827  27.524  1.00  0.00    -0.051 A 
ATOM     20  C   UNL A   1      33.242  30.985  27.253  1.00  0.00     0.004 A 
ATOM     21  C   UNL A   1      35.156  29.588  27.469  1.00  0.00     0.004 A 
ATOM     22  C   UNL A   1      32.487  29.920  26.733  1.00  0.00     0.009 A 
ATOM     23  C   UNL A   1      34.284  28.587  27.192  1.00  0.00     0.009 A 
ENDBRANCH   7  17
BRANCH  16  24
ATOM     24  C   UNL A   1      36.024  21.459  24.851  1.00  0.00     0.430 C 
ATOM     25  F   UNL A   1      37.233  21.067  24.249  1.00  0.00    -0.167 F 
ATOM     26  F   UNL A   1      36.185  21.053  26.111  1.00  0.00    -0.167 F 
ATOM     27  F   UNL A   1      35.054  20.607  24.348  1.00  0.00    -0.167 F 
ENDBRANCH  16  24
ENDBRANCH   4   6
ENDBRANCH   3   4
ENDBRANCH   2   3
ENDBRANCH   1   2
BRANCH   1  28
ATOM     28  O   UNL A   1      40.752  22.303  27.298  1.00  0.00    -0.458 OA
BRANCH  28  29
ATOM     29  C   UNL A   1      41.906  22.398  26.624  1.00  0.00     0.338 C 
ATOM     30  O   UNL A   1      42.533  21.552  26.034  1.00  0.00    -0.246 OA
BRANCH  29  31
ATOM     31  C   UNL A   1      42.172  23.770  26.722  1.00  0.00     0.060 A 
ATOM     32  C   UNL A   1      41.936  25.017  25.376  1.00  0.00     0.016 A 
ATOM     33  C   UNL A   1      42.200  24.481  28.390  1.00  0.00     0.016 A 
ATOM     34  C   UNL A   1      41.968  26.814  26.391  1.00  0.00     0.010 A 
ATOM     35  C   UNL A   1      41.909  26.011  28.893  1.00  0.00     0.010 A 
ATOM     36  C   UNL A   1      42.056  27.306  28.094  1.00  0.00    -0.014 A 
BRANCH  36  37
ATOM     37  C   UNL A   1      42.150  27.773  29.793  1.00  0.00     0.031 A 
ATOM     38  C   UNL A   1      40.831  29.106  29.448  1.00  0.00     0.074 A 
ATOM     39  C   UNL A   1      43.071  27.063  30.976  1.00  0.00     0.049 A 
ATOM     40  N   UNL A   1      40.915  30.428  29.330  1.00  0.00    -0.248 NA
ATOM     41  C   UNL A   1      39.350  29.095  28.647  1.00  0.00     0.031 C 
ATOM     42  C   UNL A   1      43.521  27.180  32.694  1.00  0.00     0.029 A 
ATOM     43  N   UNL A   1      44.208  26.098  30.859  1.00  0.00    -0.354 N 
ATOM     44  C   UNL A   1      39.539  30.961  29.503  1.00  0.00     0.074 A 
ATOM     45  C   UNL A   1      38.623  30.199  28.788  1.00  0.00     0.031 C 
ATOM     46  C   UNL A   1      44.888  27.021  32.917  1.00  0.00     0.029 A 
ATOM     47  C   UNL A   1      45.353  26.623  31.622  1.00  0.00     0.049 A 
ATOM     48  H   UNL A   1      44.194  25.251  30.355  1.00  0.00     0.167 HD
ATOM     49  C   UNL A   1      39.109  31.414  30.710  1.00  0.00     0.037 A 
ATOM     50  C   UNL A   1      46.138  27.474  30.931  1.00  0.00     0.037 A 
ATOM     51  C   UNL A   1      40.170  31.063  31.599  1.00  0.00     0.049 A 
ATOM     52  C   UNL A   1      45.761  28.802  31.390  1.00  0.00     0.074 A 
ATOM     53  C   UNL A   1      40.298  30.054  32.518  1.00  0.00     0.029 A 
ATOM     54  N   UNL A   1      41.429  31.525  31.295  1.00  0.00    -0.354 N 
ATOM     55  N   UNL A   1      44.570  29.318  31.431  1.00  0.00    -0.248 NA
ATOM     56  C   UNL A   1      46.854  29.590  31.845  1.00  0.00     0.031 C 
ATOM     57  C   UNL A   1      41.665  30.058  32.891  1.00  0.00     0.029 A 
ATOM     58  C   UNL A   1      42.367  30.972  32.115  1.00  0.00     0.049 A 
ATOM     59  H   UNL A   1      41.629  32.170  30.578  1.00  0.00     0.167 HD
ATOM     60  C   UNL A   1      44.732  30.597  31.810  1.00  0.00     0.074 A 
ATOM     61  C   UNL A   1      46.174  30.722  31.795  1.00  0.00     0.031 C 
ATOM     62  C   UNL A   1      43.725  31.478  32.035  1.00  0.00     0.037 A 
BRANCH  49  63
ATOM     63  C   UNL A   1      37.760  31.870  31.257  1.00  0.00     0.058 A 
ATOM     64  C   UNL A   1      37.692  33.261  31.516  1.00  0.00     0.135 A 
ATOM     65  C   UNL A   1      36.543  31.180  31.478  1.00  0.00     0.135 A 
ATOM     66  F   UNL A   1      38.757  34.055  31.347  1.00  0.00    -0.206 F 
ATOM     67  C   UNL A   1      36.553  33.931  31.929  1.00  0.00     0.059 A 
ATOM     68  C   UNL A   1      35.361  31.849  31.866  1.00  0.00     0.059 A 
ATOM     69  F   UNL A   1      36.428  29.849  31.342  1.00  0.00    -0.206 F 
ATOM     70  C   UNL A   1      35.379  33.223  32.089  1.00  0.00     0.060 A 
BRANCH  70  71
ATOM     71  S   UNL A   1      33.907  34.123  32.607  1.00  0.00     0.124 S 
ATOM     72  O   UNL A   1      33.392  34.620  31.336  1.00  0.00    -0.237 OA
ATOM     73  O   UNL A   1      33.113  33.082  33.251  1.00  0.00    -0.237 OA
ATOM     74  O   UNL A   1      34.437  35.146  33.505  1.00  0.00    -0.744 OA
ENDBRANCH  70  71
ENDBRANCH  49  63
BRANCH  50  75
ATOM     75  C   UNL A   1      46.059  27.110  29.531  1.00  0.00     0.058 A 
ATOM     76  C   UNL A   1      45.642  28.131  28.749  1.00  0.00     0.135 A 
ATOM     77  C   UNL A   1      46.814  26.106  28.924  1.00  0.00     0.135 A 
ATOM     78  F   UNL A   1      45.294  29.348  29.235  1.00  0.00    -0.206 F 
ATOM     79  C   UNL A   1      45.919  28.067  27.422  1.00  0.00     0.059 A 
ATOM     80  C   UNL A   1      47.112  26.099  27.529  1.00  0.00     0.059 A 
ATOM     81  F   UNL A   1      47.440  25.204  29.697  1.00  0.00    -0.206 F 
ATOM     82  C   UNL A   1      46.693  27.156  26.586  1.00  0.00     0.060 A 
BRANCH  82  83
ATOM     83  S   UNL A   1      47.305  27.494  24.158  1.00  0.00     0.124 S 
ATOM     84  O   UNL A   1      46.779  28.590  23.319  1.00  0.00    -0.237 OA
ATOM     85  O   UNL A   1      48.702  27.337  23.758  1.00  0.00    -0.237 OA
ATOM     86  O   UNL A   1      46.432  26.810  25.170  1.00  0.00    -0.744 OA
ENDBRANCH  82  83
ENDBRANCH  50  75
BRANCH  62  87
ATOM     87  C   UNL A   1      44.027  32.946  32.195  1.00  0.00     0.058 A 
ATOM     88  C   UNL A   1      44.281  33.814  31.117  1.00  0.00     0.135 A 
ATOM     89  C   UNL A   1      44.120  33.568  33.455  1.00  0.00     0.135 A 
ATOM     90  F   UNL A   1      44.629  33.411  29.894  1.00  0.00    -0.206 F 
ATOM     91  C   UNL A   1      44.407  35.171  31.231  1.00  0.00     0.059 A 
ATOM     92  C   UNL A   1      44.391  34.920  33.608  1.00  0.00     0.059 A 
ATOM     93  F   UNL A   1      44.025  32.910  34.614  1.00  0.00    -0.206 F 
ATOM     94  C   UNL A   1      44.516  35.712  32.485  1.00  0.00     0.060 A 
BRANCH  94  95
ATOM     95  S   UNL A   1      44.969  37.428  32.557  1.00  0.00     0.124 S 
ATOM     96  O   UNL A   1      45.824  37.462  33.742  1.00  0.00    -0.237 OA
ATOM     97  O   UNL A   1      45.657  37.595  31.282  1.00  0.00    -0.237 OA
ATOM     98  O   UNL A   1      43.687  38.108  32.684  1.00  0.00    -0.744 OA
ENDBRANCH  94  95
ENDBRANCH  62  87
ENDBRANCH  36  37
ENDBRANCH  29  31
ENDBRANCH  28  29
ENDBRANCH   1  28
TORSDOF 16
ENDMDL
MODEL 2
REMARK VINA RESULT:     -14.4      3.746      9.605
REMARK SMILES Cc1ccc(-c2cc(Cl)cc3c2O[C@@H](C(F)(F)F)C(C(=O)OCCOC(=O)c2ccc(-c4c5nc(c(-c6c(F)cc(S(=O)(=O)[O-])cc6F)c6ccc([nH]6)c(-c6c(F)cc(S(=O)(=O)[O-])cc6F)c6nc(c(-c7c(F)cc(S(=O)(=O)[O-])cc7F)c7ccc4[nH]7)C=C6)C=C5)cc2)=C3)cc1
REMARK SMILES IDX 24 1 23 2 22 3 20 4 21 5 19 6 6 7 7 8 12 9 8 10 11 11 13 12
REMARK SMILES IDX 9 13 10 14 94 15 14 16 5 17 1 18 2 19 3 20 96 21 4 22 95 23
REMARK SMILES IDX 15 24 16 25 17 26 18 27 25 28 26 29 27 30 28 31 29 32 93 33
REMARK SMILES IDX 30 34 92 35 31 36 32 37 33 38 86 39 34 40 91 41 85 42 87 43
REMARK SMILES IDX 35 44 90 45 84 46 83 47 36 49 70 50 49 51 69 52 50 53 53 54
REMARK SMILES IDX 68 55 88 56 51 57 52 58 67 60 89 61 54 62 37 63 38 64 47 65
REMARK SMILES IDX 39 66 40 67 46 68 48 69 41 70 42 71 43 72 44 73 45 74 71 75
REMARK SMILES IDX 72 76 81 77 73 78 74 79 80 80 82 81 75 82 76 83 77 84 78 85
REMARK SMILES IDX 79 86 55 87 56 88 65 89 57 90 58 91 64 92 66 93 59 94 60 95
REMARK SMILES IDX 61 96 62 97 63 98
REMARK H PARENT 87 48 53 59
REMARK Flexibility Score: inf
ROOT
ATOM      1  C   UNL A   1      34.758  31.479  27.570  1.00  0.00     0.275 C 
ENDROOT
BRANCH   1   2
ATOM      2  C   UNL A   1      35.357  29.924  27.563  1.00  0.00     0.275 C 
BRANCH   2   3
ATOM      3  O   UNL A   1      34.340  28.643  27.216  1.00  0.00    -0.459 OA
BRANCH   3   4
ATOM      4  C   UNL A   1      33.607  28.240  25.806  1.00  0.00     0.338 C 
ATOM      5  O   UNL A   1      34.321  28.354  24.863  1.00  0.00    -0.246 OA
BRANCH   4   6
ATOM      6  C   UNL A   1      31.856  27.261  25.598  1.00  0.00     0.087 C 
ATOM      7  C   UNL A   1      35.462  23.189  25.252  1.00  0.00     0.026 A 
ATOM      8  C   UNL A   1      34.749  21.464  24.610  1.00  0.00     0.033 A 
ATOM      9  C   UNL A   1      34.193  24.678  25.144  1.00  0.00     0.135 A 
ATOM     10  C   UNL A   1      32.944  21.338  23.920  1.00  0.00     0.042 A 
ATOM     11  C   UNL A   1      32.219  24.412  24.792  1.00  0.00     0.019 A 
ATOM     12  O   UNL A   1      34.166  26.562  25.950  1.00  0.00    -0.475 OA
ATOM     13  Cl  UNL A   1      32.354  19.756  23.524  1.00  0.00    -0.084 Cl
ATOM     14  C   UNL A   1      31.629  22.719  24.158  1.00  0.00     0.032 A 
ATOM     15  C   UNL A   1      31.201  25.898  25.269  1.00  0.00     0.027 C 
ATOM     16  C   UNL A   1      32.595  27.587  26.699  1.00  0.00     0.316 C 
BRANCH   7  17
ATOM     17  C   UNL A   1      36.920  23.048  25.688  1.00  0.00    -0.015 A 
ATOM     18  C   UNL A   1      40.780  23.052  27.548  1.00  0.00     0.044 C 
ATOM     19  C   UNL A   1      39.463  22.990  26.886  1.00  0.00    -0.051 A 
ATOM     20  C   UNL A   1      39.023  21.934  26.075  1.00  0.00     0.004 A 
ATOM     21  C   UNL A   1      38.745  24.139  26.925  1.00  0.00     0.004 A 
ATOM     22  C   UNL A   1      37.756  21.977  25.468  1.00  0.00     0.009 A 
ATOM     23  C   UNL A   1      37.661  24.167  26.110  1.00  0.00     0.009 A 
ENDBRANCH   7  17
BRANCH  16  24
ATOM     24  C   UNL A   1      31.938  29.289  25.877  1.00  0.00     0.430 C 
ATOM     25  F   UNL A   1      31.476  30.118  26.915  1.00  0.00    -0.167 F 
ATOM     26  F   UNL A   1      32.648  30.134  25.129  1.00  0.00    -0.167 F 
ATOM     27  F   UNL A   1      30.828  29.004  25.095  1.00  0.00    -0.167 F 
ENDBRANCH  16  24
ENDBRANCH   4   6
ENDBRANCH   3   4
ENDBRANCH   2   3
ENDBRANCH   1   2
BRANCH   1  28
ATOM     28  O   UNL A   1      35.510  32.686  27.368  1.00  0.00    -0.458 OA
BRANCH  28  29
ATOM     29  C   UNL A   1      35.251  33.690  28.216  1.00  0.00     0.338 C 
ATOM     30  O   UNL A   1      34.705  34.749  28.021  1.00  0.00    -0.246 OA
BRANCH  29  31
ATOM     31  C   UNL A   1      35.722  33.163  29.424  1.00  0.00     0.060 A 
ATOM     32  C   UNL A   1      34.760  32.094  30.587  1.00  0.00     0.016 A 
ATOM     33  C   UNL A   1      37.522  33.021  29.607  1.00  0.00     0.016 A 
ATOM     34  C   UNL A   1      36.225  31.265  31.782  1.00  0.00     0.010 A 
ATOM     35  C   UNL A   1      38.414  32.003  30.529  1.00  0.00     0.010 A 
ATOM     36  C   UNL A   1      38.000  31.297  31.819  1.00  0.00    -0.014 A 
BRANCH  36  37
ATOM     37  C   UNL A   1      39.763  31.349  31.841  1.00  0.00     0.031 A 
ATOM     38  C   UNL A   1      39.773  29.659  30.958  1.00  0.00     0.074 A 
ATOM     39  C   UNL A   1      40.721  32.577  32.410  1.00  0.00     0.049 A 
ATOM     40  N   UNL A   1      40.045  28.432  31.394  1.00  0.00    -0.248 NA
ATOM     41  C   UNL A   1      38.954  29.040  29.623  1.00  0.00     0.031 C 
ATOM     42  C   UNL A   1      42.413  33.056  32.681  1.00  0.00     0.029 A 
ATOM     43  N   UNL A   1      40.368  33.754  33.264  1.00  0.00    -0.354 N 
ATOM     44  C   UNL A   1      40.318  27.602  30.191  1.00  0.00     0.074 A 
ATOM     45  C   UNL A   1      39.383  27.857  29.195  1.00  0.00     0.031 C 
ATOM     46  C   UNL A   1      42.626  33.645  33.927  1.00  0.00     0.029 A 
ATOM     47  C   UNL A   1      41.289  33.794  34.414  1.00  0.00     0.049 A 
ATOM     48  H   UNL A   1      39.642  34.396  33.089  1.00  0.00     0.167 HD
ATOM     49  C   UNL A   1      41.589  27.388  29.762  1.00  0.00     0.037 A 
ATOM     50  C   UNL A   1      40.899  33.044  35.464  1.00  0.00     0.037 A 
ATOM     51  C   UNL A   1      42.374  28.246  30.591  1.00  0.00     0.049 A 
ATOM     52  C   UNL A   1      41.708  31.837  35.395  1.00  0.00     0.074 A 
ATOM     53  C   UNL A   1      42.966  29.459  30.350  1.00  0.00     0.029 A 
ATOM     54  N   UNL A   1      42.259  28.091  31.952  1.00  0.00    -0.354 N 
ATOM     55  N   UNL A   1      41.857  31.040  34.380  1.00  0.00    -0.248 NA
ATOM     56  C   UNL A   1      42.407  31.538  36.597  1.00  0.00     0.031 C 
ATOM     57  C   UNL A   1      43.371  29.937  31.621  1.00  0.00     0.029 A 
ATOM     58  C   UNL A   1      42.915  29.083  32.617  1.00  0.00     0.049 A 
ATOM     59  H   UNL A   1      41.766  27.359  32.390  1.00  0.00     0.167 HD
ATOM     60  C   UNL A   1      42.594  30.007  34.825  1.00  0.00     0.074 A 
ATOM     61  C   UNL A   1      42.663  30.291  36.241  1.00  0.00     0.031 C 
ATOM     62  C   UNL A   1      43.030  28.974  34.061  1.00  0.00     0.037 A 
BRANCH  49  63
ATOM     63  C   UNL A   1      42.199  26.737  28.525  1.00  0.00     0.058 A 
ATOM     64  C   UNL A   1      43.201  25.780  28.820  1.00  0.00     0.135 A 
ATOM     65  C   UNL A   1      41.898  26.853  27.145  1.00  0.00     0.135 A 
ATOM     66  F   UNL A   1      43.593  25.547  30.080  1.00  0.00    -0.206 F 
ATOM     67  C   UNL A   1      43.838  24.990  27.879  1.00  0.00     0.059 A 
ATOM     68  C   UNL A   1      42.511  26.033  26.172  1.00  0.00     0.059 A 
ATOM     69  F   UNL A   1      41.019  27.747  26.667  1.00  0.00    -0.206 F 
ATOM     70  C   UNL A   1      43.480  25.107  26.551  1.00  0.00     0.060 A 
BRANCH  70  71
ATOM     71  S   UNL A   1      44.310  24.053  25.350  1.00  0.00     0.124 S 
ATOM     72  O   UNL A   1      43.186  23.509  24.595  1.00  0.00    -0.237 OA
ATOM     73  O   UNL A   1      45.158  25.000  24.633  1.00  0.00    -0.237 OA
ATOM     74  O   UNL A   1      45.023  23.088  26.183  1.00  0.00    -0.744 OA
ENDBRANCH  70  71
ENDBRANCH  49  63
BRANCH  50  75
ATOM     75  C   UNL A   1      39.451  32.982  35.450  1.00  0.00     0.058 A 
ATOM     76  C   UNL A   1      38.875  34.204  35.498  1.00  0.00     0.135 A 
ATOM     77  C   UNL A   1      38.704  31.943  34.893  1.00  0.00     0.135 A 
ATOM     78  F   UNL A   1      39.581  35.357  35.596  1.00  0.00    -0.206 F 
ATOM     79  C   UNL A   1      37.590  34.315  35.077  1.00  0.00     0.059 A 
ATOM     80  C   UNL A   1      37.366  32.116  34.429  1.00  0.00     0.059 A 
ATOM     81  F   UNL A   1      39.313  30.779  34.614  1.00  0.00    -0.206 F 
ATOM     82  C   UNL A   1      36.640  33.402  34.451  1.00  0.00     0.060 A 
BRANCH  82  83
ATOM     83  S   UNL A   1      34.394  34.009  33.466  1.00  0.00     0.124 S 
ATOM     84  O   UNL A   1      34.215  34.924  32.319  1.00  0.00    -0.237 OA
ATOM     85  O   UNL A   1      33.402  32.953  33.278  1.00  0.00    -0.237 OA
ATOM     86  O   UNL A   1      35.444  34.273  34.506  1.00  0.00    -0.744 OA
ENDBRANCH  82  83
ENDBRANCH  50  75
BRANCH  62  87
ATOM     87  C   UNL A   1      43.616  27.748  34.712  1.00  0.00     0.058 A 
ATOM     88  C   UNL A   1      42.843  26.710  35.262  1.00  0.00     0.135 A 
ATOM     89  C   UNL A   1      45.004  27.558  34.860  1.00  0.00     0.135 A 
ATOM     90  F   UNL A   1      41.556  26.825  35.592  1.00  0.00    -0.206 F 
ATOM     91  C   UNL A   1      43.353  25.526  35.720  1.00  0.00     0.059 A 
ATOM     92  C   UNL A   1      45.550  26.429  35.452  1.00  0.00     0.059 A 
ATOM     93  F   UNL A   1      45.917  28.469  34.509  1.00  0.00    -0.206 F 
ATOM     94  C   UNL A   1      44.711  25.413  35.863  1.00  0.00     0.060 A 
BRANCH  94  95
ATOM     95  S   UNL A   1      45.287  23.974  36.729  1.00  0.00     0.124 S 
ATOM     96  O   UNL A   1      44.643  22.897  35.980  1.00  0.00    -0.237 OA
ATOM     97  O   UNL A   1      46.730  24.089  36.547  1.00  0.00    -0.237 OA
ATOM     98  O   UNL A   1      44.797  24.181  38.086  1.00  0.00    -0.744 OA
ENDBRANCH  94  95
ENDBRANCH  62  87
ENDBRANCH  36  37
ENDBRANCH  29  31
ENDBRANCH  28  29
ENDBRANCH   1  28
TORSDOF 16
ENDMDL
MODEL 3
REMARK VINA RESULT:     -14.4      3.628      9.476
REMARK SMILES Cc1ccc(-c2cc(Cl)cc3c2O[C@@H](C(F)(F)F)C(C(=O)OCCOC(=O)c2ccc(-c4c5nc(c(-c6c(F)cc(S(=O)(=O)[O-])cc6F)c6ccc([nH]6)c(-c6c(F)cc(S(=O)(=O)[O-])cc6F)c6nc(c(-c7c(F)cc(S(=O)(=O)[O-])cc7F)c7ccc4[nH]7)C=C6)C=C5)cc2)=C3)cc1
REMARK SMILES IDX 24 1 23 2 22 3 20 4 21 5 19 6 6 7 7 8 12 9 8 10 11 11 13 12
REMARK SMILES IDX 9 13 10 14 94 15 14 16 5 17 1 18 2 19 3 20 96 21 4 22 95 23
REMARK SMILES IDX 15 24 16 25 17 26 18 27 25 28 26 29 27 30 28 31 29 32 93 33
REMARK SMILES IDX 30 34 92 35 31 36 32 37 33 38 86 39 34 40 91 41 85 42 87 43
REMARK SMILES IDX 35 44 90 45 84 46 83 47 36 49 70 50 49 51 69 52 50 53 53 54
REMARK SMILES IDX 68 55 88 56 51 57 52 58 67 60 89 61 54 62 37 63 38 64 47 65
REMARK SMILES IDX 39 66 40 67 46 68 48 69 41 70 42 71 43 72 44 73 45 74 71 75
REMARK SMILES IDX 72 76 81 77 73 78 74 79 80 80 82 81 75 82 76 83 77 84 78 85
REMARK SMILES IDX 79 86 55 87 56 88 65 89 57 90 58 91 64 92 66 93 59 94 60 95
REMARK SMILES IDX 61 96 62 97 63 98
REMARK H PARENT 87 48 53 59
REMARK Flexibility Score: inf
ROOT
ATOM      1  C   UNL A   1      34.819  31.188  27.626  1.00  0.00     0.275 C 
ENDROOT
BRANCH   1   2
ATOM      2  C   UNL A   1      35.438  29.687  27.253  1.00  0.00     0.275 C 
BRANCH   2   3
ATOM      3  O   UNL A   1      34.401  28.407  26.963  1.00  0.00    -0.459 OA
BRANCH   3   4
ATOM      4  C   UNL A   1      33.632  27.976  25.580  1.00  0.00     0.338 C 
ATOM      5  O   UNL A   1      34.319  28.079  24.616  1.00  0.00    -0.246 OA
BRANCH   4   6
ATOM      6  C   UNL A   1      31.882  26.983  25.438  1.00  0.00     0.087 C 
ATOM      7  C   UNL A   1      35.502  22.915  25.194  1.00  0.00     0.026 A 
ATOM      8  C   UNL A   1      34.788  21.163  24.631  1.00  0.00     0.033 A 
ATOM      9  C   UNL A   1      34.224  24.394  25.048  1.00  0.00     0.135 A 
ATOM     10  C   UNL A   1      32.972  21.003  23.974  1.00  0.00     0.042 A 
ATOM     11  C   UNL A   1      32.246  24.106  24.737  1.00  0.00     0.019 A 
ATOM     12  O   UNL A   1      34.201  26.307  25.781  1.00  0.00    -0.475 OA
ATOM     13  Cl  UNL A   1      32.384  19.404  23.649  1.00  0.00    -0.084 Cl
ATOM     14  C   UNL A   1      31.654  22.387  24.180  1.00  0.00     0.032 A 
ATOM     15  C   UNL A   1      31.229  25.605  25.172  1.00  0.00     0.027 C 
ATOM     16  C   UNL A   1      32.637  27.354  26.514  1.00  0.00     0.316 C 
BRANCH   7  17
ATOM     17  C   UNL A   1      36.967  22.797  25.612  1.00  0.00    -0.015 A 
ATOM     18  C   UNL A   1      40.846  22.849  27.432  1.00  0.00     0.044 C 
ATOM     19  C   UNL A   1      39.524  22.771  26.783  1.00  0.00    -0.051 A 
ATOM     20  C   UNL A   1      39.098  21.722  25.956  1.00  0.00     0.004 A 
ATOM     21  C   UNL A   1      38.782  23.903  26.850  1.00  0.00     0.004 A 
ATOM     22  C   UNL A   1      37.823  21.748  25.363  1.00  0.00     0.009 A 
ATOM     23  C   UNL A   1      37.689  23.923  26.048  1.00  0.00     0.009 A 
ENDBRANCH   7  17
BRANCH  16  24
ATOM     24  C   UNL A   1      31.959  29.020  25.637  1.00  0.00     0.430 C 
ATOM     25  F   UNL A   1      31.776  29.990  26.639  1.00  0.00    -0.167 F 
ATOM     26  F   UNL A   1      32.568  29.713  24.674  1.00  0.00    -0.167 F 
ATOM     27  F   UNL A   1      30.698  28.767  25.118  1.00  0.00    -0.167 F 
ENDBRANCH  16  24
ENDBRANCH   4   6
ENDBRANCH   3   4
ENDBRANCH   2   3
ENDBRANCH   1   2
BRANCH   1  28
ATOM     28  O   UNL A   1      35.572  32.373  27.926  1.00  0.00    -0.458 OA
BRANCH  28  29
ATOM     29  C   UNL A   1      35.427  32.866  29.164  1.00  0.00     0.338 C 
ATOM     30  O   UNL A   1      34.676  33.716  29.578  1.00  0.00    -0.246 OA
BRANCH  29  31
ATOM     31  C   UNL A   1      36.337  32.082  29.883  1.00  0.00     0.060 A 
ATOM     32  C   UNL A   1      35.924  30.570  30.866  1.00  0.00     0.016 A 
ATOM     33  C   UNL A   1      38.078  32.185  29.385  1.00  0.00     0.016 A 
ATOM     34  C   UNL A   1      37.761  29.668  31.134  1.00  0.00     0.010 A 
ATOM     35  C   UNL A   1      39.290  31.096  29.543  1.00  0.00     0.010 A 
ATOM     36  C   UNL A   1      39.417  29.976  30.575  1.00  0.00    -0.014 A 
BRANCH  36  37
ATOM     37  C   UNL A   1      41.057  30.304  30.013  1.00  0.00     0.031 A 
ATOM     38  C   UNL A   1      41.233  28.451  29.599  1.00  0.00     0.074 A 
ATOM     39  C   UNL A   1      41.812  31.779  29.935  1.00  0.00     0.049 A 
ATOM     40  N   UNL A   1      41.895  27.467  30.200  1.00  0.00    -0.248 NA
ATOM     41  C   UNL A   1      40.258  27.344  28.786  1.00  0.00     0.031 C 
ATOM     42  C   UNL A   1      43.350  32.573  29.524  1.00  0.00     0.029 A 
ATOM     43  N   UNL A   1      41.431  33.087  30.555  1.00  0.00    -0.354 N 
ATOM     44  C   UNL A   1      42.025  26.370  29.205  1.00  0.00     0.074 A 
ATOM     45  C   UNL A   1      40.825  26.169  28.534  1.00  0.00     0.031 C 
ATOM     46  C   UNL A   1      43.742  33.531  30.458  1.00  0.00     0.029 A 
ATOM     47  C   UNL A   1      42.589  33.609  31.302  1.00  0.00     0.049 A 
ATOM     48  H   UNL A   1      40.553  33.526  30.477  1.00  0.00     0.167 HD
ATOM     49  C   UNL A   1      43.147  26.238  28.451  1.00  0.00     0.037 A 
ATOM     50  C   UNL A   1      42.685  33.154  32.567  1.00  0.00     0.037 A 
ATOM     51  C   UNL A   1      43.898  27.414  28.755  1.00  0.00     0.049 A 
ATOM     52  C   UNL A   1      43.709  32.121  32.527  1.00  0.00     0.074 A 
ATOM     53  C   UNL A   1      44.098  28.577  28.057  1.00  0.00     0.029 A 
ATOM     54  N   UNL A   1      44.192  27.654  30.076  1.00  0.00    -0.354 N 
ATOM     55  N   UNL A   1      43.766  31.092  31.736  1.00  0.00    -0.248 NA
ATOM     56  C   UNL A   1      44.755  32.305  33.473  1.00  0.00     0.031 C 
ATOM     57  C   UNL A   1      44.702  29.467  28.979  1.00  0.00     0.029 A 
ATOM     58  C   UNL A   1      44.747  28.888  30.240  1.00  0.00     0.049 A 
ATOM     59  H   UNL A   1      44.023  27.018  30.810  1.00  0.00     0.167 HD
ATOM     60  C   UNL A   1      44.819  30.365  32.149  1.00  0.00     0.074 A 
ATOM     61  C   UNL A   1      45.196  31.064  33.358  1.00  0.00     0.031 C 
ATOM     62  C   UNL A   1      45.267  29.231  31.552  1.00  0.00     0.037 A 
BRANCH  49  63
ATOM     63  C   UNL A   1      43.541  25.351  27.274  1.00  0.00     0.058 A 
ATOM     64  C   UNL A   1      44.402  24.283  27.626  1.00  0.00     0.135 A 
ATOM     65  C   UNL A   1      43.144  25.349  25.914  1.00  0.00     0.135 A 
ATOM     66  F   UNL A   1      44.859  24.141  28.878  1.00  0.00    -0.206 F 
ATOM     67  C   UNL A   1      44.825  23.292  26.758  1.00  0.00     0.059 A 
ATOM     68  C   UNL A   1      43.537  24.329  25.019  1.00  0.00     0.059 A 
ATOM     69  F   UNL A   1      42.378  26.313  25.379  1.00  0.00    -0.206 F 
ATOM     70  C   UNL A   1      44.377  23.307  25.453  1.00  0.00     0.060 A 
BRANCH  70  71
ATOM     71  S   UNL A   1      44.928  21.994  24.350  1.00  0.00     0.124 S 
ATOM     72  O   UNL A   1      44.467  20.798  25.048  1.00  0.00    -0.237 OA
ATOM     73  O   UNL A   1      44.230  22.313  23.109  1.00  0.00    -0.237 OA
ATOM     74  O   UNL A   1      46.377  22.171  24.312  1.00  0.00    -0.744 OA
ENDBRANCH  70  71
ENDBRANCH  49  63
BRANCH  50  75
ATOM     75  C   UNL A   1      41.344  32.866  33.036  1.00  0.00     0.058 A 
ATOM     76  C   UNL A   1      41.285  31.748  33.794  1.00  0.00     0.135 A 
ATOM     77  C   UNL A   1      40.344  33.821  33.223  1.00  0.00     0.135 A 
ATOM     78  F   UNL A   1      42.359  30.960  34.046  1.00  0.00    -0.206 F 
ATOM     79  C   UNL A   1      40.219  31.599  34.621  1.00  0.00     0.059 A 
ATOM     80  C   UNL A   1      39.260  33.636  34.132  1.00  0.00     0.059 A 
ATOM     81  F   UNL A   1      40.489  35.034  32.668  1.00  0.00    -0.206 F 
ATOM     82  C   UNL A   1      39.093  32.448  34.994  1.00  0.00     0.060 A 
BRANCH  82  83
ATOM     83  S   UNL A   1      37.425  32.010  36.841  1.00  0.00     0.124 S 
ATOM     84  O   UNL A   1      37.626  31.016  37.916  1.00  0.00    -0.237 OA
ATOM     85  O   UNL A   1      36.774  33.149  37.483  1.00  0.00    -0.237 OA
ATOM     86  O   UNL A   1      37.877  31.728  35.437  1.00  0.00    -0.744 OA
ENDBRANCH  82  83
ENDBRANCH  50  75
BRANCH  62  87
ATOM     87  C   UNL A   1      46.280  28.361  32.248  1.00  0.00     0.058 A 
ATOM     88  C   UNL A   1      47.664  28.425  32.006  1.00  0.00     0.135 A 
ATOM     89  C   UNL A   1      45.915  27.372  33.183  1.00  0.00     0.135 A 
ATOM     90  F   UNL A   1      48.212  28.979  30.924  1.00  0.00    -0.206 F 
ATOM     91  C   UNL A   1      48.608  27.752  32.733  1.00  0.00     0.059 A 
ATOM     92  C   UNL A   1      46.844  26.572  33.833  1.00  0.00     0.059 A 
ATOM     93  F   UNL A   1      44.649  27.066  33.480  1.00  0.00    -0.206 F 
ATOM     94  C   UNL A   1      48.189  26.785  33.609  1.00  0.00     0.060 A 
BRANCH  94  95
ATOM     95  S   UNL A   1      49.460  25.755  34.299  1.00  0.00     0.124 S 
ATOM     96  O   UNL A   1      48.904  24.419  34.098  1.00  0.00    -0.237 OA
ATOM     97  O   UNL A   1      50.596  26.096  33.450  1.00  0.00    -0.237 OA
ATOM     98  O   UNL A   1      49.541  26.204  35.683  1.00  0.00    -0.744 OA
ENDBRANCH  94  95
ENDBRANCH  62  87
ENDBRANCH  36  37
ENDBRANCH  29  31
ENDBRANCH  28  29
ENDBRANCH   1  28
TORSDOF 16
ENDMDL
