MODEL 1
REMARK VINA RESULT:     -13.1      0.000      0.000
REMARK SMILES Cc1ccc(S(=O)(=O)Nc2ccccn2)cc1C(=O)OCCOC(=O)c1ccc(-c2c3nc(c(-c4c(F)cc(S(=O)(=O)[O-])cc4F)c4ccc([nH]4)c(-c4c(F)cc(S(=O)(=O)[O-])cc4F)c4nc(c(-c5c(F)cc(S(=O)(=O)[O-])cc5F)c5ccc2[nH]5)C=C4)C=C3)cc1
REMARK SMILES IDX 21 1 20 2 18 3 19 4 17 5 1 6 2 7 3 8 4 9 16 10 5 11 6 12
REMARK SMILES IDX 7 13 8 14 9 15 10 17 11 18 15 19 12 20 14 21 13 22 22 23
REMARK SMILES IDX 23 24 24 25 25 26 26 27 27 28 91 29 28 30 90 31 29 32 30 33
REMARK SMILES IDX 31 34 84 35 32 36 89 37 83 38 85 39 33 40 88 41 82 42 81 43
REMARK SMILES IDX 34 45 68 46 47 47 67 48 48 49 51 50 66 51 86 52 49 53 50 54
REMARK SMILES IDX 65 56 87 57 52 58 35 59 36 60 45 61 37 62 38 63 44 64 46 65
REMARK SMILES IDX 39 66 40 67 41 68 42 69 43 70 69 71 70 72 79 73 71 74 72 75
REMARK SMILES IDX 78 76 80 77 73 78 74 79 75 80 76 81 77 82 53 83 54 84 63 85
REMARK SMILES IDX 55 86 56 87 62 88 64 89 57 90 58 91 59 92 60 93 61 94
REMARK H PARENT 9 16 85 44 51 55
REMARK Flexibility Score: inf
ROOT
ATOM      1  C   UNL A   1      36.611  22.846  24.945  1.00  0.00     0.275 C 
ENDROOT
BRANCH   1   2
ATOM      2  O   UNL A   1      35.198  23.025  24.697  1.00  0.00    -0.458 OA
BRANCH   2   3
ATOM      3  C   UNL A   1      34.919  23.204  23.382  1.00  0.00     0.338 C 
ATOM      4  O   UNL A   1      35.721  23.088  22.470  1.00  0.00    -0.246 OA
BRANCH   3   5
ATOM      5  C   UNL A   1      33.590  23.771  23.088  1.00  0.00     0.064 A 
ATOM      6  C   UNL A   1      32.602  21.442  23.496  1.00  0.00     0.045 C 
ATOM      7  C   UNL A   1      32.474  22.928  23.281  1.00  0.00    -0.036 A 
ATOM      8  C   UNL A   1      31.189  23.487  23.265  1.00  0.00     0.006 A 
ATOM      9  C   UNL A   1      31.012  24.861  23.117  1.00  0.00     0.022 A 
ATOM     10  C   UNL A   1      33.416  25.156  22.912  1.00  0.00     0.038 A 
ATOM     11  C   UNL A   1      32.121  25.696  22.946  1.00  0.00     0.088 A 
BRANCH  11  12
ATOM     12  S   UNL A   1      31.830  27.460  22.839  1.00  0.00     0.263 S 
ATOM     13  O   UNL A   1      33.099  28.060  22.467  1.00  0.00    -0.201 OA
ATOM     14  O   UNL A   1      30.662  27.640  22.011  1.00  0.00    -0.201 OA
BRANCH  12  15
ATOM     15  N   UNL A   1      31.351  27.862  24.389  1.00  0.00    -0.263 N 
ATOM     16  H   UNL A   1      30.435  27.669  24.691  1.00  0.00     0.182 HD
BRANCH  15  17
ATOM     17  C   UNL A   1      32.270  28.485  25.265  1.00  0.00     0.139 A 
ATOM     18  C   UNL A   1      33.221  27.810  26.007  1.00  0.00     0.048 A 
ATOM     19  N   UNL A   1      31.933  29.774  25.475  1.00  0.00    -0.239 NA
ATOM     20  C   UNL A   1      33.911  28.515  26.988  1.00  0.00     0.005 A 
ATOM     21  C   UNL A   1      32.599  30.422  26.460  1.00  0.00     0.113 A 
ATOM     22  C   UNL A   1      33.587  29.842  27.236  1.00  0.00     0.020 A 
ENDBRANCH  15  17
ENDBRANCH  12  15
ENDBRANCH  11  12
ENDBRANCH   3   5
ENDBRANCH   2   3
ENDBRANCH   1   2
BRANCH   1  23
ATOM     23  C   UNL A   1      37.162  23.749  26.062  1.00  0.00     0.275 C 
BRANCH  23  24
ATOM     24  O   UNL A   1      38.434  24.403  25.861  1.00  0.00    -0.458 OA
BRANCH  24  25
ATOM     25  C   UNL A   1      39.455  24.047  26.685  1.00  0.00     0.338 C 
ATOM     26  O   UNL A   1      40.069  22.999  26.586  1.00  0.00    -0.246 OA
BRANCH  25  27
ATOM     27  C   UNL A   1      39.890  25.254  27.447  1.00  0.00     0.060 A 
ATOM     28  C   UNL A   1      40.515  26.299  26.756  1.00  0.00     0.016 A 
ATOM     29  C   UNL A   1      39.404  25.461  28.740  1.00  0.00     0.016 A 
ATOM     30  C   UNL A   1      40.513  27.593  27.282  1.00  0.00     0.010 A 
ATOM     31  C   UNL A   1      39.342  26.746  29.234  1.00  0.00     0.010 A 
ATOM     32  C   UNL A   1      39.878  27.818  28.505  1.00  0.00    -0.014 A 
BRANCH  32  33
ATOM     33  C   UNL A   1      39.911  29.084  29.228  1.00  0.00     0.031 A 
ATOM     34  C   UNL A   1      38.884  30.148  29.095  1.00  0.00     0.074 A 
ATOM     35  C   UNL A   1      40.936  29.174  30.107  1.00  0.00     0.049 A 
ATOM     36  N   UNL A   1      39.039  31.360  29.512  1.00  0.00    -0.248 NA
ATOM     37  C   UNL A   1      37.587  29.962  28.459  1.00  0.00     0.031 C 
ATOM     38  C   UNL A   1      41.190  30.180  31.120  1.00  0.00     0.029 A 
ATOM     39  N   UNL A   1      42.118  28.417  30.090  1.00  0.00    -0.354 N 
ATOM     40  C   UNL A   1      37.816  32.009  29.466  1.00  0.00     0.074 A 
ATOM     41  C   UNL A   1      36.974  31.125  28.708  1.00  0.00     0.031 C 
ATOM     42  C   UNL A   1      42.516  30.213  31.348  1.00  0.00     0.029 A 
ATOM     43  C   UNL A   1      43.139  29.321  30.376  1.00  0.00     0.049 A 
ATOM     44  H   UNL A   1      42.206  27.453  29.912  1.00  0.00     0.167 HD
ATOM     45  C   UNL A   1      37.655  33.151  30.200  1.00  0.00     0.037 A 
ATOM     46  C   UNL A   1      44.057  29.690  29.434  1.00  0.00     0.037 A 
ATOM     47  C   UNL A   1      38.967  33.604  30.666  1.00  0.00     0.049 A 
ATOM     48  C   UNL A   1      43.982  31.175  29.154  1.00  0.00     0.074 A 
ATOM     49  C   UNL A   1      39.644  33.431  31.861  1.00  0.00     0.029 A 
ATOM     50  N   UNL A   1      39.912  34.011  29.728  1.00  0.00    -0.354 N 
ATOM     51  N   UNL A   1      42.910  31.900  29.336  1.00  0.00    -0.248 NA
ATOM     52  C   UNL A   1      45.127  31.969  28.721  1.00  0.00     0.031 C 
ATOM     53  C   UNL A   1      41.030  33.584  31.593  1.00  0.00     0.029 A 
ATOM     54  C   UNL A   1      41.186  33.901  30.253  1.00  0.00     0.049 A 
ATOM     55  H   UNL A   1      39.703  34.329  28.821  1.00  0.00     0.167 HD
ATOM     56  C   UNL A   1      43.223  33.225  29.174  1.00  0.00     0.074 A 
ATOM     57  C   UNL A   1      44.616  33.212  28.755  1.00  0.00     0.031 C 
ATOM     58  C   UNL A   1      42.353  34.241  29.453  1.00  0.00     0.037 A 
BRANCH  45  59
ATOM     59  C   UNL A   1      36.337  33.711  30.740  1.00  0.00     0.058 A 
ATOM     60  C   UNL A   1      35.362  34.222  29.844  1.00  0.00     0.135 A 
ATOM     61  C   UNL A   1      35.998  33.879  32.099  1.00  0.00     0.135 A 
ATOM     62  F   UNL A   1      35.492  34.083  28.517  1.00  0.00    -0.206 F 
ATOM     63  C   UNL A   1      34.218  34.918  30.256  1.00  0.00     0.059 A 
ATOM     64  C   UNL A   1      34.865  34.583  32.536  1.00  0.00     0.059 A 
ATOM     65  F   UNL A   1      36.729  33.349  33.083  1.00  0.00    -0.206 F 
ATOM     66  C   UNL A   1      33.990  35.122  31.608  1.00  0.00     0.060 A 
BRANCH  66  67
ATOM     67  S   UNL A   1      32.550  36.077  32.128  1.00  0.00     0.124 S 
ATOM     68  O   UNL A   1      32.221  36.817  30.914  1.00  0.00    -0.237 OA
ATOM     69  O   UNL A   1      31.606  35.033  32.511  1.00  0.00    -0.237 OA
ATOM     70  O   UNL A   1      33.058  36.889  33.230  1.00  0.00    -0.744 OA
ENDBRANCH  66  67
ENDBRANCH  45  59
BRANCH  46  71
ATOM     71  C   UNL A   1      44.420  28.610  28.467  1.00  0.00     0.058 A 
ATOM     72  C   UNL A   1      43.935  28.737  27.148  1.00  0.00     0.135 A 
ATOM     73  C   UNL A   1      45.524  27.767  28.659  1.00  0.00     0.135 A 
ATOM     74  F   UNL A   1      42.862  29.506  26.904  1.00  0.00    -0.206 F 
ATOM     75  C   UNL A   1      44.611  28.203  26.055  1.00  0.00     0.059 A 
ATOM     76  C   UNL A   1      46.216  27.218  27.570  1.00  0.00     0.059 A 
ATOM     77  F   UNL A   1      46.036  27.590  29.885  1.00  0.00    -0.206 F 
ATOM     78  C   UNL A   1      45.788  27.495  26.271  1.00  0.00     0.060 A 
BRANCH  78  79
ATOM     79  S   UNL A   1      46.826  27.135  24.829  1.00  0.00     0.124 S 
ATOM     80  O   UNL A   1      46.407  25.778  24.491  1.00  0.00    -0.237 OA
ATOM     81  O   UNL A   1      46.424  28.183  23.896  1.00  0.00    -0.237 OA
ATOM     82  O   UNL A   1      48.181  27.264  25.342  1.00  0.00    -0.744 OA
ENDBRANCH  78  79
ENDBRANCH  46  71
BRANCH  58  83
ATOM     83  C   UNL A   1      42.579  35.696  29.123  1.00  0.00     0.058 A 
ATOM     84  C   UNL A   1      41.945  36.357  28.058  1.00  0.00     0.135 A 
ATOM     85  C   UNL A   1      43.349  36.515  29.983  1.00  0.00     0.135 A 
ATOM     86  F   UNL A   1      41.093  35.712  27.248  1.00  0.00    -0.206 F 
ATOM     87  C   UNL A   1      42.134  37.716  27.810  1.00  0.00     0.059 A 
ATOM     88  C   UNL A   1      43.501  37.883  29.789  1.00  0.00     0.059 A 
ATOM     89  F   UNL A   1      43.978  36.015  31.057  1.00  0.00    -0.206 F 
ATOM     90  C   UNL A   1      42.918  38.469  28.677  1.00  0.00     0.060 A 
BRANCH  90  91
ATOM     91  S   UNL A   1      43.153  40.230  28.386  1.00  0.00     0.124 S 
ATOM     92  O   UNL A   1      41.808  40.744  28.627  1.00  0.00    -0.237 OA
ATOM     93  O   UNL A   1      44.155  40.595  29.384  1.00  0.00    -0.237 OA
ATOM     94  O   UNL A   1      43.612  40.277  27.002  1.00  0.00    -0.744 OA
ENDBRANCH  90  91
ENDBRANCH  58  83
ENDBRANCH  32  33
ENDBRANCH  25  27
ENDBRANCH  24  25
ENDBRANCH  23  24
ENDBRANCH   1  23
TORSDOF 17
ENDMDL
MODEL 2
REMARK VINA RESULT:     -12.9      1.350      1.835
REMARK SMILES Cc1ccc(S(=O)(=O)Nc2ccccn2)cc1C(=O)OCCOC(=O)c1ccc(-c2c3nc(c(-c4c(F)cc(S(=O)(=O)[O-])cc4F)c4ccc([nH]4)c(-c4c(F)cc(S(=O)(=O)[O-])cc4F)c4nc(c(-c5c(F)cc(S(=O)(=O)[O-])cc5F)c5ccc2[nH]5)C=C4)C=C3)cc1
REMARK SMILES IDX 21 1 20 2 18 3 19 4 17 5 1 6 2 7 3 8 4 9 16 10 5 11 6 12
REMARK SMILES IDX 7 13 8 14 9 15 10 17 11 18 15 19 12 20 14 21 13 22 22 23
REMARK SMILES IDX 23 24 24 25 25 26 26 27 27 28 91 29 28 30 90 31 29 32 30 33
REMARK SMILES IDX 31 34 84 35 32 36 89 37 83 38 85 39 33 40 88 41 82 42 81 43
REMARK SMILES IDX 34 45 68 46 47 47 67 48 48 49 51 50 66 51 86 52 49 53 50 54
REMARK SMILES IDX 65 56 87 57 52 58 35 59 36 60 45 61 37 62 38 63 44 64 46 65
REMARK SMILES IDX 39 66 40 67 41 68 42 69 43 70 69 71 70 72 79 73 71 74 72 75
REMARK SMILES IDX 78 76 80 77 73 78 74 79 75 80 76 81 77 82 53 83 54 84 63 85
REMARK SMILES IDX 55 86 56 87 62 88 64 89 57 90 58 91 59 92 60 93 61 94
REMARK H PARENT 9 16 85 44 51 55
REMARK Flexibility Score: inf
ROOT
ATOM      1  C   UNL A   1      36.295  22.266  25.823  1.00  0.00     0.275 C 
ENDROOT
BRANCH   1   2
ATOM      2  O   UNL A   1      35.054  22.379  25.091  1.00  0.00    -0.458 OA
BRANCH   2   3
ATOM      3  C   UNL A   1      34.226  23.317  25.614  1.00  0.00     0.338 C 
ATOM      4  O   UNL A   1      34.108  23.568  26.802  1.00  0.00    -0.246 OA
BRANCH   3   5
ATOM      5  C   UNL A   1      33.271  23.919  24.664  1.00  0.00     0.064 A 
ATOM      6  C   UNL A   1      31.906  21.755  24.797  1.00  0.00     0.045 C 
ATOM      7  C   UNL A   1      32.092  23.194  24.391  1.00  0.00    -0.036 A 
ATOM      8  C   UNL A   1      31.048  23.829  23.705  1.00  0.00     0.006 A 
ATOM      9  C   UNL A   1      31.144  25.172  23.345  1.00  0.00     0.022 A 
ATOM     10  C   UNL A   1      33.385  25.268  24.281  1.00  0.00     0.038 A 
ATOM     11  C   UNL A   1      32.307  25.892  23.636  1.00  0.00     0.088 A 
BRANCH  11  12
ATOM     12  S   UNL A   1      32.337  27.633  23.218  1.00  0.00     0.263 S 
ATOM     13  O   UNL A   1      32.053  28.353  24.446  1.00  0.00    -0.201 OA
ATOM     14  O   UNL A   1      33.566  27.867  22.497  1.00  0.00    -0.201 OA
BRANCH  12  15
ATOM     15  N   UNL A   1      31.116  27.776  22.085  1.00  0.00    -0.263 N 
ATOM     16  H   UNL A   1      31.165  27.278  21.237  1.00  0.00     0.182 HD
BRANCH  15  17
ATOM     17  C   UNL A   1      30.011  28.617  22.350  1.00  0.00     0.139 A 
ATOM     18  C   UNL A   1      28.876  28.223  23.033  1.00  0.00     0.048 A 
ATOM     19  N   UNL A   1      30.099  29.760  21.638  1.00  0.00    -0.239 NA
ATOM     20  C   UNL A   1      27.780  29.079  23.034  1.00  0.00     0.005 A 
ATOM     21  C   UNL A   1      29.002  30.555  21.631  1.00  0.00     0.113 A 
ATOM     22  C   UNL A   1      27.831  30.261  22.307  1.00  0.00     0.020 A 
ENDBRANCH  15  17
ENDBRANCH  12  15
ENDBRANCH  11  12
ENDBRANCH   3   5
ENDBRANCH   2   3
ENDBRANCH   1   2
BRANCH   1  23
ATOM     23  C   UNL A   1      37.393  23.226  25.333  1.00  0.00     0.275 C 
BRANCH  23  24
ATOM     24  O   UNL A   1      37.943  24.184  26.264  1.00  0.00    -0.458 OA
BRANCH  24  25
ATOM     25  C   UNL A   1      39.190  23.939  26.745  1.00  0.00     0.338 C 
ATOM     26  O   UNL A   1      39.885  23.006  26.379  1.00  0.00    -0.246 OA
BRANCH  25  27
ATOM     27  C   UNL A   1      39.659  25.149  27.483  1.00  0.00     0.060 A 
ATOM     28  C   UNL A   1      40.240  26.197  26.759  1.00  0.00     0.016 A 
ATOM     29  C   UNL A   1      39.241  25.354  28.800  1.00  0.00     0.016 A 
ATOM     30  C   UNL A   1      40.258  27.491  27.284  1.00  0.00     0.010 A 
ATOM     31  C   UNL A   1      39.198  26.638  29.296  1.00  0.00     0.010 A 
ATOM     32  C   UNL A   1      39.688  27.713  28.539  1.00  0.00    -0.014 A 
BRANCH  32  33
ATOM     33  C   UNL A   1      39.753  28.980  29.259  1.00  0.00     0.031 A 
ATOM     34  C   UNL A   1      38.748  30.065  29.129  1.00  0.00     0.074 A 
ATOM     35  C   UNL A   1      40.784  29.050  30.132  1.00  0.00     0.049 A 
ATOM     36  N   UNL A   1      38.931  31.274  29.542  1.00  0.00    -0.248 NA
ATOM     37  C   UNL A   1      37.444  29.906  28.501  1.00  0.00     0.031 C 
ATOM     38  C   UNL A   1      41.066  30.052  31.141  1.00  0.00     0.029 A 
ATOM     39  N   UNL A   1      41.950  28.268  30.110  1.00  0.00    -0.354 N 
ATOM     40  C   UNL A   1      37.721  31.949  29.501  1.00  0.00     0.074 A 
ATOM     41  C   UNL A   1      36.857  31.082  28.750  1.00  0.00     0.031 C 
ATOM     42  C   UNL A   1      42.393  30.058  31.361  1.00  0.00     0.029 A 
ATOM     43  C   UNL A   1      42.991  29.150  30.388  1.00  0.00     0.049 A 
ATOM     44  H   UNL A   1      42.016  27.301  29.934  1.00  0.00     0.167 HD
ATOM     45  C   UNL A   1      37.589  33.097  30.234  1.00  0.00     0.037 A 
ATOM     46  C   UNL A   1      43.911  29.498  29.440  1.00  0.00     0.037 A 
ATOM     47  C   UNL A   1      38.913  33.522  30.692  1.00  0.00     0.049 A 
ATOM     48  C   UNL A   1      43.867  30.983  29.157  1.00  0.00     0.074 A 
ATOM     49  C   UNL A   1      39.593  33.337  31.883  1.00  0.00     0.029 A 
ATOM     50  N   UNL A   1      39.861  33.906  29.748  1.00  0.00    -0.354 N 
ATOM     51  N   UNL A   1      42.812  31.731  29.343  1.00  0.00    -0.248 NA
ATOM     52  C   UNL A   1      45.026  31.751  28.716  1.00  0.00     0.031 C 
ATOM     53  C   UNL A   1      40.981  33.460  31.607  1.00  0.00     0.029 A 
ATOM     54  C   UNL A   1      41.136  33.770  30.265  1.00  0.00     0.049 A 
ATOM     55  H   UNL A   1      39.654  34.227  28.841  1.00  0.00     0.167 HD
ATOM     56  C   UNL A   1      43.152  33.049  29.177  1.00  0.00     0.074 A 
ATOM     57  C   UNL A   1      44.542  33.005  28.749  1.00  0.00     0.031 C 
ATOM     58  C   UNL A   1      42.305  34.084  29.458  1.00  0.00     0.037 A 
BRANCH  45  59
ATOM     59  C   UNL A   1      36.287  33.686  30.780  1.00  0.00     0.058 A 
ATOM     60  C   UNL A   1      35.291  34.158  29.885  1.00  0.00     0.135 A 
ATOM     61  C   UNL A   1      35.982  33.918  32.137  1.00  0.00     0.135 A 
ATOM     62  F   UNL A   1      35.387  33.957  28.564  1.00  0.00    -0.206 F 
ATOM     63  C   UNL A   1      34.159  34.877  30.293  1.00  0.00     0.059 A 
ATOM     64  C   UNL A   1      34.863  34.645  32.569  1.00  0.00     0.059 A 
ATOM     65  F   UNL A   1      36.736  33.432  33.126  1.00  0.00    -0.206 F 
ATOM     66  C   UNL A   1      33.966  35.144  31.639  1.00  0.00     0.060 A 
BRANCH  66  67
ATOM     67  S   UNL A   1      32.542  36.127  32.151  1.00  0.00     0.124 S 
ATOM     68  O   UNL A   1      31.599  35.097  32.576  1.00  0.00    -0.237 OA
ATOM     69  O   UNL A   1      33.100  36.955  33.214  1.00  0.00    -0.237 OA
ATOM     70  O   UNL A   1      32.168  36.845  30.936  1.00  0.00    -0.744 OA
ENDBRANCH  66  67
ENDBRANCH  45  59
BRANCH  46  71
ATOM     71  C   UNL A   1      44.246  28.408  28.474  1.00  0.00     0.058 A 
ATOM     72  C   UNL A   1      43.793  28.563  27.147  1.00  0.00     0.135 A 
ATOM     73  C   UNL A   1      45.308  27.516  28.682  1.00  0.00     0.135 A 
ATOM     74  F   UNL A   1      42.760  29.379  26.886  1.00  0.00    -0.206 F 
ATOM     75  C   UNL A   1      44.467  28.005  26.064  1.00  0.00     0.059 A 
ATOM     76  C   UNL A   1      45.996  26.943  27.604  1.00  0.00     0.059 A 
ATOM     77  F   UNL A   1      45.787  27.310  29.917  1.00  0.00    -0.206 F 
ATOM     78  C   UNL A   1      45.607  27.245  26.298  1.00  0.00     0.060 A 
BRANCH  78  79
ATOM     79  S   UNL A   1      46.656  26.848  24.875  1.00  0.00     0.124 S 
ATOM     80  O   UNL A   1      46.245  27.861  23.908  1.00  0.00    -0.237 OA
ATOM     81  O   UNL A   1      47.997  26.999  25.433  1.00  0.00    -0.237 OA
ATOM     82  O   UNL A   1      46.286  25.480  24.547  1.00  0.00    -0.744 OA
ENDBRANCH  78  79
ENDBRANCH  46  71
BRANCH  58  83
ATOM     83  C   UNL A   1      42.560  35.533  29.123  1.00  0.00     0.058 A 
ATOM     84  C   UNL A   1      41.923  36.209  28.071  1.00  0.00     0.135 A 
ATOM     85  C   UNL A   1      43.368  36.333  29.968  1.00  0.00     0.135 A 
ATOM     86  F   UNL A   1      41.039  35.586  27.278  1.00  0.00    -0.206 F 
ATOM     87  C   UNL A   1      42.140  37.564  27.819  1.00  0.00     0.059 A 
ATOM     88  C   UNL A   1      43.550  37.696  29.771  1.00  0.00     0.059 A 
ATOM     89  F   UNL A   1      44.005  35.816  31.030  1.00  0.00    -0.206 F 
ATOM     90  C   UNL A   1      42.959  38.297  28.670  1.00  0.00     0.060 A 
BRANCH  90  91
ATOM     91  S   UNL A   1      43.232  40.052  28.374  1.00  0.00     0.124 S 
ATOM     92  O   UNL A   1      42.085  40.640  29.059  1.00  0.00    -0.237 OA
ATOM     93  O   UNL A   1      44.529  40.290  29.000  1.00  0.00    -0.237 OA
ATOM     94  O   UNL A   1      43.219  40.147  26.919  1.00  0.00    -0.744 OA
ENDBRANCH  90  91
ENDBRANCH  58  83
ENDBRANCH  32  33
ENDBRANCH  25  27
ENDBRANCH  24  25
ENDBRANCH  23  24
ENDBRANCH   1  23
TORSDOF 17
ENDMDL
MODEL 3
REMARK VINA RESULT:     -12.9      1.689      2.459
REMARK SMILES Cc1ccc(S(=O)(=O)Nc2ccccn2)cc1C(=O)OCCOC(=O)c1ccc(-c2c3nc(c(-c4c(F)cc(S(=O)(=O)[O-])cc4F)c4ccc([nH]4)c(-c4c(F)cc(S(=O)(=O)[O-])cc4F)c4nc(c(-c5c(F)cc(S(=O)(=O)[O-])cc5F)c5ccc2[nH]5)C=C4)C=C3)cc1
REMARK SMILES IDX 21 1 20 2 18 3 19 4 17 5 1 6 2 7 3 8 4 9 16 10 5 11 6 12
REMARK SMILES IDX 7 13 8 14 9 15 10 17 11 18 15 19 12 20 14 21 13 22 22 23
REMARK SMILES IDX 23 24 24 25 25 26 26 27 27 28 91 29 28 30 90 31 29 32 30 33
REMARK SMILES IDX 31 34 84 35 32 36 89 37 83 38 85 39 33 40 88 41 82 42 81 43
REMARK SMILES IDX 34 45 68 46 47 47 67 48 48 49 51 50 66 51 86 52 49 53 50 54
REMARK SMILES IDX 65 56 87 57 52 58 35 59 36 60 45 61 37 62 38 63 44 64 46 65
REMARK SMILES IDX 39 66 40 67 41 68 42 69 43 70 69 71 70 72 79 73 71 74 72 75
REMARK SMILES IDX 78 76 80 77 73 78 74 79 75 80 76 81 77 82 53 83 54 84 63 85
REMARK SMILES IDX 55 86 56 87 62 88 64 89 57 90 58 91 59 92 60 93 61 94
REMARK H PARENT 9 16 85 44 51 55
REMARK Flexibility Score: inf
ROOT
ATOM      1  C   UNL A   1      38.113  21.376  25.717  1.00  0.00     0.275 C 
ENDROOT
BRANCH   1   2
ATOM      2  O   UNL A   1      36.898  22.154  25.798  1.00  0.00    -0.458 OA
BRANCH   2   3
ATOM      3  C   UNL A   1      36.160  22.088  24.662  1.00  0.00     0.338 C 
ATOM      4  O   UNL A   1      36.566  22.358  23.544  1.00  0.00    -0.246 OA
BRANCH   3   5
ATOM      5  C   UNL A   1      34.716  21.860  24.856  1.00  0.00     0.064 A 
ATOM      6  C   UNL A   1      35.176  19.346  24.665  1.00  0.00     0.045 C 
ATOM      7  C   UNL A   1      34.289  20.521  24.986  1.00  0.00    -0.036 A 
ATOM      8  C   UNL A   1      32.983  20.264  25.424  1.00  0.00     0.006 A 
ATOM      9  C   UNL A   1      32.132  21.309  25.781  1.00  0.00     0.022 A 
ATOM     10  C   UNL A   1      33.854  22.920  25.190  1.00  0.00     0.038 A 
ATOM     11  C   UNL A   1      32.567  22.633  25.670  1.00  0.00     0.088 A 
BRANCH  11  12
ATOM     12  S   UNL A   1      31.454  23.926  26.217  1.00  0.00     0.263 S 
ATOM     13  O   UNL A   1      30.703  23.372  27.330  1.00  0.00    -0.201 OA
ATOM     14  O   UNL A   1      32.252  25.117  26.389  1.00  0.00    -0.201 OA
BRANCH  12  15
ATOM     15  N   UNL A   1      30.505  24.209  24.870  1.00  0.00    -0.263 N 
ATOM     16  H   UNL A   1      29.847  23.539  24.578  1.00  0.00     0.182 HD
BRANCH  15  17
ATOM     17  C   UNL A   1      30.654  25.418  24.153  1.00  0.00     0.139 A 
ATOM     18  C   UNL A   1      29.853  26.532  24.324  1.00  0.00     0.048 A 
ATOM     19  N   UNL A   1      31.502  25.257  23.115  1.00  0.00    -0.239 NA
ATOM     20  C   UNL A   1      29.968  27.570  23.406  1.00  0.00     0.005 A 
ATOM     21  C   UNL A   1      31.564  26.272  22.220  1.00  0.00     0.113 A 
ATOM     22  C   UNL A   1      30.825  27.437  22.321  1.00  0.00     0.020 A 
ENDBRANCH  15  17
ENDBRANCH  12  15
ENDBRANCH  11  12
ENDBRANCH   3   5
ENDBRANCH   2   3
ENDBRANCH   1   2
BRANCH   1  23
ATOM     23  C   UNL A   1      39.376  22.157  26.120  1.00  0.00     0.275 C 
BRANCH  23  24
ATOM     24  O   UNL A   1      39.222  23.466  26.713  1.00  0.00    -0.458 OA
BRANCH  24  25
ATOM     25  C   UNL A   1      40.333  24.244  26.798  1.00  0.00     0.338 C 
ATOM     26  O   UNL A   1      41.384  23.987  26.235  1.00  0.00    -0.246 OA
BRANCH  25  27
ATOM     27  C   UNL A   1      39.942  25.566  27.370  1.00  0.00     0.060 A 
ATOM     28  C   UNL A   1      39.359  25.604  28.642  1.00  0.00     0.016 A 
ATOM     29  C   UNL A   1      40.433  26.737  26.789  1.00  0.00     0.016 A 
ATOM     30  C   UNL A   1      39.409  26.772  29.406  1.00  0.00     0.010 A 
ATOM     31  C   UNL A   1      40.544  27.872  27.562  1.00  0.00     0.010 A 
ATOM     32  C   UNL A   1      40.050  27.892  28.876  1.00  0.00    -0.014 A 
BRANCH  32  33
ATOM     33  C   UNL A   1      40.064  29.207  29.506  1.00  0.00     0.031 A 
ATOM     34  C   UNL A   1      38.991  30.221  29.343  1.00  0.00     0.074 A 
ATOM     35  C   UNL A   1      41.118  29.397  30.331  1.00  0.00     0.049 A 
ATOM     36  N   UNL A   1      39.115  31.465  29.666  1.00  0.00    -0.248 NA
ATOM     37  C   UNL A   1      37.677  29.943  28.779  1.00  0.00     0.031 C 
ATOM     38  C   UNL A   1      41.374  30.482  31.259  1.00  0.00     0.029 A 
ATOM     39  N   UNL A   1      42.328  28.685  30.316  1.00  0.00    -0.354 N 
ATOM     40  C   UNL A   1      37.866  32.064  29.628  1.00  0.00     0.074 A 
ATOM     41  C   UNL A   1      37.030  31.098  28.971  1.00  0.00     0.031 C 
ATOM     42  C   UNL A   1      42.706  30.580  31.426  1.00  0.00     0.029 A 
ATOM     43  C   UNL A   1      43.323  29.643  30.494  1.00  0.00     0.049 A 
ATOM     44  H   UNL A   1      42.446  27.714  30.203  1.00  0.00     0.167 HD
ATOM     45  C   UNL A   1      37.690  33.250  30.286  1.00  0.00     0.037 A 
ATOM     46  C   UNL A   1      44.187  29.977  29.489  1.00  0.00     0.037 A 
ATOM     47  C   UNL A   1      39.001  33.782  30.662  1.00  0.00     0.049 A 
ATOM     48  C   UNL A   1      44.042  31.434  29.109  1.00  0.00     0.074 A 
ATOM     49  C   UNL A   1      39.733  33.720  31.836  1.00  0.00     0.029 A 
ATOM     50  N   UNL A   1      39.891  34.154  29.658  1.00  0.00    -0.354 N 
ATOM     51  N   UNL A   1      42.952  32.131  29.285  1.00  0.00    -0.248 NA
ATOM     52  C   UNL A   1      45.137  32.236  28.572  1.00  0.00     0.031 C 
ATOM     53  C   UNL A   1      41.099  33.903  31.498  1.00  0.00     0.029 A 
ATOM     54  C   UNL A   1      41.188  34.129  30.133  1.00  0.00     0.049 A 
ATOM     55  H   UNL A   1      39.633  34.398  28.740  1.00  0.00     0.167 HD
ATOM     56  C   UNL A   1      43.205  33.452  29.017  1.00  0.00     0.074 A 
ATOM     57  C   UNL A   1      44.579  33.459  28.540  1.00  0.00     0.031 C 
ATOM     58  C   UNL A   1      42.307  34.453  29.261  1.00  0.00     0.037 A 
BRANCH  45  59
ATOM     59  C   UNL A   1      36.374  33.798  30.842  1.00  0.00     0.058 A 
ATOM     60  C   UNL A   1      35.338  34.190  29.955  1.00  0.00     0.135 A 
ATOM     61  C   UNL A   1      36.090  34.068  32.196  1.00  0.00     0.135 A 
ATOM     62  F   UNL A   1      35.413  33.944  28.640  1.00  0.00    -0.206 F 
ATOM     63  C   UNL A   1      34.183  34.871  30.363  1.00  0.00     0.059 A 
ATOM     64  C   UNL A   1      34.948  34.759  32.629  1.00  0.00     0.059 A 
ATOM     65  F   UNL A   1      36.889  33.655  33.184  1.00  0.00    -0.206 F 
ATOM     66  C   UNL A   1      34.008  35.180  31.703  1.00  0.00     0.060 A 
BRANCH  66  67
ATOM     67  S   UNL A   1      32.551  36.115  32.213  1.00  0.00     0.124 S 
ATOM     68  O   UNL A   1      33.085  36.950  33.285  1.00  0.00    -0.237 OA
ATOM     69  O   UNL A   1      32.185  36.815  30.987  1.00  0.00    -0.237 OA
ATOM     70  O   UNL A   1      31.614  35.081  32.641  1.00  0.00    -0.744 OA
ENDBRANCH  66  67
ENDBRANCH  45  59
BRANCH  46  71
ATOM     71  C   UNL A   1      44.553  28.844  28.586  1.00  0.00     0.058 A 
ATOM     72  C   UNL A   1      44.005  28.855  27.286  1.00  0.00     0.135 A 
ATOM     73  C   UNL A   1      45.699  28.061  28.786  1.00  0.00     0.135 A 
ATOM     74  F   UNL A   1      42.891  29.561  27.037  1.00  0.00    -0.206 F 
ATOM     75  C   UNL A   1      44.655  28.269  26.203  1.00  0.00     0.059 A 
ATOM     76  C   UNL A   1      46.365  27.462  27.708  1.00  0.00     0.059 A 
ATOM     77  F   UNL A   1      46.271  27.995  29.996  1.00  0.00    -0.206 F 
ATOM     78  C   UNL A   1      45.870  27.625  26.414  1.00  0.00     0.060 A 
BRANCH  78  79
ATOM     79  S   UNL A   1      46.857  27.201  24.954  1.00  0.00     0.124 S 
ATOM     80  O   UNL A   1      48.218  27.343  25.463  1.00  0.00    -0.237 OA
ATOM     81  O   UNL A   1      46.415  25.838  24.673  1.00  0.00    -0.237 OA
ATOM     82  O   UNL A   1      46.450  28.188  23.966  1.00  0.00    -0.744 OA
ENDBRANCH  78  79
ENDBRANCH  46  71
BRANCH  58  83
ATOM     83  C   UNL A   1      42.463  35.887  28.820  1.00  0.00     0.058 A 
ATOM     84  C   UNL A   1      43.265  36.822  29.493  1.00  0.00     0.135 A 
ATOM     85  C   UNL A   1      41.905  36.325  27.595  1.00  0.00     0.135 A 
ATOM     86  F   UNL A   1      43.945  36.486  30.600  1.00  0.00    -0.206 F 
ATOM     87  C   UNL A   1      43.431  38.128  29.032  1.00  0.00     0.059 A 
ATOM     88  C   UNL A   1      42.107  37.603  27.086  1.00  0.00     0.059 A 
ATOM     89  F   UNL A   1      41.147  35.519  26.836  1.00  0.00    -0.206 F 
ATOM     90  C   UNL A   1      42.844  38.510  27.831  1.00  0.00     0.060 A 
BRANCH  90  91
ATOM     91  S   UNL A   1      43.067  40.184  27.207  1.00  0.00     0.124 S 
ATOM     92  O   UNL A   1      41.913  40.318  26.324  1.00  0.00    -0.237 OA
ATOM     93  O   UNL A   1      43.026  40.992  28.422  1.00  0.00    -0.237 OA
ATOM     94  O   UNL A   1      44.367  40.120  26.549  1.00  0.00    -0.744 OA
ENDBRANCH  90  91
ENDBRANCH  58  83
ENDBRANCH  32  33
ENDBRANCH  25  27
ENDBRANCH  24  25
ENDBRANCH  23  24
ENDBRANCH   1  23
TORSDOF 17
ENDMDL
