MODEL 1
REMARK VINA RESULT:     -11.3      0.000      0.000
REMARK SMILES C[C@H](C(=O)OCCOC(=O)c1ccc(-c2c3nc(c(-c4c(F)cc(S(=O)(=O)[O-])cc4F)c4ccc([nH]4)c(-c4c(F)cc(S(=O)(=O)[O-])cc4F)c4nc(c(-c5c(F)cc(S(=O)(=O)[O-])cc5F)c5ccc2[nH]5)C=C4)C=C3)cc1)c1ccc2c(c1)OCCO2
REMARK SMILES IDX 7 1 6 2 5 3 3 4 4 5 2 6 1 7 77 8 78 9 82 10 79 11 81 12
REMARK SMILES IDX 80 13 83 14 86 15 84 16 85 17 8 18 9 19 10 20 11 21 12 22
REMARK SMILES IDX 76 23 13 24 75 25 14 26 15 27 16 28 69 29 17 30 74 31 68 32
REMARK SMILES IDX 70 33 18 34 73 35 67 36 66 37 19 39 53 40 32 41 52 42 33 43
REMARK SMILES IDX 36 44 51 45 71 46 34 47 35 48 50 50 72 51 37 52 20 53 21 54
REMARK SMILES IDX 30 55 22 56 23 57 29 58 31 59 24 60 25 61 26 62 27 63 28 64
REMARK SMILES IDX 54 65 55 66 64 67 56 68 57 69 63 70 65 71 58 72 59 73 60 74
REMARK SMILES IDX 61 75 62 76 38 77 39 78 48 79 40 80 41 81 47 82 49 83 42 84
REMARK SMILES IDX 43 85 44 86 45 87 46 88
REMARK H PARENT 70 38 36 49
REMARK Flexibility Score: inf
ROOT
ATOM      1  C   UNL A   1      34.248  31.074  27.753  1.00  0.00     0.275 C 
ENDROOT
BRANCH   1   2
ATOM      2  C   UNL A   1      33.171  30.302  26.997  1.00  0.00     0.274 C 
BRANCH   2   3
ATOM      3  O   UNL A   1      32.917  29.033  27.633  1.00  0.00    -0.462 OA
BRANCH   3   4
ATOM      4  C   UNL A   1      32.045  28.180  27.016  1.00  0.00     0.313 C 
ATOM      5  O   UNL A   1      31.028  27.742  27.538  1.00  0.00    -0.252 OA
BRANCH   4   6
ATOM      6  C   UNL A   1      32.534  27.775  25.613  1.00  0.00     0.126 C 
ATOM      7  C   UNL A   1      33.200  26.398  25.621  1.00  0.00     0.025 C 
BRANCH   6   8
ATOM      8  C   UNL A   1      31.431  27.912  24.568  1.00  0.00    -0.030 A 
ATOM      9  C   UNL A   1      30.610  26.838  24.187  1.00  0.00     0.009 A 
ATOM     10  C   UNL A   1      31.096  29.207  24.140  1.00  0.00     0.055 A 
ATOM     11  C   UNL A   1      29.416  27.067  23.499  1.00  0.00     0.051 A 
ATOM     12  C   UNL A   1      29.883  29.441  23.507  1.00  0.00     0.161 A 
ATOM     13  C   UNL A   1      29.029  28.372  23.224  1.00  0.00     0.161 A 
ATOM     14  O   UNL A   1      29.551  30.756  23.310  1.00  0.00    -0.486 OA
ATOM     15  O   UNL A   1      27.752  28.573  22.764  1.00  0.00    -0.486 OA
ATOM     16  C   UNL A   1      28.194  30.940  22.889  1.00  0.00     0.271 C 
ATOM     17  C   UNL A   1      27.279  29.804  23.321  1.00  0.00     0.271 C 
ENDBRANCH   6   8
ENDBRANCH   4   6
ENDBRANCH   3   4
ENDBRANCH   2   3
ENDBRANCH   1   2
BRANCH   1  18
ATOM     18  O   UNL A   1      35.227  30.143  28.234  1.00  0.00    -0.458 OA
BRANCH  18  19
ATOM     19  C   UNL A   1      36.036  30.590  29.219  1.00  0.00     0.338 C 
ATOM     20  O   UNL A   1      35.741  31.351  30.130  1.00  0.00    -0.246 OA
BRANCH  19  21
ATOM     21  C   UNL A   1      37.380  30.016  29.030  1.00  0.00     0.060 A 
ATOM     22  C   UNL A   1      38.186  29.733  30.135  1.00  0.00     0.016 A 
ATOM     23  C   UNL A   1      37.872  29.823  27.740  1.00  0.00     0.016 A 
ATOM     24  C   UNL A   1      39.508  29.332  29.958  1.00  0.00     0.010 A 
ATOM     25  C   UNL A   1      39.169  29.331  27.565  1.00  0.00     0.010 A 
ATOM     26  C   UNL A   1      40.012  29.110  28.670  1.00  0.00    -0.014 A 
BRANCH  26  27
ATOM     27  C   UNL A   1      41.424  28.685  28.466  1.00  0.00     0.031 A 
ATOM     28  C   UNL A   1      42.532  29.702  28.554  1.00  0.00     0.074 A 
ATOM     29  C   UNL A   1      41.718  27.399  28.191  1.00  0.00     0.049 A 
ATOM     30  N   UNL A   1      43.790  29.589  28.213  1.00  0.00    -0.248 NA
ATOM     31  C   UNL A   1      42.171  31.028  29.083  1.00  0.00     0.031 C 
ATOM     32  C   UNL A   1      40.750  26.302  28.116  1.00  0.00     0.029 A 
ATOM     33  N   UNL A   1      42.921  26.795  27.916  1.00  0.00    -0.354 N 
ATOM     34  C   UNL A   1      44.356  30.839  28.432  1.00  0.00     0.074 A 
ATOM     35  C   UNL A   1      43.306  31.698  28.933  1.00  0.00     0.031 C 
ATOM     36  C   UNL A   1      41.398  25.160  27.837  1.00  0.00     0.029 A 
ATOM     37  C   UNL A   1      42.812  25.453  27.633  1.00  0.00     0.049 A 
ATOM     38  H   UNL A   1      43.780  27.276  27.921  1.00  0.00     0.167 HD
ATOM     39  C   UNL A   1      45.637  31.234  28.228  1.00  0.00     0.037 A 
ATOM     40  C   UNL A   1      43.734  24.566  27.213  1.00  0.00     0.037 A 
ATOM     41  C   UNL A   1      46.688  30.360  27.778  1.00  0.00     0.049 A 
ATOM     42  C   UNL A   1      45.145  25.029  26.980  1.00  0.00     0.074 A 
ATOM     43  C   UNL A   1      48.022  30.660  27.555  1.00  0.00     0.029 A 
ATOM     44  N   UNL A   1      46.532  29.010  27.501  1.00  0.00    -0.354 N 
ATOM     45  N   UNL A   1      45.654  26.228  27.136  1.00  0.00    -0.248 NA
ATOM     46  C   UNL A   1      46.102  24.026  26.494  1.00  0.00     0.031 C 
ATOM     47  C   UNL A   1      48.665  29.497  27.117  1.00  0.00     0.029 A 
ATOM     48  C   UNL A   1      47.741  28.465  27.103  1.00  0.00     0.049 A 
ATOM     49  H   UNL A   1      45.686  28.512  27.576  1.00  0.00     0.167 HD
ATOM     50  C   UNL A   1      46.993  26.121  26.780  1.00  0.00     0.074 A 
ATOM     51  C   UNL A   1      47.219  24.737  26.416  1.00  0.00     0.031 C 
ATOM     52  C   UNL A   1      47.948  27.083  26.750  1.00  0.00     0.037 A 
BRANCH  39  53
ATOM     53  C   UNL A   1      45.967  32.682  28.464  1.00  0.00     0.058 A 
ATOM     54  C   UNL A   1      46.421  33.149  29.707  1.00  0.00     0.135 A 
ATOM     55  C   UNL A   1      45.855  33.610  27.416  1.00  0.00     0.135 A 
ATOM     56  F   UNL A   1      46.528  32.308  30.746  1.00  0.00    -0.206 F 
ATOM     57  C   UNL A   1      46.732  34.491  29.908  1.00  0.00     0.059 A 
ATOM     58  C   UNL A   1      46.183  34.952  27.589  1.00  0.00     0.059 A 
ATOM     59  F   UNL A   1      45.423  33.217  26.207  1.00  0.00    -0.206 F 
ATOM     60  C   UNL A   1      46.607  35.385  28.844  1.00  0.00     0.060 A 
BRANCH  60  61
ATOM     61  S   UNL A   1      47.019  37.122  29.117  1.00  0.00     0.124 S 
ATOM     62  O   UNL A   1      46.863  37.233  30.564  1.00  0.00    -0.237 OA
ATOM     63  O   UNL A   1      48.389  37.203  28.620  1.00  0.00    -0.237 OA
ATOM     64  O   UNL A   1      46.025  37.836  28.322  1.00  0.00    -0.744 OA
ENDBRANCH  60  61
ENDBRANCH  39  53
BRANCH  40  65
ATOM     65  C   UNL A   1      43.339  23.158  26.946  1.00  0.00     0.058 A 
ATOM     66  C   UNL A   1      43.237  22.672  25.636  1.00  0.00     0.135 A 
ATOM     67  C   UNL A   1      43.077  22.265  27.998  1.00  0.00     0.135 A 
ATOM     68  F   UNL A   1      43.466  23.490  24.597  1.00  0.00    -0.206 F 
ATOM     69  C   UNL A   1      42.882  21.351  25.374  1.00  0.00     0.059 A 
ATOM     70  C   UNL A   1      42.747  20.935  27.763  1.00  0.00     0.059 A 
ATOM     71  F   UNL A   1      43.175  22.679  29.272  1.00  0.00    -0.206 F 
ATOM     72  C   UNL A   1      42.643  20.489  26.446  1.00  0.00     0.060 A 
BRANCH  72  73
ATOM     73  S   UNL A   1      42.243  18.762  26.104  1.00  0.00     0.124 S 
ATOM     74  O   UNL A   1      40.830  18.853  25.752  1.00  0.00    -0.237 OA
ATOM     75  O   UNL A   1      43.153  18.444  25.009  1.00  0.00    -0.237 OA
ATOM     76  O   UNL A   1      42.539  18.093  27.367  1.00  0.00    -0.744 OA
ENDBRANCH  72  73
ENDBRANCH  40  65
BRANCH  52  77
ATOM     77  C   UNL A   1      49.330  26.665  26.338  1.00  0.00     0.058 A 
ATOM     78  C   UNL A   1      50.213  26.057  27.244  1.00  0.00     0.135 A 
ATOM     79  C   UNL A   1      49.760  26.837  25.013  1.00  0.00     0.135 A 
ATOM     80  F   UNL A   1      49.851  25.878  28.524  1.00  0.00    -0.206 F 
ATOM     81  C   UNL A   1      51.484  25.650  26.853  1.00  0.00     0.059 A 
ATOM     82  C   UNL A   1      51.018  26.419  24.596  1.00  0.00     0.059 A 
ATOM     83  F   UNL A   1      48.948  27.406  24.108  1.00  0.00    -0.206 F 
ATOM     84  C   UNL A   1      51.879  25.837  25.527  1.00  0.00     0.060 A 
BRANCH  84  85
ATOM     85  S   UNL A   1      53.521  25.279  25.022  1.00  0.00     0.124 S 
ATOM     86  O   UNL A   1      53.467  23.863  25.371  1.00  0.00    -0.237 OA
ATOM     87  O   UNL A   1      53.529  25.579  23.593  1.00  0.00    -0.237 OA
ATOM     88  O   UNL A   1      54.420  26.094  25.832  1.00  0.00    -0.744 OA
ENDBRANCH  84  85
ENDBRANCH  52  77
ENDBRANCH  26  27
ENDBRANCH  19  21
ENDBRANCH  18  19
ENDBRANCH   1  18
TORSDOF 15
ENDMDL
MODEL 2
REMARK VINA RESULT:     -11.3      2.207      3.075
REMARK SMILES C[C@H](C(=O)OCCOC(=O)c1ccc(-c2c3nc(c(-c4c(F)cc(S(=O)(=O)[O-])cc4F)c4ccc([nH]4)c(-c4c(F)cc(S(=O)(=O)[O-])cc4F)c4nc(c(-c5c(F)cc(S(=O)(=O)[O-])cc5F)c5ccc2[nH]5)C=C4)C=C3)cc1)c1ccc2c(c1)OCCO2
REMARK SMILES IDX 7 1 6 2 5 3 3 4 4 5 2 6 1 7 77 8 78 9 82 10 79 11 81 12
REMARK SMILES IDX 80 13 83 14 86 15 84 16 85 17 8 18 9 19 10 20 11 21 12 22
REMARK SMILES IDX 76 23 13 24 75 25 14 26 15 27 16 28 69 29 17 30 74 31 68 32
REMARK SMILES IDX 70 33 18 34 73 35 67 36 66 37 19 39 53 40 32 41 52 42 33 43
REMARK SMILES IDX 36 44 51 45 71 46 34 47 35 48 50 50 72 51 37 52 20 53 21 54
REMARK SMILES IDX 30 55 22 56 23 57 29 58 31 59 24 60 25 61 26 62 27 63 28 64
REMARK SMILES IDX 54 65 55 66 64 67 56 68 57 69 63 70 65 71 58 72 59 73 60 74
REMARK SMILES IDX 61 75 62 76 38 77 39 78 48 79 40 80 41 81 47 82 49 83 42 84
REMARK SMILES IDX 43 85 44 86 45 87 46 88
REMARK H PARENT 70 38 36 49
REMARK Flexibility Score: inf
ROOT
ATOM      1  C   UNL A   1      32.465  29.939  26.924  1.00  0.00     0.275 C 
ENDROOT
BRANCH   1   2
ATOM      2  C   UNL A   1      32.416  29.457  25.477  1.00  0.00     0.274 C 
BRANCH   2   3
ATOM      3  O   UNL A   1      32.301  28.021  25.425  1.00  0.00    -0.462 OA
BRANCH   3   4
ATOM      4  C   UNL A   1      32.734  27.394  24.289  1.00  0.00     0.313 C 
ATOM      5  O   UNL A   1      33.762  27.688  23.692  1.00  0.00    -0.252 OA
BRANCH   4   6
ATOM      6  C   UNL A   1      31.737  26.325  23.808  1.00  0.00     0.126 C 
ATOM      7  C   UNL A   1      31.544  25.220  24.849  1.00  0.00     0.025 C 
BRANCH   6   8
ATOM      8  C   UNL A   1      30.429  26.946  23.329  1.00  0.00    -0.030 A 
ATOM      9  C   UNL A   1      29.184  26.622  23.895  1.00  0.00     0.009 A 
ATOM     10  C   UNL A   1      30.508  28.032  22.442  1.00  0.00     0.055 A 
ATOM     11  C   UNL A   1      28.072  27.439  23.677  1.00  0.00     0.051 A 
ATOM     12  C   UNL A   1      29.419  28.875  22.271  1.00  0.00     0.161 A 
ATOM     13  C   UNL A   1      28.215  28.596  22.921  1.00  0.00     0.161 A 
ATOM     14  O   UNL A   1      29.650  30.018  21.551  1.00  0.00    -0.486 OA
ATOM     15  O   UNL A   1      27.173  29.489  22.923  1.00  0.00    -0.486 OA
ATOM     16  C   UNL A   1      28.573  30.959  21.621  1.00  0.00     0.271 C 
ATOM     17  C   UNL A   1      27.732  30.806  22.880  1.00  0.00     0.271 C 
ENDBRANCH   6   8
ENDBRANCH   4   6
ENDBRANCH   3   4
ENDBRANCH   2   3
ENDBRANCH   1   2
BRANCH   1  18
ATOM     18  O   UNL A   1      33.714  29.532  27.500  1.00  0.00    -0.458 OA
BRANCH  18  19
ATOM     19  C   UNL A   1      34.435  30.504  28.099  1.00  0.00     0.338 C 
ATOM     20  O   UNL A   1      34.045  31.614  28.434  1.00  0.00    -0.246 OA
BRANCH  19  21
ATOM     21  C   UNL A   1      35.815  30.024  28.293  1.00  0.00     0.060 A 
ATOM     22  C   UNL A   1      36.232  29.571  29.547  1.00  0.00     0.016 A 
ATOM     23  C   UNL A   1      36.724  30.093  27.239  1.00  0.00     0.016 A 
ATOM     24  C   UNL A   1      37.570  29.259  29.773  1.00  0.00     0.010 A 
ATOM     25  C   UNL A   1      38.047  29.690  27.444  1.00  0.00     0.010 A 
ATOM     26  C   UNL A   1      38.492  29.299  28.719  1.00  0.00    -0.014 A 
BRANCH  26  27
ATOM     27  C   UNL A   1      39.927  28.971  28.948  1.00  0.00     0.031 A 
ATOM     28  C   UNL A   1      40.859  30.025  29.486  1.00  0.00     0.074 A 
ATOM     29  C   UNL A   1      40.400  27.741  28.665  1.00  0.00     0.049 A 
ATOM     30  N   UNL A   1      42.164  30.015  29.564  1.00  0.00    -0.248 NA
ATOM     31  C   UNL A   1      40.237  31.261  29.990  1.00  0.00     0.031 C 
ATOM     32  C   UNL A   1      39.603  26.614  28.178  1.00  0.00     0.029 A 
ATOM     33  N   UNL A   1      41.674  27.234  28.742  1.00  0.00    -0.354 N 
ATOM     34  C   UNL A   1      42.524  31.259  30.071  1.00  0.00     0.074 A 
ATOM     35  C   UNL A   1      41.300  32.000  30.281  1.00  0.00     0.031 C 
ATOM     36  C   UNL A   1      40.400  25.545  28.019  1.00  0.00     0.029 A 
ATOM     37  C   UNL A   1      41.776  25.930  28.316  1.00  0.00     0.049 A 
ATOM     38  H   UNL A   1      42.443  27.754  29.071  1.00  0.00     0.167 HD
ATOM     39  C   UNL A   1      43.764  31.738  30.333  1.00  0.00     0.037 A 
ATOM     40  C   UNL A   1      42.855  25.144  28.138  1.00  0.00     0.037 A 
ATOM     41  C   UNL A   1      44.974  30.975  30.171  1.00  0.00     0.049 A 
ATOM     42  C   UNL A   1      44.222  25.701  28.421  1.00  0.00     0.074 A 
ATOM     43  C   UNL A   1      46.280  31.365  30.423  1.00  0.00     0.029 A 
ATOM     44  N   UNL A   1      45.029  29.659  29.734  1.00  0.00    -0.354 N 
ATOM     45  N   UNL A   1      44.551  26.898  28.845  1.00  0.00    -0.248 NA
ATOM     46  C   UNL A   1      45.365  24.810  28.182  1.00  0.00     0.031 C 
ATOM     47  C   UNL A   1      47.124  30.294  30.112  1.00  0.00     0.029 A 
ATOM     48  C   UNL A   1      46.343  29.225  29.702  1.00  0.00     0.049 A 
ATOM     49  H   UNL A   1      44.248  29.115  29.482  1.00  0.00     0.167 HD
ATOM     50  C   UNL A   1      45.938  26.900  28.936  1.00  0.00     0.074 A 
ATOM     51  C   UNL A   1      46.384  25.580  28.538  1.00  0.00     0.031 C 
ATOM     52  C   UNL A   1      46.768  27.905  29.308  1.00  0.00     0.037 A 
BRANCH  39  53
ATOM     53  C   UNL A   1      43.878  33.163  30.797  1.00  0.00     0.058 A 
ATOM     54  C   UNL A   1      43.929  33.501  32.158  1.00  0.00     0.135 A 
ATOM     55  C   UNL A   1      43.970  34.205  29.859  1.00  0.00     0.135 A 
ATOM     56  F   UNL A   1      43.827  32.547  33.095  1.00  0.00    -0.206 F 
ATOM     57  C   UNL A   1      44.044  34.825  32.574  1.00  0.00     0.059 A 
ATOM     58  C   UNL A   1      44.109  35.533  30.252  1.00  0.00     0.059 A 
ATOM     59  F   UNL A   1      43.924  33.938  28.545  1.00  0.00    -0.206 F 
ATOM     60  C   UNL A   1      44.131  35.834  31.613  1.00  0.00     0.060 A 
BRANCH  60  61
ATOM     61  S   UNL A   1      44.286  37.546  32.165  1.00  0.00     0.124 S 
ATOM     62  O   UNL A   1      43.870  38.275  30.970  1.00  0.00    -0.237 OA
ATOM     63  O   UNL A   1      43.362  37.599  33.293  1.00  0.00    -0.237 OA
ATOM     64  O   UNL A   1      45.699  37.665  32.511  1.00  0.00    -0.744 OA
ENDBRANCH  60  61
ENDBRANCH  39  53
BRANCH  40  65
ATOM     65  C   UNL A   1      42.686  23.759  27.627  1.00  0.00     0.058 A 
ATOM     66  C   UNL A   1      42.496  22.683  28.505  1.00  0.00     0.135 A 
ATOM     67  C   UNL A   1      42.689  23.487  26.249  1.00  0.00     0.135 A 
ATOM     68  F   UNL A   1      42.497  22.891  29.831  1.00  0.00    -0.206 F 
ATOM     69  C   UNL A   1      42.322  21.383  28.038  1.00  0.00     0.059 A 
ATOM     70  C   UNL A   1      42.490  22.202  25.757  1.00  0.00     0.059 A 
ATOM     71  F   UNL A   1      42.854  24.485  25.367  1.00  0.00    -0.206 F 
ATOM     72  C   UNL A   1      42.316  21.154  26.660  1.00  0.00     0.060 A 
BRANCH  72  73
ATOM     73  S   UNL A   1      42.029  19.476  26.058  1.00  0.00     0.124 S 
ATOM     74  O   UNL A   1      42.466  18.677  27.197  1.00  0.00    -0.237 OA
ATOM     75  O   UNL A   1      40.594  19.482  25.796  1.00  0.00    -0.237 OA
ATOM     76  O   UNL A   1      42.874  19.399  24.869  1.00  0.00    -0.744 OA
ENDBRANCH  72  73
ENDBRANCH  40  65
BRANCH  52  77
ATOM     77  C   UNL A   1      48.239  27.607  29.332  1.00  0.00     0.058 A 
ATOM     78  C   UNL A   1      49.064  27.893  28.233  1.00  0.00     0.135 A 
ATOM     79  C   UNL A   1      48.837  27.067  30.482  1.00  0.00     0.135 A 
ATOM     80  F   UNL A   1      48.538  28.401  27.108  1.00  0.00    -0.206 F 
ATOM     81  C   UNL A   1      50.430  27.636  28.267  1.00  0.00     0.059 A 
ATOM     82  C   UNL A   1      50.204  26.823  30.545  1.00  0.00     0.059 A 
ATOM     83  F   UNL A   1      48.091  26.785  31.562  1.00  0.00    -0.206 F 
ATOM     84  C   UNL A   1      50.991  27.099  29.428  1.00  0.00     0.060 A 
BRANCH  84  85
ATOM     85  S   UNL A   1      52.771  26.797  29.473  1.00  0.00     0.124 S 
ATOM     86  O   UNL A   1      53.294  28.153  29.610  1.00  0.00    -0.237 OA
ATOM     87  O   UNL A   1      52.915  25.941  30.647  1.00  0.00    -0.237 OA
ATOM     88  O   UNL A   1      53.037  26.146  28.194  1.00  0.00    -0.744 OA
ENDBRANCH  84  85
ENDBRANCH  52  77
ENDBRANCH  26  27
ENDBRANCH  19  21
ENDBRANCH  18  19
ENDBRANCH   1  18
TORSDOF 15
ENDMDL
MODEL 3
REMARK VINA RESULT:     -11.1      2.675      4.315
REMARK SMILES C[C@H](C(=O)OCCOC(=O)c1ccc(-c2c3nc(c(-c4c(F)cc(S(=O)(=O)[O-])cc4F)c4ccc([nH]4)c(-c4c(F)cc(S(=O)(=O)[O-])cc4F)c4nc(c(-c5c(F)cc(S(=O)(=O)[O-])cc5F)c5ccc2[nH]5)C=C4)C=C3)cc1)c1ccc2c(c1)OCCO2
REMARK SMILES IDX 7 1 6 2 5 3 3 4 4 5 2 6 1 7 77 8 78 9 82 10 79 11 81 12
REMARK SMILES IDX 80 13 83 14 86 15 84 16 85 17 8 18 9 19 10 20 11 21 12 22
REMARK SMILES IDX 76 23 13 24 75 25 14 26 15 27 16 28 69 29 17 30 74 31 68 32
REMARK SMILES IDX 70 33 18 34 73 35 67 36 66 37 19 39 53 40 32 41 52 42 33 43
REMARK SMILES IDX 36 44 51 45 71 46 34 47 35 48 50 50 72 51 37 52 20 53 21 54
REMARK SMILES IDX 30 55 22 56 23 57 29 58 31 59 24 60 25 61 26 62 27 63 28 64
REMARK SMILES IDX 54 65 55 66 64 67 56 68 57 69 63 70 65 71 58 72 59 73 60 74
REMARK SMILES IDX 61 75 62 76 38 77 39 78 48 79 40 80 41 81 47 82 49 83 42 84
REMARK SMILES IDX 43 85 44 86 45 87 46 88
REMARK H PARENT 70 38 36 49
REMARK Flexibility Score: inf
ROOT
ATOM      1  C   UNL A   1      32.342  29.742  27.253  1.00  0.00     0.275 C 
ENDROOT
BRANCH   1   2
ATOM      2  C   UNL A   1      31.734  28.344  27.308  1.00  0.00     0.274 C 
BRANCH   2   3
ATOM      3  O   UNL A   1      32.587  27.394  26.639  1.00  0.00    -0.462 OA
BRANCH   3   4
ATOM      4  C   UNL A   1      32.022  26.219  26.227  1.00  0.00     0.313 C 
ATOM      5  O   UNL A   1      31.030  25.717  26.741  1.00  0.00    -0.252 OA
BRANCH   4   6
ATOM      6  C   UNL A   1      32.827  25.562  25.090  1.00  0.00     0.126 C 
ATOM      7  C   UNL A   1      33.653  26.590  24.315  1.00  0.00     0.025 C 
BRANCH   6   8
ATOM      8  C   UNL A   1      33.644  24.375  25.588  1.00  0.00    -0.030 A 
ATOM      9  C   UNL A   1      33.135  23.065  25.621  1.00  0.00     0.009 A 
ATOM     10  C   UNL A   1      35.015  24.575  25.814  1.00  0.00     0.055 A 
ATOM     11  C   UNL A   1      33.996  21.973  25.754  1.00  0.00     0.051 A 
ATOM     12  C   UNL A   1      35.877  23.489  25.889  1.00  0.00     0.161 A 
ATOM     13  C   UNL A   1      35.366  22.191  25.819  1.00  0.00     0.161 A 
ATOM     14  O   UNL A   1      37.215  23.783  25.905  1.00  0.00    -0.486 OA
ATOM     15  O   UNL A   1      36.189  21.098  25.711  1.00  0.00    -0.486 OA
ATOM     16  C   UNL A   1      38.050  22.632  25.729  1.00  0.00     0.271 C 
ATOM     17  C   UNL A   1      37.354  21.503  24.983  1.00  0.00     0.271 C 
ENDBRANCH   6   8
ENDBRANCH   4   6
ENDBRANCH   3   4
ENDBRANCH   2   3
ENDBRANCH   1   2
BRANCH   1  18
ATOM     18  O   UNL A   1      33.771  29.621  27.252  1.00  0.00    -0.458 OA
BRANCH  18  19
ATOM     19  C   UNL A   1      34.443  30.520  28.002  1.00  0.00     0.338 C 
ATOM     20  O   UNL A   1      34.019  31.578  28.444  1.00  0.00    -0.246 OA
BRANCH  19  21
ATOM     21  C   UNL A   1      35.817  30.032  28.216  1.00  0.00     0.060 A 
ATOM     22  C   UNL A   1      36.214  29.575  29.474  1.00  0.00     0.016 A 
ATOM     23  C   UNL A   1      36.741  30.097  27.174  1.00  0.00     0.016 A 
ATOM     24  C   UNL A   1      37.547  29.255  29.719  1.00  0.00     0.010 A 
ATOM     25  C   UNL A   1      38.059  29.687  27.397  1.00  0.00     0.010 A 
ATOM     26  C   UNL A   1      38.484  29.291  28.678  1.00  0.00    -0.014 A 
BRANCH  26  27
ATOM     27  C   UNL A   1      39.914  28.955  28.927  1.00  0.00     0.031 A 
ATOM     28  C   UNL A   1      40.841  30.000  29.492  1.00  0.00     0.074 A 
ATOM     29  C   UNL A   1      40.387  27.726  28.639  1.00  0.00     0.049 A 
ATOM     30  N   UNL A   1      42.145  29.983  29.591  1.00  0.00    -0.248 NA
ATOM     31  C   UNL A   1      40.216  31.233  29.998  1.00  0.00     0.031 C 
ATOM     32  C   UNL A   1      39.593  26.607  28.127  1.00  0.00     0.029 A 
ATOM     33  N   UNL A   1      41.657  27.213  28.731  1.00  0.00    -0.354 N 
ATOM     34  C   UNL A   1      42.501  31.220  30.116  1.00  0.00     0.074 A 
ATOM     35  C   UNL A   1      41.277  31.964  30.314  1.00  0.00     0.031 C 
ATOM     36  C   UNL A   1      40.388  25.537  27.970  1.00  0.00     0.029 A 
ATOM     37  C   UNL A   1      41.760  25.913  28.293  1.00  0.00     0.049 A 
ATOM     38  H   UNL A   1      42.423  27.726  29.079  1.00  0.00     0.167 HD
ATOM     39  C   UNL A   1      43.739  31.691  30.404  1.00  0.00     0.037 A 
ATOM     40  C   UNL A   1      42.839  25.125  28.124  1.00  0.00     0.037 A 
ATOM     41  C   UNL A   1      44.949  30.924  30.253  1.00  0.00     0.049 A 
ATOM     42  C   UNL A   1      44.203  25.673  28.436  1.00  0.00     0.074 A 
ATOM     43  C   UNL A   1      46.251  31.307  30.531  1.00  0.00     0.029 A 
ATOM     44  N   UNL A   1      45.005  29.614  29.803  1.00  0.00    -0.354 N 
ATOM     45  N   UNL A   1      44.531  26.864  28.878  1.00  0.00    -0.248 NA
ATOM     46  C   UNL A   1      45.347  24.779  28.206  1.00  0.00     0.031 C 
ATOM     47  C   UNL A   1      47.096  30.235  30.222  1.00  0.00     0.029 A 
ATOM     48  C   UNL A   1      46.318  29.174  29.788  1.00  0.00     0.049 A 
ATOM     49  H   UNL A   1      44.226  29.075  29.533  1.00  0.00     0.167 HD
ATOM     50  C   UNL A   1      45.916  26.859  28.991  1.00  0.00     0.074 A 
ATOM     51  C   UNL A   1      46.363  25.542  28.587  1.00  0.00     0.031 C 
ATOM     52  C   UNL A   1      46.744  27.857  29.388  1.00  0.00     0.037 A 
BRANCH  39  53
ATOM     53  C   UNL A   1      43.851  33.111  30.884  1.00  0.00     0.058 A 
ATOM     54  C   UNL A   1      43.826  33.439  32.248  1.00  0.00     0.135 A 
ATOM     55  C   UNL A   1      44.018  34.157  29.961  1.00  0.00     0.135 A 
ATOM     56  F   UNL A   1      43.651  32.481  33.171  1.00  0.00    -0.206 F 
ATOM     57  C   UNL A   1      43.941  34.758  32.680  1.00  0.00     0.059 A 
ATOM     58  C   UNL A   1      44.158  35.479  30.372  1.00  0.00     0.059 A 
ATOM     59  F   UNL A   1      44.046  33.899  28.645  1.00  0.00    -0.206 F 
ATOM     60  C   UNL A   1      44.104  35.771  31.734  1.00  0.00     0.060 A 
BRANCH  60  61
ATOM     61  S   UNL A   1      44.257  37.476  32.307  1.00  0.00     0.124 S 
ATOM     62  O   UNL A   1      45.677  37.546  32.636  1.00  0.00    -0.237 OA
ATOM     63  O   UNL A   1      43.841  38.242  31.136  1.00  0.00    -0.237 OA
ATOM     64  O   UNL A   1      43.346  37.535  33.446  1.00  0.00    -0.744 OA
ENDBRANCH  60  61
ENDBRANCH  39  53
BRANCH  40  65
ATOM     65  C   UNL A   1      42.673  23.745  27.596  1.00  0.00     0.058 A 
ATOM     66  C   UNL A   1      42.718  23.488  26.220  1.00  0.00     0.135 A 
ATOM     67  C   UNL A   1      42.488  22.654  28.461  1.00  0.00     0.135 A 
ATOM     68  F   UNL A   1      42.881  24.499  25.353  1.00  0.00    -0.206 F 
ATOM     69  C   UNL A   1      42.578  22.198  25.714  1.00  0.00     0.059 A 
ATOM     70  C   UNL A   1      42.372  21.354  27.982  1.00  0.00     0.059 A 
ATOM     71  F   UNL A   1      42.451  22.847  29.789  1.00  0.00    -0.206 F 
ATOM     72  C   UNL A   1      42.410  21.136  26.606  1.00  0.00     0.060 A 
BRANCH  72  73
ATOM     73  S   UNL A   1      42.290  19.459  25.950  1.00  0.00     0.124 S 
ATOM     74  O   UNL A   1      43.179  19.531  24.796  1.00  0.00    -0.237 OA
ATOM     75  O   UNL A   1      42.764  18.653  27.070  1.00  0.00    -0.237 OA
ATOM     76  O   UNL A   1      40.868  19.319  25.646  1.00  0.00    -0.744 OA
ENDBRANCH  72  73
ENDBRANCH  40  65
BRANCH  52  77
ATOM     77  C   UNL A   1      48.213  27.552  29.432  1.00  0.00     0.058 A 
ATOM     78  C   UNL A   1      49.039  27.755  28.316  1.00  0.00     0.135 A 
ATOM     79  C   UNL A   1      48.808  27.091  30.618  1.00  0.00     0.135 A 
ATOM     80  F   UNL A   1      48.516  28.187  27.158  1.00  0.00    -0.206 F 
ATOM     81  C   UNL A   1      50.404  27.493  28.368  1.00  0.00     0.059 A 
ATOM     82  C   UNL A   1      50.174  26.844  30.698  1.00  0.00     0.059 A 
ATOM     83  F   UNL A   1      48.061  26.890  31.714  1.00  0.00    -0.206 F 
ATOM     84  C   UNL A   1      50.962  27.036  29.563  1.00  0.00     0.060 A 
BRANCH  84  85
ATOM     85  S   UNL A   1      52.740  26.727  29.630  1.00  0.00     0.124 S 
ATOM     86  O   UNL A   1      53.262  28.073  29.845  1.00  0.00    -0.237 OA
ATOM     87  O   UNL A   1      52.859  25.813  30.763  1.00  0.00    -0.237 OA
ATOM     88  O   UNL A   1      53.031  26.140  28.326  1.00  0.00    -0.744 OA
ENDBRANCH  84  85
ENDBRANCH  52  77
ENDBRANCH  26  27
ENDBRANCH  19  21
ENDBRANCH  18  19
ENDBRANCH   1  18
TORSDOF 15
ENDMDL
