MODEL 1
REMARK VINA RESULT:     -12.0      0.000      0.000
REMARK SMILES O=C(OCCOC(=O)c1nnn(-c2cccc(OC(F)(F)F)c2)c1-c1ccncc1)c1ccc(-c2c3nc(c(-c4c(F)cc(S(=O)(=O)[O-])cc4F)c4ccc([nH]4)c(-c4c(F)cc(S(=O)(=O)[O-])cc4F)c4nc(c(-c5c(F)cc(S(=O)(=O)[O-])cc5F)c5ccc2[nH]5)C=C4)C=C3)cc1
REMARK SMILES IDX 4 1 3 2 2 3 1 4 31 5 32 6 96 7 33 8 95 9 34 10 35 11 36 12
REMARK SMILES IDX 89 13 37 14 94 15 88 16 90 17 38 18 93 19 87 20 86 21 39 23
REMARK SMILES IDX 73 24 52 25 72 26 53 27 56 28 71 29 91 30 54 31 55 32 70 34
REMARK SMILES IDX 92 35 57 36 40 37 41 38 50 39 42 40 43 41 49 42 51 43 44 44
REMARK SMILES IDX 45 45 46 46 47 47 48 48 74 49 75 50 84 51 76 52 77 53 83 54
REMARK SMILES IDX 85 55 78 56 79 57 80 58 81 59 82 60 58 61 59 62 68 63 60 64
REMARK SMILES IDX 61 65 67 66 69 67 62 68 63 69 64 70 65 71 66 72 5 73 6 74
REMARK SMILES IDX 7 75 8 76 9 77 10 78 24 79 11 80 12 81 25 82 26 83 30 84
REMARK SMILES IDX 27 85 29 86 28 87 13 88 14 89 23 90 15 91 17 92 16 93 18 94
REMARK SMILES IDX 19 95 20 96 21 97 22 98
REMARK H PARENT 90 22 56 33
REMARK Flexibility Score: inf
ROOT
ATOM      1  C   UNL A   1      37.177  22.236  24.474  1.00  0.00     0.275 C 
ENDROOT
BRANCH   1   2
ATOM      2  O   UNL A   1      37.610  22.322  25.849  1.00  0.00    -0.458 OA
BRANCH   2   3
ATOM      3  C   UNL A   1      38.934  22.281  26.119  1.00  0.00     0.338 C 
ATOM      4  O   UNL A   1      39.681  21.400  25.725  1.00  0.00    -0.246 OA
BRANCH   3   5
ATOM      5  C   UNL A   1      39.392  23.479  26.866  1.00  0.00     0.060 A 
ATOM      6  C   UNL A   1      38.657  24.671  26.866  1.00  0.00     0.016 A 
ATOM      7  C   UNL A   1      40.578  23.386  27.604  1.00  0.00     0.016 A 
ATOM      8  C   UNL A   1      39.141  25.784  27.534  1.00  0.00     0.010 A 
ATOM      9  C   UNL A   1      41.059  24.501  28.280  1.00  0.00     0.010 A 
ATOM     10  C   UNL A   1      40.365  25.711  28.199  1.00  0.00    -0.014 A 
BRANCH  10  11
ATOM     11  C   UNL A   1      40.889  26.947  28.773  1.00  0.00     0.031 A 
ATOM     12  C   UNL A   1      42.108  27.526  28.136  1.00  0.00     0.074 A 
ATOM     13  C   UNL A   1      40.249  27.580  29.776  1.00  0.00     0.049 A 
ATOM     14  N   UNL A   1      43.263  27.779  28.667  1.00  0.00    -0.248 NA
ATOM     15  C   UNL A   1      42.049  27.797  26.692  1.00  0.00     0.031 C 
ATOM     16  C   UNL A   1      38.913  27.299  30.313  1.00  0.00     0.029 A 
ATOM     17  N   UNL A   1      40.626  28.695  30.461  1.00  0.00    -0.354 N 
ATOM     18  C   UNL A   1      44.016  28.420  27.679  1.00  0.00     0.074 A 
ATOM     19  C   UNL A   1      43.266  28.291  26.458  1.00  0.00     0.031 C 
ATOM     20  C   UNL A   1      38.503  28.350  31.057  1.00  0.00     0.029 A 
ATOM     21  C   UNL A   1      39.596  29.300  31.165  1.00  0.00     0.049 A 
ATOM     22  H   UNL A   1      41.547  29.040  30.456  1.00  0.00     0.167 HD
ATOM     23  C   UNL A   1      45.120  29.168  27.971  1.00  0.00     0.037 A 
ATOM     24  C   UNL A   1      39.615  30.533  31.727  1.00  0.00     0.037 A 
ATOM     25  C   UNL A   1      45.654  28.840  29.267  1.00  0.00     0.049 A 
ATOM     26  C   UNL A   1      41.039  30.914  31.914  1.00  0.00     0.074 A 
ATOM     27  C   UNL A   1      46.168  27.697  29.846  1.00  0.00     0.029 A 
ATOM     28  N   UNL A   1      45.423  29.706  30.308  1.00  0.00    -0.354 N 
ATOM     29  N   UNL A   1      41.857  30.313  32.736  1.00  0.00    -0.248 NA
ATOM     30  C   UNL A   1      41.676  31.696  30.865  1.00  0.00     0.031 C 
ATOM     31  C   UNL A   1      45.741  27.748  31.205  1.00  0.00     0.029 A 
ATOM     32  C   UNL A   1      45.034  28.940  31.376  1.00  0.00     0.049 A 
ATOM     33  H   UNL A   1      45.520  30.686  30.290  1.00  0.00     0.167 HD
ATOM     34  C   UNL A   1      43.080  30.301  32.080  1.00  0.00     0.074 A 
ATOM     35  C   UNL A   1      42.929  31.248  30.979  1.00  0.00     0.031 C 
ATOM     36  C   UNL A   1      44.011  29.331  32.322  1.00  0.00     0.037 A 
BRANCH  23  37
ATOM     37  C   UNL A   1      45.535  30.422  27.227  1.00  0.00     0.058 A 
ATOM     38  C   UNL A   1      46.898  30.626  26.911  1.00  0.00     0.135 A 
ATOM     39  C   UNL A   1      44.706  31.556  27.083  1.00  0.00     0.135 A 
ATOM     40  F   UNL A   1      47.780  29.618  26.995  1.00  0.00    -0.206 F 
ATOM     41  C   UNL A   1      47.412  31.883  26.583  1.00  0.00     0.059 A 
ATOM     42  C   UNL A   1      45.190  32.806  26.709  1.00  0.00     0.059 A 
ATOM     43  F   UNL A   1      43.404  31.533  27.389  1.00  0.00    -0.206 F 
ATOM     44  C   UNL A   1      46.551  32.973  26.513  1.00  0.00     0.060 A 
BRANCH  44  45
ATOM     45  S   UNL A   1      47.227  34.622  26.245  1.00  0.00     0.124 S 
ATOM     46  O   UNL A   1      47.481  35.055  27.615  1.00  0.00    -0.237 OA
ATOM     47  O   UNL A   1      48.406  34.339  25.434  1.00  0.00    -0.237 OA
ATOM     48  O   UNL A   1      46.146  35.317  25.551  1.00  0.00    -0.744 OA
ENDBRANCH  44  45
ENDBRANCH  23  37
BRANCH  24  49
ATOM     49  C   UNL A   1      38.499  31.514  31.744  1.00  0.00     0.058 A 
ATOM     50  C   UNL A   1      37.991  32.070  30.558  1.00  0.00     0.135 A 
ATOM     51  C   UNL A   1      37.733  31.731  32.910  1.00  0.00     0.135 A 
ATOM     52  F   UNL A   1      38.638  31.885  29.397  1.00  0.00    -0.206 F 
ATOM     53  C   UNL A   1      36.780  32.772  30.524  1.00  0.00     0.059 A 
ATOM     54  C   UNL A   1      36.533  32.438  32.903  1.00  0.00     0.059 A 
ATOM     55  F   UNL A   1      38.083  31.181  34.082  1.00  0.00    -0.206 F 
ATOM     56  C   UNL A   1      36.050  32.938  31.701  1.00  0.00     0.060 A 
BRANCH  56  57
ATOM     57  S   UNL A   1      34.415  33.706  31.638  1.00  0.00     0.124 S 
ATOM     58  O   UNL A   1      33.672  32.913  32.610  1.00  0.00    -0.237 OA
ATOM     59  O   UNL A   1      34.705  35.082  32.025  1.00  0.00    -0.237 OA
ATOM     60  O   UNL A   1      34.009  33.526  30.246  1.00  0.00    -0.744 OA
ENDBRANCH  56  57
ENDBRANCH  24  49
BRANCH  36  61
ATOM     61  C   UNL A   1      43.816  28.419  33.506  1.00  0.00     0.058 A 
ATOM     62  C   UNL A   1      44.180  28.758  34.822  1.00  0.00     0.135 A 
ATOM     63  C   UNL A   1      43.058  27.252  33.332  1.00  0.00     0.135 A 
ATOM     64  F   UNL A   1      44.812  29.909  35.088  1.00  0.00    -0.206 F 
ATOM     65  C   UNL A   1      43.826  27.959  35.911  1.00  0.00     0.059 A 
ATOM     66  C   UNL A   1      42.669  26.456  34.407  1.00  0.00     0.059 A 
ATOM     67  F   UNL A   1      42.624  26.909  32.108  1.00  0.00    -0.206 F 
ATOM     68  C   UNL A   1      43.063  26.814  35.695  1.00  0.00     0.060 A 
BRANCH  68  69
ATOM     69  S   UNL A   1      42.504  25.851  37.118  1.00  0.00     0.124 S 
ATOM     70  O   UNL A   1      42.205  24.556  36.516  1.00  0.00    -0.237 OA
ATOM     71  O   UNL A   1      43.665  25.887  38.002  1.00  0.00    -0.237 OA
ATOM     72  O   UNL A   1      41.344  26.597  37.601  1.00  0.00    -0.744 OA
ENDBRANCH  68  69
ENDBRANCH  36  61
ENDBRANCH  10  11
ENDBRANCH   3   5
ENDBRANCH   2   3
ENDBRANCH   1   2
BRANCH   1  73
ATOM     73  C   UNL A   1      35.672  22.214  24.220  1.00  0.00     0.275 C 
BRANCH  73  74
ATOM     74  O   UNL A   1      35.374  23.047  23.091  1.00  0.00    -0.457 OA
BRANCH  74  75
ATOM     75  C   UNL A   1      34.063  23.373  22.911  1.00  0.00     0.361 C 
ATOM     76  O   UNL A   1      33.200  22.620  22.473  1.00  0.00    -0.244 OA
BRANCH  75  77
ATOM     77  C   UNL A   1      33.849  24.786  23.103  1.00  0.00     0.198 A 
ATOM     78  N   UNL A   1      34.110  25.766  22.185  1.00  0.00    -0.122 NA
ATOM     79  C   UNL A   1      33.217  25.337  24.200  1.00  0.00     0.109 A 
ATOM     80  N   UNL A   1      33.676  26.922  22.680  1.00  0.00    -0.061 NA
ATOM     81  N   UNL A   1      33.259  26.695  23.944  1.00  0.00    -0.212 N 
BRANCH  79  82
ATOM     82  C   UNL A   1      32.522  24.676  25.298  1.00  0.00     0.006 A 
ATOM     83  C   UNL A   1      33.237  23.995  26.281  1.00  0.00     0.030 A 
ATOM     84  C   UNL A   1      31.127  24.658  25.336  1.00  0.00     0.030 A 
ATOM     85  C   UNL A   1      32.525  23.336  27.268  1.00  0.00     0.111 A 
ATOM     86  C   UNL A   1      30.508  23.968  26.363  1.00  0.00     0.111 A 
ATOM     87  N   UNL A   1      31.177  23.307  27.332  1.00  0.00    -0.265 NA
ENDBRANCH  79  82
BRANCH  81  88
ATOM     88  C   UNL A   1      33.016  27.740  24.856  1.00  0.00     0.071 A 
ATOM     89  C   UNL A   1      31.984  28.651  24.639  1.00  0.00     0.029 A 
ATOM     90  C   UNL A   1      33.831  27.830  25.994  1.00  0.00     0.075 A 
ATOM     91  C   UNL A   1      31.719  29.603  25.622  1.00  0.00     0.006 A 
ATOM     92  C   UNL A   1      33.600  28.812  26.950  1.00  0.00     0.131 A 
ATOM     93  C   UNL A   1      32.518  29.677  26.771  1.00  0.00     0.047 A 
BRANCH  92  94
ATOM     94  O   UNL A   1      34.346  29.015  28.075  1.00  0.00    -0.406 OA
BRANCH  94  95
ATOM     95  C   UNL A   1      35.478  29.867  27.960  1.00  0.00     0.573 C 
ATOM     96  F   UNL A   1      36.375  29.624  28.942  1.00  0.00    -0.132 F 
ATOM     97  F   UNL A   1      36.085  29.725  26.761  1.00  0.00    -0.132 F 
ATOM     98  F   UNL A   1      35.076  31.152  28.073  1.00  0.00    -0.132 F 
ENDBRANCH  94  95
ENDBRANCH  92  94
ENDBRANCH  81  88
ENDBRANCH  75  77
ENDBRANCH  74  75
ENDBRANCH  73  74
ENDBRANCH   1  73
TORSDOF 18
ENDMDL
MODEL 2
REMARK VINA RESULT:     -11.9      1.097      1.798
REMARK SMILES O=C(OCCOC(=O)c1nnn(-c2cccc(OC(F)(F)F)c2)c1-c1ccncc1)c1ccc(-c2c3nc(c(-c4c(F)cc(S(=O)(=O)[O-])cc4F)c4ccc([nH]4)c(-c4c(F)cc(S(=O)(=O)[O-])cc4F)c4nc(c(-c5c(F)cc(S(=O)(=O)[O-])cc5F)c5ccc2[nH]5)C=C4)C=C3)cc1
REMARK SMILES IDX 4 1 3 2 2 3 1 4 31 5 32 6 96 7 33 8 95 9 34 10 35 11 36 12
REMARK SMILES IDX 89 13 37 14 94 15 88 16 90 17 38 18 93 19 87 20 86 21 39 23
REMARK SMILES IDX 73 24 52 25 72 26 53 27 56 28 71 29 91 30 54 31 55 32 70 34
REMARK SMILES IDX 92 35 57 36 40 37 41 38 50 39 42 40 43 41 49 42 51 43 44 44
REMARK SMILES IDX 45 45 46 46 47 47 48 48 74 49 75 50 84 51 76 52 77 53 83 54
REMARK SMILES IDX 85 55 78 56 79 57 80 58 81 59 82 60 58 61 59 62 68 63 60 64
REMARK SMILES IDX 61 65 67 66 69 67 62 68 63 69 64 70 65 71 66 72 5 73 6 74
REMARK SMILES IDX 7 75 8 76 9 77 10 78 24 79 11 80 12 81 25 82 26 83 30 84
REMARK SMILES IDX 27 85 29 86 28 87 13 88 14 89 23 90 15 91 17 92 16 93 18 94
REMARK SMILES IDX 19 95 20 96 21 97 22 98
REMARK H PARENT 90 22 56 33
REMARK Flexibility Score: inf
ROOT
ATOM      1  C   UNL A   1      37.829  21.113  25.435  1.00  0.00     0.275 C 
ENDROOT
BRANCH   1   2
ATOM      2  O   UNL A   1      38.422  22.366  25.838  1.00  0.00    -0.458 OA
BRANCH   2   3
ATOM      3  C   UNL A   1      39.596  22.345  26.508  1.00  0.00     0.338 C 
ATOM      4  O   UNL A   1      40.316  21.363  26.589  1.00  0.00    -0.246 OA
BRANCH   3   5
ATOM      5  C   UNL A   1      39.956  23.678  27.052  1.00  0.00     0.060 A 
ATOM      6  C   UNL A   1      41.062  23.857  27.893  1.00  0.00     0.016 A 
ATOM      7  C   UNL A   1      39.171  24.778  26.683  1.00  0.00     0.016 A 
ATOM      8  C   UNL A   1      41.337  25.108  28.422  1.00  0.00     0.010 A 
ATOM      9  C   UNL A   1      39.452  26.034  27.207  1.00  0.00     0.010 A 
ATOM     10  C   UNL A   1      40.503  26.184  28.116  1.00  0.00    -0.014 A 
BRANCH  10  11
ATOM     11  C   UNL A   1      40.762  27.446  28.803  1.00  0.00     0.031 A 
ATOM     12  C   UNL A   1      41.883  28.282  28.283  1.00  0.00     0.074 A 
ATOM     13  C   UNL A   1      39.968  27.874  29.804  1.00  0.00     0.049 A 
ATOM     14  N   UNL A   1      42.945  28.697  28.900  1.00  0.00    -0.248 NA
ATOM     15  C   UNL A   1      41.846  28.649  26.859  1.00  0.00     0.031 C 
ATOM     16  C   UNL A   1      38.682  27.317  30.237  1.00  0.00     0.029 A 
ATOM     17  N   UNL A   1      40.099  28.982  30.585  1.00  0.00    -0.354 N 
ATOM     18  C   UNL A   1      43.615  29.537  28.007  1.00  0.00     0.074 A 
ATOM     19  C   UNL A   1      42.961  29.370  26.736  1.00  0.00     0.031 C 
ATOM     20  C   UNL A   1      38.050  28.216  31.023  1.00  0.00     0.029 A 
ATOM     21  C   UNL A   1      38.942  29.337  31.262  1.00  0.00     0.049 A 
ATOM     22  H   UNL A   1      40.940  29.487  30.660  1.00  0.00     0.167 HD
ATOM     23  C   UNL A   1      44.546  30.447  28.416  1.00  0.00     0.037 A 
ATOM     24  C   UNL A   1      38.707  30.506  31.905  1.00  0.00     0.037 A 
ATOM     25  C   UNL A   1      45.067  30.122  29.718  1.00  0.00     0.049 A 
ATOM     26  C   UNL A   1      40.026  31.121  32.205  1.00  0.00     0.074 A 
ATOM     27  C   UNL A   1      45.754  29.049  30.250  1.00  0.00     0.029 A 
ATOM     28  N   UNL A   1      44.630  30.849  30.798  1.00  0.00    -0.354 N 
ATOM     29  N   UNL A   1      40.899  30.615  33.035  1.00  0.00    -0.248 NA
ATOM     30  C   UNL A   1      40.558  32.083  31.253  1.00  0.00     0.031 C 
ATOM     31  C   UNL A   1      45.259  28.917  31.581  1.00  0.00     0.029 A 
ATOM     32  C   UNL A   1      44.337  29.946  31.786  1.00  0.00     0.049 A 
ATOM     33  H   UNL A   1      44.546  31.829  30.852  1.00  0.00     0.167 HD
ATOM     34  C   UNL A   1      42.133  30.874  32.457  1.00  0.00     0.074 A 
ATOM     35  C   UNL A   1      41.865  31.861  31.414  1.00  0.00     0.031 C 
ATOM     36  C   UNL A   1      43.214  30.072  32.691  1.00  0.00     0.037 A 
BRANCH  23  37
ATOM     37  C   UNL A   1      44.759  31.809  27.785  1.00  0.00     0.058 A 
ATOM     38  C   UNL A   1      45.958  32.073  27.083  1.00  0.00     0.135 A 
ATOM     39  C   UNL A   1      43.981  32.946  28.096  1.00  0.00     0.135 A 
ATOM     40  F   UNL A   1      46.774  31.071  26.718  1.00  0.00    -0.206 F 
ATOM     41  C   UNL A   1      46.397  33.370  26.809  1.00  0.00     0.059 A 
ATOM     42  C   UNL A   1      44.376  34.243  27.787  1.00  0.00     0.059 A 
ATOM     43  F   UNL A   1      42.844  32.863  28.797  1.00  0.00    -0.206 F 
ATOM     44  C   UNL A   1      45.610  34.450  27.193  1.00  0.00     0.060 A 
BRANCH  44  45
ATOM     45  S   UNL A   1      46.239  36.126  26.984  1.00  0.00     0.124 S 
ATOM     46  O   UNL A   1      47.009  35.993  25.753  1.00  0.00    -0.237 OA
ATOM     47  O   UNL A   1      45.007  36.903  26.889  1.00  0.00    -0.237 OA
ATOM     48  O   UNL A   1      47.019  36.344  28.200  1.00  0.00    -0.744 OA
ENDBRANCH  44  45
ENDBRANCH  23  37
BRANCH  24  49
ATOM     49  C   UNL A   1      37.430  31.265  31.918  1.00  0.00     0.058 A 
ATOM     50  C   UNL A   1      36.850  31.708  33.118  1.00  0.00     0.135 A 
ATOM     51  C   UNL A   1      36.882  31.798  30.730  1.00  0.00     0.135 A 
ATOM     52  F   UNL A   1      37.329  31.278  34.296  1.00  0.00    -0.206 F 
ATOM     53  C   UNL A   1      35.811  32.645  33.142  1.00  0.00     0.059 A 
ATOM     54  C   UNL A   1      35.839  32.721  30.728  1.00  0.00     0.059 A 
ATOM     55  F   UNL A   1      37.408  31.503  29.531  1.00  0.00    -0.206 F 
ATOM     56  C   UNL A   1      35.322  33.158  31.940  1.00  0.00     0.060 A 
BRANCH  56  57
ATOM     57  S   UNL A   1      34.090  34.481  31.968  1.00  0.00     0.124 S 
ATOM     58  O   UNL A   1      34.879  35.616  32.433  1.00  0.00    -0.237 OA
ATOM     59  O   UNL A   1      33.660  34.531  30.575  1.00  0.00    -0.237 OA
ATOM     60  O   UNL A   1      33.087  33.992  32.910  1.00  0.00    -0.744 OA
ENDBRANCH  56  57
ENDBRANCH  24  49
BRANCH  36  61
ATOM     61  C   UNL A   1      43.133  29.052  33.797  1.00  0.00     0.058 A 
ATOM     62  C   UNL A   1      43.393  29.341  35.148  1.00  0.00     0.135 A 
ATOM     63  C   UNL A   1      42.582  27.795  33.506  1.00  0.00     0.135 A 
ATOM     64  F   UNL A   1      43.820  30.554  35.524  1.00  0.00    -0.206 F 
ATOM     65  C   UNL A   1      43.140  28.414  36.161  1.00  0.00     0.059 A 
ATOM     66  C   UNL A   1      42.294  26.866  34.503  1.00  0.00     0.059 A 
ATOM     67  F   UNL A   1      42.249  27.483  32.243  1.00  0.00    -0.206 F 
ATOM     68  C   UNL A   1      42.581  27.181  35.829  1.00  0.00     0.060 A 
BRANCH  68  69
ATOM     69  S   UNL A   1      42.141  26.033  37.154  1.00  0.00     0.124 S 
ATOM     70  O   UNL A   1      42.352  24.736  36.520  1.00  0.00    -0.237 OA
ATOM     71  O   UNL A   1      43.088  26.385  38.208  1.00  0.00    -0.237 OA
ATOM     72  O   UNL A   1      40.749  26.366  37.446  1.00  0.00    -0.744 OA
ENDBRANCH  68  69
ENDBRANCH  36  61
ENDBRANCH  10  11
ENDBRANCH   3   5
ENDBRANCH   2   3
ENDBRANCH   1   2
BRANCH   1  73
ATOM     73  C   UNL A   1      36.307  21.066  25.335  1.00  0.00     0.275 C 
BRANCH  73  74
ATOM     74  O   UNL A   1      35.897  21.679  24.105  1.00  0.00    -0.457 OA
BRANCH  74  75
ATOM     75  C   UNL A   1      34.564  21.929  23.969  1.00  0.00     0.361 C 
ATOM     76  O   UNL A   1      33.691  21.075  23.858  1.00  0.00    -0.244 OA
BRANCH  75  77
ATOM     77  C   UNL A   1      34.319  23.335  23.760  1.00  0.00     0.198 A 
ATOM     78  N   UNL A   1      34.799  24.085  22.722  1.00  0.00    -0.122 NA
ATOM     79  C   UNL A   1      33.445  24.093  24.514  1.00  0.00     0.109 A 
ATOM     80  N   UNL A   1      34.265  25.300  22.810  1.00  0.00    -0.061 NA
ATOM     81  N   UNL A   1      33.555  25.354  23.957  1.00  0.00    -0.212 N 
BRANCH  79  82
ATOM     82  C   UNL A   1      32.503  23.671  25.543  1.00  0.00     0.006 A 
ATOM     83  C   UNL A   1      31.130  23.788  25.337  1.00  0.00     0.030 A 
ATOM     84  C   UNL A   1      32.969  23.211  26.776  1.00  0.00     0.030 A 
ATOM     85  C   UNL A   1      30.281  23.427  26.368  1.00  0.00     0.111 A 
ATOM     86  C   UNL A   1      32.039  22.877  27.745  1.00  0.00     0.111 A 
ATOM     87  N   UNL A   1      30.704  22.974  27.568  1.00  0.00    -0.265 NA
ENDBRANCH  79  82
BRANCH  81  88
ATOM     88  C   UNL A   1      33.106  26.569  24.508  1.00  0.00     0.071 A 
ATOM     89  C   UNL A   1      32.185  27.364  23.828  1.00  0.00     0.029 A 
ATOM     90  C   UNL A   1      33.599  26.949  25.766  1.00  0.00     0.075 A 
ATOM     91  C   UNL A   1      31.694  28.505  24.463  1.00  0.00     0.006 A 
ATOM     92  C   UNL A   1      33.149  28.114  26.376  1.00  0.00     0.131 A 
ATOM     93  C   UNL A   1      32.169  28.871  25.730  1.00  0.00     0.047 A 
BRANCH  92  94
ATOM     94  O   UNL A   1      33.581  28.598  27.577  1.00  0.00    -0.406 OA
BRANCH  94  95
ATOM     95  C   UNL A   1      34.655  29.528  27.554  1.00  0.00     0.573 C 
ATOM     96  F   UNL A   1      34.200  30.800  27.493  1.00  0.00    -0.132 F 
ATOM     97  F   UNL A   1      35.451  29.394  28.638  1.00  0.00    -0.132 F 
ATOM     98  F   UNL A   1      35.409  29.304  26.454  1.00  0.00    -0.132 F 
ENDBRANCH  94  95
ENDBRANCH  92  94
ENDBRANCH  81  88
ENDBRANCH  75  77
ENDBRANCH  74  75
ENDBRANCH  73  74
ENDBRANCH   1  73
TORSDOF 18
ENDMDL
MODEL 3
REMARK VINA RESULT:     -11.7      2.936      9.073
REMARK SMILES O=C(OCCOC(=O)c1nnn(-c2cccc(OC(F)(F)F)c2)c1-c1ccncc1)c1ccc(-c2c3nc(c(-c4c(F)cc(S(=O)(=O)[O-])cc4F)c4ccc([nH]4)c(-c4c(F)cc(S(=O)(=O)[O-])cc4F)c4nc(c(-c5c(F)cc(S(=O)(=O)[O-])cc5F)c5ccc2[nH]5)C=C4)C=C3)cc1
REMARK SMILES IDX 4 1 3 2 2 3 1 4 31 5 32 6 96 7 33 8 95 9 34 10 35 11 36 12
REMARK SMILES IDX 89 13 37 14 94 15 88 16 90 17 38 18 93 19 87 20 86 21 39 23
REMARK SMILES IDX 73 24 52 25 72 26 53 27 56 28 71 29 91 30 54 31 55 32 70 34
REMARK SMILES IDX 92 35 57 36 40 37 41 38 50 39 42 40 43 41 49 42 51 43 44 44
REMARK SMILES IDX 45 45 46 46 47 47 48 48 74 49 75 50 84 51 76 52 77 53 83 54
REMARK SMILES IDX 85 55 78 56 79 57 80 58 81 59 82 60 58 61 59 62 68 63 60 64
REMARK SMILES IDX 61 65 67 66 69 67 62 68 63 69 64 70 65 71 66 72 5 73 6 74
REMARK SMILES IDX 7 75 8 76 9 77 10 78 24 79 11 80 12 81 25 82 26 83 30 84
REMARK SMILES IDX 27 85 29 86 28 87 13 88 14 89 23 90 15 91 17 92 16 93 18 94
REMARK SMILES IDX 19 95 20 96 21 97 22 98
REMARK H PARENT 90 22 56 33
REMARK Flexibility Score: inf
ROOT
ATOM      1  C   UNL A   1      32.722  31.001  27.240  1.00  0.00     0.275 C 
ENDROOT
BRANCH   1   2
ATOM      2  O   UNL A   1      34.081  30.566  27.459  1.00  0.00    -0.458 OA
BRANCH   2   3
ATOM      3  C   UNL A   1      35.032  31.496  27.700  1.00  0.00     0.338 C 
ATOM      4  O   UNL A   1      34.838  32.699  27.633  1.00  0.00    -0.246 OA
BRANCH   3   5
ATOM      5  C   UNL A   1      36.310  30.889  28.147  1.00  0.00     0.060 A 
ATOM      6  C   UNL A   1      37.327  31.659  28.727  1.00  0.00     0.016 A 
ATOM      7  C   UNL A   1      36.473  29.506  28.003  1.00  0.00     0.016 A 
ATOM      8  C   UNL A   1      38.526  31.066  29.086  1.00  0.00     0.010 A 
ATOM      9  C   UNL A   1      37.674  28.910  28.371  1.00  0.00     0.010 A 
ATOM     10  C   UNL A   1      38.715  29.702  28.863  1.00  0.00    -0.014 A 
BRANCH  10  11
ATOM     11  C   UNL A   1      40.041  29.157  29.139  1.00  0.00     0.031 A 
ATOM     12  C   UNL A   1      40.462  29.092  30.570  1.00  0.00     0.074 A 
ATOM     13  C   UNL A   1      40.811  28.654  28.154  1.00  0.00     0.049 A 
ATOM     14  N   UNL A   1      41.489  29.637  31.143  1.00  0.00    -0.248 NA
ATOM     15  C   UNL A   1      39.578  28.375  31.501  1.00  0.00     0.031 C 
ATOM     16  C   UNL A   1      40.435  28.389  26.761  1.00  0.00     0.029 A 
ATOM     17  N   UNL A   1      42.082  28.170  28.225  1.00  0.00    -0.354 N 
ATOM     18  C   UNL A   1      41.493  29.176  32.462  1.00  0.00     0.074 A 
ATOM     19  C   UNL A   1      40.233  28.508  32.655  1.00  0.00     0.031 C 
ATOM     20  C   UNL A   1      41.360  27.582  26.197  1.00  0.00     0.029 A 
ATOM     21  C   UNL A   1      42.454  27.399  27.134  1.00  0.00     0.049 A 
ATOM     22  H   UNL A   1      42.681  28.350  28.984  1.00  0.00     0.167 HD
ATOM     23  C   UNL A   1      42.607  29.220  33.249  1.00  0.00     0.037 A 
ATOM     24  C   UNL A   1      43.545  26.600  27.042  1.00  0.00     0.037 A 
ATOM     25  C   UNL A   1      43.567  30.171  32.755  1.00  0.00     0.049 A 
ATOM     26  C   UNL A   1      44.523  27.065  28.060  1.00  0.00     0.074 A 
ATOM     27  C   UNL A   1      43.562  31.534  32.535  1.00  0.00     0.029 A 
ATOM     28  N   UNL A   1      44.677  29.699  32.097  1.00  0.00    -0.354 N 
ATOM     29  N   UNL A   1      45.126  28.223  28.022  1.00  0.00    -0.248 NA
ATOM     30  C   UNL A   1      44.511  26.413  29.360  1.00  0.00     0.031 C 
ATOM     31  C   UNL A   1      44.351  31.722  31.363  1.00  0.00     0.029 A 
ATOM     32  C   UNL A   1      44.822  30.468  30.971  1.00  0.00     0.049 A 
ATOM     33  H   UNL A   1      45.255  28.954  32.379  1.00  0.00     0.167 HD
ATOM     34  C   UNL A   1      45.205  28.629  29.346  1.00  0.00     0.074 A 
ATOM     35  C   UNL A   1      44.897  27.435  30.128  1.00  0.00     0.031 C 
ATOM     36  C   UNL A   1      45.246  29.951  29.688  1.00  0.00     0.037 A 
BRANCH  23  37
ATOM     37  C   UNL A   1      42.973  28.177  34.287  1.00  0.00     0.058 A 
ATOM     38  C   UNL A   1      43.134  28.564  35.637  1.00  0.00     0.135 A 
ATOM     39  C   UNL A   1      43.463  26.893  33.966  1.00  0.00     0.135 A 
ATOM     40  F   UNL A   1      42.694  29.757  36.067  1.00  0.00    -0.206 F 
ATOM     41  C   UNL A   1      43.823  27.779  36.566  1.00  0.00     0.059 A 
ATOM     42  C   UNL A   1      44.108  26.074  34.888  1.00  0.00     0.059 A 
ATOM     43  F   UNL A   1      43.426  26.404  32.721  1.00  0.00    -0.206 F 
ATOM     44  C   UNL A   1      44.331  26.547  36.170  1.00  0.00     0.060 A 
BRANCH  44  45
ATOM     45  S   UNL A   1      45.353  25.600  37.314  1.00  0.00     0.124 S 
ATOM     46  O   UNL A   1      44.376  25.223  38.329  1.00  0.00    -0.237 OA
ATOM     47  O   UNL A   1      45.841  24.520  36.462  1.00  0.00    -0.237 OA
ATOM     48  O   UNL A   1      46.365  26.565  37.734  1.00  0.00    -0.744 OA
ENDBRANCH  44  45
ENDBRANCH  23  37
BRANCH  24  49
ATOM     49  C   UNL A   1      43.608  25.262  26.401  1.00  0.00     0.058 A 
ATOM     50  C   UNL A   1      44.443  25.013  25.299  1.00  0.00     0.135 A 
ATOM     51  C   UNL A   1      43.041  24.126  27.019  1.00  0.00     0.135 A 
ATOM     52  F   UNL A   1      45.050  26.031  24.671  1.00  0.00    -0.206 F 
ATOM     53  C   UNL A   1      44.725  23.715  24.856  1.00  0.00     0.059 A 
ATOM     54  C   UNL A   1      43.295  22.826  26.588  1.00  0.00     0.059 A 
ATOM     55  F   UNL A   1      42.289  24.241  28.125  1.00  0.00    -0.206 F 
ATOM     56  C   UNL A   1      44.156  22.626  25.518  1.00  0.00     0.060 A 
BRANCH  56  57
ATOM     57  S   UNL A   1      44.637  20.947  25.051  1.00  0.00     0.124 S 
ATOM     58  O   UNL A   1      43.581  20.150  25.664  1.00  0.00    -0.237 OA
ATOM     59  O   UNL A   1      44.620  21.016  23.594  1.00  0.00    -0.237 OA
ATOM     60  O   UNL A   1      45.960  20.793  25.649  1.00  0.00    -0.744 OA
ENDBRANCH  56  57
ENDBRANCH  24  49
BRANCH  36  61
ATOM     61  C   UNL A   1      45.478  30.972  28.603  1.00  0.00     0.058 A 
ATOM     62  C   UNL A   1      44.464  31.462  27.761  1.00  0.00     0.135 A 
ATOM     63  C   UNL A   1      46.723  31.618  28.549  1.00  0.00     0.135 A 
ATOM     64  F   UNL A   1      43.218  30.973  27.826  1.00  0.00    -0.206 F 
ATOM     65  C   UNL A   1      44.685  32.529  26.888  1.00  0.00     0.059 A 
ATOM     66  C   UNL A   1      46.956  32.703  27.707  1.00  0.00     0.059 A 
ATOM     67  F   UNL A   1      47.712  31.240  29.375  1.00  0.00    -0.206 F 
ATOM     68  C   UNL A   1      45.932  33.150  26.875  1.00  0.00     0.060 A 
BRANCH  68  69
ATOM     69  S   UNL A   1      46.176  34.607  25.834  1.00  0.00     0.124 S 
ATOM     70  O   UNL A   1      45.163  34.420  24.801  1.00  0.00    -0.237 OA
ATOM     71  O   UNL A   1      45.938  35.706  26.765  1.00  0.00    -0.237 OA
ATOM     72  O   UNL A   1      47.560  34.476  25.383  1.00  0.00    -0.744 OA
ENDBRANCH  68  69
ENDBRANCH  36  61
ENDBRANCH  10  11
ENDBRANCH   3   5
ENDBRANCH   2   3
ENDBRANCH   1   2
BRANCH   1  73
ATOM     73  C   UNL A   1      31.951  30.327  26.108  1.00  0.00     0.275 C 
BRANCH  73  74
ATOM     74  O   UNL A   1      31.691  28.962  26.463  1.00  0.00    -0.457 OA
BRANCH  74  75
ATOM     75  C   UNL A   1      31.274  28.144  25.455  1.00  0.00     0.361 C 
ATOM     76  O   UNL A   1      30.646  28.504  24.465  1.00  0.00    -0.244 OA
BRANCH  75  77
ATOM     77  C   UNL A   1      31.482  26.758  25.793  1.00  0.00     0.198 A 
ATOM     78  N   UNL A   1      31.010  26.128  26.912  1.00  0.00    -0.122 NA
ATOM     79  C   UNL A   1      32.076  25.833  24.958  1.00  0.00     0.109 A 
ATOM     80  N   UNL A   1      31.305  24.836  26.814  1.00  0.00    -0.061 NA
ATOM     81  N   UNL A   1      32.061  24.671  25.707  1.00  0.00    -0.212 N 
BRANCH  79  82
ATOM     82  C   UNL A   1      32.483  25.969  23.565  1.00  0.00     0.006 A 
ATOM     83  C   UNL A   1      33.587  26.748  23.223  1.00  0.00     0.030 A 
ATOM     84  C   UNL A   1      31.729  25.376  22.551  1.00  0.00     0.030 A 
ATOM     85  C   UNL A   1      33.895  26.891  21.882  1.00  0.00     0.111 A 
ATOM     86  C   UNL A   1      32.118  25.581  21.239  1.00  0.00     0.111 A 
ATOM     87  N   UNL A   1      33.186  26.325  20.882  1.00  0.00    -0.265 NA
ENDBRANCH  79  82
BRANCH  81  88
ATOM     88  C   UNL A   1      32.788  23.491  25.461  1.00  0.00     0.071 A 
ATOM     89  C   UNL A   1      32.193  22.405  24.822  1.00  0.00     0.029 A 
ATOM     90  C   UNL A   1      34.132  23.444  25.864  1.00  0.00     0.075 A 
ATOM     91  C   UNL A   1      32.985  21.300  24.510  1.00  0.00     0.006 A 
ATOM     92  C   UNL A   1      34.908  22.322  25.599  1.00  0.00     0.131 A 
ATOM     93  C   UNL A   1      34.333  21.264  24.890  1.00  0.00     0.047 A 
BRANCH  92  94
ATOM     94  O   UNL A   1      36.210  22.152  25.972  1.00  0.00    -0.406 OA
BRANCH  94  95
ATOM     95  C   UNL A   1      37.209  22.532  25.035  1.00  0.00     0.573 C 
ATOM     96  F   UNL A   1      38.350  22.899  25.659  1.00  0.00    -0.132 F 
ATOM     97  F   UNL A   1      37.480  21.532  24.167  1.00  0.00    -0.132 F 
ATOM     98  F   UNL A   1      36.765  23.592  24.323  1.00  0.00    -0.132 F 
ENDBRANCH  94  95
ENDBRANCH  92  94
ENDBRANCH  81  88
ENDBRANCH  75  77
ENDBRANCH  74  75
ENDBRANCH  73  74
ENDBRANCH   1  73
TORSDOF 18
ENDMDL
