MODEL 1
REMARK VINA RESULT:     -10.3      0.000      0.000
REMARK SMILES CC[NH2+][C@]1(C(=O)OCCOC(=O)c2ccc(-c3c4nc(c(-c5c(F)cc(S(=O)(=O)[O-])cc5F)c5ccc([nH]5)c(-c5c(F)cc(S(=O)(=O)[O-])cc5F)c5nc(c(-c6c(F)cc(S(=O)(=O)[O-])cc6F)c6ccc3[nH]6)C=C5)C=C4)cc2)CC[C@@H](Sc2ccc(OC)cc2)C1
REMARK SMILES IDX 8 1 7 2 5 3 6 4 4 5 79 6 91 7 80 8 81 9 3 10 2 13 1 14 82 15
REMARK SMILES IDX 83 16 84 17 90 18 85 19 89 20 86 21 87 22 88 23 9 24 10 25
REMARK SMILES IDX 11 26 12 27 13 28 14 29 78 30 15 31 77 32 16 33 17 34 18 35
REMARK SMILES IDX 71 36 19 37 76 38 70 39 72 40 20 41 75 42 69 43 68 44 21 46
REMARK SMILES IDX 55 47 34 48 54 49 35 50 38 51 53 52 73 53 36 54 37 55 52 57
REMARK SMILES IDX 74 58 39 59 22 60 23 61 32 62 24 63 25 64 31 65 33 66 26 67
REMARK SMILES IDX 27 68 28 69 29 70 30 71 56 72 57 73 66 74 58 75 59 76 65 77
REMARK SMILES IDX 67 78 60 79 61 80 62 81 63 82 64 83 40 84 41 85 50 86 42 87
REMARK SMILES IDX 43 88 49 89 51 90 44 91 45 92 46 93 47 94 48 95
REMARK H PARENT 3 11 3 12 72 45 38 56
REMARK Flexibility Score: inf
ROOT
ATOM      1  C   UNL A   1      37.027  23.512  24.867  1.00  0.00     0.274 C 
ENDROOT
BRANCH   1   2
ATOM      2  O   UNL A   1      35.757  24.180  24.940  1.00  0.00    -0.457 OA
BRANCH   2   3
ATOM      3  C   UNL A   1      34.783  23.776  24.082  1.00  0.00     0.368 C 
ATOM      4  O   UNL A   1      34.893  23.818  22.859  1.00  0.00    -0.245 OA
BRANCH   3   5
ATOM      5  C   UNL A   1      33.494  23.316  24.822  1.00  0.00     0.195 C 
ATOM      6  C   UNL A   1      33.387  23.918  26.245  1.00  0.00     0.082 C 
ATOM      7  C   UNL A   1      32.257  23.922  24.125  1.00  0.00     0.096 C 
ATOM      8  C   UNL A   1      31.904  23.963  26.566  1.00  0.00     0.022 C 
ATOM      9  C   UNL A   1      31.232  24.231  25.223  1.00  0.00     0.059 C 
BRANCH   5  10
ATOM     10  N   UNL A   1      33.382  21.830  24.924  1.00  0.00    -0.332 N 
ATOM     11  H   UNL A   1      32.449  21.608  25.270  1.00  0.00     0.347 HD
ATOM     12  H   UNL A   1      33.568  21.470  23.988  1.00  0.00     0.347 HD
BRANCH  10  13
ATOM     13  C   UNL A   1      34.359  21.184  25.807  1.00  0.00     0.257 C 
ATOM     14  C   UNL A   1      35.273  20.258  25.013  1.00  0.00     0.071 C 
ENDBRANCH  10  13
ENDBRANCH   5  10
BRANCH   9  15
ATOM     15  S   UNL A   1      30.427  25.879  25.053  1.00  0.00    -0.122 SA
BRANCH  15  16
ATOM     16  C   UNL A   1      31.648  27.037  25.648  1.00  0.00     0.008 A 
ATOM     17  C   UNL A   1      32.796  27.267  24.886  1.00  0.00     0.019 A 
ATOM     18  C   UNL A   1      31.565  27.610  26.919  1.00  0.00     0.019 A 
ATOM     19  C   UNL A   1      33.829  28.070  25.384  1.00  0.00     0.047 A 
ATOM     20  C   UNL A   1      32.588  28.432  27.408  1.00  0.00     0.047 A 
ATOM     21  C   UNL A   1      33.731  28.659  26.645  1.00  0.00     0.118 A 
BRANCH  21  22
ATOM     22  O   UNL A   1      34.817  29.398  27.026  1.00  0.00    -0.497 OA
ATOM     23  C   UNL A   1      34.552  30.621  27.703  1.00  0.00     0.278 C 
ENDBRANCH  21  22
ENDBRANCH  15  16
ENDBRANCH   9  15
ENDBRANCH   3   5
ENDBRANCH   2   3
ENDBRANCH   1   2
BRANCH   1  24
ATOM     24  C   UNL A   1      37.801  23.747  26.165  1.00  0.00     0.275 C 
BRANCH  24  25
ATOM     25  O   UNL A   1      38.773  24.796  25.994  1.00  0.00    -0.458 OA
BRANCH  25  26
ATOM     26  C   UNL A   1      39.933  24.604  26.673  1.00  0.00     0.338 C 
ATOM     27  O   UNL A   1      40.808  23.795  26.411  1.00  0.00    -0.246 OA
BRANCH  26  28
ATOM     28  C   UNL A   1      40.065  25.615  27.739  1.00  0.00     0.060 A 
ATOM     29  C   UNL A   1      39.207  25.513  28.837  1.00  0.00     0.016 A 
ATOM     30  C   UNL A   1      40.968  26.676  27.652  1.00  0.00     0.016 A 
ATOM     31  C   UNL A   1      39.256  26.452  29.860  1.00  0.00     0.010 A 
ATOM     32  C   UNL A   1      40.998  27.640  28.667  1.00  0.00     0.010 A 
ATOM     33  C   UNL A   1      40.139  27.531  29.773  1.00  0.00    -0.014 A 
BRANCH  33  34
ATOM     34  C   UNL A   1      40.083  28.583  30.812  1.00  0.00     0.031 A 
ATOM     35  C   UNL A   1      41.037  28.520  31.969  1.00  0.00     0.074 A 
ATOM     36  C   UNL A   1      39.237  29.619  30.677  1.00  0.00     0.049 A 
ATOM     37  N   UNL A   1      41.160  29.336  32.983  1.00  0.00    -0.248 NA
ATOM     38  C   UNL A   1      41.987  27.396  31.976  1.00  0.00     0.031 C 
ATOM     39  C   UNL A   1      38.323  29.821  29.553  1.00  0.00     0.029 A 
ATOM     40  N   UNL A   1      39.015  30.701  31.491  1.00  0.00    -0.354 N 
ATOM     41  C   UNL A   1      42.205  28.833  33.746  1.00  0.00     0.074 A 
ATOM     42  C   UNL A   1      42.672  27.631  33.087  1.00  0.00     0.031 C 
ATOM     43  C   UNL A   1      37.632  30.956  29.753  1.00  0.00     0.029 A 
ATOM     44  C   UNL A   1      38.029  31.541  31.032  1.00  0.00     0.049 A 
ATOM     45  H   UNL A   1      39.515  30.860  32.323  1.00  0.00     0.167 HD
ATOM     46  C   UNL A   1      42.726  29.328  34.893  1.00  0.00     0.037 A 
ATOM     47  C   UNL A   1      37.496  32.642  31.597  1.00  0.00     0.037 A 
ATOM     48  C   UNL A   1      42.234  30.505  35.560  1.00  0.00     0.049 A 
ATOM     49  C   UNL A   1      38.022  33.113  32.927  1.00  0.00     0.074 A 
ATOM     50  C   UNL A   1      42.666  31.065  36.750  1.00  0.00     0.029 A 
ATOM     51  N   UNL A   1      41.194  31.297  35.100  1.00  0.00    -0.354 N 
ATOM     52  N   UNL A   1      39.002  32.621  33.649  1.00  0.00    -0.248 NA
ATOM     53  C   UNL A   1      37.366  34.285  33.525  1.00  0.00     0.031 C 
ATOM     54  C   UNL A   1      41.858  32.173  37.028  1.00  0.00     0.029 A 
ATOM     55  C   UNL A   1      40.952  32.329  35.991  1.00  0.00     0.049 A 
ATOM     56  H   UNL A   1      40.698  31.148  34.262  1.00  0.00     0.167 HD
ATOM     57  C   UNL A   1      39.093  33.434  34.773  1.00  0.00     0.074 A 
ATOM     58  C   UNL A   1      38.077  34.457  34.632  1.00  0.00     0.031 C 
ATOM     59  C   UNL A   1      39.940  33.343  35.829  1.00  0.00     0.037 A 
BRANCH  46  60
ATOM     60  C   UNL A   1      43.858  28.566  35.518  1.00  0.00     0.058 A 
ATOM     61  C   UNL A   1      45.194  28.805  35.160  1.00  0.00     0.135 A 
ATOM     62  C   UNL A   1      43.604  27.587  36.492  1.00  0.00     0.135 A 
ATOM     63  F   UNL A   1      45.489  29.716  34.218  1.00  0.00    -0.206 F 
ATOM     64  C   UNL A   1      46.238  28.082  35.728  1.00  0.00     0.059 A 
ATOM     65  C   UNL A   1      44.634  26.867  37.089  1.00  0.00     0.059 A 
ATOM     66  F   UNL A   1      42.343  27.317  36.865  1.00  0.00    -0.206 F 
ATOM     67  C   UNL A   1      45.947  27.112  36.689  1.00  0.00     0.060 A 
BRANCH  67  68
ATOM     68  S   UNL A   1      47.309  26.170  37.407  1.00  0.00     0.124 S 
ATOM     69  O   UNL A   1      46.636  25.473  38.499  1.00  0.00    -0.237 OA
ATOM     70  O   UNL A   1      47.737  25.334  36.290  1.00  0.00    -0.237 OA
ATOM     71  O   UNL A   1      48.259  27.201  37.813  1.00  0.00    -0.744 OA
ENDBRANCH  67  68
ENDBRANCH  46  60
BRANCH  47  72
ATOM     72  C   UNL A   1      36.379  33.359  30.925  1.00  0.00     0.058 A 
ATOM     73  C   UNL A   1      36.576  34.043  29.717  1.00  0.00     0.135 A 
ATOM     74  C   UNL A   1      35.096  33.389  31.493  1.00  0.00     0.135 A 
ATOM     75  F   UNL A   1      37.788  34.054  29.141  1.00  0.00    -0.206 F 
ATOM     76  C   UNL A   1      35.544  34.747  29.103  1.00  0.00     0.059 A 
ATOM     77  C   UNL A   1      34.042  34.065  30.885  1.00  0.00     0.059 A 
ATOM     78  F   UNL A   1      34.853  32.744  32.643  1.00  0.00    -0.206 F 
ATOM     79  C   UNL A   1      34.281  34.753  29.697  1.00  0.00     0.060 A 
BRANCH  79  80
ATOM     80  S   UNL A   1      32.938  35.642  28.879  1.00  0.00     0.124 S 
ATOM     81  O   UNL A   1      32.065  35.954  30.004  1.00  0.00    -0.237 OA
ATOM     82  O   UNL A   1      33.637  36.775  28.280  1.00  0.00    -0.237 OA
ATOM     83  O   UNL A   1      32.419  34.663  27.928  1.00  0.00    -0.744 OA
ENDBRANCH  79  80
ENDBRANCH  47  72
BRANCH  59  84
ATOM     84  C   UNL A   1      39.824  34.391  36.901  1.00  0.00     0.058 A 
ATOM     85  C   UNL A   1      39.037  34.190  38.045  1.00  0.00     0.135 A 
ATOM     86  C   UNL A   1      40.555  35.586  36.807  1.00  0.00     0.135 A 
ATOM     87  F   UNL A   1      38.315  33.066  38.179  1.00  0.00    -0.206 F 
ATOM     88  C   UNL A   1      38.963  35.147  39.052  1.00  0.00     0.059 A 
ATOM     89  C   UNL A   1      40.514  36.547  37.813  1.00  0.00     0.059 A 
ATOM     90  F   UNL A   1      41.331  35.822  35.738  1.00  0.00    -0.206 F 
ATOM     91  C   UNL A   1      39.707  36.322  38.927  1.00  0.00     0.060 A 
BRANCH  91  92
ATOM     92  S   UNL A   1      39.634  37.541  40.258  1.00  0.00     0.124 S 
ATOM     93  O   UNL A   1      38.822  38.590  39.652  1.00  0.00    -0.237 OA
ATOM     94  O   UNL A   1      38.999  36.791  41.337  1.00  0.00    -0.237 OA
ATOM     95  O   UNL A   1      41.036  37.882  40.482  1.00  0.00    -0.744 OA
ENDBRANCH  91  92
ENDBRANCH  59  84
ENDBRANCH  33  34
ENDBRANCH  26  28
ENDBRANCH  25  26
ENDBRANCH  24  25
ENDBRANCH   1  24
TORSDOF 19
ENDMDL
MODEL 2
REMARK VINA RESULT:     -10.3      3.367      9.525
REMARK SMILES CC[NH2+][C@]1(C(=O)OCCOC(=O)c2ccc(-c3c4nc(c(-c5c(F)cc(S(=O)(=O)[O-])cc5F)c5ccc([nH]5)c(-c5c(F)cc(S(=O)(=O)[O-])cc5F)c5nc(c(-c6c(F)cc(S(=O)(=O)[O-])cc6F)c6ccc3[nH]6)C=C5)C=C4)cc2)CC[C@@H](Sc2ccc(OC)cc2)C1
REMARK SMILES IDX 8 1 7 2 5 3 6 4 4 5 79 6 91 7 80 8 81 9 3 10 2 13 1 14 82 15
REMARK SMILES IDX 83 16 84 17 90 18 85 19 89 20 86 21 87 22 88 23 9 24 10 25
REMARK SMILES IDX 11 26 12 27 13 28 14 29 78 30 15 31 77 32 16 33 17 34 18 35
REMARK SMILES IDX 71 36 19 37 76 38 70 39 72 40 20 41 75 42 69 43 68 44 21 46
REMARK SMILES IDX 55 47 34 48 54 49 35 50 38 51 53 52 73 53 36 54 37 55 52 57
REMARK SMILES IDX 74 58 39 59 22 60 23 61 32 62 24 63 25 64 31 65 33 66 26 67
REMARK SMILES IDX 27 68 28 69 29 70 30 71 56 72 57 73 66 74 58 75 59 76 65 77
REMARK SMILES IDX 67 78 60 79 61 80 62 81 63 82 64 83 40 84 41 85 50 86 42 87
REMARK SMILES IDX 43 88 49 89 51 90 44 91 45 92 46 93 47 94 48 95
REMARK H PARENT 3 11 3 12 72 45 38 56
REMARK Flexibility Score: inf
ROOT
ATOM      1  C   UNL A   1      31.727  29.155  25.637  1.00  0.00     0.274 C 
ENDROOT
BRANCH   1   2
ATOM      2  O   UNL A   1      31.579  27.792  25.204  1.00  0.00    -0.457 OA
BRANCH   2   3
ATOM      3  C   UNL A   1      31.204  26.874  26.133  1.00  0.00     0.368 C 
ATOM      4  O   UNL A   1      31.232  27.079  27.344  1.00  0.00    -0.245 OA
BRANCH   3   5
ATOM      5  C   UNL A   1      30.796  25.516  25.493  1.00  0.00     0.195 C 
ATOM      6  C   UNL A   1      30.201  25.690  24.074  1.00  0.00     0.082 C 
ATOM      7  C   UNL A   1      32.063  24.681  25.208  1.00  0.00     0.096 C 
ATOM      8  C   UNL A   1      30.470  24.384  23.348  1.00  0.00     0.022 C 
ATOM      9  C   UNL A   1      31.804  23.903  23.912  1.00  0.00     0.059 C 
BRANCH   5  10
ATOM     10  N   UNL A   1      29.821  24.750  26.327  1.00  0.00    -0.332 N 
ATOM     11  H   UNL A   1      29.528  25.350  27.097  1.00  0.00     0.347 HD
ATOM     12  H   UNL A   1      29.061  24.486  25.700  1.00  0.00     0.347 HD
BRANCH  10  13
ATOM     13  C   UNL A   1      30.328  23.497  26.897  1.00  0.00     0.257 C 
ATOM     14  C   UNL A   1      29.177  22.578  27.287  1.00  0.00     0.071 C 
ENDBRANCH  10  13
ENDBRANCH   5  10
BRANCH   9  15
ATOM     15  S   UNL A   1      33.218  23.921  22.733  1.00  0.00    -0.122 SA
BRANCH  15  16
ATOM     16  C   UNL A   1      34.503  22.999  23.561  1.00  0.00     0.008 A 
ATOM     17  C   UNL A   1      35.839  23.334  23.329  1.00  0.00     0.019 A 
ATOM     18  C   UNL A   1      34.223  21.860  24.319  1.00  0.00     0.019 A 
ATOM     19  C   UNL A   1      36.870  22.551  23.862  1.00  0.00     0.047 A 
ATOM     20  C   UNL A   1      35.253  21.090  24.872  1.00  0.00     0.047 A 
ATOM     21  C   UNL A   1      36.585  21.427  24.638  1.00  0.00     0.118 A 
BRANCH  21  22
ATOM     22  O   UNL A   1      37.678  20.733  25.077  1.00  0.00    -0.497 OA
ATOM     23  C   UNL A   1      38.692  21.485  25.732  1.00  0.00     0.278 C 
ENDBRANCH  21  22
ENDBRANCH  15  16
ENDBRANCH   9  15
ENDBRANCH   3   5
ENDBRANCH   2   3
ENDBRANCH   1   2
BRANCH   1  24
ATOM     24  C   UNL A   1      33.212  29.515  25.689  1.00  0.00     0.275 C 
BRANCH  24  25
ATOM     25  O   UNL A   1      33.731  29.338  27.020  1.00  0.00    -0.458 OA
BRANCH  25  26
ATOM     26  C   UNL A   1      34.388  30.418  27.517  1.00  0.00     0.338 C 
ATOM     27  O   UNL A   1      33.946  31.548  27.641  1.00  0.00    -0.246 OA
BRANCH  26  28
ATOM     28  C   UNL A   1      35.716  30.014  28.016  1.00  0.00     0.060 A 
ATOM     29  C   UNL A   1      35.797  29.540  29.328  1.00  0.00     0.016 A 
ATOM     30  C   UNL A   1      36.872  30.142  27.244  1.00  0.00     0.016 A 
ATOM     31  C   UNL A   1      37.023  29.174  29.871  1.00  0.00     0.010 A 
ATOM     32  C   UNL A   1      38.112  29.802  27.799  1.00  0.00     0.010 A 
ATOM     33  C   UNL A   1      38.190  29.320  29.117  1.00  0.00    -0.014 A 
BRANCH  33  34
ATOM     34  C   UNL A   1      39.492  29.041  29.760  1.00  0.00     0.031 A 
ATOM     35  C   UNL A   1      39.898  29.837  30.966  1.00  0.00     0.074 A 
ATOM     36  C   UNL A   1      40.264  28.036  29.311  1.00  0.00     0.049 A 
ATOM     37  N   UNL A   1      40.990  29.753  31.681  1.00  0.00    -0.248 NA
ATOM     38  C   UNL A   1      38.941  30.850  31.436  1.00  0.00     0.031 C 
ATOM     39  C   UNL A   1      39.930  27.149  28.197  1.00  0.00     0.029 A 
ATOM     40  N   UNL A   1      41.487  27.589  29.743  1.00  0.00    -0.354 N 
ATOM     41  C   UNL A   1      40.850  30.695  32.691  1.00  0.00     0.074 A 
ATOM     42  C   UNL A   1      39.576  31.351  32.488  1.00  0.00     0.031 C 
ATOM     43  C   UNL A   1      40.930  26.267  28.028  1.00  0.00     0.029 A 
ATOM     44  C   UNL A   1      41.987  26.548  28.997  1.00  0.00     0.049 A 
ATOM     45  H   UNL A   1      41.961  27.977  30.513  1.00  0.00     0.167 HD
ATOM     46  C   UNL A   1      41.709  30.987  33.697  1.00  0.00     0.037 A 
ATOM     47  C   UNL A   1      43.174  25.915  29.077  1.00  0.00     0.037 A 
ATOM     48  C   UNL A   1      42.990  30.354  33.873  1.00  0.00     0.049 A 
ATOM     49  C   UNL A   1      44.157  26.331  30.140  1.00  0.00     0.074 A 
ATOM     50  C   UNL A   1      43.952  30.609  34.834  1.00  0.00     0.029 A 
ATOM     51  N   UNL A   1      43.491  29.347  33.062  1.00  0.00    -0.354 N 
ATOM     52  N   UNL A   1      44.021  27.235  31.082  1.00  0.00    -0.248 NA
ATOM     53  C   UNL A   1      45.459  25.648  30.145  1.00  0.00     0.031 C 
ATOM     54  C   UNL A   1      45.053  29.782  34.579  1.00  0.00     0.029 A 
ATOM     55  C   UNL A   1      44.758  28.982  33.486  1.00  0.00     0.049 A 
ATOM     56  H   UNL A   1      43.016  28.949  32.297  1.00  0.00     0.167 HD
ATOM     57  C   UNL A   1      45.210  27.213  31.804  1.00  0.00     0.074 A 
ATOM     58  C   UNL A   1      46.049  26.200  31.199  1.00  0.00     0.031 C 
ATOM     59  C   UNL A   1      45.576  27.965  32.873  1.00  0.00     0.037 A 
BRANCH  46  60
ATOM     60  C   UNL A   1      41.304  32.072  34.652  1.00  0.00     0.058 A 
ATOM     61  C   UNL A   1      40.539  31.798  35.796  1.00  0.00     0.135 A 
ATOM     62  C   UNL A   1      41.692  33.402  34.424  1.00  0.00     0.135 A 
ATOM     63  F   UNL A   1      40.125  30.546  36.049  1.00  0.00    -0.206 F 
ATOM     64  C   UNL A   1      40.150  32.810  36.668  1.00  0.00     0.059 A 
ATOM     65  C   UNL A   1      41.332  34.426  35.294  1.00  0.00     0.059 A 
ATOM     66  F   UNL A   1      42.420  33.717  33.340  1.00  0.00    -0.206 F 
ATOM     67  C   UNL A   1      40.548  34.122  36.405  1.00  0.00     0.060 A 
BRANCH  67  68
ATOM     68  S   UNL A   1      40.024  35.428  37.536  1.00  0.00     0.124 S 
ATOM     69  O   UNL A   1      38.815  34.848  38.111  1.00  0.00    -0.237 OA
ATOM     70  O   UNL A   1      41.165  35.538  38.439  1.00  0.00    -0.237 OA
ATOM     71  O   UNL A   1      39.813  36.574  36.657  1.00  0.00    -0.744 OA
ENDBRANCH  67  68
ENDBRANCH  46  60
BRANCH  47  72
ATOM     72  C   UNL A   1      43.515  24.844  28.105  1.00  0.00     0.058 A 
ATOM     73  C   UNL A   1      44.171  25.136  26.900  1.00  0.00     0.135 A 
ATOM     74  C   UNL A   1      43.172  23.505  28.355  1.00  0.00     0.135 A 
ATOM     75  F   UNL A   1      44.508  26.402  26.610  1.00  0.00    -0.206 F 
ATOM     76  C   UNL A   1      44.459  24.143  25.968  1.00  0.00     0.059 A 
ATOM     77  C   UNL A   1      43.472  22.492  27.451  1.00  0.00     0.059 A 
ATOM     78  F   UNL A   1      42.551  23.172  29.496  1.00  0.00    -0.206 F 
ATOM     79  C   UNL A   1      44.103  22.823  26.253  1.00  0.00     0.060 A 
BRANCH  79  80
ATOM     80  S   UNL A   1      44.509  21.534  25.054  1.00  0.00     0.124 S 
ATOM     81  O   UNL A   1      43.486  20.536  25.341  1.00  0.00    -0.237 OA
ATOM     82  O   UNL A   1      44.374  22.240  23.784  1.00  0.00    -0.237 OA
ATOM     83  O   UNL A   1      45.874  21.162  25.413  1.00  0.00    -0.744 OA
ENDBRANCH  79  80
ENDBRANCH  47  72
BRANCH  59  84
ATOM     84  C   UNL A   1      46.928  27.702  33.473  1.00  0.00     0.058 A 
ATOM     85  C   UNL A   1      47.116  26.735  34.472  1.00  0.00     0.135 A 
ATOM     86  C   UNL A   1      48.059  28.387  33.002  1.00  0.00     0.135 A 
ATOM     87  F   UNL A   1      46.065  26.057  34.961  1.00  0.00    -0.206 F 
ATOM     88  C   UNL A   1      48.376  26.470  34.998  1.00  0.00     0.059 A 
ATOM     89  C   UNL A   1      49.333  28.121  33.496  1.00  0.00     0.059 A 
ATOM     90  F   UNL A   1      47.936  29.315  32.039  1.00  0.00    -0.206 F 
ATOM     91  C   UNL A   1      49.479  27.167  34.502  1.00  0.00     0.060 A 
BRANCH  91  92
ATOM     92  S   UNL A   1      51.116  26.788  35.163  1.00  0.00     0.124 S 
ATOM     93  O   UNL A   1      51.426  28.008  35.900  1.00  0.00    -0.237 OA
ATOM     94  O   UNL A   1      50.859  25.604  35.978  1.00  0.00    -0.237 OA
ATOM     95  O   UNL A   1      51.919  26.554  33.967  1.00  0.00    -0.744 OA
ENDBRANCH  91  92
ENDBRANCH  59  84
ENDBRANCH  33  34
ENDBRANCH  26  28
ENDBRANCH  25  26
ENDBRANCH  24  25
ENDBRANCH   1  24
TORSDOF 19
ENDMDL
MODEL 3
REMARK VINA RESULT:     -10.2      3.327      9.493
REMARK SMILES CC[NH2+][C@]1(C(=O)OCCOC(=O)c2ccc(-c3c4nc(c(-c5c(F)cc(S(=O)(=O)[O-])cc5F)c5ccc([nH]5)c(-c5c(F)cc(S(=O)(=O)[O-])cc5F)c5nc(c(-c6c(F)cc(S(=O)(=O)[O-])cc6F)c6ccc3[nH]6)C=C5)C=C4)cc2)CC[C@@H](Sc2ccc(OC)cc2)C1
REMARK SMILES IDX 8 1 7 2 5 3 6 4 4 5 79 6 91 7 80 8 81 9 3 10 2 13 1 14 82 15
REMARK SMILES IDX 83 16 84 17 90 18 85 19 89 20 86 21 87 22 88 23 9 24 10 25
REMARK SMILES IDX 11 26 12 27 13 28 14 29 78 30 15 31 77 32 16 33 17 34 18 35
REMARK SMILES IDX 71 36 19 37 76 38 70 39 72 40 20 41 75 42 69 43 68 44 21 46
REMARK SMILES IDX 55 47 34 48 54 49 35 50 38 51 53 52 73 53 36 54 37 55 52 57
REMARK SMILES IDX 74 58 39 59 22 60 23 61 32 62 24 63 25 64 31 65 33 66 26 67
REMARK SMILES IDX 27 68 28 69 29 70 30 71 56 72 57 73 66 74 58 75 59 76 65 77
REMARK SMILES IDX 67 78 60 79 61 80 62 81 63 82 64 83 40 84 41 85 50 86 42 87
REMARK SMILES IDX 43 88 49 89 51 90 44 91 45 92 46 93 47 94 48 95
REMARK H PARENT 3 11 3 12 72 45 38 56
REMARK Flexibility Score: inf
ROOT
ATOM      1  C   UNL A   1      31.793  29.568  25.504  1.00  0.00     0.274 C 
ENDROOT
BRANCH   1   2
ATOM      2  O   UNL A   1      32.283  28.258  25.174  1.00  0.00    -0.457 OA
BRANCH   2   3
ATOM      3  C   UNL A   1      32.950  28.113  23.998  1.00  0.00     0.368 C 
ATOM      4  O   UNL A   1      33.958  28.749  23.705  1.00  0.00    -0.245 OA
BRANCH   3   5
ATOM      5  C   UNL A   1      32.257  27.097  23.045  1.00  0.00     0.195 C 
ATOM      6  C   UNL A   1      33.265  26.119  22.394  1.00  0.00     0.082 C 
ATOM      7  C   UNL A   1      31.369  26.141  23.870  1.00  0.00     0.096 C 
ATOM      8  C   UNL A   1      32.476  24.862  22.074  1.00  0.00     0.022 C 
ATOM      9  C   UNL A   1      31.441  24.767  23.191  1.00  0.00     0.059 C 
BRANCH   5  10
ATOM     10  N   UNL A   1      31.471  27.762  21.962  1.00  0.00    -0.332 N 
ATOM     11  H   UNL A   1      32.027  28.537  21.601  1.00  0.00     0.347 HD
ATOM     12  H   UNL A   1      31.280  27.038  21.269  1.00  0.00     0.347 HD
BRANCH  10  13
ATOM     13  C   UNL A   1      30.164  28.292  22.365  1.00  0.00     0.257 C 
ATOM     14  C   UNL A   1      30.081  29.789  22.090  1.00  0.00     0.071 C 
ENDBRANCH  10  13
ENDBRANCH   5  10
BRANCH   9  15
ATOM     15  S   UNL A   1      31.663  23.364  24.363  1.00  0.00    -0.122 SA
BRANCH  15  16
ATOM     16  C   UNL A   1      33.425  23.281  24.632  1.00  0.00     0.008 A 
ATOM     17  C   UNL A   1      34.026  24.204  25.492  1.00  0.00     0.019 A 
ATOM     18  C   UNL A   1      34.245  22.419  23.900  1.00  0.00     0.019 A 
ATOM     19  C   UNL A   1      35.419  24.246  25.626  1.00  0.00     0.047 A 
ATOM     20  C   UNL A   1      35.637  22.445  24.052  1.00  0.00     0.047 A 
ATOM     21  C   UNL A   1      36.233  23.367  24.910  1.00  0.00     0.118 A 
BRANCH  21  22
ATOM     22  O   UNL A   1      37.576  23.527  25.109  1.00  0.00    -0.497 OA
ATOM     23  C   UNL A   1      37.976  24.090  26.353  1.00  0.00     0.278 C 
ENDBRANCH  21  22
ENDBRANCH  15  16
ENDBRANCH   9  15
ENDBRANCH   3   5
ENDBRANCH   2   3
ENDBRANCH   1   2
BRANCH   1  24
ATOM     24  C   UNL A   1      32.180  29.908  26.944  1.00  0.00     0.275 C 
BRANCH  24  25
ATOM     25  O   UNL A   1      33.575  29.639  27.172  1.00  0.00    -0.458 OA
BRANCH  25  26
ATOM     26  C   UNL A   1      34.290  30.708  27.610  1.00  0.00     0.338 C 
ATOM     27  O   UNL A   1      33.901  31.861  27.698  1.00  0.00    -0.246 OA
BRANCH  26  28
ATOM     28  C   UNL A   1      35.610  30.264  28.096  1.00  0.00     0.060 A 
ATOM     29  C   UNL A   1      35.673  29.695  29.370  1.00  0.00     0.016 A 
ATOM     30  C   UNL A   1      36.778  30.448  27.352  1.00  0.00     0.016 A 
ATOM     31  C   UNL A   1      36.891  29.286  29.901  1.00  0.00     0.010 A 
ATOM     32  C   UNL A   1      38.009  30.065  27.897  1.00  0.00     0.010 A 
ATOM     33  C   UNL A   1      38.068  29.486  29.176  1.00  0.00    -0.014 A 
BRANCH  33  34
ATOM     34  C   UNL A   1      39.361  29.158  29.815  1.00  0.00     0.031 A 
ATOM     35  C   UNL A   1      39.794  29.926  31.029  1.00  0.00     0.074 A 
ATOM     36  C   UNL A   1      40.099  28.132  29.354  1.00  0.00     0.049 A 
ATOM     37  N   UNL A   1      40.883  29.799  31.742  1.00  0.00    -0.248 NA
ATOM     38  C   UNL A   1      38.871  30.966  31.511  1.00  0.00     0.031 C 
ATOM     39  C   UNL A   1      39.735  27.269  28.231  1.00  0.00     0.029 A 
ATOM     40  N   UNL A   1      41.307  27.641  29.780  1.00  0.00    -0.354 N 
ATOM     41  C   UNL A   1      40.775  30.734  32.762  1.00  0.00     0.074 A 
ATOM     42  C   UNL A   1      39.523  31.434  32.567  1.00  0.00     0.031 C 
ATOM     43  C   UNL A   1      40.705  26.356  28.052  1.00  0.00     0.029 A 
ATOM     44  C   UNL A   1      41.772  26.592  29.023  1.00  0.00     0.049 A 
ATOM     45  H   UNL A   1      41.794  28.004  30.554  1.00  0.00     0.167 HD
ATOM     46  C   UNL A   1      41.644  30.987  33.770  1.00  0.00     0.037 A 
ATOM     47  C   UNL A   1      42.937  25.920  29.095  1.00  0.00     0.037 A 
ATOM     48  C   UNL A   1      42.903  30.310  33.938  1.00  0.00     0.049 A 
ATOM     49  C   UNL A   1      43.935  26.292  30.160  1.00  0.00     0.074 A 
ATOM     50  C   UNL A   1      43.874  30.522  34.901  1.00  0.00     0.029 A 
ATOM     51  N   UNL A   1      43.370  29.296  33.116  1.00  0.00    -0.354 N 
ATOM     52  N   UNL A   1      43.829  27.189  31.113  1.00  0.00    -0.248 NA
ATOM     53  C   UNL A   1      45.213  25.566  30.158  1.00  0.00     0.031 C 
ATOM     54  C   UNL A   1      44.947  29.663  34.635  1.00  0.00     0.029 A 
ATOM     55  C   UNL A   1      44.625  28.885  33.534  1.00  0.00     0.049 A 
ATOM     56  H   UNL A   1      42.882  28.922  32.347  1.00  0.00     0.167 HD
ATOM     57  C   UNL A   1      45.017  27.120  31.833  1.00  0.00     0.074 A 
ATOM     58  C   UNL A   1      45.822  26.086  31.216  1.00  0.00     0.031 C 
ATOM     59  C   UNL A   1      45.408  27.848  32.910  1.00  0.00     0.037 A 
BRANCH  46  60
ATOM     60  C   UNL A   1      41.276  32.074  34.737  1.00  0.00     0.058 A 
ATOM     61  C   UNL A   1      41.719  33.395  34.565  1.00  0.00     0.135 A 
ATOM     62  C   UNL A   1      40.464  31.793  35.848  1.00  0.00     0.135 A 
ATOM     63  F   UNL A   1      42.514  33.711  33.530  1.00  0.00    -0.206 F 
ATOM     64  C   UNL A   1      41.390  34.395  35.474  1.00  0.00     0.059 A 
ATOM     65  C   UNL A   1      40.106  32.782  36.759  1.00  0.00     0.059 A 
ATOM     66  F   UNL A   1      40.020  30.544  36.061  1.00  0.00    -0.206 F 
ATOM     67  C   UNL A   1      40.587  34.077  36.571  1.00  0.00     0.060 A 
BRANCH  67  68
ATOM     68  S   UNL A   1      40.181  35.380  37.753  1.00  0.00     0.124 S 
ATOM     69  O   UNL A   1      39.018  34.810  38.426  1.00  0.00    -0.237 OA
ATOM     70  O   UNL A   1      41.398  35.468  38.554  1.00  0.00    -0.237 OA
ATOM     71  O   UNL A   1      39.910  36.536  36.904  1.00  0.00    -0.744 OA
ENDBRANCH  67  68
ENDBRANCH  46  60
BRANCH  47  72
ATOM     72  C   UNL A   1      43.242  24.848  28.111  1.00  0.00     0.058 A 
ATOM     73  C   UNL A   1      42.946  23.504  28.383  1.00  0.00     0.135 A 
ATOM     74  C   UNL A   1      43.856  25.147  26.884  1.00  0.00     0.135 A 
ATOM     75  F   UNL A   1      42.371  23.166  29.547  1.00  0.00    -0.206 F 
ATOM     76  C   UNL A   1      43.264  22.492  27.481  1.00  0.00     0.059 A 
ATOM     77  C   UNL A   1      44.160  24.156  25.957  1.00  0.00     0.059 A 
ATOM     78  F   UNL A   1      44.152  26.417  26.572  1.00  0.00    -0.206 F 
ATOM     79  C   UNL A   1      43.873  22.828  26.272  1.00  0.00     0.060 A 
BRANCH  79  80
ATOM     80  S   UNL A   1      44.254  21.514  25.092  1.00  0.00     0.124 S 
ATOM     81  O   UNL A   1      45.603  21.140  25.497  1.00  0.00    -0.237 OA
ATOM     82  O   UNL A   1      43.208  20.535  25.373  1.00  0.00    -0.237 OA
ATOM     83  O   UNL A   1      44.143  22.183  23.799  1.00  0.00    -0.744 OA
ENDBRANCH  79  80
ENDBRANCH  47  72
BRANCH  59  84
ATOM     84  C   UNL A   1      46.752  27.534  33.505  1.00  0.00     0.058 A 
ATOM     85  C   UNL A   1      47.914  28.207  33.098  1.00  0.00     0.135 A 
ATOM     86  C   UNL A   1      46.868  26.589  34.537  1.00  0.00     0.135 A 
ATOM     87  F   UNL A   1      47.856  29.116  32.111  1.00  0.00    -0.206 F 
ATOM     88  C   UNL A   1      49.149  27.939  33.679  1.00  0.00     0.059 A 
ATOM     89  C   UNL A   1      48.090  26.322  35.148  1.00  0.00     0.059 A 
ATOM     90  F   UNL A   1      45.785  25.925  34.971  1.00  0.00    -0.206 F 
ATOM     91  C   UNL A   1      49.227  26.996  34.704  1.00  0.00     0.060 A 
BRANCH  91  92
ATOM     92  S   UNL A   1      50.828  26.684  35.478  1.00  0.00     0.124 S 
ATOM     93  O   UNL A   1      51.601  27.836  35.030  1.00  0.00    -0.237 OA
ATOM     94  O   UNL A   1      50.491  26.660  36.899  1.00  0.00    -0.237 OA
ATOM     95  O   UNL A   1      51.232  25.399  34.916  1.00  0.00    -0.744 OA
ENDBRANCH  91  92
ENDBRANCH  59  84
ENDBRANCH  33  34
ENDBRANCH  26  28
ENDBRANCH  25  26
ENDBRANCH  24  25
ENDBRANCH   1  24
TORSDOF 19
ENDMDL
