MODEL 1
REMARK VINA RESULT:     -11.5      0.000      0.000
REMARK SMILES CC(C)CCc1cc2c(cc1Cl)C=C(C(=O)OCCOC(=O)c1ccc(-c3c4nc(c(-c5c(F)cc(S(=O)(=O)[O-])cc5F)c5ccc([nH]5)c(-c5c(F)cc(S(=O)(=O)[O-])cc5F)c5nc(c(-c6c(F)cc(S(=O)(=O)[O-])cc6F)c6ccc3[nH]6)C=C5)C=C4)cc1)[C@H](C(F)(F)F)O2
REMARK SMILES IDX 18 1 17 2 15 3 16 4 14 5 6 6 7 7 11 8 8 9 10 10 12 11 9 12
REMARK SMILES IDX 94 13 13 14 89 15 5 16 4 17 2 18 1 19 3 20 90 21 91 22 92 23
REMARK SMILES IDX 93 24 19 25 20 26 21 27 22 28 23 29 24 30 88 31 25 32 87 33
REMARK SMILES IDX 26 34 27 35 28 36 81 37 29 38 86 39 80 40 82 41 30 42 85 43
REMARK SMILES IDX 79 44 78 45 31 47 65 48 44 49 64 50 45 51 48 52 63 53 83 54
REMARK SMILES IDX 46 55 47 56 62 58 84 59 49 60 32 61 33 62 42 63 34 64 35 65
REMARK SMILES IDX 41 66 43 67 36 68 37 69 38 70 39 71 40 72 66 73 67 74 76 75
REMARK SMILES IDX 68 76 69 77 75 78 77 79 70 80 71 81 72 82 73 83 74 84 50 85
REMARK SMILES IDX 51 86 60 87 52 88 53 89 59 90 61 91 54 92 55 93 56 94 57 95
REMARK SMILES IDX 58 96
REMARK H PARENT 82 46 48 57
REMARK Flexibility Score: inf
ROOT
ATOM      1  C   UNL A   1      39.826  21.885  26.266  1.00  0.00     0.275 C 
ENDROOT
BRANCH   1   2
ATOM      2  O   UNL A   1      38.502  22.451  26.164  1.00  0.00    -0.459 OA
BRANCH   2   3
ATOM      3  C   UNL A   1      37.574  21.684  25.551  1.00  0.00     0.338 C 
ATOM      4  O   UNL A   1      37.776  20.593  25.051  1.00  0.00    -0.246 OA
BRANCH   3   5
ATOM      5  C   UNL A   1      36.233  22.302  25.645  1.00  0.00     0.087 C 
ATOM      6  C   UNL A   1      32.499  25.648  26.055  1.00  0.00    -0.026 A 
ATOM      7  C   UNL A   1      32.636  24.282  26.393  1.00  0.00     0.052 A 
ATOM      8  C   UNL A   1      33.572  26.293  25.417  1.00  0.00     0.045 A 
ATOM      9  C   UNL A   1      33.836  23.607  26.175  1.00  0.00     0.128 A 
ATOM     10  C   UNL A   1      34.778  25.622  25.221  1.00  0.00     0.032 A 
ATOM     11  Cl  UNL A   1      33.492  27.929  24.870  1.00  0.00    -0.084 Cl
ATOM     12  C   UNL A   1      34.915  24.297  25.634  1.00  0.00     0.019 A 
ATOM     13  O   UNL A   1      33.932  22.299  26.581  1.00  0.00    -0.475 OA
ATOM     14  C   UNL A   1      36.200  23.639  25.566  1.00  0.00     0.027 C 
ATOM     15  C   UNL A   1      34.995  21.499  25.950  1.00  0.00     0.316 C 
BRANCH   6  16
ATOM     16  C   UNL A   1      31.229  26.377  26.440  1.00  0.00     0.037 C 
BRANCH  16  17
ATOM     17  C   UNL A   1      30.584  27.145  25.271  1.00  0.00     0.008 C 
BRANCH  17  18
ATOM     18  C   UNL A   1      30.045  26.269  24.120  1.00  0.00    -0.017 C 
ATOM     19  C   UNL A   1      28.550  26.478  23.876  1.00  0.00     0.007 C 
ATOM     20  C   UNL A   1      30.824  26.569  22.836  1.00  0.00     0.007 C 
ENDBRANCH  17  18
ENDBRANCH  16  17
ENDBRANCH   6  16
BRANCH  15  21
ATOM     21  C   UNL A   1      34.380  20.670  24.806  1.00  0.00     0.430 C 
ATOM     22  F   UNL A   1      34.410  21.318  23.621  1.00  0.00    -0.167 F 
ATOM     23  F   UNL A   1      34.963  19.469  24.624  1.00  0.00    -0.167 F 
ATOM     24  F   UNL A   1      33.071  20.416  25.084  1.00  0.00    -0.167 F 
ENDBRANCH  15  21
ENDBRANCH   3   5
ENDBRANCH   2   3
ENDBRANCH   1   2
BRANCH   1  25
ATOM     25  C   UNL A   1      40.902  22.970  26.145  1.00  0.00     0.275 C 
BRANCH  25  26
ATOM     26  O   UNL A   1      40.319  24.284  26.247  1.00  0.00    -0.458 OA
BRANCH  26  27
ATOM     27  C   UNL A   1      41.174  25.323  26.117  1.00  0.00     0.338 C 
ATOM     28  O   UNL A   1      41.825  25.630  25.130  1.00  0.00    -0.246 OA
BRANCH  27  29
ATOM     29  C   UNL A   1      41.125  26.153  27.330  1.00  0.00     0.060 A 
ATOM     30  C   UNL A   1      41.879  27.312  27.469  1.00  0.00     0.016 A 
ATOM     31  C   UNL A   1      40.192  25.810  28.300  1.00  0.00     0.016 A 
ATOM     32  C   UNL A   1      41.696  28.109  28.609  1.00  0.00     0.010 A 
ATOM     33  C   UNL A   1      39.941  26.645  29.384  1.00  0.00     0.010 A 
ATOM     34  C   UNL A   1      40.708  27.798  29.570  1.00  0.00    -0.014 A 
BRANCH  34  35
ATOM     35  C   UNL A   1      40.459  28.680  30.747  1.00  0.00     0.031 A 
ATOM     36  C   UNL A   1      41.301  28.572  31.997  1.00  0.00     0.074 A 
ATOM     37  C   UNL A   1      39.437  29.559  30.710  1.00  0.00     0.049 A 
ATOM     38  N   UNL A   1      41.244  29.287  33.094  1.00  0.00    -0.248 NA
ATOM     39  C   UNL A   1      42.312  27.502  32.043  1.00  0.00     0.031 C 
ATOM     40  C   UNL A   1      38.475  29.689  29.613  1.00  0.00     0.029 A 
ATOM     41  N   UNL A   1      39.045  30.523  31.607  1.00  0.00    -0.354 N 
ATOM     42  C   UNL A   1      42.195  28.747  33.955  1.00  0.00     0.074 A 
ATOM     43  C   UNL A   1      42.765  27.601  33.284  1.00  0.00     0.031 C 
ATOM     44  C   UNL A   1      37.657  30.724  29.863  1.00  0.00     0.029 A 
ATOM     45  C   UNL A   1      38.013  31.311  31.151  1.00  0.00     0.049 A 
ATOM     46  H   UNL A   1      39.461  30.638  32.492  1.00  0.00     0.167 HD
ATOM     47  C   UNL A   1      42.589  29.188  35.174  1.00  0.00     0.037 A 
ATOM     48  C   UNL A   1      37.438  32.403  31.692  1.00  0.00     0.037 A 
ATOM     49  C   UNL A   1      42.058  30.361  35.817  1.00  0.00     0.049 A 
ATOM     50  C   UNL A   1      37.940  32.922  33.011  1.00  0.00     0.074 A 
ATOM     51  C   UNL A   1      42.442  30.934  37.017  1.00  0.00     0.029 A 
ATOM     52  N   UNL A   1      41.039  31.150  35.306  1.00  0.00    -0.354 N 
ATOM     53  N   UNL A   1      38.894  32.442  33.773  1.00  0.00    -0.248 NA
ATOM     54  C   UNL A   1      37.294  34.129  33.543  1.00  0.00     0.031 C 
ATOM     55  C   UNL A   1      41.639  32.056  37.242  1.00  0.00     0.029 A 
ATOM     56  C   UNL A   1      40.779  32.203  36.165  1.00  0.00     0.049 A 
ATOM     57  H   UNL A   1      40.570  30.985  34.456  1.00  0.00     0.167 HD
ATOM     58  C   UNL A   1      38.975  33.300  34.864  1.00  0.00     0.074 A 
ATOM     59  C   UNL A   1      37.983  34.335  34.658  1.00  0.00     0.031 C 
ATOM     60  C   UNL A   1      39.795  33.232  35.941  1.00  0.00     0.037 A 
BRANCH  47  61
ATOM     61  C   UNL A   1      43.684  28.428  35.877  1.00  0.00     0.058 A 
ATOM     62  C   UNL A   1      45.033  28.790  35.730  1.00  0.00     0.135 A 
ATOM     63  C   UNL A   1      43.386  27.363  36.743  1.00  0.00     0.135 A 
ATOM     64  F   UNL A   1      45.377  29.794  34.906  1.00  0.00    -0.206 F 
ATOM     65  C   UNL A   1      46.048  28.107  36.390  1.00  0.00     0.059 A 
ATOM     66  C   UNL A   1      44.384  26.683  37.437  1.00  0.00     0.059 A 
ATOM     67  F   UNL A   1      42.113  26.977  36.927  1.00  0.00    -0.206 F 
ATOM     68  C   UNL A   1      45.714  27.054  37.242  1.00  0.00     0.060 A 
BRANCH  68  69
ATOM     69  S   UNL A   1      47.046  26.187  38.099  1.00  0.00     0.124 S 
ATOM     70  O   UNL A   1      46.364  24.977  38.549  1.00  0.00    -0.237 OA
ATOM     71  O   UNL A   1      48.030  25.999  37.037  1.00  0.00    -0.237 OA
ATOM     72  O   UNL A   1      47.437  27.116  39.153  1.00  0.00    -0.744 OA
ENDBRANCH  68  69
ENDBRANCH  47  61
BRANCH  48  73
ATOM     73  C   UNL A   1      36.382  33.127  30.936  1.00  0.00     0.058 A 
ATOM     74  C   UNL A   1      35.051  33.109  31.378  1.00  0.00     0.135 A 
ATOM     75  C   UNL A   1      36.684  33.889  29.797  1.00  0.00     0.135 A 
ATOM     76  F   UNL A   1      34.714  32.392  32.460  1.00  0.00    -0.206 F 
ATOM     77  C   UNL A   1      34.053  33.818  30.717  1.00  0.00     0.059 A 
ATOM     78  C   UNL A   1      35.707  34.625  29.131  1.00  0.00     0.059 A 
ATOM     79  F   UNL A   1      37.946  33.954  29.346  1.00  0.00    -0.206 F 
ATOM     80  C   UNL A   1      34.393  34.579  29.597  1.00  0.00     0.060 A 
BRANCH  80  81
ATOM     81  S   UNL A   1      33.101  35.552  28.792  1.00  0.00     0.124 S 
ATOM     82  O   UNL A   1      32.349  36.048  29.938  1.00  0.00    -0.237 OA
ATOM     83  O   UNL A   1      33.879  36.546  28.060  1.00  0.00    -0.237 OA
ATOM     84  O   UNL A   1      32.411  34.570  27.960  1.00  0.00    -0.744 OA
ENDBRANCH  80  81
ENDBRANCH  48  73
BRANCH  60  85
ATOM     85  C   UNL A   1      39.677  34.311  36.979  1.00  0.00     0.058 A 
ATOM     86  C   UNL A   1      38.949  34.110  38.160  1.00  0.00     0.135 A 
ATOM     87  C   UNL A   1      40.375  35.521  36.831  1.00  0.00     0.135 A 
ATOM     88  F   UNL A   1      38.260  32.974  38.345  1.00  0.00    -0.206 F 
ATOM     89  C   UNL A   1      38.914  35.076  39.161  1.00  0.00     0.059 A 
ATOM     90  C   UNL A   1      40.371  36.490  37.828  1.00  0.00     0.059 A 
ATOM     91  F   UNL A   1      41.093  35.755  35.722  1.00  0.00    -0.206 F 
ATOM     92  C   UNL A   1      39.635  36.259  38.989  1.00  0.00     0.060 A 
BRANCH  92  93
ATOM     93  S   UNL A   1      39.630  37.473  40.326  1.00  0.00     0.124 S 
ATOM     94  O   UNL A   1      38.839  36.790  41.343  1.00  0.00    -0.237 OA
ATOM     95  O   UNL A   1      41.053  37.618  40.620  1.00  0.00    -0.237 OA
ATOM     96  O   UNL A   1      39.000  38.643  39.720  1.00  0.00    -0.744 OA
ENDBRANCH  92  93
ENDBRANCH  60  85
ENDBRANCH  34  35
ENDBRANCH  27  29
ENDBRANCH  26  27
ENDBRANCH  25  26
ENDBRANCH   1  25
TORSDOF 18
ENDMDL
MODEL 2
REMARK VINA RESULT:     -11.4      5.348      7.054
REMARK SMILES CC(C)CCc1cc2c(cc1Cl)C=C(C(=O)OCCOC(=O)c1ccc(-c3c4nc(c(-c5c(F)cc(S(=O)(=O)[O-])cc5F)c5ccc([nH]5)c(-c5c(F)cc(S(=O)(=O)[O-])cc5F)c5nc(c(-c6c(F)cc(S(=O)(=O)[O-])cc6F)c6ccc3[nH]6)C=C5)C=C4)cc1)[C@H](C(F)(F)F)O2
REMARK SMILES IDX 18 1 17 2 15 3 16 4 14 5 6 6 7 7 11 8 8 9 10 10 12 11 9 12
REMARK SMILES IDX 94 13 13 14 89 15 5 16 4 17 2 18 1 19 3 20 90 21 91 22 92 23
REMARK SMILES IDX 93 24 19 25 20 26 21 27 22 28 23 29 24 30 88 31 25 32 87 33
REMARK SMILES IDX 26 34 27 35 28 36 81 37 29 38 86 39 80 40 82 41 30 42 85 43
REMARK SMILES IDX 79 44 78 45 31 47 65 48 44 49 64 50 45 51 48 52 63 53 83 54
REMARK SMILES IDX 46 55 47 56 62 58 84 59 49 60 32 61 33 62 42 63 34 64 35 65
REMARK SMILES IDX 41 66 43 67 36 68 37 69 38 70 39 71 40 72 66 73 67 74 76 75
REMARK SMILES IDX 68 76 69 77 75 78 77 79 70 80 71 81 72 82 73 83 74 84 50 85
REMARK SMILES IDX 51 86 60 87 52 88 53 89 59 90 61 91 54 92 55 93 56 94 57 95
REMARK SMILES IDX 58 96
REMARK H PARENT 82 46 48 57
REMARK Flexibility Score: inf
ROOT
ATOM      1  C   UNL A   1      35.980  21.200  25.483  1.00  0.00     0.275 C 
ENDROOT
BRANCH   1   2
ATOM      2  O   UNL A   1      35.596  22.394  26.197  1.00  0.00    -0.459 OA
BRANCH   2   3
ATOM      3  C   UNL A   1      34.306  22.458  26.595  1.00  0.00     0.338 C 
ATOM      4  O   UNL A   1      33.861  22.001  27.631  1.00  0.00    -0.246 OA
BRANCH   3   5
ATOM      5  C   UNL A   1      33.498  23.249  25.640  1.00  0.00     0.087 C 
ATOM      6  C   UNL A   1      31.381  27.070  23.145  1.00  0.00    -0.026 A 
ATOM      7  C   UNL A   1      30.997  25.735  23.407  1.00  0.00     0.052 A 
ATOM      8  C   UNL A   1      32.636  27.510  23.601  1.00  0.00     0.045 A 
ATOM      9  C   UNL A   1      31.805  24.895  24.171  1.00  0.00     0.128 A 
ATOM     10  C   UNL A   1      33.431  26.676  24.384  1.00  0.00     0.032 A 
ATOM     11  Cl  UNL A   1      33.258  29.086  23.262  1.00  0.00    -0.084 Cl
ATOM     12  C   UNL A   1      32.995  25.387  24.695  1.00  0.00     0.019 A 
ATOM     13  O   UNL A   1      31.352  23.628  24.447  1.00  0.00    -0.475 OA
ATOM     14  C   UNL A   1      33.743  24.566  25.621  1.00  0.00     0.027 C 
ATOM     15  C   UNL A   1      32.374  22.644  24.840  1.00  0.00     0.316 C 
BRANCH   6  16
ATOM     16  C   UNL A   1      30.410  27.989  22.434  1.00  0.00     0.037 C 
BRANCH  16  17
ATOM     17  C   UNL A   1      29.870  29.121  23.328  1.00  0.00     0.008 C 
BRANCH  17  18
ATOM     18  C   UNL A   1      28.530  29.740  22.876  1.00  0.00    -0.017 C 
ATOM     19  C   UNL A   1      27.339  28.823  23.153  1.00  0.00     0.007 C 
ATOM     20  C   UNL A   1      28.321  31.084  23.579  1.00  0.00     0.007 C 
ENDBRANCH  17  18
ENDBRANCH  16  17
ENDBRANCH   6  16
BRANCH  15  21
ATOM     21  C   UNL A   1      32.749  21.799  23.607  1.00  0.00     0.430 C 
ATOM     22  F   UNL A   1      33.959  22.123  23.104  1.00  0.00    -0.167 F 
ATOM     23  F   UNL A   1      32.749  20.470  23.833  1.00  0.00    -0.167 F 
ATOM     24  F   UNL A   1      31.838  22.013  22.618  1.00  0.00    -0.167 F 
ENDBRANCH  15  21
ENDBRANCH   3   5
ENDBRANCH   2   3
ENDBRANCH   1   2
BRANCH   1  25
ATOM     25  C   UNL A   1      37.449  21.263  25.052  1.00  0.00     0.275 C 
BRANCH  25  26
ATOM     26  O   UNL A   1      38.129  22.355  25.703  1.00  0.00    -0.458 OA
BRANCH  26  27
ATOM     27  C   UNL A   1      39.229  22.025  26.416  1.00  0.00     0.338 C 
ATOM     28  O   UNL A   1      39.763  20.930  26.494  1.00  0.00    -0.246 OA
BRANCH  27  29
ATOM     29  C   UNL A   1      39.808  23.238  27.013  1.00  0.00     0.060 A 
ATOM     30  C   UNL A   1      40.827  23.190  27.956  1.00  0.00     0.016 A 
ATOM     31  C   UNL A   1      39.388  24.461  26.506  1.00  0.00     0.016 A 
ATOM     32  C   UNL A   1      41.402  24.391  28.398  1.00  0.00     0.010 A 
ATOM     33  C   UNL A   1      40.018  25.646  26.871  1.00  0.00     0.010 A 
ATOM     34  C   UNL A   1      41.021  25.633  27.844  1.00  0.00    -0.014 A 
BRANCH  34  35
ATOM     35  C   UNL A   1      41.679  26.907  28.257  1.00  0.00     0.031 A 
ATOM     36  C   UNL A   1      43.134  27.172  27.948  1.00  0.00     0.074 A 
ATOM     37  C   UNL A   1      40.972  27.819  28.956  1.00  0.00     0.049 A 
ATOM     38  N   UNL A   1      43.849  28.240  28.201  1.00  0.00    -0.248 NA
ATOM     39  C   UNL A   1      43.899  26.088  27.309  1.00  0.00     0.031 C 
ATOM     40  C   UNL A   1      39.594  27.644  29.421  1.00  0.00     0.029 A 
ATOM     41  N   UNL A   1      41.305  29.081  29.383  1.00  0.00    -0.354 N 
ATOM     42  C   UNL A   1      45.139  27.952  27.766  1.00  0.00     0.074 A 
ATOM     43  C   UNL A   1      45.128  26.585  27.299  1.00  0.00     0.031 C 
ATOM     44  C   UNL A   1      39.174  28.782  29.995  1.00  0.00     0.029 A 
ATOM     45  C   UNL A   1      40.259  29.757  29.969  1.00  0.00     0.049 A 
ATOM     46  H   UNL A   1      42.206  29.466  29.281  1.00  0.00     0.167 HD
ATOM     47  C   UNL A   1      46.224  28.762  27.719  1.00  0.00     0.037 A 
ATOM     48  C   UNL A   1      40.172  31.028  30.409  1.00  0.00     0.037 A 
ATOM     49  C   UNL A   1      46.219  30.141  28.133  1.00  0.00     0.049 A 
ATOM     50  C   UNL A   1      41.365  31.935  30.279  1.00  0.00     0.074 A 
ATOM     51  C   UNL A   1      47.245  31.067  28.056  1.00  0.00     0.029 A 
ATOM     52  N   UNL A   1      45.130  30.795  28.689  1.00  0.00    -0.354 N 
ATOM     53  N   UNL A   1      42.553  31.665  29.793  1.00  0.00    -0.248 NA
ATOM     54  C   UNL A   1      41.206  33.317  30.752  1.00  0.00     0.031 C 
ATOM     55  C   UNL A   1      46.782  32.275  28.587  1.00  0.00     0.029 A 
ATOM     56  C   UNL A   1      45.458  32.112  28.962  1.00  0.00     0.049 A 
ATOM     57  H   UNL A   1      44.253  30.384  28.864  1.00  0.00     0.167 HD
ATOM     58  C   UNL A   1      43.277  32.848  29.883  1.00  0.00     0.074 A 
ATOM     59  C   UNL A   1      42.390  33.839  30.459  1.00  0.00     0.031 C 
ATOM     60  C   UNL A   1      44.561  33.089  29.525  1.00  0.00     0.037 A 
BRANCH  47  61
ATOM     61  C   UNL A   1      47.501  28.196  27.153  1.00  0.00     0.058 A 
ATOM     62  C   UNL A   1      47.750  28.201  25.770  1.00  0.00     0.135 A 
ATOM     63  C   UNL A   1      48.506  27.692  27.994  1.00  0.00     0.135 A 
ATOM     64  F   UNL A   1      46.820  28.661  24.917  1.00  0.00    -0.206 F 
ATOM     65  C   UNL A   1      48.934  27.698  25.241  1.00  0.00     0.059 A 
ATOM     66  C   UNL A   1      49.711  27.211  27.488  1.00  0.00     0.059 A 
ATOM     67  F   UNL A   1      48.325  27.669  29.325  1.00  0.00    -0.206 F 
ATOM     68  C   UNL A   1      49.909  27.205  26.108  1.00  0.00     0.060 A 
BRANCH  68  69
ATOM     69  S   UNL A   1      51.443  26.568  25.401  1.00  0.00     0.124 S 
ATOM     70  O   UNL A   1      51.147  26.614  23.972  1.00  0.00    -0.237 OA
ATOM     71  O   UNL A   1      52.429  27.536  25.872  1.00  0.00    -0.237 OA
ATOM     72  O   UNL A   1      51.556  25.233  25.976  1.00  0.00    -0.744 OA
ENDBRANCH  68  69
ENDBRANCH  47  61
BRANCH  48  73
ATOM     73  C   UNL A   1      38.876  31.537  30.931  1.00  0.00     0.058 A 
ATOM     74  C   UNL A   1      38.569  31.435  32.295  1.00  0.00     0.135 A 
ATOM     75  C   UNL A   1      37.948  32.176  30.096  1.00  0.00     0.135 A 
ATOM     76  F   UNL A   1      39.424  30.829  33.132  1.00  0.00    -0.206 F 
ATOM     77  C   UNL A   1      37.385  31.947  32.816  1.00  0.00     0.059 A 
ATOM     78  C   UNL A   1      36.766  32.716  30.597  1.00  0.00     0.059 A 
ATOM     79  F   UNL A   1      38.204  32.315  28.786  1.00  0.00    -0.206 F 
ATOM     80  C   UNL A   1      36.492  32.593  31.959  1.00  0.00     0.060 A 
BRANCH  80  81
ATOM     81  S   UNL A   1      34.993  33.317  32.662  1.00  0.00     0.124 S 
ATOM     82  O   UNL A   1      35.144  34.719  32.295  1.00  0.00    -0.237 OA
ATOM     83  O   UNL A   1      33.943  32.584  31.961  1.00  0.00    -0.237 OA
ATOM     84  O   UNL A   1      35.112  33.018  34.086  1.00  0.00    -0.744 OA
ENDBRANCH  80  81
ENDBRANCH  48  73
BRANCH  60  85
ATOM     85  C   UNL A   1      45.093  34.479  29.724  1.00  0.00     0.058 A 
ATOM     86  C   UNL A   1      45.762  34.844  30.902  1.00  0.00     0.135 A 
ATOM     87  C   UNL A   1      45.015  35.426  28.690  1.00  0.00     0.135 A 
ATOM     88  F   UNL A   1      45.856  33.976  31.921  1.00  0.00    -0.206 F 
ATOM     89  C   UNL A   1      46.332  36.103  31.050  1.00  0.00     0.059 A 
ATOM     90  C   UNL A   1      45.598  36.684  28.808  1.00  0.00     0.059 A 
ATOM     91  F   UNL A   1      44.394  35.121  27.540  1.00  0.00    -0.206 F 
ATOM     92  C   UNL A   1      46.253  37.013  29.994  1.00  0.00     0.060 A 
BRANCH  92  93
ATOM     93  S   UNL A   1      47.055  38.620  30.179  1.00  0.00     0.124 S 
ATOM     94  O   UNL A   1      48.354  38.374  29.563  1.00  0.00    -0.237 OA
ATOM     95  O   UNL A   1      46.159  39.503  29.438  1.00  0.00    -0.237 OA
ATOM     96  O   UNL A   1      47.074  38.827  31.624  1.00  0.00    -0.744 OA
ENDBRANCH  92  93
ENDBRANCH  60  85
ENDBRANCH  34  35
ENDBRANCH  27  29
ENDBRANCH  26  27
ENDBRANCH  25  26
ENDBRANCH   1  25
TORSDOF 18
ENDMDL
MODEL 3
REMARK VINA RESULT:     -11.4      1.016      1.996
REMARK SMILES CC(C)CCc1cc2c(cc1Cl)C=C(C(=O)OCCOC(=O)c1ccc(-c3c4nc(c(-c5c(F)cc(S(=O)(=O)[O-])cc5F)c5ccc([nH]5)c(-c5c(F)cc(S(=O)(=O)[O-])cc5F)c5nc(c(-c6c(F)cc(S(=O)(=O)[O-])cc6F)c6ccc3[nH]6)C=C5)C=C4)cc1)[C@H](C(F)(F)F)O2
REMARK SMILES IDX 18 1 17 2 15 3 16 4 14 5 6 6 7 7 11 8 8 9 10 10 12 11 9 12
REMARK SMILES IDX 94 13 13 14 89 15 5 16 4 17 2 18 1 19 3 20 90 21 91 22 92 23
REMARK SMILES IDX 93 24 19 25 20 26 21 27 22 28 23 29 24 30 88 31 25 32 87 33
REMARK SMILES IDX 26 34 27 35 28 36 81 37 29 38 86 39 80 40 82 41 30 42 85 43
REMARK SMILES IDX 79 44 78 45 31 47 65 48 44 49 64 50 45 51 48 52 63 53 83 54
REMARK SMILES IDX 46 55 47 56 62 58 84 59 49 60 32 61 33 62 42 63 34 64 35 65
REMARK SMILES IDX 41 66 43 67 36 68 37 69 38 70 39 71 40 72 66 73 67 74 76 75
REMARK SMILES IDX 68 76 69 77 75 78 77 79 70 80 71 81 72 82 73 83 74 84 50 85
REMARK SMILES IDX 51 86 60 87 52 88 53 89 59 90 61 91 54 92 55 93 56 94 57 95
REMARK SMILES IDX 58 96
REMARK H PARENT 82 46 48 57
REMARK Flexibility Score: inf
ROOT
ATOM      1  C   UNL A   1      38.635  22.189  26.289  1.00  0.00     0.275 C 
ENDROOT
BRANCH   1   2
ATOM      2  O   UNL A   1      37.977  22.126  25.006  1.00  0.00    -0.459 OA
BRANCH   2   3
ATOM      3  C   UNL A   1      37.137  21.084  24.819  1.00  0.00     0.338 C 
ATOM      4  O   UNL A   1      37.450  19.908  24.847  1.00  0.00    -0.246 OA
BRANCH   3   5
ATOM      5  C   UNL A   1      35.741  21.553  24.665  1.00  0.00     0.087 C 
ATOM      6  C   UNL A   1      31.697  24.327  23.547  1.00  0.00    -0.026 A 
ATOM      7  C   UNL A   1      31.972  23.339  24.520  1.00  0.00     0.052 A 
ATOM      8  C   UNL A   1      32.695  24.643  22.610  1.00  0.00     0.045 A 
ATOM      9  C   UNL A   1      33.231  22.746  24.602  1.00  0.00     0.128 A 
ATOM     10  C   UNL A   1      33.960  24.067  22.709  1.00  0.00     0.032 A 
ATOM     11  Cl  UNL A   1      32.448  25.762  21.317  1.00  0.00    -0.084 Cl
ATOM     12  C   UNL A   1      34.232  23.151  23.726  1.00  0.00     0.019 A 
ATOM     13  O   UNL A   1      33.460  21.839  25.607  1.00  0.00    -0.475 OA
ATOM     14  C   UNL A   1      35.576  22.656  23.925  1.00  0.00     0.027 C 
ATOM     15  C   UNL A   1      34.593  20.919  25.406  1.00  0.00     0.316 C 
BRANCH   6  16
ATOM     16  C   UNL A   1      30.364  25.045  23.584  1.00  0.00     0.037 C 
BRANCH  16  17
ATOM     17  C   UNL A   1      30.421  26.408  24.299  1.00  0.00     0.008 C 
BRANCH  17  18
ATOM     18  C   UNL A   1      31.697  26.669  25.129  1.00  0.00    -0.017 C 
ATOM     19  C   UNL A   1      32.567  27.774  24.530  1.00  0.00     0.007 C 
ATOM     20  C   UNL A   1      31.311  27.036  26.564  1.00  0.00     0.007 C 
ENDBRANCH  17  18
ENDBRANCH  16  17
ENDBRANCH   6  16
BRANCH  15  21
ATOM     21  C   UNL A   1      34.053  19.577  24.874  1.00  0.00     0.430 C 
ATOM     22  F   UNL A   1      35.039  18.716  24.543  1.00  0.00    -0.167 F 
ATOM     23  F   UNL A   1      33.231  18.939  25.730  1.00  0.00    -0.167 F 
ATOM     24  F   UNL A   1      33.325  19.797  23.745  1.00  0.00    -0.167 F 
ENDBRANCH  15  21
ENDBRANCH   3   5
ENDBRANCH   2   3
ENDBRANCH   1   2
BRANCH   1  25
ATOM     25  C   UNL A   1      39.977  22.921  26.188  1.00  0.00     0.275 C 
BRANCH  25  26
ATOM     26  O   UNL A   1      39.789  24.349  26.259  1.00  0.00    -0.458 OA
BRANCH  26  27
ATOM     27  C   UNL A   1      40.886  25.076  26.564  1.00  0.00     0.338 C 
ATOM     28  O   UNL A   1      41.964  25.070  25.989  1.00  0.00    -0.246 OA
BRANCH  27  29
ATOM     29  C   UNL A   1      40.567  26.015  27.648  1.00  0.00     0.060 A 
ATOM     30  C   UNL A   1      39.571  25.762  28.584  1.00  0.00     0.016 A 
ATOM     31  C   UNL A   1      41.390  27.126  27.793  1.00  0.00     0.016 A 
ATOM     32  C   UNL A   1      39.400  26.654  29.653  1.00  0.00     0.010 A 
ATOM     33  C   UNL A   1      41.285  27.959  28.901  1.00  0.00     0.010 A 
ATOM     34  C   UNL A   1      40.270  27.751  29.839  1.00  0.00    -0.014 A 
BRANCH  34  35
ATOM     35  C   UNL A   1      40.138  28.662  31.013  1.00  0.00     0.031 A 
ATOM     36  C   UNL A   1      41.040  28.521  32.217  1.00  0.00     0.074 A 
ATOM     37  C   UNL A   1      39.167  29.598  31.017  1.00  0.00     0.049 A 
ATOM     38  N   UNL A   1      41.085  29.253  33.303  1.00  0.00    -0.248 NA
ATOM     39  C   UNL A   1      41.989  27.395  32.225  1.00  0.00     0.031 C 
ATOM     40  C   UNL A   1      38.155  29.770  29.973  1.00  0.00     0.029 A 
ATOM     41  N   UNL A   1      38.882  30.595  31.918  1.00  0.00    -0.354 N 
ATOM     42  C   UNL A   1      42.049  28.670  34.120  1.00  0.00     0.074 A 
ATOM     43  C   UNL A   1      42.515  27.484  33.438  1.00  0.00     0.031 C 
ATOM     44  C   UNL A   1      37.413  30.854  30.250  1.00  0.00     0.029 A 
ATOM     45  C   UNL A   1      37.874  31.436  31.507  1.00  0.00     0.049 A 
ATOM     46  H   UNL A   1      39.353  30.697  32.778  1.00  0.00     0.167 HD
ATOM     47  C   UNL A   1      42.536  29.103  35.309  1.00  0.00     0.037 A 
ATOM     48  C   UNL A   1      37.393  32.567  32.060  1.00  0.00     0.037 A 
ATOM     49  C   UNL A   1      42.110  30.314  35.960  1.00  0.00     0.049 A 
ATOM     50  C   UNL A   1      37.997  33.073  33.342  1.00  0.00     0.074 A 
ATOM     51  C   UNL A   1      42.592  30.879  37.128  1.00  0.00     0.029 A 
ATOM     52  N   UNL A   1      41.111  31.154  35.492  1.00  0.00    -0.354 N 
ATOM     53  N   UNL A   1      38.962  32.549  34.058  1.00  0.00    -0.248 NA
ATOM     54  C   UNL A   1      37.451  34.323  33.887  1.00  0.00     0.031 C 
ATOM     55  C   UNL A   1      41.868  32.049  37.377  1.00  0.00     0.029 A 
ATOM     56  C   UNL A   1      40.960  32.232  36.347  1.00  0.00     0.049 A 
ATOM     57  H   UNL A   1      40.586  31.006  34.672  1.00  0.00     0.167 HD
ATOM     58  C   UNL A   1      39.153  33.415  35.128  1.00  0.00     0.074 A 
ATOM     59  C   UNL A   1      38.212  34.503  34.960  1.00  0.00     0.031 C 
ATOM     60  C   UNL A   1      40.026  33.314  36.160  1.00  0.00     0.037 A 
BRANCH  47  61
ATOM     61  C   UNL A   1      43.622  28.290  35.963  1.00  0.00     0.058 A 
ATOM     62  C   UNL A   1      44.980  28.582  35.750  1.00  0.00     0.135 A 
ATOM     63  C   UNL A   1      43.312  27.244  36.848  1.00  0.00     0.135 A 
ATOM     64  F   UNL A   1      45.335  29.564  34.906  1.00  0.00    -0.206 F 
ATOM     65  C   UNL A   1      45.989  27.849  36.365  1.00  0.00     0.059 A 
ATOM     66  C   UNL A   1      44.305  26.516  37.497  1.00  0.00     0.059 A 
ATOM     67  F   UNL A   1      42.030  26.924  37.094  1.00  0.00    -0.206 F 
ATOM     68  C   UNL A   1      45.642  26.817  37.238  1.00  0.00     0.060 A 
BRANCH  68  69
ATOM     69  S   UNL A   1      46.967  25.885  38.035  1.00  0.00     0.124 S 
ATOM     70  O   UNL A   1      47.745  26.956  38.653  1.00  0.00    -0.237 OA
ATOM     71  O   UNL A   1      46.232  25.026  38.958  1.00  0.00    -0.237 OA
ATOM     72  O   UNL A   1      47.617  25.197  36.926  1.00  0.00    -0.744 OA
ENDBRANCH  68  69
ENDBRANCH  47  61
BRANCH  48  73
ATOM     73  C   UNL A   1      36.340  33.342  31.351  1.00  0.00     0.058 A 
ATOM     74  C   UNL A   1      36.639  34.031  30.167  1.00  0.00     0.135 A 
ATOM     75  C   UNL A   1      35.014  33.367  31.807  1.00  0.00     0.135 A 
ATOM     76  F   UNL A   1      37.895  34.038  29.694  1.00  0.00    -0.206 F 
ATOM     77  C   UNL A   1      35.662  34.722  29.458  1.00  0.00     0.059 A 
ATOM     78  C   UNL A   1      34.013  34.034  31.104  1.00  0.00     0.059 A 
ATOM     79  F   UNL A   1      34.673  32.708  32.925  1.00  0.00    -0.206 F 
ATOM     80  C   UNL A   1      34.349  34.712  29.932  1.00  0.00     0.060 A 
BRANCH  80  81
ATOM     81  S   UNL A   1      33.076  35.552  28.963  1.00  0.00     0.124 S 
ATOM     82  O   UNL A   1      33.871  36.502  28.194  1.00  0.00    -0.237 OA
ATOM     83  O   UNL A   1      32.491  34.450  28.207  1.00  0.00    -0.237 OA
ATOM     84  O   UNL A   1      32.208  36.133  29.983  1.00  0.00    -0.744 OA
ENDBRANCH  80  81
ENDBRANCH  48  73
BRANCH  60  85
ATOM     85  C   UNL A   1      40.028  34.411  37.184  1.00  0.00     0.058 A 
ATOM     86  C   UNL A   1      40.805  35.567  37.015  1.00  0.00     0.135 A 
ATOM     87  C   UNL A   1      39.176  34.347  38.298  1.00  0.00     0.135 A 
ATOM     88  F   UNL A   1      41.640  35.672  35.970  1.00  0.00    -0.206 F 
ATOM     89  C   UNL A   1      40.739  36.622  37.918  1.00  0.00     0.059 A 
ATOM     90  C   UNL A   1      39.078  35.399  39.203  1.00  0.00     0.059 A 
ATOM     91  F   UNL A   1      38.406  33.265  38.499  1.00  0.00    -0.206 F 
ATOM     92  C   UNL A   1      39.866  36.532  39.004  1.00  0.00     0.060 A 
BRANCH  92  93
ATOM     93  S   UNL A   1      39.746  37.938  40.132  1.00  0.00     0.124 S 
ATOM     94  O   UNL A   1      41.055  38.560  39.969  1.00  0.00    -0.237 OA
ATOM     95  O   UNL A   1      38.616  38.682  39.582  1.00  0.00    -0.237 OA
ATOM     96  O   UNL A   1      39.504  37.313  41.429  1.00  0.00    -0.744 OA
ENDBRANCH  92  93
ENDBRANCH  60  85
ENDBRANCH  34  35
ENDBRANCH  27  29
ENDBRANCH  26  27
ENDBRANCH  25  26
ENDBRANCH   1  25
TORSDOF 18
ENDMDL
