MODEL 1
REMARK VINA RESULT:     -14.8      0.000      0.000
REMARK SMILES Cc1ccc(C[C@@H](Cc2cc(F)cc(Br)c2)C(=O)OCCOC(=O)c2ccc(-c3c4nc(c(-c5c(F)cc(S(=O)(=O)[O-])cc5F)c5ccc([nH]5)c(-c5c(F)cc(S(=O)(=O)[O-])cc5F)c5nc(c(-c6c(F)cc(S(=O)(=O)[O-])cc6F)c6ccc3[nH]6)C=C5)C=C4)cc2)cc1
REMARK SMILES IDX 21 1 20 2 19 3 17 4 18 5 7 6 6 7 5 8 1 9 2 10 3 11 92 12
REMARK SMILES IDX 4 13 91 14 8 15 9 16 10 17 16 18 11 19 14 20 12 21 13 22
REMARK SMILES IDX 15 23 22 24 23 25 24 26 25 27 26 28 90 29 27 30 89 31 28 32
REMARK SMILES IDX 29 33 30 34 83 35 31 36 88 37 82 38 84 39 32 40 87 41 81 42
REMARK SMILES IDX 80 43 33 45 67 46 46 47 66 48 47 49 50 50 65 51 85 52 48 53
REMARK SMILES IDX 49 54 64 56 86 57 51 58 34 59 35 60 44 61 36 62 37 63 43 64
REMARK SMILES IDX 45 65 38 66 39 67 40 68 41 69 42 70 68 71 69 72 78 73 70 74
REMARK SMILES IDX 71 75 77 76 79 77 72 78 73 79 74 80 75 81 76 82 52 83 53 84
REMARK SMILES IDX 62 85 54 86 55 87 61 88 63 89 56 90 57 91 58 92 59 93 60 94
REMARK H PARENT 84 44 50 55
REMARK Flexibility Score: inf
ROOT
ATOM      1  C   UNL A   1      31.847  31.912  26.926  1.00  0.00     0.275 C 
ENDROOT
BRANCH   1   2
ATOM      2  C   UNL A   1      32.266  30.476  27.245  1.00  0.00     0.274 C 
BRANCH   2   3
ATOM      3  O   UNL A   1      31.793  29.670  26.183  1.00  0.00    -0.462 OA
BRANCH   3   4
ATOM      4  C   UNL A   1      31.594  28.254  26.489  1.00  0.00     0.309 C 
ATOM      5  O   UNL A   1      32.027  28.146  27.674  1.00  0.00    -0.252 OA
BRANCH   4   6
ATOM      6  C   UNL A   1      30.861  26.803  25.038  1.00  0.00     0.108 C 
BRANCH   6   7
ATOM      7  C   UNL A   1      29.655  26.903  23.715  1.00  0.00     0.051 C 
BRANCH   7   8
ATOM      8  C   UNL A   1      29.213  28.260  23.120  1.00  0.00    -0.047 A 
ATOM      9  C   UNL A   1      28.023  31.797  20.863  1.00  0.00     0.044 C 
ATOM     10  C   UNL A   1      28.444  30.590  21.649  1.00  0.00    -0.051 A 
ATOM     11  C   UNL A   1      27.516  29.899  22.430  1.00  0.00     0.004 A 
ATOM     12  C   UNL A   1      29.761  30.125  21.625  1.00  0.00     0.004 A 
ATOM     13  C   UNL A   1      27.890  28.742  23.138  1.00  0.00     0.004 A 
ATOM     14  C   UNL A   1      30.139  28.988  22.357  1.00  0.00     0.004 A 
ENDBRANCH   7   8
ENDBRANCH   6   7
BRANCH   6  15
ATOM     15  C   UNL A   1      31.879  25.718  23.989  1.00  0.00     0.051 C 
BRANCH  15  16
ATOM     16  C   UNL A   1      32.642  24.540  24.570  1.00  0.00    -0.043 A 
ATOM     17  C   UNL A   1      34.396  24.944  24.696  1.00  0.00     0.043 A 
ATOM     18  C   UNL A   1      32.123  22.727  24.477  1.00  0.00     0.019 A 
ATOM     19  C   UNL A   1      35.590  23.647  24.748  1.00  0.00     0.124 A 
ATOM     20  C   UNL A   1      33.356  21.440  24.629  1.00  0.00     0.021 A 
ATOM     21  F   UNL A   1      36.840  24.023  25.038  1.00  0.00    -0.207 F 
ATOM     22  C   UNL A   1      35.081  21.910  24.780  1.00  0.00     0.055 A 
ATOM     23  Br  UNL A   1      32.777  19.645  24.464  1.00  0.00    -0.051 Br
ENDBRANCH  15  16
ENDBRANCH   6  15
ENDBRANCH   4   6
ENDBRANCH   3   4
ENDBRANCH   2   3
ENDBRANCH   1   2
BRANCH   1  24
ATOM     24  O   UNL A   1      32.683  33.019  27.437  1.00  0.00    -0.458 OA
BRANCH  24  25
ATOM     25  C   UNL A   1      33.941  33.032  27.993  1.00  0.00     0.338 C 
ATOM     26  O   UNL A   1      34.630  34.043  28.031  1.00  0.00    -0.246 OA
BRANCH  25  27
ATOM     27  C   UNL A   1      34.491  31.751  28.556  1.00  0.00     0.060 A 
ATOM     28  C   UNL A   1      35.020  31.742  30.261  1.00  0.00     0.016 A 
ATOM     29  C   UNL A   1      35.417  30.912  27.330  1.00  0.00     0.016 A 
ATOM     30  C   UNL A   1      36.671  31.113  30.715  1.00  0.00     0.010 A 
ATOM     31  C   UNL A   1      36.994  30.209  27.745  1.00  0.00     0.010 A 
ATOM     32  C   UNL A   1      37.753  30.475  29.426  1.00  0.00    -0.014 A 
BRANCH  32  33
ATOM     33  C   UNL A   1      39.411  29.978  29.766  1.00  0.00     0.031 A 
ATOM     34  C   UNL A   1      40.138  28.026  29.222  1.00  0.00     0.074 A 
ATOM     35  C   UNL A   1      39.924  31.286  30.168  1.00  0.00     0.049 A 
ATOM     36  N   UNL A   1      41.039  27.174  29.772  1.00  0.00    -0.248 NA
ATOM     37  C   UNL A   1      39.655  26.971  27.970  1.00  0.00     0.031 C 
ATOM     38  C   UNL A   1      41.305  31.904  30.104  1.00  0.00     0.029 A 
ATOM     39  N   UNL A   1      39.412  32.017  31.276  1.00  0.00    -0.354 N 
ATOM     40  C   UNL A   1      41.553  26.264  28.885  1.00  0.00     0.074 A 
ATOM     41  C   UNL A   1      40.516  25.974  27.966  1.00  0.00     0.031 C 
ATOM     42  C   UNL A   1      41.653  32.455  31.269  1.00  0.00     0.029 A 
ATOM     43  C   UNL A   1      40.508  32.369  32.111  1.00  0.00     0.049 A 
ATOM     44  H   UNL A   1      38.466  32.238  31.437  1.00  0.00     0.167 HD
ATOM     45  C   UNL A   1      42.901  26.052  28.869  1.00  0.00     0.037 A 
ATOM     46  C   UNL A   1      40.574  32.194  33.448  1.00  0.00     0.037 A 
ATOM     47  C   UNL A   1      43.605  26.937  29.847  1.00  0.00     0.049 A 
ATOM     48  C   UNL A   1      41.669  31.189  33.854  1.00  0.00     0.074 A 
ATOM     49  C   UNL A   1      44.461  28.020  29.683  1.00  0.00     0.029 A 
ATOM     50  N   UNL A   1      43.235  26.979  31.203  1.00  0.00    -0.354 N 
ATOM     51  N   UNL A   1      42.315  30.375  33.031  1.00  0.00    -0.248 NA
ATOM     52  C   UNL A   1      42.175  31.072  35.223  1.00  0.00     0.031 C 
ATOM     53  C   UNL A   1      44.609  28.695  30.934  1.00  0.00     0.029 A 
ATOM     54  C   UNL A   1      43.800  28.074  31.873  1.00  0.00     0.049 A 
ATOM     55  H   UNL A   1      42.647  26.317  31.632  1.00  0.00     0.167 HD
ATOM     56  C   UNL A   1      43.086  29.480  33.771  1.00  0.00     0.074 A 
ATOM     57  C   UNL A   1      43.067  30.074  35.099  1.00  0.00     0.031 C 
ATOM     58  C   UNL A   1      43.618  28.278  33.322  1.00  0.00     0.037 A 
BRANCH  45  59
ATOM     59  C   UNL A   1      43.593  25.315  27.714  1.00  0.00     0.058 A 
ATOM     60  C   UNL A   1      43.974  23.967  27.858  1.00  0.00     0.135 A 
ATOM     61  C   UNL A   1      43.916  25.855  26.441  1.00  0.00     0.135 A 
ATOM     62  F   UNL A   1      43.647  23.258  28.944  1.00  0.00    -0.206 F 
ATOM     63  C   UNL A   1      44.674  23.256  26.878  1.00  0.00     0.059 A 
ATOM     64  C   UNL A   1      44.674  25.191  25.473  1.00  0.00     0.059 A 
ATOM     65  F   UNL A   1      43.421  27.015  26.003  1.00  0.00    -0.206 F 
ATOM     66  C   UNL A   1      45.033  23.879  25.694  1.00  0.00     0.060 A 
BRANCH  66  67
ATOM     67  S   UNL A   1      45.844  22.919  24.408  1.00  0.00     0.124 S 
ATOM     68  O   UNL A   1      46.809  23.875  23.877  1.00  0.00    -0.237 OA
ATOM     69  O   UNL A   1      46.399  21.806  25.172  1.00  0.00    -0.237 OA
ATOM     70  O   UNL A   1      44.752  22.569  23.502  1.00  0.00    -0.744 OA
ENDBRANCH  66  67
ENDBRANCH  45  59
BRANCH  46  71
ATOM     71  C   UNL A   1      39.274  32.648  34.038  1.00  0.00     0.058 A 
ATOM     72  C   UNL A   1      39.036  34.051  33.939  1.00  0.00     0.135 A 
ATOM     73  C   UNL A   1      38.140  31.830  34.051  1.00  0.00     0.135 A 
ATOM     74  F   UNL A   1      40.079  34.902  33.937  1.00  0.00    -0.206 F 
ATOM     75  C   UNL A   1      37.781  34.583  33.639  1.00  0.00     0.059 A 
ATOM     76  C   UNL A   1      36.854  32.359  33.823  1.00  0.00     0.059 A 
ATOM     77  F   UNL A   1      38.276  30.498  34.104  1.00  0.00    -0.206 F 
ATOM     78  C   UNL A   1      36.694  33.723  33.550  1.00  0.00     0.060 A 
BRANCH  78  79
ATOM     79  S   UNL A   1      35.096  34.415  33.038  1.00  0.00     0.124 S 
ATOM     80  O   UNL A   1      35.053  35.663  33.791  1.00  0.00    -0.237 OA
ATOM     81  O   UNL A   1      35.248  34.572  31.597  1.00  0.00    -0.237 OA
ATOM     82  O   UNL A   1      34.138  33.401  33.469  1.00  0.00    -0.744 OA
ENDBRANCH  78  79
ENDBRANCH  46  71
BRANCH  58  83
ATOM     83  C   UNL A   1      44.128  27.153  34.244  1.00  0.00     0.058 A 
ATOM     84  C   UNL A   1      45.472  26.958  34.618  1.00  0.00     0.135 A 
ATOM     85  C   UNL A   1      43.220  26.259  34.878  1.00  0.00     0.135 A 
ATOM     86  F   UNL A   1      46.434  27.829  34.292  1.00  0.00    -0.206 F 
ATOM     87  C   UNL A   1      45.895  25.872  35.390  1.00  0.00     0.059 A 
ATOM     88  C   UNL A   1      43.611  25.234  35.738  1.00  0.00     0.059 A 
ATOM     89  F   UNL A   1      41.895  26.334  34.696  1.00  0.00    -0.206 F 
ATOM     90  C   UNL A   1      44.958  25.004  35.932  1.00  0.00     0.060 A 
BRANCH  90  91
ATOM     91  S   UNL A   1      45.510  23.582  36.884  1.00  0.00     0.124 S 
ATOM     92  O   UNL A   1      44.925  23.868  38.191  1.00  0.00    -0.237 OA
ATOM     93  O   UNL A   1      44.914  22.465  36.157  1.00  0.00    -0.237 OA
ATOM     94  O   UNL A   1      46.965  23.664  36.813  1.00  0.00    -0.744 OA
ENDBRANCH  90  91
ENDBRANCH  58  83
ENDBRANCH  32  33
ENDBRANCH  25  27
ENDBRANCH  24  25
ENDBRANCH   1  24
TORSDOF 18
ENDMDL
MODEL 2
REMARK VINA RESULT:     -14.7      4.246     11.045
REMARK SMILES Cc1ccc(C[C@@H](Cc2cc(F)cc(Br)c2)C(=O)OCCOC(=O)c2ccc(-c3c4nc(c(-c5c(F)cc(S(=O)(=O)[O-])cc5F)c5ccc([nH]5)c(-c5c(F)cc(S(=O)(=O)[O-])cc5F)c5nc(c(-c6c(F)cc(S(=O)(=O)[O-])cc6F)c6ccc3[nH]6)C=C5)C=C4)cc2)cc1
REMARK SMILES IDX 21 1 20 2 19 3 17 4 18 5 7 6 6 7 5 8 1 9 2 10 3 11 92 12
REMARK SMILES IDX 4 13 91 14 8 15 9 16 10 17 16 18 11 19 14 20 12 21 13 22
REMARK SMILES IDX 15 23 22 24 23 25 24 26 25 27 26 28 90 29 27 30 89 31 28 32
REMARK SMILES IDX 29 33 30 34 83 35 31 36 88 37 82 38 84 39 32 40 87 41 81 42
REMARK SMILES IDX 80 43 33 45 67 46 46 47 66 48 47 49 50 50 65 51 85 52 48 53
REMARK SMILES IDX 49 54 64 56 86 57 51 58 34 59 35 60 44 61 36 62 37 63 43 64
REMARK SMILES IDX 45 65 38 66 39 67 40 68 41 69 42 70 68 71 69 72 78 73 70 74
REMARK SMILES IDX 71 75 77 76 79 77 72 78 73 79 74 80 75 81 76 82 52 83 53 84
REMARK SMILES IDX 62 85 54 86 55 87 61 88 63 89 56 90 57 91 58 92 59 93 60 94
REMARK H PARENT 84 44 50 55
REMARK Flexibility Score: inf
ROOT
ATOM      1  C   UNL A   1      39.028  21.712  25.495  1.00  0.00     0.275 C 
ENDROOT
BRANCH   1   2
ATOM      2  C   UNL A   1      37.579  21.350  25.823  1.00  0.00     0.274 C 
BRANCH   2   3
ATOM      3  O   UNL A   1      37.154  20.436  24.830  1.00  0.00    -0.462 OA
BRANCH   3   4
ATOM      4  C   UNL A   1      35.751  20.030  24.887  1.00  0.00     0.309 C 
ATOM      5  O   UNL A   1      35.814  18.766  24.931  1.00  0.00    -0.252 OA
BRANCH   4   6
ATOM      6  C   UNL A   1      34.088  21.431  24.749  1.00  0.00     0.108 C 
BRANCH   6   7
ATOM      7  C   UNL A   1      32.829  21.711  23.504  1.00  0.00     0.051 C 
BRANCH   7   8
ATOM      8  C   UNL A   1      32.465  23.134  23.023  1.00  0.00    -0.047 A 
ATOM      9  C   UNL A   1      31.351  27.288  22.296  1.00  0.00     0.044 C 
ATOM     10  C   UNL A   1      31.723  25.853  22.534  1.00  0.00    -0.051 A 
ATOM     11  C   UNL A   1      33.035  25.422  22.328  1.00  0.00     0.004 A 
ATOM     12  C   UNL A   1      30.781  24.915  22.962  1.00  0.00     0.004 A 
ATOM     13  C   UNL A   1      33.403  24.090  22.588  1.00  0.00     0.004 A 
ATOM     14  C   UNL A   1      31.144  23.578  23.191  1.00  0.00     0.004 A 
ENDBRANCH   7   8
ENDBRANCH   6   7
BRANCH   6  15
ATOM     15  C   UNL A   1      32.848  21.762  26.039  1.00  0.00     0.051 C 
BRANCH  15  16
ATOM     16  C   UNL A   1      32.490  23.179  26.452  1.00  0.00    -0.043 A 
ATOM     17  C   UNL A   1      30.704  23.329  26.658  1.00  0.00     0.043 A 
ATOM     18  C   UNL A   1      33.504  24.730  26.092  1.00  0.00     0.019 A 
ATOM     19  C   UNL A   1      29.941  24.914  26.537  1.00  0.00     0.124 A 
ATOM     20  C   UNL A   1      32.706  26.330  26.071  1.00  0.00     0.021 A 
ATOM     21  F   UNL A   1      28.653  24.964  26.895  1.00  0.00    -0.207 F 
ATOM     22  C   UNL A   1      30.930  26.412  26.311  1.00  0.00     0.055 A 
ATOM     23  Br  UNL A   1      33.769  27.838  25.641  1.00  0.00    -0.051 Br
ENDBRANCH  15  16
ENDBRANCH   6  15
ENDBRANCH   4   6
ENDBRANCH   3   4
ENDBRANCH   2   3
ENDBRANCH   1   2
BRANCH   1  24
ATOM     24  O   UNL A   1      39.981  21.887  26.612  1.00  0.00    -0.458 OA
BRANCH  24  25
ATOM     25  C   UNL A   1      40.462  23.017  27.232  1.00  0.00     0.338 C 
ATOM     26  O   UNL A   1      41.353  22.974  28.071  1.00  0.00    -0.246 OA
BRANCH  25  27
ATOM     27  C   UNL A   1      39.857  24.346  26.875  1.00  0.00     0.060 A 
ATOM     28  C   UNL A   1      40.910  25.571  26.116  1.00  0.00     0.016 A 
ATOM     29  C   UNL A   1      38.681  24.808  28.086  1.00  0.00     0.016 A 
ATOM     30  C   UNL A   1      40.987  27.267  26.783  1.00  0.00     0.010 A 
ATOM     31  C   UNL A   1      38.662  26.472  28.705  1.00  0.00     0.010 A 
ATOM     32  C   UNL A   1      39.968  27.701  28.201  1.00  0.00    -0.014 A 
BRANCH  32  33
ATOM     33  C   UNL A   1      40.089  29.276  28.986  1.00  0.00     0.031 A 
ATOM     34  C   UNL A   1      38.572  30.782  28.733  1.00  0.00     0.074 A 
ATOM     35  C   UNL A   1      41.218  28.967  29.861  1.00  0.00     0.049 A 
ATOM     36  N   UNL A   1      38.594  32.138  28.690  1.00  0.00    -0.248 NA
ATOM     37  C   UNL A   1      36.906  30.634  28.394  1.00  0.00     0.031 C 
ATOM     38  C   UNL A   1      41.639  29.507  31.212  1.00  0.00     0.029 A 
ATOM     39  N   UNL A   1      42.498  28.581  29.375  1.00  0.00    -0.354 N 
ATOM     40  C   UNL A   1      37.389  32.721  28.983  1.00  0.00     0.074 A 
ATOM     41  C   UNL A   1      36.392  31.842  28.495  1.00  0.00     0.031 C 
ATOM     42  C   UNL A   1      42.930  29.843  31.228  1.00  0.00     0.029 A 
ATOM     43  C   UNL A   1      43.467  29.430  29.977  1.00  0.00     0.049 A 
ATOM     44  H   UNL A   1      42.680  27.855  28.735  1.00  0.00     0.167 HD
ATOM     45  C   UNL A   1      37.362  33.771  29.854  1.00  0.00     0.037 A 
ATOM     46  C   UNL A   1      44.453  30.089  29.331  1.00  0.00     0.037 A 
ATOM     47  C   UNL A   1      38.727  34.074  30.386  1.00  0.00     0.049 A 
ATOM     48  C   UNL A   1      44.286  31.618  29.412  1.00  0.00     0.074 A 
ATOM     49  C   UNL A   1      39.295  33.927  31.647  1.00  0.00     0.029 A 
ATOM     50  N   UNL A   1      39.817  34.307  29.530  1.00  0.00    -0.354 N 
ATOM     51  N   UNL A   1      43.199  32.256  29.823  1.00  0.00    -0.248 NA
ATOM     52  C   UNL A   1      45.366  32.556  29.100  1.00  0.00     0.031 C 
ATOM     53  C   UNL A   1      40.711  34.082  31.545  1.00  0.00     0.029 A 
ATOM     54  C   UNL A   1      41.043  34.267  30.211  1.00  0.00     0.049 A 
ATOM     55  H   UNL A   1      39.731  34.477  28.565  1.00  0.00     0.167 HD
ATOM     56  C   UNL A   1      43.338  33.621  29.577  1.00  0.00     0.074 A 
ATOM     57  C   UNL A   1      44.758  33.741  29.278  1.00  0.00     0.031 C 
ATOM     58  C   UNL A   1      42.320  34.564  29.535  1.00  0.00     0.037 A 
BRANCH  45  59
ATOM     59  C   UNL A   1      36.056  34.268  30.488  1.00  0.00     0.058 A 
ATOM     60  C   UNL A   1      35.081  34.908  29.698  1.00  0.00     0.135 A 
ATOM     61  C   UNL A   1      35.684  34.155  31.854  1.00  0.00     0.135 A 
ATOM     62  F   UNL A   1      35.204  34.999  28.369  1.00  0.00    -0.206 F 
ATOM     63  C   UNL A   1      33.902  35.450  30.220  1.00  0.00     0.059 A 
ATOM     64  C   UNL A   1      34.549  34.748  32.413  1.00  0.00     0.059 A 
ATOM     65  F   UNL A   1      36.332  33.366  32.714  1.00  0.00    -0.206 F 
ATOM     66  C   UNL A   1      33.650  35.380  31.581  1.00  0.00     0.060 A 
BRANCH  66  67
ATOM     67  S   UNL A   1      32.086  35.995  32.216  1.00  0.00     0.124 S 
ATOM     68  O   UNL A   1      31.403  36.410  30.996  1.00  0.00    -0.237 OA
ATOM     69  O   UNL A   1      31.547  34.813  32.881  1.00  0.00    -0.237 OA
ATOM     70  O   UNL A   1      32.482  37.083  33.107  1.00  0.00    -0.744 OA
ENDBRANCH  66  67
ENDBRANCH  45  59
BRANCH  46  71
ATOM     71  C   UNL A   1      45.089  29.138  28.363  1.00  0.00     0.058 A 
ATOM     72  C   UNL A   1      45.860  28.103  28.970  1.00  0.00     0.135 A 
ATOM     73  C   UNL A   1      44.499  28.827  27.134  1.00  0.00     0.135 A 
ATOM     74  F   UNL A   1      46.470  28.335  30.147  1.00  0.00    -0.206 F 
ATOM     75  C   UNL A   1      45.853  26.787  28.506  1.00  0.00     0.059 A 
ATOM     76  C   UNL A   1      44.544  27.520  26.611  1.00  0.00     0.059 A 
ATOM     77  F   UNL A   1      43.727  29.730  26.514  1.00  0.00    -0.206 F 
ATOM     78  C   UNL A   1      45.162  26.494  27.337  1.00  0.00     0.060 A 
BRANCH  78  79
ATOM     79  S   UNL A   1      45.060  24.757  26.817  1.00  0.00     0.124 S 
ATOM     80  O   UNL A   1      44.390  24.869  25.527  1.00  0.00    -0.237 OA
ATOM     81  O   UNL A   1      46.457  24.347  26.751  1.00  0.00    -0.237 OA
ATOM     82  O   UNL A   1      44.266  24.137  27.874  1.00  0.00    -0.744 OA
ENDBRANCH  78  79
ENDBRANCH  46  71
BRANCH  58  83
ATOM     83  C   UNL A   1      42.452  35.962  28.898  1.00  0.00     0.058 A 
ATOM     84  C   UNL A   1      41.951  36.327  27.634  1.00  0.00     0.135 A 
ATOM     85  C   UNL A   1      43.030  37.043  29.620  1.00  0.00     0.135 A 
ATOM     86  F   UNL A   1      41.190  35.501  26.905  1.00  0.00    -0.206 F 
ATOM     87  C   UNL A   1      42.169  37.585  27.065  1.00  0.00     0.059 A 
ATOM     88  C   UNL A   1      43.161  38.335  29.114  1.00  0.00     0.059 A 
ATOM     89  F   UNL A   1      43.502  36.902  30.866  1.00  0.00    -0.206 F 
ATOM     90  C   UNL A   1      42.792  38.579  27.806  1.00  0.00     0.060 A 
BRANCH  90  91
ATOM     91  S   UNL A   1      43.113  40.180  27.054  1.00  0.00     0.124 S 
ATOM     92  O   UNL A   1      43.865  40.847  28.112  1.00  0.00    -0.237 OA
ATOM     93  O   UNL A   1      43.880  39.822  25.864  1.00  0.00    -0.237 OA
ATOM     94  O   UNL A   1      41.779  40.712  26.796  1.00  0.00    -0.744 OA
ENDBRANCH  90  91
ENDBRANCH  58  83
ENDBRANCH  32  33
ENDBRANCH  25  27
ENDBRANCH  24  25
ENDBRANCH   1  24
TORSDOF 18
ENDMDL
MODEL 3
REMARK VINA RESULT:     -14.6      2.355      3.199
REMARK SMILES Cc1ccc(C[C@@H](Cc2cc(F)cc(Br)c2)C(=O)OCCOC(=O)c2ccc(-c3c4nc(c(-c5c(F)cc(S(=O)(=O)[O-])cc5F)c5ccc([nH]5)c(-c5c(F)cc(S(=O)(=O)[O-])cc5F)c5nc(c(-c6c(F)cc(S(=O)(=O)[O-])cc6F)c6ccc3[nH]6)C=C5)C=C4)cc2)cc1
REMARK SMILES IDX 21 1 20 2 19 3 17 4 18 5 7 6 6 7 5 8 1 9 2 10 3 11 92 12
REMARK SMILES IDX 4 13 91 14 8 15 9 16 10 17 16 18 11 19 14 20 12 21 13 22
REMARK SMILES IDX 15 23 22 24 23 25 24 26 25 27 26 28 90 29 27 30 89 31 28 32
REMARK SMILES IDX 29 33 30 34 83 35 31 36 88 37 82 38 84 39 32 40 87 41 81 42
REMARK SMILES IDX 80 43 33 45 67 46 46 47 66 48 47 49 50 50 65 51 85 52 48 53
REMARK SMILES IDX 49 54 64 56 86 57 51 58 34 59 35 60 44 61 36 62 37 63 43 64
REMARK SMILES IDX 45 65 38 66 39 67 40 68 41 69 42 70 68 71 69 72 78 73 70 74
REMARK SMILES IDX 71 75 77 76 79 77 72 78 73 79 74 80 75 81 76 82 52 83 53 84
REMARK SMILES IDX 62 85 54 86 55 87 61 88 63 89 56 90 57 91 58 92 59 93 60 94
REMARK H PARENT 84 44 50 55
REMARK Flexibility Score: inf
ROOT
ATOM      1  C   UNL A   1      33.451  31.674  27.418  1.00  0.00     0.275 C 
ENDROOT
BRANCH   1   2
ATOM      2  C   UNL A   1      33.195  30.167  27.467  1.00  0.00     0.274 C 
BRANCH   2   3
ATOM      3  O   UNL A   1      32.243  29.884  26.460  1.00  0.00    -0.462 OA
BRANCH   3   4
ATOM      4  C   UNL A   1      31.696  28.528  26.453  1.00  0.00     0.309 C 
ATOM      5  O   UNL A   1      31.751  28.184  27.670  1.00  0.00    -0.252 OA
BRANCH   4   6
ATOM      6  C   UNL A   1      31.132  27.470  24.634  1.00  0.00     0.108 C 
BRANCH   6   7
ATOM      7  C   UNL A   1      29.752  27.640  23.502  1.00  0.00     0.051 C 
BRANCH   7   8
ATOM      8  C   UNL A   1      29.167  29.023  23.136  1.00  0.00    -0.047 A 
ATOM      9  C   UNL A   1      28.119  33.078  21.917  1.00  0.00     0.044 C 
ATOM     10  C   UNL A   1      28.472  31.685  22.352  1.00  0.00    -0.051 A 
ATOM     11  C   UNL A   1      28.018  30.583  21.624  1.00  0.00     0.004 A 
ATOM     12  C   UNL A   1      29.254  31.449  23.485  1.00  0.00     0.004 A 
ATOM     13  C   UNL A   1      28.377  29.276  21.999  1.00  0.00     0.004 A 
ATOM     14  C   UNL A   1      29.585  30.141  23.875  1.00  0.00     0.004 A 
ENDBRANCH   7   8
ENDBRANCH   6   7
BRANCH   6  15
ATOM     15  C   UNL A   1      32.215  27.111  23.216  1.00  0.00     0.051 C 
BRANCH  15  16
ATOM     16  C   UNL A   1      33.154  25.917  23.215  1.00  0.00    -0.043 A 
ATOM     17  C   UNL A   1      32.434  24.567  22.258  1.00  0.00     0.043 A 
ATOM     18  C   UNL A   1      34.443  25.518  24.535  1.00  0.00     0.019 A 
ATOM     19  C   UNL A   1      32.956  22.909  22.557  1.00  0.00     0.124 A 
ATOM     20  C   UNL A   1      35.014  23.836  24.742  1.00  0.00     0.021 A 
ATOM     21  F   UNL A   1      32.522  22.000  21.676  1.00  0.00    -0.207 F 
ATOM     22  C   UNL A   1      34.278  22.544  23.738  1.00  0.00     0.055 A 
ATOM     23  Br  UNL A   1      36.261  23.494  26.126  1.00  0.00    -0.051 Br
ENDBRANCH  15  16
ENDBRANCH   6  15
ENDBRANCH   4   6
ENDBRANCH   3   4
ENDBRANCH   2   3
ENDBRANCH   1   2
BRANCH   1  24
ATOM     24  O   UNL A   1      34.472  32.245  28.323  1.00  0.00    -0.458 OA
BRANCH  24  25
ATOM     25  C   UNL A   1      35.776  31.884  28.572  1.00  0.00     0.338 C 
ATOM     26  O   UNL A   1      36.663  32.710  28.742  1.00  0.00    -0.246 OA
BRANCH  25  27
ATOM     27  C   UNL A   1      36.119  30.421  28.621  1.00  0.00     0.060 A 
ATOM     28  C   UNL A   1      36.445  29.686  30.215  1.00  0.00     0.016 A 
ATOM     29  C   UNL A   1      37.086  29.991  27.226  1.00  0.00     0.016 A 
ATOM     30  C   UNL A   1      37.957  28.704  30.490  1.00  0.00     0.010 A 
ATOM     31  C   UNL A   1      38.521  28.966  27.432  1.00  0.00     0.010 A 
ATOM     32  C   UNL A   1      39.107  28.460  29.127  1.00  0.00    -0.014 A 
BRANCH  32  33
ATOM     33  C   UNL A   1      40.653  27.641  29.351  1.00  0.00     0.031 A 
ATOM     34  C   UNL A   1      40.929  25.581  28.793  1.00  0.00     0.074 A 
ATOM     35  C   UNL A   1      41.447  28.821  29.687  1.00  0.00     0.049 A 
ATOM     36  N   UNL A   1      41.681  24.567  29.290  1.00  0.00    -0.248 NA
ATOM     37  C   UNL A   1      40.148  24.638  27.603  1.00  0.00     0.031 C 
ATOM     38  C   UNL A   1      42.915  29.148  29.506  1.00  0.00     0.029 A 
ATOM     39  N   UNL A   1      41.180  29.645  30.815  1.00  0.00    -0.354 N 
ATOM     40  C   UNL A   1      41.931  23.568  28.385  1.00  0.00     0.074 A 
ATOM     41  C   UNL A   1      40.788  23.489  27.554  1.00  0.00     0.031 C 
ATOM     42  C   UNL A   1      43.456  29.623  30.630  1.00  0.00     0.029 A 
ATOM     43  C   UNL A   1      42.387  29.773  31.557  1.00  0.00     0.049 A 
ATOM     44  H   UNL A   1      40.314  30.053  31.043  1.00  0.00     0.167 HD
ATOM     45  C   UNL A   1      43.204  23.089  28.272  1.00  0.00     0.037 A 
ATOM     46  C   UNL A   1      42.520  29.595  32.889  1.00  0.00     0.037 A 
ATOM     47  C   UNL A   1      44.145  23.819  29.176  1.00  0.00     0.049 A 
ATOM     48  C   UNL A   1      43.420  28.392  33.231  1.00  0.00     0.074 A 
ATOM     49  C   UNL A   1      45.186  24.706  28.926  1.00  0.00     0.029 A 
ATOM     50  N   UNL A   1      43.898  23.940  30.555  1.00  0.00    -0.354 N 
ATOM     51  N   UNL A   1      43.823  27.461  32.378  1.00  0.00    -0.248 NA
ATOM     52  C   UNL A   1      43.998  28.181  34.560  1.00  0.00     0.031 C 
ATOM     53  C   UNL A   1      45.563  25.343  30.148  1.00  0.00     0.029 A 
ATOM     54  C   UNL A   1      44.722  24.902  31.158  1.00  0.00     0.049 A 
ATOM     55  H   UNL A   1      43.225  23.412  31.040  1.00  0.00     0.167 HD
ATOM     56  C   UNL A   1      44.455  26.432  33.075  1.00  0.00     0.074 A 
ATOM     57  C   UNL A   1      44.660  27.024  34.389  1.00  0.00     0.031 C 
ATOM     58  C   UNL A   1      44.699  25.145  32.612  1.00  0.00     0.037 A 
BRANCH  45  59
ATOM     59  C   UNL A   1      43.642  22.222  27.083  1.00  0.00     0.058 A 
ATOM     60  C   UNL A   1      43.070  20.952  26.880  1.00  0.00     0.135 A 
ATOM     61  C   UNL A   1      44.611  22.564  26.102  1.00  0.00     0.135 A 
ATOM     62  F   UNL A   1      42.057  20.510  27.635  1.00  0.00    -0.206 F 
ATOM     63  C   UNL A   1      43.472  20.079  25.864  1.00  0.00     0.059 A 
ATOM     64  C   UNL A   1      45.080  21.686  25.121  1.00  0.00     0.059 A 
ATOM     65  F   UNL A   1      45.081  23.804  25.953  1.00  0.00    -0.206 F 
ATOM     66  C   UNL A   1      44.489  20.447  24.997  1.00  0.00     0.060 A 
BRANCH  66  67
ATOM     67  S   UNL A   1      44.923  19.353  23.639  1.00  0.00     0.124 S 
ATOM     68  O   UNL A   1      44.140  18.161  23.947  1.00  0.00    -0.237 OA
ATOM     69  O   UNL A   1      44.485  20.125  22.481  1.00  0.00    -0.237 OA
ATOM     70  O   UNL A   1      46.369  19.198  23.773  1.00  0.00    -0.744 OA
ENDBRANCH  66  67
ENDBRANCH  45  59
BRANCH  46  71
ATOM     71  C   UNL A   1      41.388  30.304  33.567  1.00  0.00     0.058 A 
ATOM     72  C   UNL A   1      41.485  31.727  33.548  1.00  0.00     0.135 A 
ATOM     73  C   UNL A   1      40.094  29.774  33.597  1.00  0.00     0.135 A 
ATOM     74  F   UNL A   1      42.697  32.309  33.534  1.00  0.00    -0.206 F 
ATOM     75  C   UNL A   1      40.380  32.554  33.340  1.00  0.00     0.059 A 
ATOM     76  C   UNL A   1      38.962  30.601  33.462  1.00  0.00     0.059 A 
ATOM     77  F   UNL A   1      39.914  28.446  33.579  1.00  0.00    -0.206 F 
ATOM     78  C   UNL A   1      39.118  31.979  33.265  1.00  0.00     0.060 A 
BRANCH  78  79
ATOM     79  S   UNL A   1      37.710  33.055  32.870  1.00  0.00     0.124 S 
ATOM     80  O   UNL A   1      37.791  34.057  33.926  1.00  0.00    -0.237 OA
ATOM     81  O   UNL A   1      38.028  33.542  31.534  1.00  0.00    -0.237 OA
ATOM     82  O   UNL A   1      36.564  32.153  32.961  1.00  0.00    -0.744 OA
ENDBRANCH  78  79
ENDBRANCH  46  71
BRANCH  58  83
ATOM     83  C   UNL A   1      45.044  23.945  33.515  1.00  0.00     0.058 A 
ATOM     84  C   UNL A   1      44.139  22.938  33.904  1.00  0.00     0.135 A 
ATOM     85  C   UNL A   1      46.379  23.718  33.955  1.00  0.00     0.135 A 
ATOM     86  F   UNL A   1      42.897  22.869  33.411  1.00  0.00    -0.206 F 
ATOM     87  C   UNL A   1      44.479  21.914  34.793  1.00  0.00     0.059 A 
ATOM     88  C   UNL A   1      46.762  22.643  34.753  1.00  0.00     0.059 A 
ATOM     89  F   UNL A   1      47.389  24.535  33.627  1.00  0.00    -0.206 F 
ATOM     90  C   UNL A   1      45.791  21.784  35.227  1.00  0.00     0.060 A 
BRANCH  90  91
ATOM     91  S   UNL A   1      46.214  20.495  36.407  1.00  0.00     0.124 S 
ATOM     92  O   UNL A   1      45.539  19.340  35.822  1.00  0.00    -0.237 OA
ATOM     93  O   UNL A   1      47.672  20.474  36.342  1.00  0.00    -0.237 OA
ATOM     94  O   UNL A   1      45.655  20.982  37.664  1.00  0.00    -0.744 OA
ENDBRANCH  90  91
ENDBRANCH  58  83
ENDBRANCH  32  33
ENDBRANCH  25  27
ENDBRANCH  24  25
ENDBRANCH   1  24
TORSDOF 18
ENDMDL
