MODEL 1
REMARK VINA RESULT:     -10.2      0.000      0.000
REMARK SMILES O=C(CCCC(=O)OCCOC(=O)c1ccc(-c2c3nc(c(-c4c(F)cc(S(=O)(=O)[O-])cc4F)c4ccc([nH]4)c(-c4c(F)cc(S(=O)(=O)[O-])cc4F)c4nc(c(-c5c(F)cc(S(=O)(=O)[O-])cc5F)c5ccc2[nH]5)C=C4)C=C3)cc1)Nc1ccc([N+](=O)[O-])cc1
REMARK SMILES IDX 9 1 8 2 6 3 7 4 5 5 4 6 3 7 2 8 1 9 80 10 81 12 82 13 89 14
REMARK SMILES IDX 83 15 88 16 84 17 85 18 86 19 87 20 10 21 11 22 12 23 13 24
REMARK SMILES IDX 14 25 15 26 79 27 16 28 78 29 17 30 18 31 19 32 72 33 20 34
REMARK SMILES IDX 77 35 71 36 73 37 21 38 76 39 70 40 69 41 22 43 56 44 35 45
REMARK SMILES IDX 55 46 36 47 39 48 54 49 74 50 37 51 38 52 53 54 75 55 40 56
REMARK SMILES IDX 23 57 24 58 33 59 25 60 26 61 32 62 34 63 27 64 28 65 29 66
REMARK SMILES IDX 30 67 31 68 57 69 58 70 67 71 59 72 60 73 66 74 68 75 61 76
REMARK SMILES IDX 62 77 63 78 64 79 65 80 41 81 42 82 51 83 43 84 44 85 50 86
REMARK SMILES IDX 52 87 45 88 46 89 47 90 48 91 49 92
REMARK H PARENT 80 11 73 42 39 53
REMARK Flexibility Score: inf
ROOT
ATOM      1  C   UNL A   1      44.013  22.953  24.678  1.00  0.00     0.274 C 
ENDROOT
BRANCH   1   2
ATOM      2  O   UNL A   1      42.775  22.369  25.135  1.00  0.00    -0.462 OA
BRANCH   2   3
ATOM      3  C   UNL A   1      42.835  21.176  25.768  1.00  0.00     0.305 C 
ATOM      4  O   UNL A   1      43.323  20.161  25.290  1.00  0.00    -0.252 OA
BRANCH   3   5
ATOM      5  C   UNL A   1      42.143  21.182  27.123  1.00  0.00     0.123 C 
BRANCH   5   6
ATOM      6  C   UNL A   1      40.645  21.491  27.180  1.00  0.00     0.022 C 
BRANCH   6   7
ATOM      7  C   UNL A   1      40.184  22.900  27.577  1.00  0.00     0.101 C 
BRANCH   7   8
ATOM      8  C   UNL A   1      39.157  23.556  26.665  1.00  0.00     0.224 C 
ATOM      9  O   UNL A   1      39.189  24.762  26.444  1.00  0.00    -0.275 OA
ATOM     10  N   UNL A   1      38.233  22.669  26.149  1.00  0.00    -0.326 N 
ATOM     11  H   UNL A   1      38.372  21.716  26.354  1.00  0.00     0.169 HD
BRANCH  10  12
ATOM     12  C   UNL A   1      37.116  22.987  25.363  1.00  0.00     0.041 A 
ATOM     13  C   UNL A   1      36.094  23.731  25.970  1.00  0.00     0.033 A 
ATOM     14  C   UNL A   1      36.987  22.582  24.034  1.00  0.00     0.033 A 
ATOM     15  C   UNL A   1      34.963  24.104  25.241  1.00  0.00     0.088 A 
ATOM     16  C   UNL A   1      35.838  22.907  23.311  1.00  0.00     0.088 A 
ATOM     17  C   UNL A   1      34.836  23.679  23.914  1.00  0.00     0.269 A 
BRANCH  17  18
ATOM     18  N   UNL A   1      33.637  24.037  23.150  1.00  0.00     0.062 N 
ATOM     19  O   UNL A   1      32.556  24.071  23.754  1.00  0.00    -0.258 OA
ATOM     20  O   UNL A   1      33.776  24.279  21.942  1.00  0.00    -0.258 OA
ENDBRANCH  17  18
ENDBRANCH  10  12
ENDBRANCH   7   8
ENDBRANCH   6   7
ENDBRANCH   5   6
ENDBRANCH   3   5
ENDBRANCH   2   3
ENDBRANCH   1   2
BRANCH   1  21
ATOM     21  C   UNL A   1      44.291  24.276  25.396  1.00  0.00     0.275 C 
BRANCH  21  22
ATOM     22  O   UNL A   1      43.193  24.640  26.251  1.00  0.00    -0.458 OA
BRANCH  22  23
ATOM     23  C   UNL A   1      42.656  25.857  26.000  1.00  0.00     0.338 C 
ATOM     24  O   UNL A   1      42.197  26.257  24.945  1.00  0.00    -0.246 OA
BRANCH  23  25
ATOM     25  C   UNL A   1      42.534  26.604  27.258  1.00  0.00     0.060 A 
ATOM     26  C   UNL A   1      41.696  26.080  28.243  1.00  0.00     0.016 A 
ATOM     27  C   UNL A   1      43.155  27.839  27.438  1.00  0.00     0.016 A 
ATOM     28  C   UNL A   1      41.444  26.794  29.404  1.00  0.00     0.010 A 
ATOM     29  C   UNL A   1      42.917  28.552  28.617  1.00  0.00     0.010 A 
ATOM     30  C   UNL A   1      42.047  28.040  29.599  1.00  0.00    -0.014 A 
BRANCH  30  31
ATOM     31  C   UNL A   1      41.700  28.827  30.804  1.00  0.00     0.031 A 
ATOM     32  C   UNL A   1      40.509  29.741  30.769  1.00  0.00     0.074 A 
ATOM     33  C   UNL A   1      42.417  28.674  31.933  1.00  0.00     0.049 A 
ATOM     34  N   UNL A   1      40.103  30.600  31.665  1.00  0.00    -0.248 NA
ATOM     35  C   UNL A   1      39.662  29.679  29.566  1.00  0.00     0.031 C 
ATOM     36  C   UNL A   1      43.547  27.758  32.100  1.00  0.00     0.029 A 
ATOM     37  N   UNL A   1      42.298  29.282  33.155  1.00  0.00    -0.354 N 
ATOM     38  C   UNL A   1      38.973  31.202  31.127  1.00  0.00     0.074 A 
ATOM     39  C   UNL A   1      38.759  30.616  29.822  1.00  0.00     0.031 C 
ATOM     40  C   UNL A   1      44.018  27.865  33.354  1.00  0.00     0.029 A 
ATOM     41  C   UNL A   1      43.261  28.895  34.058  1.00  0.00     0.049 A 
ATOM     42  H   UNL A   1      41.591  29.934  33.368  1.00  0.00     0.167 HD
ATOM     43  C   UNL A   1      38.185  32.154  31.678  1.00  0.00     0.037 A 
ATOM     44  C   UNL A   1      43.525  29.350  35.297  1.00  0.00     0.037 A 
ATOM     45  C   UNL A   1      38.396  32.711  32.989  1.00  0.00     0.049 A 
ATOM     46  C   UNL A   1      42.665  30.448  35.865  1.00  0.00     0.074 A 
ATOM     47  C   UNL A   1      37.680  33.706  33.629  1.00  0.00     0.029 A 
ATOM     48  N   UNL A   1      39.393  32.306  33.866  1.00  0.00    -0.354 N 
ATOM     49  N   UNL A   1      41.637  31.053  35.320  1.00  0.00    -0.248 NA
ATOM     50  C   UNL A   1      43.009  30.934  37.208  1.00  0.00     0.031 C 
ATOM     51  C   UNL A   1      38.257  33.919  34.886  1.00  0.00     0.029 A 
ATOM     52  C   UNL A   1      39.309  33.031  35.042  1.00  0.00     0.049 A 
ATOM     53  H   UNL A   1      40.059  31.606  33.679  1.00  0.00     0.167 HD
ATOM     54  C   UNL A   1      41.197  31.975  36.263  1.00  0.00     0.074 A 
ATOM     55  C   UNL A   1      42.062  31.839  37.417  1.00  0.00     0.031 C 
ATOM     56  C   UNL A   1      40.173  32.860  36.182  1.00  0.00     0.037 A 
BRANCH  43  57
ATOM     57  C   UNL A   1      37.038  32.674  30.861  1.00  0.00     0.058 A 
ATOM     58  C   UNL A   1      35.741  32.154  30.996  1.00  0.00     0.135 A 
ATOM     59  C   UNL A   1      37.228  33.737  29.963  1.00  0.00     0.135 A 
ATOM     60  F   UNL A   1      35.510  31.121  31.823  1.00  0.00    -0.206 F 
ATOM     61  C   UNL A   1      34.674  32.664  30.263  1.00  0.00     0.059 A 
ATOM     62  C   UNL A   1      36.172  34.277  29.235  1.00  0.00     0.059 A 
ATOM     63  F   UNL A   1      38.450  34.265  29.791  1.00  0.00    -0.206 F 
ATOM     64  C   UNL A   1      34.899  33.728  29.386  1.00  0.00     0.060 A 
BRANCH  64  65
ATOM     65  S   UNL A   1      33.501  34.395  28.459  1.00  0.00     0.124 S 
ATOM     66  O   UNL A   1      34.143  35.456  27.688  1.00  0.00    -0.237 OA
ATOM     67  O   UNL A   1      33.054  33.237  27.691  1.00  0.00    -0.237 OA
ATOM     68  O   UNL A   1      32.585  34.844  29.502  1.00  0.00    -0.744 OA
ENDBRANCH  64  65
ENDBRANCH  43  57
BRANCH  44  69
ATOM     69  C   UNL A   1      44.676  28.810  36.067  1.00  0.00     0.058 A 
ATOM     70  C   UNL A   1      45.964  29.345  35.921  1.00  0.00     0.135 A 
ATOM     71  C   UNL A   1      44.513  27.730  36.950  1.00  0.00     0.135 A 
ATOM     72  F   UNL A   1      46.172  30.372  35.085  1.00  0.00    -0.206 F 
ATOM     73  C   UNL A   1      47.055  28.811  36.600  1.00  0.00     0.059 A 
ATOM     74  C   UNL A   1      45.582  27.197  37.660  1.00  0.00     0.059 A 
ATOM     75  F   UNL A   1      43.297  27.191  37.137  1.00  0.00    -0.206 F 
ATOM     76  C   UNL A   1      46.854  27.733  37.465  1.00  0.00     0.060 A 
BRANCH  76  77
ATOM     77  S   UNL A   1      48.269  27.052  38.358  1.00  0.00     0.124 S 
ATOM     78  O   UNL A   1      49.225  26.849  37.276  1.00  0.00    -0.237 OA
ATOM     79  O   UNL A   1      48.587  28.122  39.299  1.00  0.00    -0.237 OA
ATOM     80  O   UNL A   1      47.728  25.838  38.961  1.00  0.00    -0.744 OA
ENDBRANCH  76  77
ENDBRANCH  44  69
BRANCH  56  81
ATOM     81  C   UNL A   1      39.908  33.713  37.388  1.00  0.00     0.058 A 
ATOM     82  C   UNL A   1      40.540  34.953  37.563  1.00  0.00     0.135 A 
ATOM     83  C   UNL A   1      38.976  33.304  38.354  1.00  0.00     0.135 A 
ATOM     84  F   UNL A   1      41.444  35.383  36.669  1.00  0.00    -0.206 F 
ATOM     85  C   UNL A   1      40.272  35.751  38.670  1.00  0.00     0.059 A 
ATOM     86  C   UNL A   1      38.676  34.097  39.456  1.00  0.00     0.059 A 
ATOM     87  F   UNL A   1      38.340  32.129  38.224  1.00  0.00    -0.206 F 
ATOM     88  C   UNL A   1      39.338  35.314  39.611  1.00  0.00     0.060 A 
BRANCH  88  89
ATOM     89  S   UNL A   1      38.970  36.372  41.027  1.00  0.00     0.124 S 
ATOM     90  O   UNL A   1      40.248  36.372  41.731  1.00  0.00    -0.237 OA
ATOM     91  O   UNL A   1      38.599  37.632  40.389  1.00  0.00    -0.237 OA
ATOM     92  O   UNL A   1      37.880  35.672  41.698  1.00  0.00    -0.744 OA
ENDBRANCH  88  89
ENDBRANCH  56  81
ENDBRANCH  30  31
ENDBRANCH  23  25
ENDBRANCH  22  23
ENDBRANCH  21  22
ENDBRANCH   1  21
TORSDOF 19
ENDMDL
MODEL 2
REMARK VINA RESULT:     -10.0      2.732      9.288
REMARK SMILES O=C(CCCC(=O)OCCOC(=O)c1ccc(-c2c3nc(c(-c4c(F)cc(S(=O)(=O)[O-])cc4F)c4ccc([nH]4)c(-c4c(F)cc(S(=O)(=O)[O-])cc4F)c4nc(c(-c5c(F)cc(S(=O)(=O)[O-])cc5F)c5ccc2[nH]5)C=C4)C=C3)cc1)Nc1ccc([N+](=O)[O-])cc1
REMARK SMILES IDX 9 1 8 2 6 3 7 4 5 5 4 6 3 7 2 8 1 9 80 10 81 12 82 13 89 14
REMARK SMILES IDX 83 15 88 16 84 17 85 18 86 19 87 20 10 21 11 22 12 23 13 24
REMARK SMILES IDX 14 25 15 26 79 27 16 28 78 29 17 30 18 31 19 32 72 33 20 34
REMARK SMILES IDX 77 35 71 36 73 37 21 38 76 39 70 40 69 41 22 43 56 44 35 45
REMARK SMILES IDX 55 46 36 47 39 48 54 49 74 50 37 51 38 52 53 54 75 55 40 56
REMARK SMILES IDX 23 57 24 58 33 59 25 60 26 61 32 62 34 63 27 64 28 65 29 66
REMARK SMILES IDX 30 67 31 68 57 69 58 70 67 71 59 72 60 73 66 74 68 75 61 76
REMARK SMILES IDX 62 77 63 78 64 79 65 80 41 81 42 82 51 83 43 84 44 85 50 86
REMARK SMILES IDX 52 87 45 88 46 89 47 90 48 91 49 92
REMARK H PARENT 80 11 73 42 39 53
REMARK Flexibility Score: inf
ROOT
ATOM      1  C   UNL A   1      37.784  22.530  25.576  1.00  0.00     0.274 C 
ENDROOT
BRANCH   1   2
ATOM      2  O   UNL A   1      36.911  23.533  26.138  1.00  0.00    -0.462 OA
BRANCH   2   3
ATOM      3  C   UNL A   1      35.577  23.361  25.996  1.00  0.00     0.305 C 
ATOM      4  O   UNL A   1      34.944  22.426  26.469  1.00  0.00    -0.252 OA
BRANCH   3   5
ATOM      5  C   UNL A   1      34.932  24.402  25.096  1.00  0.00     0.123 C 
BRANCH   5   6
ATOM      6  C   UNL A   1      33.979  25.425  25.722  1.00  0.00     0.022 C 
BRANCH   6   7
ATOM      7  C   UNL A   1      32.550  24.996  26.083  1.00  0.00     0.101 C 
BRANCH   7   8
ATOM      8  C   UNL A   1      31.458  26.031  25.855  1.00  0.00     0.224 C 
ATOM      9  O   UNL A   1      30.551  26.181  26.668  1.00  0.00    -0.275 OA
ATOM     10  N   UNL A   1      31.607  26.740  24.679  1.00  0.00    -0.326 N 
ATOM     11  H   UNL A   1      32.423  26.564  24.158  1.00  0.00     0.169 HD
BRANCH  10  12
ATOM     12  C   UNL A   1      30.714  27.683  24.152  1.00  0.00     0.041 A 
ATOM     13  C   UNL A   1      30.993  29.036  24.392  1.00  0.00     0.033 A 
ATOM     14  C   UNL A   1      29.576  27.325  23.427  1.00  0.00     0.033 A 
ATOM     15  C   UNL A   1      30.160  30.032  23.878  1.00  0.00     0.088 A 
ATOM     16  C   UNL A   1      28.710  28.311  22.951  1.00  0.00     0.088 A 
ATOM     17  C   UNL A   1      29.013  29.662  23.167  1.00  0.00     0.269 A 
BRANCH  17  18
ATOM     18  N   UNL A   1      28.114  30.699  22.650  1.00  0.00     0.062 N 
ATOM     19  O   UNL A   1      27.840  30.674  21.442  1.00  0.00    -0.258 OA
ATOM     20  O   UNL A   1      27.688  31.543  23.452  1.00  0.00    -0.258 OA
ENDBRANCH  17  18
ENDBRANCH  10  12
ENDBRANCH   7   8
ENDBRANCH   6   7
ENDBRANCH   5   6
ENDBRANCH   3   5
ENDBRANCH   2   3
ENDBRANCH   1   2
BRANCH   1  21
ATOM     21  C   UNL A   1      39.187  22.628  26.180  1.00  0.00     0.275 C 
BRANCH  21  22
ATOM     22  O   UNL A   1      39.278  23.729  27.101  1.00  0.00    -0.458 OA
BRANCH  22  23
ATOM     23  C   UNL A   1      40.261  24.619  26.827  1.00  0.00     0.338 C 
ATOM     24  O   UNL A   1      40.878  24.739  25.783  1.00  0.00    -0.246 OA
BRANCH  23  25
ATOM     25  C   UNL A   1      40.373  25.575  27.936  1.00  0.00     0.060 A 
ATOM     26  C   UNL A   1      39.296  25.673  28.817  1.00  0.00     0.016 A 
ATOM     27  C   UNL A   1      41.471  26.425  28.059  1.00  0.00     0.016 A 
ATOM     28  C   UNL A   1      39.288  26.638  29.813  1.00  0.00     0.010 A 
ATOM     29  C   UNL A   1      41.473  27.387  29.075  1.00  0.00     0.010 A 
ATOM     30  C   UNL A   1      40.373  27.508  29.946  1.00  0.00    -0.014 A 
BRANCH  30  31
ATOM     31  C   UNL A   1      40.311  28.587  30.958  1.00  0.00     0.031 A 
ATOM     32  C   UNL A   1      41.253  28.556  32.127  1.00  0.00     0.074 A 
ATOM     33  C   UNL A   1      39.453  29.612  30.793  1.00  0.00     0.049 A 
ATOM     34  N   UNL A   1      41.287  29.329  33.179  1.00  0.00    -0.248 NA
ATOM     35  C   UNL A   1      42.296  27.516  32.109  1.00  0.00     0.031 C 
ATOM     36  C   UNL A   1      38.546  29.780  29.656  1.00  0.00     0.029 A 
ATOM     37  N   UNL A   1      39.209  30.707  31.579  1.00  0.00    -0.354 N 
ATOM     38  C   UNL A   1      42.332  28.857  33.962  1.00  0.00     0.074 A 
ATOM     39  C   UNL A   1      42.905  27.723  33.269  1.00  0.00     0.031 C 
ATOM     40  C   UNL A   1      37.843  30.914  29.819  1.00  0.00     0.029 A 
ATOM     41  C   UNL A   1      38.210  31.519  31.095  1.00  0.00     0.049 A 
ATOM     42  H   UNL A   1      39.702  30.896  32.410  1.00  0.00     0.167 HD
ATOM     43  C   UNL A   1      42.774  29.332  35.150  1.00  0.00     0.037 A 
ATOM     44  C   UNL A   1      37.631  32.605  31.641  1.00  0.00     0.037 A 
ATOM     45  C   UNL A   1      42.209  30.476  35.816  1.00  0.00     0.049 A 
ATOM     46  C   UNL A   1      38.105  33.080  32.989  1.00  0.00     0.074 A 
ATOM     47  C   UNL A   1      42.556  31.020  37.040  1.00  0.00     0.029 A 
ATOM     48  N   UNL A   1      41.186  31.261  35.304  1.00  0.00    -0.354 N 
ATOM     49  N   UNL A   1      39.054  32.586  33.748  1.00  0.00    -0.248 NA
ATOM     50  C   UNL A   1      37.424  34.250  33.558  1.00  0.00     0.031 C 
ATOM     51  C   UNL A   1      41.727  32.122  37.278  1.00  0.00     0.029 A 
ATOM     52  C   UNL A   1      40.891  32.286  36.186  1.00  0.00     0.049 A 
ATOM     53  H   UNL A   1      40.738  31.113  34.440  1.00  0.00     0.167 HD
ATOM     54  C   UNL A   1      39.097  33.399  34.875  1.00  0.00     0.074 A 
ATOM     55  C   UNL A   1      38.090  34.423  34.692  1.00  0.00     0.031 C 
ATOM     56  C   UNL A   1      39.895  33.304  35.968  1.00  0.00     0.037 A 
BRANCH  43  57
ATOM     57  C   UNL A   1      43.905  28.605  35.819  1.00  0.00     0.058 A 
ATOM     58  C   UNL A   1      45.242  28.976  35.616  1.00  0.00     0.135 A 
ATOM     59  C   UNL A   1      43.644  27.552  36.710  1.00  0.00     0.135 A 
ATOM     60  F   UNL A   1      45.547  29.961  34.755  1.00  0.00    -0.206 F 
ATOM     61  C   UNL A   1      46.284  28.324  36.267  1.00  0.00     0.059 A 
ATOM     62  C   UNL A   1      44.669  26.898  37.388  1.00  0.00     0.059 A 
ATOM     63  F   UNL A   1      42.383  27.152  36.933  1.00  0.00    -0.206 F 
ATOM     64  C   UNL A   1      45.987  27.286  37.153  1.00  0.00     0.060 A 
BRANCH  64  65
ATOM     65  S   UNL A   1      47.347  26.463  38.009  1.00  0.00     0.124 S 
ATOM     66  O   UNL A   1      48.502  26.963  37.269  1.00  0.00    -0.237 OA
ATOM     67  O   UNL A   1      47.206  26.962  39.373  1.00  0.00    -0.237 OA
ATOM     68  O   UNL A   1      47.053  25.045  37.829  1.00  0.00    -0.744 OA
ENDBRANCH  64  65
ENDBRANCH  43  57
BRANCH  44  69
ATOM     69  C   UNL A   1      36.510  33.289  30.945  1.00  0.00     0.058 A 
ATOM     70  C   UNL A   1      36.740  34.126  29.842  1.00  0.00     0.135 A 
ATOM     71  C   UNL A   1      35.185  33.135  31.382  1.00  0.00     0.135 A 
ATOM     72  F   UNL A   1      37.989  34.310  29.390  1.00  0.00    -0.206 F 
ATOM     73  C   UNL A   1      35.701  34.808  29.217  1.00  0.00     0.059 A 
ATOM     74  C   UNL A   1      34.127  33.785  30.758  1.00  0.00     0.059 A 
ATOM     75  F   UNL A   1      34.909  32.333  32.424  1.00  0.00    -0.206 F 
ATOM     76  C   UNL A   1      34.397  34.635  29.687  1.00  0.00     0.060 A 
BRANCH  76  77
ATOM     77  S   UNL A   1      33.048  35.509  28.863  1.00  0.00     0.124 S 
ATOM     78  O   UNL A   1      32.425  34.433  28.102  1.00  0.00    -0.237 OA
ATOM     79  O   UNL A   1      32.277  36.025  29.990  1.00  0.00    -0.237 OA
ATOM     80  O   UNL A   1      33.743  36.522  28.074  1.00  0.00    -0.744 OA
ENDBRANCH  76  77
ENDBRANCH  44  69
BRANCH  56  81
ATOM     81  C   UNL A   1      39.739  34.360  37.023  1.00  0.00     0.058 A 
ATOM     82  C   UNL A   1      38.920  34.161  38.145  1.00  0.00     0.135 A 
ATOM     83  C   UNL A   1      40.454  35.564  36.931  1.00  0.00     0.135 A 
ATOM     84  F   UNL A   1      38.212  33.029  38.273  1.00  0.00    -0.206 F 
ATOM     85  C   UNL A   1      38.799  35.133  39.132  1.00  0.00     0.059 A 
ATOM     86  C   UNL A   1      40.365  36.540  37.918  1.00  0.00     0.059 A 
ATOM     87  F   UNL A   1      41.257  35.794  35.880  1.00  0.00    -0.206 F 
ATOM     88  C   UNL A   1      39.526  36.319  39.009  1.00  0.00     0.060 A 
BRANCH  88  89
ATOM     89  S   UNL A   1      39.389  37.560  40.313  1.00  0.00     0.124 S 
ATOM     90  O   UNL A   1      39.071  36.734  41.472  1.00  0.00    -0.237 OA
ATOM     91  O   UNL A   1      40.718  38.165  40.312  1.00  0.00    -0.237 OA
ATOM     92  O   UNL A   1      38.314  38.427  39.842  1.00  0.00    -0.744 OA
ENDBRANCH  88  89
ENDBRANCH  56  81
ENDBRANCH  30  31
ENDBRANCH  23  25
ENDBRANCH  22  23
ENDBRANCH  21  22
ENDBRANCH   1  21
TORSDOF 19
ENDMDL
MODEL 3
REMARK VINA RESULT:     -10.0      4.900     10.552
REMARK SMILES O=C(CCCC(=O)OCCOC(=O)c1ccc(-c2c3nc(c(-c4c(F)cc(S(=O)(=O)[O-])cc4F)c4ccc([nH]4)c(-c4c(F)cc(S(=O)(=O)[O-])cc4F)c4nc(c(-c5c(F)cc(S(=O)(=O)[O-])cc5F)c5ccc2[nH]5)C=C4)C=C3)cc1)Nc1ccc([N+](=O)[O-])cc1
REMARK SMILES IDX 9 1 8 2 6 3 7 4 5 5 4 6 3 7 2 8 1 9 80 10 81 12 82 13 89 14
REMARK SMILES IDX 83 15 88 16 84 17 85 18 86 19 87 20 10 21 11 22 12 23 13 24
REMARK SMILES IDX 14 25 15 26 79 27 16 28 78 29 17 30 18 31 19 32 72 33 20 34
REMARK SMILES IDX 77 35 71 36 73 37 21 38 76 39 70 40 69 41 22 43 56 44 35 45
REMARK SMILES IDX 55 46 36 47 39 48 54 49 74 50 37 51 38 52 53 54 75 55 40 56
REMARK SMILES IDX 23 57 24 58 33 59 25 60 26 61 32 62 34 63 27 64 28 65 29 66
REMARK SMILES IDX 30 67 31 68 57 69 58 70 67 71 59 72 60 73 66 74 68 75 61 76
REMARK SMILES IDX 62 77 63 78 64 79 65 80 41 81 42 82 51 83 43 84 44 85 50 86
REMARK SMILES IDX 52 87 45 88 46 89 47 90 48 91 49 92
REMARK H PARENT 80 11 73 42 39 53
REMARK Flexibility Score: inf
ROOT
ATOM      1  C   UNL A   1      32.617  27.221  26.450  1.00  0.00     0.274 C 
ENDROOT
BRANCH   1   2
ATOM      2  O   UNL A   1      32.088  27.180  25.107  1.00  0.00    -0.462 OA
BRANCH   2   3
ATOM      3  C   UNL A   1      31.232  28.158  24.735  1.00  0.00     0.305 C 
ATOM      4  O   UNL A   1      31.096  29.222  25.324  1.00  0.00    -0.252 OA
BRANCH   3   5
ATOM      5  C   UNL A   1      30.365  27.775  23.546  1.00  0.00     0.123 C 
BRANCH   5   6
ATOM      6  C   UNL A   1      31.050  27.396  22.229  1.00  0.00     0.022 C 
BRANCH   6   7
ATOM      7  C   UNL A   1      31.470  25.939  21.993  1.00  0.00     0.101 C 
BRANCH   7   8
ATOM      8  C   UNL A   1      32.909  25.587  22.339  1.00  0.00     0.224 C 
ATOM      9  O   UNL A   1      33.838  25.964  21.632  1.00  0.00    -0.275 OA
ATOM     10  N   UNL A   1      33.030  24.828  23.487  1.00  0.00    -0.326 N 
ATOM     11  H   UNL A   1      32.203  24.660  23.994  1.00  0.00     0.169 HD
BRANCH  10  12
ATOM     12  C   UNL A   1      34.209  24.272  24.001  1.00  0.00     0.041 A 
ATOM     13  C   UNL A   1      34.720  23.137  23.355  1.00  0.00     0.033 A 
ATOM     14  C   UNL A   1      34.865  24.791  25.118  1.00  0.00     0.033 A 
ATOM     15  C   UNL A   1      35.903  22.544  23.799  1.00  0.00     0.088 A 
ATOM     16  C   UNL A   1      36.022  24.175  25.600  1.00  0.00     0.088 A 
ATOM     17  C   UNL A   1      36.544  23.061  24.930  1.00  0.00     0.269 A 
BRANCH  17  18
ATOM     18  N   UNL A   1      37.770  22.426  25.424  1.00  0.00     0.062 N 
ATOM     19  O   UNL A   1      38.082  21.327  24.946  1.00  0.00    -0.258 OA
ATOM     20  O   UNL A   1      38.417  23.024  26.295  1.00  0.00    -0.258 OA
ENDBRANCH  17  18
ENDBRANCH  10  12
ENDBRANCH   7   8
ENDBRANCH   6   7
ENDBRANCH   5   6
ENDBRANCH   3   5
ENDBRANCH   2   3
ENDBRANCH   1   2
BRANCH   1  21
ATOM     21  C   UNL A   1      33.843  28.134  26.524  1.00  0.00     0.275 C 
BRANCH  21  22
ATOM     22  O   UNL A   1      33.915  28.802  27.796  1.00  0.00    -0.458 OA
BRANCH  22  23
ATOM     23  C   UNL A   1      34.509  30.017  27.767  1.00  0.00     0.338 C 
ATOM     24  O   UNL A   1      33.975  31.096  27.580  1.00  0.00    -0.246 OA
BRANCH  23  25
ATOM     25  C   UNL A   1      35.913  29.882  28.178  1.00  0.00     0.060 A 
ATOM     26  C   UNL A   1      36.893  30.079  27.205  1.00  0.00     0.016 A 
ATOM     27  C   UNL A   1      36.261  29.480  29.466  1.00  0.00     0.016 A 
ATOM     28  C   UNL A   1      38.229  29.851  27.498  1.00  0.00     0.010 A 
ATOM     29  C   UNL A   1      37.610  29.266  29.768  1.00  0.00     0.010 A 
ATOM     30  C   UNL A   1      38.599  29.435  28.780  1.00  0.00    -0.014 A 
BRANCH  30  31
ATOM     31  C   UNL A   1      40.018  29.112  29.051  1.00  0.00     0.031 A 
ATOM     32  C   UNL A   1      40.898  30.144  29.694  1.00  0.00     0.074 A 
ATOM     33  C   UNL A   1      40.491  27.883  28.771  1.00  0.00     0.049 A 
ATOM     34  N   UNL A   1      42.186  30.111  29.909  1.00  0.00    -0.248 NA
ATOM     35  C   UNL A   1      40.241  31.378  30.159  1.00  0.00     0.031 C 
ATOM     36  C   UNL A   1      39.704  26.780  28.214  1.00  0.00     0.029 A 
ATOM     37  N   UNL A   1      41.745  27.352  28.923  1.00  0.00    -0.354 N 
ATOM     38  C   UNL A   1      42.501  31.325  30.507  1.00  0.00     0.074 A 
ATOM     39  C   UNL A   1      41.271  32.078  30.615  1.00  0.00     0.031 C 
ATOM     40  C   UNL A   1      40.495  25.704  28.071  1.00  0.00     0.029 A 
ATOM     41  C   UNL A   1      41.853  26.058  28.472  1.00  0.00     0.049 A 
ATOM     42  H   UNL A   1      42.498  27.851  29.317  1.00  0.00     0.167 HD
ATOM     43  C   UNL A   1      43.709  31.765  30.929  1.00  0.00     0.037 A 
ATOM     44  C   UNL A   1      42.934  25.263  28.359  1.00  0.00     0.037 A 
ATOM     45  C   UNL A   1      44.921  30.994  30.837  1.00  0.00     0.049 A 
ATOM     46  C   UNL A   1      44.275  25.798  28.786  1.00  0.00     0.074 A 
ATOM     47  C   UNL A   1      46.205  31.358  31.202  1.00  0.00     0.029 A 
ATOM     48  N   UNL A   1      44.994  29.693  30.357  1.00  0.00    -0.354 N 
ATOM     49  N   UNL A   1      44.570  26.972  29.292  1.00  0.00    -0.248 NA
ATOM     50  C   UNL A   1      45.430  24.907  28.617  1.00  0.00     0.031 C 
ATOM     51  C   UNL A   1      47.059  30.285  30.921  1.00  0.00     0.029 A 
ATOM     52  C   UNL A   1      46.300  29.241  30.418  1.00  0.00     0.049 A 
ATOM     53  H   UNL A   1      44.229  29.171  30.025  1.00  0.00     0.167 HD
ATOM     54  C   UNL A   1      45.941  26.951  29.522  1.00  0.00     0.074 A 
ATOM     55  C   UNL A   1      46.414  25.645  29.112  1.00  0.00     0.031 C 
ATOM     56  C   UNL A   1      46.739  27.927  30.021  1.00  0.00     0.037 A 
BRANCH  43  57
ATOM     57  C   UNL A   1      43.788  33.149  31.507  1.00  0.00     0.058 A 
ATOM     58  C   UNL A   1      43.898  34.284  30.689  1.00  0.00     0.135 A 
ATOM     59  C   UNL A   1      43.708  33.345  32.895  1.00  0.00     0.135 A 
ATOM     60  F   UNL A   1      44.003  34.149  29.357  1.00  0.00    -0.206 F 
ATOM     61  C   UNL A   1      43.934  35.566  31.227  1.00  0.00     0.059 A 
ATOM     62  C   UNL A   1      43.721  34.620  33.454  1.00  0.00     0.059 A 
ATOM     63  F   UNL A   1      43.610  32.293  33.722  1.00  0.00    -0.206 F 
ATOM     64  C   UNL A   1      43.842  35.724  32.612  1.00  0.00     0.060 A 
BRANCH  64  65
ATOM     65  S   UNL A   1      43.867  37.395  33.296  1.00  0.00     0.124 S 
ATOM     66  O   UNL A   1      43.813  38.206  32.083  1.00  0.00    -0.237 OA
ATOM     67  O   UNL A   1      42.664  37.412  34.122  1.00  0.00    -0.237 OA
ATOM     68  O   UNL A   1      45.128  37.444  34.028  1.00  0.00    -0.744 OA
ENDBRANCH  64  65
ENDBRANCH  43  57
BRANCH  44  69
ATOM     69  C   UNL A   1      42.809  23.902  27.775  1.00  0.00     0.058 A 
ATOM     70  C   UNL A   1      42.914  23.691  26.392  1.00  0.00     0.135 A 
ATOM     71  C   UNL A   1      42.559  22.786  28.590  1.00  0.00     0.135 A 
ATOM     72  F   UNL A   1      43.145  24.727  25.572  1.00  0.00    -0.206 F 
ATOM     73  C   UNL A   1      42.747  22.428  25.834  1.00  0.00     0.059 A 
ATOM     74  C   UNL A   1      42.416  21.509  28.058  1.00  0.00     0.059 A 
ATOM     75  F   UNL A   1      42.465  22.932  29.921  1.00  0.00    -0.206 F 
ATOM     76  C   UNL A   1      42.493  21.343  26.677  1.00  0.00     0.060 A 
BRANCH  76  77
ATOM     77  S   UNL A   1      42.293  19.701  25.952  1.00  0.00     0.124 S 
ATOM     78  O   UNL A   1      42.579  18.841  27.093  1.00  0.00    -0.237 OA
ATOM     79  O   UNL A   1      40.905  19.725  25.501  1.00  0.00    -0.237 OA
ATOM     80  O   UNL A   1      43.289  19.686  24.884  1.00  0.00    -0.744 OA
ENDBRANCH  76  77
ENDBRANCH  44  69
BRANCH  56  81
ATOM     81  C   UNL A   1      48.194  27.600  30.193  1.00  0.00     0.058 A 
ATOM     82  C   UNL A   1      48.686  27.046  31.384  1.00  0.00     0.135 A 
ATOM     83  C   UNL A   1      49.094  27.799  29.135  1.00  0.00     0.135 A 
ATOM     84  F   UNL A   1      47.865  26.843  32.425  1.00  0.00    -0.206 F 
ATOM     85  C   UNL A   1      50.030  26.720  31.528  1.00  0.00     0.059 A 
ATOM     86  C   UNL A   1      50.438  27.460  29.250  1.00  0.00     0.059 A 
ATOM     87  F   UNL A   1      48.667  28.319  27.973  1.00  0.00    -0.206 F 
ATOM     88  C   UNL A   1      50.898  26.931  30.455  1.00  0.00     0.060 A 
BRANCH  88  89
ATOM     89  S   UNL A   1      52.635  26.474  30.640  1.00  0.00     0.124 S 
ATOM     90  O   UNL A   1      53.201  27.696  31.201  1.00  0.00    -0.237 OA
ATOM     91  O   UNL A   1      52.564  25.333  31.548  1.00  0.00    -0.237 OA
ATOM     92  O   UNL A   1      53.048  26.156  29.276  1.00  0.00    -0.744 OA
ENDBRANCH  88  89
ENDBRANCH  56  81
ENDBRANCH  30  31
ENDBRANCH  23  25
ENDBRANCH  22  23
ENDBRANCH  21  22
ENDBRANCH   1  21
TORSDOF 19
ENDMDL
