MODEL 1
REMARK VINA RESULT:     -10.8      0.000      0.000
REMARK SMILES CC[NH+](CC)[C@@H](C(=O)OCCOC(=O)c1ccc(-c2c3nc(c(-c4c(F)cc(S(=O)(=O)[O-])cc4F)c4ccc([nH]4)c(-c4c(F)cc(S(=O)(=O)[O-])cc4F)c4nc(c(-c5c(F)cc(S(=O)(=O)[O-])cc5F)c5ccc2[nH]5)C=C4)C=C3)cc1)c1ccc(C2CC2)cc1
REMARK SMILES IDX 11 1 10 2 9 3 7 4 8 5 6 6 3 7 2 9 1 10 4 11 5 12 81 13 82 14
REMARK SMILES IDX 89 15 83 16 88 17 84 18 85 19 86 20 87 21 12 22 13 23 14 24
REMARK SMILES IDX 15 25 16 26 80 27 17 28 79 29 18 30 19 31 20 32 73 33 21 34
REMARK SMILES IDX 78 35 72 36 74 37 22 38 77 39 71 40 70 41 23 43 57 44 36 45
REMARK SMILES IDX 56 46 37 47 40 48 55 49 75 50 38 51 39 52 54 54 76 55 41 56
REMARK SMILES IDX 24 57 25 58 34 59 26 60 27 61 33 62 35 63 28 64 29 65 30 66
REMARK SMILES IDX 31 67 32 68 58 69 59 70 68 71 60 72 61 73 67 74 69 75 62 76
REMARK SMILES IDX 63 77 64 78 65 79 66 80 42 81 43 82 52 83 44 84 45 85 51 86
REMARK SMILES IDX 53 87 46 88 47 89 48 90 49 91 50 92
REMARK H PARENT 3 8 74 42 40 53
REMARK Flexibility Score: inf
ROOT
ATOM      1  C   UNL A   1      39.196  22.372  25.753  1.00  0.00     0.275 C 
ENDROOT
BRANCH   1   2
ATOM      2  C   UNL A   1      37.674  22.333  25.777  1.00  0.00     0.274 C 
BRANCH   2   3
ATOM      3  O   UNL A   1      37.138  23.435  25.017  1.00  0.00    -0.457 OA
BRANCH   3   4
ATOM      4  C   UNL A   1      36.335  23.127  23.963  1.00  0.00     0.370 C 
ATOM      5  O   UNL A   1      36.764  22.965  22.823  1.00  0.00    -0.245 OA
BRANCH   4   6
ATOM      6  C   UNL A   1      34.823  23.108  24.302  1.00  0.00     0.326 C 
BRANCH   6   7
ATOM      7  N   UNL A   1      34.365  23.886  25.489  1.00  0.00    -0.320 N 
ATOM      8  H   UNL A   1      35.286  24.043  25.899  1.00  0.00     0.349 HD
BRANCH   7   9
ATOM      9  C   UNL A   1      33.937  25.273  25.315  1.00  0.00     0.259 C 
ATOM     10  C   UNL A   1      33.946  25.739  23.859  1.00  0.00     0.071 C 
ENDBRANCH   7   9
BRANCH   7  11
ATOM     11  C   UNL A   1      33.623  23.137  26.505  1.00  0.00     0.259 C 
ATOM     12  C   UNL A   1      34.400  22.575  27.695  1.00  0.00     0.071 C 
ENDBRANCH   7  11
ENDBRANCH   6   7
BRANCH   6  13
ATOM     13  C   UNL A   1      34.246  21.690  24.242  1.00  0.00     0.021 A 
ATOM     14  C   UNL A   1      32.945  21.457  23.777  1.00  0.00     0.011 A 
ATOM     15  C   UNL A   1      34.989  20.578  24.639  1.00  0.00     0.011 A 
ATOM     16  C   UNL A   1      32.417  20.156  23.732  1.00  0.00     0.004 A 
ATOM     17  C   UNL A   1      34.443  19.289  24.628  1.00  0.00     0.004 A 
ATOM     18  C   UNL A   1      33.148  19.037  24.164  1.00  0.00    -0.045 A 
BRANCH  18  19
ATOM     19  C   UNL A   1      32.527  17.652  24.125  1.00  0.00     0.019 C 
ATOM     20  C   UNL A   1      33.332  16.377  24.196  1.00  0.00     0.009 C 
ATOM     21  C   UNL A   1      32.528  16.813  25.383  1.00  0.00     0.009 C 
ENDBRANCH  18  19
ENDBRANCH   6  13
ENDBRANCH   4   6
ENDBRANCH   3   4
ENDBRANCH   2   3
ENDBRANCH   1   2
BRANCH   1  22
ATOM     22  O   UNL A   1      39.658  23.019  26.949  1.00  0.00    -0.458 OA
BRANCH  22  23
ATOM     23  C   UNL A   1      40.656  23.918  26.792  1.00  0.00     0.338 C 
ATOM     24  O   UNL A   1      41.669  23.776  26.130  1.00  0.00    -0.246 OA
BRANCH  23  25
ATOM     25  C   UNL A   1      40.333  25.165  27.521  1.00  0.00     0.060 A 
ATOM     26  C   UNL A   1      41.185  26.265  27.456  1.00  0.00     0.016 A 
ATOM     27  C   UNL A   1      39.252  25.179  28.404  1.00  0.00     0.016 A 
ATOM     28  C   UNL A   1      41.040  27.304  28.379  1.00  0.00     0.010 A 
ATOM     29  C   UNL A   1      39.055  26.274  29.257  1.00  0.00     0.010 A 
ATOM     30  C   UNL A   1      39.991  27.319  29.315  1.00  0.00    -0.014 A 
BRANCH  30  31
ATOM     31  C   UNL A   1      39.960  28.338  30.417  1.00  0.00     0.031 A 
ATOM     32  C   UNL A   1      41.057  28.371  31.466  1.00  0.00     0.074 A 
ATOM     33  C   UNL A   1      39.029  29.316  30.447  1.00  0.00     0.049 A 
ATOM     34  N   UNL A   1      41.125  29.071  32.572  1.00  0.00    -0.248 NA
ATOM     35  C   UNL A   1      42.229  27.507  31.245  1.00  0.00     0.031 C 
ATOM     36  C   UNL A   1      37.947  29.493  29.478  1.00  0.00     0.029 A 
ATOM     37  N   UNL A   1      38.880  30.387  31.298  1.00  0.00    -0.354 N 
ATOM     38  C   UNL A   1      42.288  28.661  33.219  1.00  0.00     0.074 A 
ATOM     39  C   UNL A   1      42.911  27.670  32.370  1.00  0.00     0.031 C 
ATOM     40  C   UNL A   1      37.328  30.658  29.716  1.00  0.00     0.029 A 
ATOM     41  C   UNL A   1      37.883  31.258  30.923  1.00  0.00     0.049 A 
ATOM     42  H   UNL A   1      39.436  30.517  32.101  1.00  0.00     0.167 HD
ATOM     43  C   UNL A   1      42.789  29.064  34.412  1.00  0.00     0.037 A 
ATOM     44  C   UNL A   1      37.442  32.397  31.492  1.00  0.00     0.037 A 
ATOM     45  C   UNL A   1      42.239  30.130  35.212  1.00  0.00     0.049 A 
ATOM     46  C   UNL A   1      38.027  32.851  32.799  1.00  0.00     0.074 A 
ATOM     47  C   UNL A   1      42.658  30.583  36.453  1.00  0.00     0.029 A 
ATOM     48  N   UNL A   1      41.187  30.944  34.827  1.00  0.00    -0.354 N 
ATOM     49  N   UNL A   1      39.020  32.334  33.482  1.00  0.00    -0.248 NA
ATOM     50  C   UNL A   1      37.397  34.016  33.438  1.00  0.00     0.031 C 
ATOM     51  C   UNL A   1      41.848  31.666  36.823  1.00  0.00     0.029 A 
ATOM     52  C   UNL A   1      40.945  31.901  35.800  1.00  0.00     0.049 A 
ATOM     53  H   UNL A   1      40.683  30.856  33.985  1.00  0.00     0.167 HD
ATOM     54  C   UNL A   1      39.114  33.094  34.643  1.00  0.00     0.074 A 
ATOM     55  C   UNL A   1      38.113  34.136  34.547  1.00  0.00     0.031 C 
ATOM     56  C   UNL A   1      39.938  32.924  35.706  1.00  0.00     0.037 A 
BRANCH  43  57
ATOM     57  C   UNL A   1      43.970  28.316  34.964  1.00  0.00     0.058 A 
ATOM     58  C   UNL A   1      45.292  28.723  34.738  1.00  0.00     0.135 A 
ATOM     59  C   UNL A   1      43.762  27.188  35.778  1.00  0.00     0.135 A 
ATOM     60  F   UNL A   1      45.548  29.781  33.952  1.00  0.00    -0.206 F 
ATOM     61  C   UNL A   1      46.369  28.030  35.285  1.00  0.00     0.059 A 
ATOM     62  C   UNL A   1      44.820  26.494  36.352  1.00  0.00     0.059 A 
ATOM     63  F   UNL A   1      42.515  26.758  36.027  1.00  0.00    -0.206 F 
ATOM     64  C   UNL A   1      46.123  26.913  36.089  1.00  0.00     0.060 A 
BRANCH  64  65
ATOM     65  S   UNL A   1      47.524  26.026  36.803  1.00  0.00     0.124 S 
ATOM     66  O   UNL A   1      48.629  26.527  35.993  1.00  0.00    -0.237 OA
ATOM     67  O   UNL A   1      47.505  26.471  38.193  1.00  0.00    -0.237 OA
ATOM     68  O   UNL A   1      47.178  24.622  36.595  1.00  0.00    -0.744 OA
ENDBRANCH  64  65
ENDBRANCH  43  57
BRANCH  44  69
ATOM     69  C   UNL A   1      36.351  33.176  30.846  1.00  0.00     0.058 A 
ATOM     70  C   UNL A   1      35.055  33.178  31.384  1.00  0.00     0.135 A 
ATOM     71  C   UNL A   1      36.583  33.942  29.693  1.00  0.00     0.135 A 
ATOM     72  F   UNL A   1      34.780  32.443  32.473  1.00  0.00    -0.206 F 
ATOM     73  C   UNL A   1      34.028  33.917  30.806  1.00  0.00     0.059 A 
ATOM     74  C   UNL A   1      35.580  34.712  29.115  1.00  0.00     0.059 A 
ATOM     75  F   UNL A   1      37.806  33.975  29.142  1.00  0.00    -0.206 F 
ATOM     76  C   UNL A   1      34.303  34.687  29.675  1.00  0.00     0.060 A 
BRANCH  76  77
ATOM     77  S   UNL A   1      32.998  35.717  28.969  1.00  0.00     0.124 S 
ATOM     78  O   UNL A   1      32.377  34.795  28.026  1.00  0.00    -0.237 OA
ATOM     79  O   UNL A   1      32.200  36.066  30.139  1.00  0.00    -0.237 OA
ATOM     80  O   UNL A   1      33.741  36.825  28.376  1.00  0.00    -0.744 OA
ENDBRANCH  76  77
ENDBRANCH  44  69
BRANCH  56  81
ATOM     81  C   UNL A   1      39.775  33.877  36.855  1.00  0.00     0.058 A 
ATOM     82  C   UNL A   1      39.052  33.510  38.003  1.00  0.00     0.135 A 
ATOM     83  C   UNL A   1      40.342  35.159  36.817  1.00  0.00     0.135 A 
ATOM     84  F   UNL A   1      38.487  32.296  38.085  1.00  0.00    -0.206 F 
ATOM     85  C   UNL A   1      38.868  34.395  39.059  1.00  0.00     0.059 A 
ATOM     86  C   UNL A   1      40.187  36.055  37.871  1.00  0.00     0.059 A 
ATOM     87  F   UNL A   1      41.051  35.554  35.747  1.00  0.00    -0.206 F 
ATOM     88  C   UNL A   1      39.432  35.670  38.979  1.00  0.00     0.060 A 
BRANCH  88  89
ATOM     89  S   UNL A   1      39.183  36.817  40.351  1.00  0.00     0.124 S 
ATOM     90  O   UNL A   1      38.150  36.132  41.122  1.00  0.00    -0.237 OA
ATOM     91  O   UNL A   1      40.505  36.867  40.968  1.00  0.00    -0.237 OA
ATOM     92  O   UNL A   1      38.762  38.049  39.691  1.00  0.00    -0.744 OA
ENDBRANCH  88  89
ENDBRANCH  56  81
ENDBRANCH  30  31
ENDBRANCH  23  25
ENDBRANCH  22  23
ENDBRANCH   1  22
TORSDOF 19
ENDMDL
MODEL 2
REMARK VINA RESULT:     -10.4      6.596     13.911
REMARK SMILES CC[NH+](CC)[C@@H](C(=O)OCCOC(=O)c1ccc(-c2c3nc(c(-c4c(F)cc(S(=O)(=O)[O-])cc4F)c4ccc([nH]4)c(-c4c(F)cc(S(=O)(=O)[O-])cc4F)c4nc(c(-c5c(F)cc(S(=O)(=O)[O-])cc5F)c5ccc2[nH]5)C=C4)C=C3)cc1)c1ccc(C2CC2)cc1
REMARK SMILES IDX 11 1 10 2 9 3 7 4 8 5 6 6 3 7 2 9 1 10 4 11 5 12 81 13 82 14
REMARK SMILES IDX 89 15 83 16 88 17 84 18 85 19 86 20 87 21 12 22 13 23 14 24
REMARK SMILES IDX 15 25 16 26 80 27 17 28 79 29 18 30 19 31 20 32 73 33 21 34
REMARK SMILES IDX 78 35 72 36 74 37 22 38 77 39 71 40 70 41 23 43 57 44 36 45
REMARK SMILES IDX 56 46 37 47 40 48 55 49 75 50 38 51 39 52 54 54 76 55 41 56
REMARK SMILES IDX 24 57 25 58 34 59 26 60 27 61 33 62 35 63 28 64 29 65 30 66
REMARK SMILES IDX 31 67 32 68 58 69 59 70 68 71 60 72 61 73 67 74 69 75 62 76
REMARK SMILES IDX 63 77 64 78 65 79 66 80 42 81 43 82 52 83 44 84 45 85 51 86
REMARK SMILES IDX 53 87 46 88 47 89 48 90 49 91 50 92
REMARK H PARENT 3 8 74 42 40 53
REMARK Flexibility Score: inf
ROOT
ATOM      1  C   UNL A   1      35.982  32.096  32.398  1.00  0.00     0.275 C 
ENDROOT
BRANCH   1   2
ATOM      2  C   UNL A   1      37.172  32.157  33.346  1.00  0.00     0.274 C 
BRANCH   2   3
ATOM      3  O   UNL A   1      38.393  32.326  32.597  1.00  0.00    -0.457 OA
BRANCH   3   4
ATOM      4  C   UNL A   1      39.029  33.523  32.714  1.00  0.00     0.370 C 
ATOM      5  O   UNL A   1      38.436  34.572  32.956  1.00  0.00    -0.245 OA
BRANCH   4   6
ATOM      6  C   UNL A   1      40.546  33.468  32.405  1.00  0.00     0.326 C 
BRANCH   6   7
ATOM      7  N   UNL A   1      41.495  33.760  33.518  1.00  0.00    -0.320 N 
ATOM      8  H   UNL A   1      42.148  34.330  32.980  1.00  0.00     0.349 HD
BRANCH   7   9
ATOM      9  C   UNL A   1      41.118  34.727  34.547  1.00  0.00     0.259 C 
ATOM     10  C   UNL A   1      41.906  36.036  34.475  1.00  0.00     0.071 C 
ENDBRANCH   7   9
BRANCH   7  11
ATOM     11  C   UNL A   1      42.292  32.630  34.000  1.00  0.00     0.259 C 
ATOM     12  C   UNL A   1      43.806  32.811  34.108  1.00  0.00     0.071 C 
ENDBRANCH   7  11
ENDBRANCH   6   7
BRANCH   6  13
ATOM     13  C   UNL A   1      40.887  34.202  31.104  1.00  0.00     0.021 A 
ATOM     14  C   UNL A   1      39.948  34.322  30.072  1.00  0.00     0.011 A 
ATOM     15  C   UNL A   1      42.138  34.785  30.897  1.00  0.00     0.011 A 
ATOM     16  C   UNL A   1      40.269  34.988  28.878  1.00  0.00     0.004 A 
ATOM     17  C   UNL A   1      42.464  35.414  29.689  1.00  0.00     0.004 A 
ATOM     18  C   UNL A   1      41.538  35.545  28.649  1.00  0.00    -0.045 A 
BRANCH  18  19
ATOM     19  C   UNL A   1      41.851  36.232  27.332  1.00  0.00     0.019 C 
ATOM     20  C   UNL A   1      43.228  36.720  26.955  1.00  0.00     0.009 C 
ATOM     21  C   UNL A   1      42.671  35.494  26.298  1.00  0.00     0.009 C 
ENDBRANCH  18  19
ENDBRANCH   6  13
ENDBRANCH   4   6
ENDBRANCH   3   4
ENDBRANCH   2   3
ENDBRANCH   1   2
BRANCH   1  22
ATOM     22  O   UNL A   1      36.015  30.842  31.699  1.00  0.00    -0.458 OA
BRANCH  22  23
ATOM     23  C   UNL A   1      36.031  30.914  30.348  1.00  0.00     0.338 C 
ATOM     24  O   UNL A   1      35.257  31.535  29.641  1.00  0.00    -0.246 OA
BRANCH  23  25
ATOM     25  C   UNL A   1      37.176  30.146  29.814  1.00  0.00     0.060 A 
ATOM     26  C   UNL A   1      37.869  29.249  30.624  1.00  0.00     0.016 A 
ATOM     27  C   UNL A   1      37.662  30.442  28.539  1.00  0.00     0.016 A 
ATOM     28  C   UNL A   1      39.117  28.773  30.215  1.00  0.00     0.010 A 
ATOM     29  C   UNL A   1      38.867  29.878  28.096  1.00  0.00     0.010 A 
ATOM     30  C   UNL A   1      39.655  29.098  28.957  1.00  0.00    -0.014 A 
BRANCH  30  31
ATOM     31  C   UNL A   1      41.071  28.738  28.611  1.00  0.00     0.031 A 
ATOM     32  C   UNL A   1      42.202  29.711  28.889  1.00  0.00     0.074 A 
ATOM     33  C   UNL A   1      41.395  27.510  28.152  1.00  0.00     0.049 A 
ATOM     34  N   UNL A   1      43.460  29.645  28.527  1.00  0.00    -0.248 NA
ATOM     35  C   UNL A   1      41.881  30.914  29.676  1.00  0.00     0.031 C 
ATOM     36  C   UNL A   1      40.453  26.419  27.900  1.00  0.00     0.029 A 
ATOM     37  N   UNL A   1      42.620  26.952  27.869  1.00  0.00    -0.354 N 
ATOM     38  C   UNL A   1      44.049  30.833  28.953  1.00  0.00     0.074 A 
ATOM     39  C   UNL A   1      43.019  31.592  29.627  1.00  0.00     0.031 C 
ATOM     40  C   UNL A   1      41.138  25.300  27.621  1.00  0.00     0.029 A 
ATOM     41  C   UNL A   1      42.560  25.615  27.552  1.00  0.00     0.049 A 
ATOM     42  H   UNL A   1      43.462  27.463  27.890  1.00  0.00     0.167 HD
ATOM     43  C   UNL A   1      45.326  31.259  28.793  1.00  0.00     0.037 A 
ATOM     44  C   UNL A   1      43.529  24.739  27.219  1.00  0.00     0.037 A 
ATOM     45  C   UNL A   1      46.388  30.466  28.226  1.00  0.00     0.049 A 
ATOM     46  C   UNL A   1      44.946  25.216  27.075  1.00  0.00     0.074 A 
ATOM     47  C   UNL A   1      47.705  30.827  27.990  1.00  0.00     0.029 A 
ATOM     48  N   UNL A   1      46.269  29.137  27.856  1.00  0.00    -0.354 N 
ATOM     49  N   UNL A   1      45.445  26.403  27.318  1.00  0.00    -0.248 NA
ATOM     50  C   UNL A   1      45.923  24.243  26.564  1.00  0.00     0.031 C 
ATOM     51  C   UNL A   1      48.379  29.717  27.465  1.00  0.00     0.029 A 
ATOM     52  C   UNL A   1      47.488  28.659  27.400  1.00  0.00     0.049 A 
ATOM     53  H   UNL A   1      45.440  28.608  27.908  1.00  0.00     0.167 HD
ATOM     54  C   UNL A   1      46.787  26.328  26.963  1.00  0.00     0.074 A 
ATOM     55  C   UNL A   1      47.034  24.966  26.537  1.00  0.00     0.031 C 
ATOM     56  C   UNL A   1      47.722  27.309  26.962  1.00  0.00     0.037 A 
BRANCH  43  57
ATOM     57  C   UNL A   1      45.647  32.673  29.190  1.00  0.00     0.058 A 
ATOM     58  C   UNL A   1      45.600  33.739  28.281  1.00  0.00     0.135 A 
ATOM     59  C   UNL A   1      45.966  32.966  30.528  1.00  0.00     0.135 A 
ATOM     60  F   UNL A   1      45.320  33.512  26.987  1.00  0.00    -0.206 F 
ATOM     61  C   UNL A   1      45.873  35.045  28.679  1.00  0.00     0.059 A 
ATOM     62  C   UNL A   1      46.221  34.265  30.952  1.00  0.00     0.059 A 
ATOM     63  F   UNL A   1      46.023  31.982  31.438  1.00  0.00    -0.206 F 
ATOM     64  C   UNL A   1      46.185  35.299  30.017  1.00  0.00     0.060 A 
BRANCH  64  65
ATOM     65  S   UNL A   1      46.528  36.996  30.528  1.00  0.00     0.124 S 
ATOM     66  O   UNL A   1      47.959  36.931  30.811  1.00  0.00    -0.237 OA
ATOM     67  O   UNL A   1      46.150  37.765  29.347  1.00  0.00    -0.237 OA
ATOM     68  O   UNL A   1      45.665  37.181  31.692  1.00  0.00    -0.744 OA
ENDBRANCH  64  65
ENDBRANCH  43  57
BRANCH  44  69
ATOM     69  C   UNL A   1      43.184  23.316  26.954  1.00  0.00     0.058 A 
ATOM     70  C   UNL A   1      43.114  22.826  25.641  1.00  0.00     0.135 A 
ATOM     71  C   UNL A   1      42.934  22.416  28.002  1.00  0.00     0.135 A 
ATOM     72  F   UNL A   1      43.323  23.654  24.605  1.00  0.00    -0.206 F 
ATOM     73  C   UNL A   1      42.814  21.494  25.374  1.00  0.00     0.059 A 
ATOM     74  C   UNL A   1      42.662  21.074  27.762  1.00  0.00     0.059 A 
ATOM     75  F   UNL A   1      42.991  22.834  29.276  1.00  0.00    -0.206 F 
ATOM     76  C   UNL A   1      42.597  20.624  26.443  1.00  0.00     0.060 A 
BRANCH  76  77
ATOM     77  S   UNL A   1      42.293  18.875  26.111  1.00  0.00     0.124 S 
ATOM     78  O   UNL A   1      40.869  18.881  25.797  1.00  0.00    -0.237 OA
ATOM     79  O   UNL A   1      43.191  18.603  24.994  1.00  0.00    -0.237 OA
ATOM     80  O   UNL A   1      42.662  18.233  27.370  1.00  0.00    -0.744 OA
ENDBRANCH  76  77
ENDBRANCH  44  69
BRANCH  56  81
ATOM     81  C   UNL A   1      49.093  26.944  26.468  1.00  0.00     0.058 A 
ATOM     82  C   UNL A   1      50.089  26.502  27.356  1.00  0.00     0.135 A 
ATOM     83  C   UNL A   1      49.418  27.030  25.106  1.00  0.00     0.135 A 
ATOM     84  F   UNL A   1      49.828  26.407  28.669  1.00  0.00    -0.206 F 
ATOM     85  C   UNL A   1      51.370  26.192  26.914  1.00  0.00     0.059 A 
ATOM     86  C   UNL A   1      50.688  26.707  24.639  1.00  0.00     0.059 A 
ATOM     87  F   UNL A   1      48.498  27.437  24.217  1.00  0.00    -0.206 F 
ATOM     88  C   UNL A   1      51.663  26.307  25.554  1.00  0.00     0.060 A 
BRANCH  88  89
ATOM     89  S   UNL A   1      53.331  25.909  24.988  1.00  0.00     0.124 S 
ATOM     90  O   UNL A   1      53.606  27.022  24.085  1.00  0.00    -0.237 OA
ATOM     91  O   UNL A   1      54.095  25.899  26.231  1.00  0.00    -0.237 OA
ATOM     92  O   UNL A   1      53.170  24.606  24.349  1.00  0.00    -0.744 OA
ENDBRANCH  88  89
ENDBRANCH  56  81
ENDBRANCH  30  31
ENDBRANCH  23  25
ENDBRANCH  22  23
ENDBRANCH   1  22
TORSDOF 19
ENDMDL
MODEL 3
REMARK VINA RESULT:     -10.3      0.921      3.159
REMARK SMILES CC[NH+](CC)[C@@H](C(=O)OCCOC(=O)c1ccc(-c2c3nc(c(-c4c(F)cc(S(=O)(=O)[O-])cc4F)c4ccc([nH]4)c(-c4c(F)cc(S(=O)(=O)[O-])cc4F)c4nc(c(-c5c(F)cc(S(=O)(=O)[O-])cc5F)c5ccc2[nH]5)C=C4)C=C3)cc1)c1ccc(C2CC2)cc1
REMARK SMILES IDX 11 1 10 2 9 3 7 4 8 5 6 6 3 7 2 9 1 10 4 11 5 12 81 13 82 14
REMARK SMILES IDX 89 15 83 16 88 17 84 18 85 19 86 20 87 21 12 22 13 23 14 24
REMARK SMILES IDX 15 25 16 26 80 27 17 28 79 29 18 30 19 31 20 32 73 33 21 34
REMARK SMILES IDX 78 35 72 36 74 37 22 38 77 39 71 40 70 41 23 43 57 44 36 45
REMARK SMILES IDX 56 46 37 47 40 48 55 49 75 50 38 51 39 52 54 54 76 55 41 56
REMARK SMILES IDX 24 57 25 58 34 59 26 60 27 61 33 62 35 63 28 64 29 65 30 66
REMARK SMILES IDX 31 67 32 68 58 69 59 70 68 71 60 72 61 73 67 74 69 75 62 76
REMARK SMILES IDX 63 77 64 78 65 79 66 80 42 81 43 82 52 83 44 84 45 85 51 86
REMARK SMILES IDX 53 87 46 88 47 89 48 90 49 91 50 92
REMARK H PARENT 3 8 74 42 40 53
REMARK Flexibility Score: inf
ROOT
ATOM      1  C   UNL A   1      39.389  22.294  26.051  1.00  0.00     0.275 C 
ENDROOT
BRANCH   1   2
ATOM      2  C   UNL A   1      37.892  22.239  25.779  1.00  0.00     0.274 C 
BRANCH   2   3
ATOM      3  O   UNL A   1      37.517  23.284  24.859  1.00  0.00    -0.457 OA
BRANCH   3   4
ATOM      4  C   UNL A   1      36.481  23.023  24.016  1.00  0.00     0.370 C 
ATOM      5  O   UNL A   1      36.607  22.996  22.794  1.00  0.00    -0.245 OA
BRANCH   4   6
ATOM      6  C   UNL A   1      35.111  22.874  24.723  1.00  0.00     0.326 C 
BRANCH   6   7
ATOM      7  N   UNL A   1      34.217  21.764  24.284  1.00  0.00    -0.320 N 
ATOM      8  H   UNL A   1      34.642  21.615  23.368  1.00  0.00     0.349 HD
BRANCH   7   9
ATOM      9  C   UNL A   1      34.397  20.430  24.854  1.00  0.00     0.259 C 
ATOM     10  C   UNL A   1      33.083  19.681  25.086  1.00  0.00     0.071 C 
ENDBRANCH   7   9
BRANCH   7  11
ATOM     11  C   UNL A   1      32.828  22.127  23.998  1.00  0.00     0.259 C 
ATOM     12  C   UNL A   1      32.368  22.124  22.540  1.00  0.00     0.071 C 
ENDBRANCH   7  11
ENDBRANCH   6   7
BRANCH   6  13
ATOM     13  C   UNL A   1      34.391  24.219  24.857  1.00  0.00     0.021 A 
ATOM     14  C   UNL A   1      33.815  24.615  26.071  1.00  0.00     0.011 A 
ATOM     15  C   UNL A   1      34.286  25.106  23.784  1.00  0.00     0.011 A 
ATOM     16  C   UNL A   1      33.149  25.846  26.186  1.00  0.00     0.004 A 
ATOM     17  C   UNL A   1      33.587  26.313  23.896  1.00  0.00     0.004 A 
ATOM     18  C   UNL A   1      33.008  26.726  25.101  1.00  0.00    -0.045 A 
BRANCH  18  19
ATOM     19  C   UNL A   1      32.255  28.034  25.263  1.00  0.00     0.019 C 
ATOM     20  C   UNL A   1      32.534  29.263  24.433  1.00  0.00     0.009 C 
ATOM     21  C   UNL A   1      31.292  28.464  24.179  1.00  0.00     0.009 C 
ENDBRANCH  18  19
ENDBRANCH   6  13
ENDBRANCH   4   6
ENDBRANCH   3   4
ENDBRANCH   2   3
ENDBRANCH   1   2
BRANCH   1  22
ATOM     22  O   UNL A   1      39.619  23.136  27.191  1.00  0.00    -0.458 OA
BRANCH  22  23
ATOM     23  C   UNL A   1      40.756  23.868  27.170  1.00  0.00     0.338 C 
ATOM     24  O   UNL A   1      41.822  23.548  26.674  1.00  0.00    -0.246 OA
BRANCH  23  25
ATOM     25  C   UNL A   1      40.526  25.180  27.816  1.00  0.00     0.060 A 
ATOM     26  C   UNL A   1      41.541  26.131  27.872  1.00  0.00     0.016 A 
ATOM     27  C   UNL A   1      39.335  25.398  28.512  1.00  0.00     0.016 A 
ATOM     28  C   UNL A   1      41.420  27.218  28.741  1.00  0.00     0.010 A 
ATOM     29  C   UNL A   1      39.183  26.546  29.303  1.00  0.00     0.010 A 
ATOM     30  C   UNL A   1      40.253  27.434  29.495  1.00  0.00    -0.014 A 
BRANCH  30  31
ATOM     31  C   UNL A   1      40.211  28.492  30.560  1.00  0.00     0.031 A 
ATOM     32  C   UNL A   1      41.318  28.586  31.594  1.00  0.00     0.074 A 
ATOM     33  C   UNL A   1      39.260  29.450  30.565  1.00  0.00     0.049 A 
ATOM     34  N   UNL A   1      41.383  29.327  32.674  1.00  0.00    -0.248 NA
ATOM     35  C   UNL A   1      42.506  27.740  31.391  1.00  0.00     0.031 C 
ATOM     36  C   UNL A   1      38.163  29.568  29.604  1.00  0.00     0.029 A 
ATOM     37  N   UNL A   1      39.096  30.547  31.379  1.00  0.00    -0.354 N 
ATOM     38  C   UNL A   1      42.561  28.966  33.322  1.00  0.00     0.074 A 
ATOM     39  C   UNL A   1      43.197  27.959  32.501  1.00  0.00     0.031 C 
ATOM     40  C   UNL A   1      37.521  30.728  29.807  1.00  0.00     0.029 A 
ATOM     41  C   UNL A   1      38.076  31.382  30.985  1.00  0.00     0.049 A 
ATOM     42  H   UNL A   1      39.657  30.718  32.171  1.00  0.00     0.167 HD
ATOM     43  C   UNL A   1      43.067  29.423  34.493  1.00  0.00     0.037 A 
ATOM     44  C   UNL A   1      37.617  32.532  31.518  1.00  0.00     0.037 A 
ATOM     45  C   UNL A   1      42.502  30.504  35.261  1.00  0.00     0.049 A 
ATOM     46  C   UNL A   1      38.205  33.044  32.802  1.00  0.00     0.074 A 
ATOM     47  C   UNL A   1      42.924  31.011  36.480  1.00  0.00     0.029 A 
ATOM     48  N   UNL A   1      41.428  31.281  34.859  1.00  0.00    -0.354 N 
ATOM     49  N   UNL A   1      39.216  32.574  33.491  1.00  0.00    -0.248 NA
ATOM     50  C   UNL A   1      37.556  34.218  33.405  1.00  0.00     0.031 C 
ATOM     51  C   UNL A   1      42.095  32.088  36.820  1.00  0.00     0.029 A 
ATOM     52  C   UNL A   1      41.176  32.267  35.800  1.00  0.00     0.049 A 
ATOM     53  H   UNL A   1      40.917  31.152  34.027  1.00  0.00     0.167 HD
ATOM     54  C   UNL A   1      39.306  33.377  34.622  1.00  0.00     0.074 A 
ATOM     55  C   UNL A   1      38.282  34.393  34.501  1.00  0.00     0.031 C 
ATOM     56  C   UNL A   1      40.145  33.263  35.681  1.00  0.00     0.037 A 
BRANCH  43  57
ATOM     57  C   UNL A   1      44.270  28.720  35.058  1.00  0.00     0.058 A 
ATOM     58  C   UNL A   1      44.165  27.594  35.885  1.00  0.00     0.135 A 
ATOM     59  C   UNL A   1      45.560  29.167  34.720  1.00  0.00     0.135 A 
ATOM     60  F   UNL A   1      42.958  27.137  36.255  1.00  0.00    -0.206 F 
ATOM     61  C   UNL A   1      45.295  26.942  36.372  1.00  0.00     0.059 A 
ATOM     62  C   UNL A   1      46.702  28.520  35.176  1.00  0.00     0.059 A 
ATOM     63  F   UNL A   1      45.716  30.241  33.929  1.00  0.00    -0.206 F 
ATOM     64  C   UNL A   1      46.561  27.415  36.014  1.00  0.00     0.060 A 
BRANCH  64  65
ATOM     65  S   UNL A   1      48.023  26.559  36.640  1.00  0.00     0.124 S 
ATOM     66  O   UNL A   1      47.759  25.187  36.217  1.00  0.00    -0.237 OA
ATOM     67  O   UNL A   1      49.110  27.239  35.943  1.00  0.00    -0.237 OA
ATOM     68  O   UNL A   1      47.964  26.796  38.080  1.00  0.00    -0.744 OA
ENDBRANCH  64  65
ENDBRANCH  43  57
BRANCH  44  69
ATOM     69  C   UNL A   1      36.502  33.262  30.857  1.00  0.00     0.058 A 
ATOM     70  C   UNL A   1      35.193  33.182  31.359  1.00  0.00     0.135 A 
ATOM     71  C   UNL A   1      36.721  34.065  29.727  1.00  0.00     0.135 A 
ATOM     72  F   UNL A   1      34.931  32.411  32.425  1.00  0.00    -0.206 F 
ATOM     73  C   UNL A   1      34.142  33.876  30.768  1.00  0.00     0.059 A 
ATOM     74  C   UNL A   1      35.693  34.790  29.136  1.00  0.00     0.059 A 
ATOM     75  F   UNL A   1      37.954  34.176  29.210  1.00  0.00    -0.206 F 
ATOM     76  C   UNL A   1      34.404  34.683  29.660  1.00  0.00     0.060 A 
BRANCH  76  77
ATOM     77  S   UNL A   1      33.063  35.655  28.938  1.00  0.00     0.124 S 
ATOM     78  O   UNL A   1      32.352  34.642  28.167  1.00  0.00    -0.237 OA
ATOM     79  O   UNL A   1      32.370  36.164  30.116  1.00  0.00    -0.237 OA
ATOM     80  O   UNL A   1      33.774  36.664  28.157  1.00  0.00    -0.744 OA
ENDBRANCH  76  77
ENDBRANCH  44  69
BRANCH  56  81
ATOM     81  C   UNL A   1      39.974  34.253  36.797  1.00  0.00     0.058 A 
ATOM     82  C   UNL A   1      40.634  35.493  36.774  1.00  0.00     0.135 A 
ATOM     83  C   UNL A   1      39.146  33.971  37.894  1.00  0.00     0.135 A 
ATOM     84  F   UNL A   1      41.440  35.808  35.748  1.00  0.00    -0.206 F 
ATOM     85  C   UNL A   1      40.508  36.404  37.816  1.00  0.00     0.059 A 
ATOM     86  C   UNL A   1      38.989  34.875  38.940  1.00  0.00     0.059 A 
ATOM     87  F   UNL A   1      38.485  32.804  37.959  1.00  0.00    -0.206 F 
ATOM     88  C   UNL A   1      39.690  36.082  38.900  1.00  0.00     0.060 A 
BRANCH  88  89
ATOM     89  S   UNL A   1      39.535  37.266  40.255  1.00  0.00     0.124 S 
ATOM     90  O   UNL A   1      39.615  36.390  41.420  1.00  0.00    -0.237 OA
ATOM     91  O   UNL A   1      40.682  38.144  40.043  1.00  0.00    -0.237 OA
ATOM     92  O   UNL A   1      38.232  37.882  40.019  1.00  0.00    -0.744 OA
ENDBRANCH  88  89
ENDBRANCH  56  81
ENDBRANCH  30  31
ENDBRANCH  23  25
ENDBRANCH  22  23
ENDBRANCH   1  22
TORSDOF 19
ENDMDL
