MODEL 1
REMARK VINA RESULT:     -12.7      0.000      0.000
REMARK SMILES O=C(OCCOC(=O)[C@H]1[C@@H]2C[C@H]3C[C@@H](C2)C[C@]1(n1ncc(N2CCN(c4ccc(F)cc4)CC2)c(Cl)c1=O)C3)c1ccc(-c2c3nc(c(-c4c(F)cc(S(=O)(=O)[O-])cc4F)c4ccc([nH]4)c(-c4c(F)cc(S(=O)(=O)[O-])cc4F)c4nc(c(-c5c(F)cc(S(=O)(=O)[O-])cc5F)c5ccc2[nH]5)C=C4)C=C3)cc1
REMARK SMILES IDX 4 1 3 2 2 3 1 4 40 5 41 6 105 7 42 8 104 9 43 10 44 11 45 12
REMARK SMILES IDX 98 13 46 14 103 15 97 16 99 17 47 18 102 19 96 20 95 21
REMARK SMILES IDX 48 23 82 24 61 25 81 26 62 27 65 28 80 29 100 30 63 31 64 32
REMARK SMILES IDX 79 34 101 35 66 36 49 37 50 38 59 39 51 40 52 41 58 42 60 43
REMARK SMILES IDX 53 44 54 45 55 46 56 47 57 48 83 49 84 50 93 51 85 52 86 53
REMARK SMILES IDX 92 54 94 55 87 56 88 57 89 58 90 59 91 60 67 61 68 62 77 63
REMARK SMILES IDX 69 64 70 65 76 66 78 67 71 68 72 69 73 70 74 71 75 72 5 73
REMARK SMILES IDX 6 74 7 75 8 76 9 77 10 78 17 79 15 80 11 81 39 82 16 83
REMARK SMILES IDX 14 84 12 85 13 86 18 87 19 88 37 89 20 90 35 91 38 92 21 93
REMARK SMILES IDX 36 94 22 95 23 96 34 97 24 98 33 99 25 100 26 101 27 102
REMARK SMILES IDX 32 103 28 104 31 105 29 106 30 107
REMARK H PARENT 99 22 65 33
REMARK Flexibility Score: inf
ROOT
ATOM      1  C   UNL A   1      39.090  20.101  25.793  1.00  0.00     0.275 C 
ENDROOT
BRANCH   1   2
ATOM      2  O   UNL A   1      40.241  19.230  25.748  1.00  0.00    -0.458 OA
BRANCH   2   3
ATOM      3  C   UNL A   1      41.552  19.550  25.908  1.00  0.00     0.338 C 
ATOM      4  O   UNL A   1      42.399  18.668  25.776  1.00  0.00    -0.246 OA
BRANCH   3   5
ATOM      5  C   UNL A   1      42.001  20.888  26.404  1.00  0.00     0.060 A 
ATOM      6  C   UNL A   1      42.376  21.824  25.427  1.00  0.00     0.016 A 
ATOM      7  C   UNL A   1      42.067  21.276  27.747  1.00  0.00     0.016 A 
ATOM      8  C   UNL A   1      42.917  23.064  25.791  1.00  0.00     0.010 A 
ATOM      9  C   UNL A   1      42.623  22.511  28.114  1.00  0.00     0.010 A 
ATOM     10  C   UNL A   1      43.084  23.401  27.143  1.00  0.00    -0.014 A 
BRANCH  10  11
ATOM     11  C   UNL A   1      43.602  24.741  27.513  1.00  0.00     0.031 A 
ATOM     12  C   UNL A   1      45.066  25.071  27.524  1.00  0.00     0.074 A 
ATOM     13  C   UNL A   1      42.715  25.698  27.832  1.00  0.00     0.049 A 
ATOM     14  N   UNL A   1      45.634  26.246  27.424  1.00  0.00    -0.248 NA
ATOM     15  C   UNL A   1      46.017  23.958  27.625  1.00  0.00     0.031 C 
ATOM     16  C   UNL A   1      41.269  25.501  27.933  1.00  0.00     0.029 A 
ATOM     17  N   UNL A   1      42.901  27.017  28.145  1.00  0.00    -0.354 N 
ATOM     18  C   UNL A   1      46.994  25.998  27.280  1.00  0.00     0.074 A 
ATOM     19  C   UNL A   1      47.180  24.572  27.426  1.00  0.00     0.031 C 
ATOM     20  C   UNL A   1      40.700  26.653  28.313  1.00  0.00     0.029 A 
ATOM     21  C   UNL A   1      41.741  27.666  28.474  1.00  0.00     0.049 A 
ATOM     22  H   UNL A   1      43.784  27.455  28.136  1.00  0.00     0.167 HD
ATOM     23  C   UNL A   1      47.977  26.890  27.013  1.00  0.00     0.037 A 
ATOM     24  C   UNL A   1      41.541  28.936  28.869  1.00  0.00     0.037 A 
ATOM     25  C   UNL A   1      47.800  28.315  27.128  1.00  0.00     0.049 A 
ATOM     26  C   UNL A   1      42.704  29.883  28.882  1.00  0.00     0.074 A 
ATOM     27  C   UNL A   1      48.717  29.328  26.912  1.00  0.00     0.029 A 
ATOM     28  N   UNL A   1      46.646  28.917  27.608  1.00  0.00    -0.354 N 
ATOM     29  N   UNL A   1      43.934  29.675  28.475  1.00  0.00    -0.248 NA
ATOM     30  C   UNL A   1      42.458  31.235  29.398  1.00  0.00     0.031 C 
ATOM     31  C   UNL A   1      48.151  30.527  27.370  1.00  0.00     0.029 A 
ATOM     32  C   UNL A   1      46.862  30.268  27.813  1.00  0.00     0.049 A 
ATOM     33  H   UNL A   1      45.796  28.451  27.778  1.00  0.00     0.167 HD
ATOM     34  C   UNL A   1      44.611  30.871  28.678  1.00  0.00     0.074 A 
ATOM     35  C   UNL A   1      43.648  31.801  29.237  1.00  0.00     0.031 C 
ATOM     36  C   UNL A   1      45.910  31.169  28.418  1.00  0.00     0.037 A 
BRANCH  23  37
ATOM     37  C   UNL A   1      49.317  26.358  26.586  1.00  0.00     0.058 A 
ATOM     38  C   UNL A   1      49.649  26.278  25.223  1.00  0.00     0.135 A 
ATOM     39  C   UNL A   1      50.303  26.005  27.518  1.00  0.00     0.135 A 
ATOM     40  F   UNL A   1      48.750  26.617  24.285  1.00  0.00    -0.206 F 
ATOM     41  C   UNL A   1      50.905  25.851  24.799  1.00  0.00     0.059 A 
ATOM     42  C   UNL A   1      51.572  25.588  27.118  1.00  0.00     0.059 A 
ATOM     43  F   UNL A   1      50.040  26.068  28.833  1.00  0.00    -0.206 F 
ATOM     44  C   UNL A   1      51.861  25.509  25.755  1.00  0.00     0.060 A 
BRANCH  44  45
ATOM     45  S   UNL A   1      53.487  24.962  25.185  1.00  0.00     0.124 S 
ATOM     46  O   UNL A   1      53.321  23.512  25.170  1.00  0.00    -0.237 OA
ATOM     47  O   UNL A   1      53.588  25.602  23.878  1.00  0.00    -0.237 OA
ATOM     48  O   UNL A   1      54.398  25.475  26.204  1.00  0.00    -0.744 OA
ENDBRANCH  44  45
ENDBRANCH  23  37
BRANCH  24  49
ATOM     49  C   UNL A   1      40.174  29.338  29.275  1.00  0.00     0.058 A 
ATOM     50  C   UNL A   1      39.830  29.483  30.624  1.00  0.00     0.135 A 
ATOM     51  C   UNL A   1      39.229  29.721  28.308  1.00  0.00     0.135 A 
ATOM     52  F   UNL A   1      40.700  29.129  31.581  1.00  0.00    -0.206 F 
ATOM     53  C   UNL A   1      38.606  30.026  31.003  1.00  0.00     0.059 A 
ATOM     54  C   UNL A   1      38.008  30.282  28.661  1.00  0.00     0.059 A 
ATOM     55  F   UNL A   1      39.523  29.613  27.002  1.00  0.00    -0.206 F 
ATOM     56  C   UNL A   1      37.710  30.440  30.013  1.00  0.00     0.060 A 
BRANCH  56  57
ATOM     57  S   UNL A   1      36.183  31.263  30.518  1.00  0.00     0.124 S 
ATOM     58  O   UNL A   1      36.631  32.642  30.672  1.00  0.00    -0.237 OA
ATOM     59  O   UNL A   1      35.306  30.997  29.382  1.00  0.00    -0.237 OA
ATOM     60  O   UNL A   1      35.822  30.574  31.753  1.00  0.00    -0.744 OA
ENDBRANCH  56  57
ENDBRANCH  24  49
BRANCH  36  61
ATOM     61  C   UNL A   1      46.388  32.542  28.791  1.00  0.00     0.058 A 
ATOM     62  C   UNL A   1      46.275  33.614  27.893  1.00  0.00     0.135 A 
ATOM     63  C   UNL A   1      46.894  32.808  30.073  1.00  0.00     0.135 A 
ATOM     64  F   UNL A   1      45.808  33.409  26.651  1.00  0.00    -0.206 F 
ATOM     65  C   UNL A   1      46.653  34.903  28.251  1.00  0.00     0.059 A 
ATOM     66  C   UNL A   1      47.254  34.095  30.461  1.00  0.00     0.059 A 
ATOM     67  F   UNL A   1      47.018  31.818  30.971  1.00  0.00    -0.206 F 
ATOM     68  C   UNL A   1      47.134  35.135  29.540  1.00  0.00     0.060 A 
BRANCH  68  69
ATOM     69  S   UNL A   1      47.565  36.825  30.006  1.00  0.00     0.124 S 
ATOM     70  O   UNL A   1      48.326  36.607  31.233  1.00  0.00    -0.237 OA
ATOM     71  O   UNL A   1      48.336  37.280  28.854  1.00  0.00    -0.237 OA
ATOM     72  O   UNL A   1      46.267  37.471  30.181  1.00  0.00    -0.744 OA
ENDBRANCH  68  69
ENDBRANCH  36  61
ENDBRANCH  10  11
ENDBRANCH   3   5
ENDBRANCH   2   3
ENDBRANCH   1   2
BRANCH   1  73
ATOM     73  C   UNL A   1      38.148  19.965  24.598  1.00  0.00     0.274 C 
BRANCH  73  74
ATOM     74  O   UNL A   1      36.964  19.277  25.001  1.00  0.00    -0.462 OA
BRANCH  74  75
ATOM     75  C   UNL A   1      35.807  20.002  25.046  1.00  0.00     0.311 C 
ATOM     76  O   UNL A   1      35.641  20.981  25.751  1.00  0.00    -0.252 OA
BRANCH  75  77
ATOM     77  C   UNL A   1      34.757  19.277  24.216  1.00  0.00     0.130 C 
ATOM     78  C   UNL A   1      34.988  17.759  24.397  1.00  0.00     0.006 C 
ATOM     79  C   UNL A   1      33.248  19.628  24.369  1.00  0.00     0.081 C 
ATOM     80  C   UNL A   1      34.447  17.276  25.753  1.00  0.00     0.008 C 
ATOM     81  C   UNL A   1      34.246  17.007  23.285  1.00  0.00     0.008 C 
ATOM     82  C   UNL A   1      32.517  18.798  23.236  1.00  0.00     0.035 C 
ATOM     83  C   UNL A   1      32.706  19.082  25.717  1.00  0.00     0.035 C 
ATOM     84  C   UNL A   1      32.943  17.566  25.850  1.00  0.00    -0.008 C 
ATOM     85  C   UNL A   1      32.749  17.292  23.366  1.00  0.00    -0.008 C 
ATOM     86  C   UNL A   1      32.215  16.823  24.722  1.00  0.00     0.007 C 
BRANCH  79  87
ATOM     87  N   UNL A   1      32.910  21.089  24.189  1.00  0.00    -0.222 N 
ATOM     88  N   UNL A   1      32.770  21.510  22.879  1.00  0.00    -0.175 NA
ATOM     89  C   UNL A   1      32.633  21.940  25.259  1.00  0.00     0.288 A 
ATOM     90  C   UNL A   1      32.300  22.691  22.655  1.00  0.00     0.161 A 
ATOM     91  C   UNL A   1      32.172  23.319  24.922  1.00  0.00     0.132 A 
ATOM     92  O   UNL A   1      32.695  21.607  26.439  1.00  0.00    -0.266 OA
ATOM     93  C   UNL A   1      31.914  23.698  23.664  1.00  0.00     0.082 A 
ATOM     94  Cl  UNL A   1      31.847  24.363  26.268  1.00  0.00    -0.076 Cl
BRANCH  93  95
ATOM     95  N   UNL A   1      31.367  24.885  23.192  1.00  0.00    -0.365 N 
ATOM     96  C   UNL A   1      29.905  25.103  23.133  1.00  0.00     0.138 C 
ATOM     97  C   UNL A   1      32.174  26.092  22.929  1.00  0.00     0.138 C 
ATOM     98  C   UNL A   1      29.473  26.271  24.059  1.00  0.00     0.138 C 
ATOM     99  C   UNL A   1      31.739  27.271  23.822  1.00  0.00     0.138 C 
ATOM    100  N   UNL A   1      30.280  27.460  23.754  1.00  0.00    -0.368 N 
BRANCH 100 101
ATOM    101  C   UNL A   1      29.745  28.714  23.590  1.00  0.00     0.037 A 
ATOM    102  C   UNL A   1      28.608  28.894  22.785  1.00  0.00     0.029 A 
ATOM    103  C   UNL A   1      30.293  29.847  24.207  1.00  0.00     0.029 A 
ATOM    104  C   UNL A   1      28.044  30.153  22.587  1.00  0.00     0.041 A 
ATOM    105  C   UNL A   1      29.742  31.117  24.001  1.00  0.00     0.041 A 
ATOM    106  C   UNL A   1      28.623  31.257  23.193  1.00  0.00     0.123 A 
ATOM    107  F   UNL A   1      28.094  32.472  22.996  1.00  0.00    -0.207 F 
ENDBRANCH 100 101
ENDBRANCH  93  95
ENDBRANCH  79  87
ENDBRANCH  75  77
ENDBRANCH  74  75
ENDBRANCH  73  74
ENDBRANCH   1  73
TORSDOF 17
ENDMDL
MODEL 2
REMARK VINA RESULT:     -12.6      3.962      8.880
REMARK SMILES O=C(OCCOC(=O)[C@H]1[C@@H]2C[C@H]3C[C@@H](C2)C[C@]1(n1ncc(N2CCN(c4ccc(F)cc4)CC2)c(Cl)c1=O)C3)c1ccc(-c2c3nc(c(-c4c(F)cc(S(=O)(=O)[O-])cc4F)c4ccc([nH]4)c(-c4c(F)cc(S(=O)(=O)[O-])cc4F)c4nc(c(-c5c(F)cc(S(=O)(=O)[O-])cc5F)c5ccc2[nH]5)C=C4)C=C3)cc1
REMARK SMILES IDX 4 1 3 2 2 3 1 4 40 5 41 6 105 7 42 8 104 9 43 10 44 11 45 12
REMARK SMILES IDX 98 13 46 14 103 15 97 16 99 17 47 18 102 19 96 20 95 21
REMARK SMILES IDX 48 23 82 24 61 25 81 26 62 27 65 28 80 29 100 30 63 31 64 32
REMARK SMILES IDX 79 34 101 35 66 36 49 37 50 38 59 39 51 40 52 41 58 42 60 43
REMARK SMILES IDX 53 44 54 45 55 46 56 47 57 48 83 49 84 50 93 51 85 52 86 53
REMARK SMILES IDX 92 54 94 55 87 56 88 57 89 58 90 59 91 60 67 61 68 62 77 63
REMARK SMILES IDX 69 64 70 65 76 66 78 67 71 68 72 69 73 70 74 71 75 72 5 73
REMARK SMILES IDX 6 74 7 75 8 76 9 77 10 78 17 79 15 80 11 81 39 82 16 83
REMARK SMILES IDX 14 84 12 85 13 86 18 87 19 88 37 89 20 90 35 91 38 92 21 93
REMARK SMILES IDX 36 94 22 95 23 96 34 97 24 98 33 99 25 100 26 101 27 102
REMARK SMILES IDX 32 103 28 104 31 105 29 106 30 107
REMARK H PARENT 99 22 65 33
REMARK Flexibility Score: inf
ROOT
ATOM      1  C   UNL A   1      36.310  23.112  25.549  1.00  0.00     0.275 C 
ENDROOT
BRANCH   1   2
ATOM      2  O   UNL A   1      37.661  23.581  25.356  1.00  0.00    -0.458 OA
BRANCH   2   3
ATOM      3  C   UNL A   1      38.728  23.457  26.189  1.00  0.00     0.338 C 
ATOM      4  O   UNL A   1      39.114  22.331  26.496  1.00  0.00    -0.246 OA
BRANCH   3   5
ATOM      5  C   UNL A   1      39.348  24.628  26.885  1.00  0.00     0.060 A 
ATOM      6  C   UNL A   1      38.943  24.855  28.210  1.00  0.00     0.016 A 
ATOM      7  C   UNL A   1      40.295  25.494  26.328  1.00  0.00     0.016 A 
ATOM      8  C   UNL A   1      39.379  25.987  28.910  1.00  0.00     0.010 A 
ATOM      9  C   UNL A   1      40.721  26.637  27.021  1.00  0.00     0.010 A 
ATOM     10  C   UNL A   1      40.242  26.914  28.303  1.00  0.00    -0.014 A 
BRANCH  10  11
ATOM     11  C   UNL A   1      40.743  28.075  29.076  1.00  0.00     0.031 A 
ATOM     12  C   UNL A   1      39.994  29.372  29.170  1.00  0.00     0.074 A 
ATOM     13  C   UNL A   1      41.907  27.945  29.734  1.00  0.00     0.049 A 
ATOM     14  N   UNL A   1      40.081  30.296  30.093  1.00  0.00    -0.248 NA
ATOM     15  C   UNL A   1      39.003  29.666  28.128  1.00  0.00     0.031 C 
ATOM     16  C   UNL A   1      42.776  26.770  29.676  1.00  0.00     0.029 A 
ATOM     17  N   UNL A   1      42.564  28.814  30.562  1.00  0.00    -0.354 N 
ATOM     18  C   UNL A   1      39.046  31.187  29.837  1.00  0.00     0.074 A 
ATOM     19  C   UNL A   1      38.420  30.762  28.605  1.00  0.00     0.031 C 
ATOM     20  C   UNL A   1      43.869  27.003  30.415  1.00  0.00     0.029 A 
ATOM     21  C   UNL A   1      43.771  28.339  31.001  1.00  0.00     0.049 A 
ATOM     22  H   UNL A   1      42.204  29.695  30.816  1.00  0.00     0.167 HD
ATOM     23  C   UNL A   1      38.647  32.237  30.594  1.00  0.00     0.037 A 
ATOM     24  C   UNL A   1      44.699  28.918  31.783  1.00  0.00     0.037 A 
ATOM     25  C   UNL A   1      39.440  32.782  31.665  1.00  0.00     0.049 A 
ATOM     26  C   UNL A   1      44.400  30.255  32.394  1.00  0.00     0.074 A 
ATOM     27  C   UNL A   1      39.167  33.856  32.494  1.00  0.00     0.029 A 
ATOM     28  N   UNL A   1      40.724  32.356  31.974  1.00  0.00    -0.354 N 
ATOM     29  N   UNL A   1      43.286  30.948  32.342  1.00  0.00    -0.248 NA
ATOM     30  C   UNL A   1      45.470  30.888  33.172  1.00  0.00     0.031 C 
ATOM     31  C   UNL A   1      40.331  34.145  33.221  1.00  0.00     0.029 A 
ATOM     32  C   UNL A   1      41.305  33.215  32.890  1.00  0.00     0.049 A 
ATOM     33  H   UNL A   1      41.159  31.557  31.597  1.00  0.00     0.167 HD
ATOM     34  C   UNL A   1      43.517  32.098  33.086  1.00  0.00     0.074 A 
ATOM     35  C   UNL A   1      44.876  32.001  33.585  1.00  0.00     0.031 C 
ATOM     36  C   UNL A   1      42.675  33.134  33.337  1.00  0.00     0.037 A 
BRANCH  23  37
ATOM     37  C   UNL A   1      37.315  32.863  30.287  1.00  0.00     0.058 A 
ATOM     38  C   UNL A   1      36.182  32.535  31.051  1.00  0.00     0.135 A 
ATOM     39  C   UNL A   1      37.170  33.845  29.296  1.00  0.00     0.135 A 
ATOM     40  F   UNL A   1      36.264  31.613  32.023  1.00  0.00    -0.206 F 
ATOM     41  C   UNL A   1      34.950  33.146  30.834  1.00  0.00     0.059 A 
ATOM     42  C   UNL A   1      35.950  34.480  29.069  1.00  0.00     0.059 A 
ATOM     43  F   UNL A   1      38.222  34.198  28.541  1.00  0.00    -0.206 F 
ATOM     44  C   UNL A   1      34.844  34.120  29.840  1.00  0.00     0.060 A 
BRANCH  44  45
ATOM     45  S   UNL A   1      33.238  34.905  29.576  1.00  0.00     0.124 S 
ATOM     46  O   UNL A   1      32.707  34.955  30.935  1.00  0.00    -0.237 OA
ATOM     47  O   UNL A   1      33.613  36.189  28.994  1.00  0.00    -0.237 OA
ATOM     48  O   UNL A   1      32.552  33.986  28.672  1.00  0.00    -0.744 OA
ENDBRANCH  44  45
ENDBRANCH  23  37
BRANCH  24  49
ATOM     49  C   UNL A   1      45.978  28.204  32.002  1.00  0.00     0.058 A 
ATOM     50  C   UNL A   1      46.073  27.147  32.915  1.00  0.00     0.135 A 
ATOM     51  C   UNL A   1      47.094  28.479  31.192  1.00  0.00     0.135 A 
ATOM     52  F   UNL A   1      45.034  26.851  33.709  1.00  0.00    -0.206 F 
ATOM     53  C   UNL A   1      47.220  26.364  32.996  1.00  0.00     0.059 A 
ATOM     54  C   UNL A   1      48.243  27.700  31.242  1.00  0.00     0.059 A 
ATOM     55  F   UNL A   1      47.041  29.473  30.291  1.00  0.00    -0.206 F 
ATOM     56  C   UNL A   1      48.293  26.638  32.142  1.00  0.00     0.060 A 
BRANCH  56  57
ATOM     57  S   UNL A   1      49.721  25.532  32.167  1.00  0.00     0.124 S 
ATOM     58  O   UNL A   1      50.793  26.446  32.544  1.00  0.00    -0.237 OA
ATOM     59  O   UNL A   1      49.330  24.553  33.177  1.00  0.00    -0.237 OA
ATOM     60  O   UNL A   1      49.776  25.023  30.800  1.00  0.00    -0.744 OA
ENDBRANCH  56  57
ENDBRANCH  24  49
BRANCH  36  61
ATOM     61  C   UNL A   1      43.216  34.281  34.139  1.00  0.00     0.058 A 
ATOM     62  C   UNL A   1      43.878  35.349  33.514  1.00  0.00     0.135 A 
ATOM     63  C   UNL A   1      43.012  34.355  35.525  1.00  0.00     0.135 A 
ATOM     64  F   UNL A   1      44.109  35.321  32.191  1.00  0.00    -0.206 F 
ATOM     65  C   UNL A   1      44.324  36.449  34.237  1.00  0.00     0.059 A 
ATOM     66  C   UNL A   1      43.427  35.457  36.265  1.00  0.00     0.059 A 
ATOM     67  F   UNL A   1      42.379  33.361  36.170  1.00  0.00    -0.206 F 
ATOM     68  C   UNL A   1      44.087  36.498  35.612  1.00  0.00     0.060 A 
BRANCH  68  69
ATOM     69  S   UNL A   1      44.622  37.960  36.526  1.00  0.00     0.124 S 
ATOM     70  O   UNL A   1      44.196  39.035  35.635  1.00  0.00    -0.237 OA
ATOM     71  O   UNL A   1      43.876  37.837  37.774  1.00  0.00    -0.237 OA
ATOM     72  O   UNL A   1      46.066  37.778  36.644  1.00  0.00    -0.744 OA
ENDBRANCH  68  69
ENDBRANCH  36  61
ENDBRANCH  10  11
ENDBRANCH   3   5
ENDBRANCH   2   3
ENDBRANCH   1   2
BRANCH   1  73
ATOM     73  C   UNL A   1      35.881  22.005  24.588  1.00  0.00     0.274 C 
BRANCH  73  74
ATOM     74  O   UNL A   1      35.366  20.900  25.332  1.00  0.00    -0.462 OA
BRANCH  74  75
ATOM     75  C   UNL A   1      35.767  19.651  24.950  1.00  0.00     0.311 C 
ATOM     76  O   UNL A   1      36.906  19.236  25.061  1.00  0.00    -0.252 OA
BRANCH  75  77
ATOM     77  C   UNL A   1      34.608  18.976  24.232  1.00  0.00     0.130 C 
ATOM     78  C   UNL A   1      34.986  17.489  24.035  1.00  0.00     0.006 C 
ATOM     79  C   UNL A   1      33.155  19.109  24.776  1.00  0.00     0.081 C 
ATOM     80  C   UNL A   1      34.815  16.698  25.343  1.00  0.00     0.008 C 
ATOM     81  C   UNL A   1      34.061  16.877  22.975  1.00  0.00     0.008 C 
ATOM     82  C   UNL A   1      32.242  18.426  23.677  1.00  0.00     0.035 C 
ATOM     83  C   UNL A   1      32.986  18.258  26.063  1.00  0.00     0.035 C 
ATOM     84  C   UNL A   1      33.359  16.783  25.820  1.00  0.00    -0.008 C 
ATOM     85  C   UNL A   1      32.607  16.961  23.435  1.00  0.00    -0.008 C 
ATOM     86  C   UNL A   1      32.442  16.184  24.743  1.00  0.00     0.007 C 
BRANCH  79  87
ATOM     87  N   UNL A   1      32.678  20.527  24.985  1.00  0.00    -0.222 N 
ATOM     88  N   UNL A   1      32.676  20.966  26.296  1.00  0.00    -0.175 NA
ATOM     89  C   UNL A   1      32.376  21.388  23.930  1.00  0.00     0.288 A 
ATOM     90  C   UNL A   1      32.461  22.216  26.530  1.00  0.00     0.161 A 
ATOM     91  C   UNL A   1      32.059  22.802  24.284  1.00  0.00     0.132 A 
ATOM     92  O   UNL A   1      32.408  21.065  22.746  1.00  0.00    -0.266 OA
ATOM     93  C   UNL A   1      32.173  23.268  25.534  1.00  0.00     0.082 A 
ATOM     94  Cl  UNL A   1      31.672  23.850  22.957  1.00  0.00    -0.076 Cl
BRANCH  93  95
ATOM     95  N   UNL A   1      32.041  24.567  26.010  1.00  0.00    -0.365 N 
ATOM     96  C   UNL A   1      33.204  25.471  26.150  1.00  0.00     0.138 C 
ATOM     97  C   UNL A   1      30.733  25.224  26.196  1.00  0.00     0.138 C 
ATOM     98  C   UNL A   1      33.068  26.708  25.224  1.00  0.00     0.138 C 
ATOM     99  C   UNL A   1      30.592  26.473  25.303  1.00  0.00     0.138 C 
ATOM    100  N   UNL A   1      31.766  27.350  25.453  1.00  0.00    -0.368 N 
BRANCH 100 101
ATOM    101  C   UNL A   1      31.611  28.704  25.619  1.00  0.00     0.037 A 
ATOM    102  C   UNL A   1      32.171  29.346  26.736  1.00  0.00     0.029 A 
ATOM    103  C   UNL A   1      30.904  29.493  24.700  1.00  0.00     0.029 A 
ATOM    104  C   UNL A   1      32.024  30.716  26.942  1.00  0.00     0.041 A 
ATOM    105  C   UNL A   1      30.740  30.867  24.907  1.00  0.00     0.041 A 
ATOM    106  C   UNL A   1      31.302  31.465  26.027  1.00  0.00     0.123 A 
ATOM    107  F   UNL A   1      31.144  32.780  26.227  1.00  0.00    -0.207 F 
ENDBRANCH 100 101
ENDBRANCH  93  95
ENDBRANCH  79  87
ENDBRANCH  75  77
ENDBRANCH  74  75
ENDBRANCH  73  74
ENDBRANCH   1  73
TORSDOF 17
ENDMDL
MODEL 3
REMARK VINA RESULT:     -12.5      2.590      3.672
REMARK SMILES O=C(OCCOC(=O)[C@H]1[C@@H]2C[C@H]3C[C@@H](C2)C[C@]1(n1ncc(N2CCN(c4ccc(F)cc4)CC2)c(Cl)c1=O)C3)c1ccc(-c2c3nc(c(-c4c(F)cc(S(=O)(=O)[O-])cc4F)c4ccc([nH]4)c(-c4c(F)cc(S(=O)(=O)[O-])cc4F)c4nc(c(-c5c(F)cc(S(=O)(=O)[O-])cc5F)c5ccc2[nH]5)C=C4)C=C3)cc1
REMARK SMILES IDX 4 1 3 2 2 3 1 4 40 5 41 6 105 7 42 8 104 9 43 10 44 11 45 12
REMARK SMILES IDX 98 13 46 14 103 15 97 16 99 17 47 18 102 19 96 20 95 21
REMARK SMILES IDX 48 23 82 24 61 25 81 26 62 27 65 28 80 29 100 30 63 31 64 32
REMARK SMILES IDX 79 34 101 35 66 36 49 37 50 38 59 39 51 40 52 41 58 42 60 43
REMARK SMILES IDX 53 44 54 45 55 46 56 47 57 48 83 49 84 50 93 51 85 52 86 53
REMARK SMILES IDX 92 54 94 55 87 56 88 57 89 58 90 59 91 60 67 61 68 62 77 63
REMARK SMILES IDX 69 64 70 65 76 66 78 67 71 68 72 69 73 70 74 71 75 72 5 73
REMARK SMILES IDX 6 74 7 75 8 76 9 77 10 78 17 79 15 80 11 81 39 82 16 83
REMARK SMILES IDX 14 84 12 85 13 86 18 87 19 88 37 89 20 90 35 91 38 92 21 93
REMARK SMILES IDX 36 94 22 95 23 96 34 97 24 98 33 99 25 100 26 101 27 102
REMARK SMILES IDX 32 103 28 104 31 105 29 106 30 107
REMARK H PARENT 99 22 65 33
REMARK Flexibility Score: inf
ROOT
ATOM      1  C   UNL A   1      36.600  23.076  24.843  1.00  0.00     0.275 C 
ENDROOT
BRANCH   1   2
ATOM      2  O   UNL A   1      37.312  23.115  26.099  1.00  0.00    -0.458 OA
BRANCH   2   3
ATOM      3  C   UNL A   1      38.654  23.160  26.311  1.00  0.00     0.338 C 
ATOM      4  O   UNL A   1      39.304  22.119  26.223  1.00  0.00    -0.246 OA
BRANCH   3   5
ATOM      5  C   UNL A   1      39.351  24.385  26.812  1.00  0.00     0.060 A 
ATOM      6  C   UNL A   1      39.196  24.680  28.175  1.00  0.00     0.016 A 
ATOM      7  C   UNL A   1      40.143  25.241  26.038  1.00  0.00     0.016 A 
ATOM      8  C   UNL A   1      39.715  25.863  28.717  1.00  0.00     0.010 A 
ATOM      9  C   UNL A   1      40.650  26.434  26.575  1.00  0.00     0.010 A 
ATOM     10  C   UNL A   1      40.413  26.774  27.908  1.00  0.00    -0.014 A 
BRANCH  10  11
ATOM     11  C   UNL A   1      41.008  27.991  28.509  1.00  0.00     0.031 A 
ATOM     12  C   UNL A   1      42.490  28.189  28.645  1.00  0.00     0.074 A 
ATOM     13  C   UNL A   1      40.180  28.962  28.928  1.00  0.00     0.049 A 
ATOM     14  N   UNL A   1      43.153  29.311  28.759  1.00  0.00    -0.248 NA
ATOM     15  C   UNL A   1      43.344  26.995  28.618  1.00  0.00     0.031 C 
ATOM     16  C   UNL A   1      38.720  28.878  28.924  1.00  0.00     0.029 A 
ATOM     17  N   UNL A   1      40.449  30.197  29.453  1.00  0.00    -0.354 N 
ATOM     18  C   UNL A   1      44.496  28.972  28.647  1.00  0.00     0.074 A 
ATOM     19  C   UNL A   1      44.561  27.529  28.577  1.00  0.00     0.031 C 
ATOM     20  C   UNL A   1      38.220  30.005  29.450  1.00  0.00     0.029 A 
ATOM     21  C   UNL A   1      39.324  30.887  29.820  1.00  0.00     0.049 A 
ATOM     22  H   UNL A   1      41.361  30.553  29.557  1.00  0.00     0.167 HD
ATOM     23  C   UNL A   1      45.561  29.806  28.572  1.00  0.00     0.037 A 
ATOM     24  C   UNL A   1      39.198  32.095  30.399  1.00  0.00     0.037 A 
ATOM     25  C   UNL A   1      45.488  31.206  28.900  1.00  0.00     0.049 A 
ATOM     26  C   UNL A   1      40.428  32.925  30.618  1.00  0.00     0.074 A 
ATOM     27  C   UNL A   1      46.493  32.157  28.891  1.00  0.00     0.029 A 
ATOM     28  N   UNL A   1      44.356  31.826  29.410  1.00  0.00    -0.354 N 
ATOM     29  N   UNL A   1      41.661  32.676  30.246  1.00  0.00    -0.248 NA
ATOM     30  C   UNL A   1      40.256  34.199  31.326  1.00  0.00     0.031 C 
ATOM     31  C   UNL A   1      45.993  33.317  29.502  1.00  0.00     0.029 A 
ATOM     32  C   UNL A   1      44.663  33.107  29.834  1.00  0.00     0.049 A 
ATOM     33  H   UNL A   1      43.463  31.414  29.461  1.00  0.00     0.167 HD
ATOM     34  C   UNL A   1      42.415  33.763  30.668  1.00  0.00     0.074 A 
ATOM     35  C   UNL A   1      41.494  34.677  31.316  1.00  0.00     0.031 C 
ATOM     36  C   UNL A   1      43.747  33.984  30.523  1.00  0.00     0.037 A 
BRANCH  23  37
ATOM     37  C   UNL A   1      46.879  29.231  28.135  1.00  0.00     0.058 A 
ATOM     38  C   UNL A   1      47.198  29.138  26.770  1.00  0.00     0.135 A 
ATOM     39  C   UNL A   1      47.861  28.848  29.061  1.00  0.00     0.135 A 
ATOM     40  F   UNL A   1      46.303  29.504  25.839  1.00  0.00    -0.206 F 
ATOM     41  C   UNL A   1      48.436  28.671  26.336  1.00  0.00     0.059 A 
ATOM     42  C   UNL A   1      49.113  28.390  28.651  1.00  0.00     0.059 A 
ATOM     43  F   UNL A   1      47.610  28.920  30.377  1.00  0.00    -0.206 F 
ATOM     44  C   UNL A   1      49.389  28.300  27.286  1.00  0.00     0.060 A 
BRANCH  44  45
ATOM     45  S   UNL A   1      50.991  27.701  26.704  1.00  0.00     0.124 S 
ATOM     46  O   UNL A   1      51.901  28.687  27.279  1.00  0.00    -0.237 OA
ATOM     47  O   UNL A   1      51.052  26.366  27.288  1.00  0.00    -0.237 OA
ATOM     48  O   UNL A   1      50.865  27.742  25.250  1.00  0.00    -0.744 OA
ENDBRANCH  44  45
ENDBRANCH  23  37
BRANCH  24  49
ATOM     49  C   UNL A   1      37.844  32.547  30.793  1.00  0.00     0.058 A 
ATOM     50  C   UNL A   1      37.353  32.331  32.086  1.00  0.00     0.135 A 
ATOM     51  C   UNL A   1      37.074  33.332  29.918  1.00  0.00     0.135 A 
ATOM     52  F   UNL A   1      38.054  31.587  32.955  1.00  0.00    -0.206 F 
ATOM     53  C   UNL A   1      36.159  32.904  32.511  1.00  0.00     0.059 A 
ATOM     54  C   UNL A   1      35.887  33.930  30.324  1.00  0.00     0.059 A 
ATOM     55  F   UNL A   1      37.514  33.578  28.673  1.00  0.00    -0.206 F 
ATOM     56  C   UNL A   1      35.442  33.717  31.628  1.00  0.00     0.060 A 
BRANCH  56  57
ATOM     57  S   UNL A   1      33.965  34.560  32.234  1.00  0.00     0.124 S 
ATOM     58  O   UNL A   1      33.350  33.523  33.054  1.00  0.00    -0.237 OA
ATOM     59  O   UNL A   1      34.537  35.693  32.956  1.00  0.00    -0.237 OA
ATOM     60  O   UNL A   1      33.248  34.905  31.010  1.00  0.00    -0.744 OA
ENDBRANCH  56  57
ENDBRANCH  24  49
BRANCH  36  61
ATOM     61  C   UNL A   1      44.306  35.238  31.130  1.00  0.00     0.058 A 
ATOM     62  C   UNL A   1      44.257  36.458  30.439  1.00  0.00     0.135 A 
ATOM     63  C   UNL A   1      44.827  35.241  32.433  1.00  0.00     0.135 A 
ATOM     64  F   UNL A   1      43.779  36.506  29.185  1.00  0.00    -0.206 F 
ATOM     65  C   UNL A   1      44.710  37.638  31.017  1.00  0.00     0.059 A 
ATOM     66  C   UNL A   1      45.263  36.414  33.041  1.00  0.00     0.059 A 
ATOM     67  F   UNL A   1      44.891  34.100  33.139  1.00  0.00    -0.206 F 
ATOM     68  C   UNL A   1      45.205  37.608  32.322  1.00  0.00     0.060 A 
BRANCH  68  69
ATOM     69  S   UNL A   1      45.735  39.159  33.078  1.00  0.00     0.124 S 
ATOM     70  O   UNL A   1      44.594  39.475  33.931  1.00  0.00    -0.237 OA
ATOM     71  O   UNL A   1      46.956  38.765  33.773  1.00  0.00    -0.237 OA
ATOM     72  O   UNL A   1      45.928  40.046  31.934  1.00  0.00    -0.744 OA
ENDBRANCH  68  69
ENDBRANCH  36  61
ENDBRANCH  10  11
ENDBRANCH   3   5
ENDBRANCH   2   3
ENDBRANCH   1   2
BRANCH   1  73
ATOM     73  C   UNL A   1      36.493  21.685  24.221  1.00  0.00     0.274 C 
BRANCH  73  74
ATOM     74  O   UNL A   1      35.913  20.784  25.164  1.00  0.00    -0.462 OA
BRANCH  74  75
ATOM     75  C   UNL A   1      36.044  19.448  24.910  1.00  0.00     0.311 C 
ATOM     76  O   UNL A   1      37.052  18.805  25.139  1.00  0.00    -0.252 OA
BRANCH  75  77
ATOM     77  C   UNL A   1      34.806  18.981  24.159  1.00  0.00     0.130 C 
ATOM     78  C   UNL A   1      34.891  17.441  24.036  1.00  0.00     0.006 C 
ATOM     79  C   UNL A   1      33.387  19.420  24.624  1.00  0.00     0.081 C 
ATOM     80  C   UNL A   1      34.511  16.760  25.361  1.00  0.00     0.008 C 
ATOM     81  C   UNL A   1      33.908  16.974  22.954  1.00  0.00     0.008 C 
ATOM     82  C   UNL A   1      32.404  18.880  23.506  1.00  0.00     0.035 C 
ATOM     83  C   UNL A   1      32.998  18.679  25.930  1.00  0.00     0.035 C 
ATOM     84  C   UNL A   1      33.082  17.149  25.761  1.00  0.00    -0.008 C 
ATOM     85  C   UNL A   1      32.482  17.362  23.336  1.00  0.00    -0.008 C 
ATOM     86  C   UNL A   1      32.112  16.693  24.662  1.00  0.00     0.007 C 
BRANCH  79  87
ATOM     87  N   UNL A   1      33.191  20.912  24.756  1.00  0.00    -0.222 N 
ATOM     88  N   UNL A   1      32.890  21.578  23.582  1.00  0.00    -0.175 NA
ATOM     89  C   UNL A   1      33.187  21.569  25.987  1.00  0.00     0.288 A 
ATOM     90  C   UNL A   1      32.526  22.815  23.648  1.00  0.00     0.161 A 
ATOM     91  C   UNL A   1      32.836  23.020  25.974  1.00  0.00     0.132 A 
ATOM     92  O   UNL A   1      33.401  21.019  27.063  1.00  0.00    -0.266 OA
ATOM     93  C   UNL A   1      32.424  23.645  24.865  1.00  0.00     0.082 A 
ATOM     94  Cl  UNL A   1      32.852  23.819  27.514  1.00  0.00    -0.076 Cl
BRANCH  93  95
ATOM     95  N   UNL A   1      31.944  24.940  24.705  1.00  0.00    -0.365 N 
ATOM     96  C   UNL A   1      32.520  25.870  23.710  1.00  0.00     0.138 C 
ATOM     97  C   UNL A   1      30.699  25.418  25.338  1.00  0.00     0.138 C 
ATOM     98  C   UNL A   1      31.471  26.265  22.638  1.00  0.00     0.138 C 
ATOM     99  C   UNL A   1      29.655  25.841  24.285  1.00  0.00     0.138 C 
ATOM    100  N   UNL A   1      30.255  26.758  23.301  1.00  0.00    -0.368 N 
BRANCH 100 101
ATOM    101  C   UNL A   1      29.601  27.905  22.924  1.00  0.00     0.037 A 
ATOM    102  C   UNL A   1      30.303  28.934  22.274  1.00  0.00     0.029 A 
ATOM    103  C   UNL A   1      28.233  28.098  23.163  1.00  0.00     0.029 A 
ATOM    104  C   UNL A   1      29.674  30.116  21.887  1.00  0.00     0.041 A 
ATOM    105  C   UNL A   1      27.598  29.287  22.791  1.00  0.00     0.041 A 
ATOM    106  C   UNL A   1      28.325  30.285  22.157  1.00  0.00     0.123 A 
ATOM    107  F   UNL A   1      27.718  31.425  21.800  1.00  0.00    -0.207 F 
ENDBRANCH 100 101
ENDBRANCH  93  95
ENDBRANCH  79  87
ENDBRANCH  75  77
ENDBRANCH  74  75
ENDBRANCH  73  74
ENDBRANCH   1  73
TORSDOF 17
ENDMDL
