MODEL 1
REMARK VINA RESULT:     -11.6      0.000      0.000
REMARK SMILES CCn1ccc([C@@H](C)NC(=O)[C@H](C)n2ccc(C(=O)OCCOC(=O)c3ccc(-c4c5nc(c(-c6c(F)cc(S(=O)(=O)[O-])cc6F)c6ccc([nH]6)c(-c6c(F)cc(S(=O)(=O)[O-])cc6F)c6nc(c(-c7c(F)cc(S(=O)(=O)[O-])cc7F)c7ccc4[nH]7)C=C6)C=C5)cc3)n2)n1
REMARK SMILES IDX 21 1 20 2 18 3 19 4 17 5 14 6 15 7 92 8 16 9 12 10 13 11
REMARK SMILES IDX 10 12 9 13 11 15 7 16 8 17 6 18 3 19 4 20 93 21 5 22 2 23
REMARK SMILES IDX 1 24 22 25 23 26 24 27 25 28 26 29 27 30 91 31 28 32 90 33
REMARK SMILES IDX 29 34 30 35 31 36 84 37 32 38 89 39 83 40 85 41 33 42 88 43
REMARK SMILES IDX 82 44 81 45 34 47 68 48 47 49 67 50 48 51 51 52 66 53 86 54
REMARK SMILES IDX 49 55 50 56 65 58 87 59 52 60 35 61 36 62 45 63 37 64 38 65
REMARK SMILES IDX 44 66 46 67 39 68 40 69 41 70 42 71 43 72 69 73 70 74 79 75
REMARK SMILES IDX 71 76 72 77 78 78 80 79 73 80 74 81 75 82 76 83 77 84 53 85
REMARK SMILES IDX 54 86 63 87 55 88 56 89 62 90 64 91 57 92 58 93 59 94 60 95
REMARK SMILES IDX 61 96
REMARK H PARENT 9 14 85 46 51 57
REMARK Flexibility Score: inf
ROOT
ATOM      1  C   UNL A   1      41.412  19.956  26.396  1.00  0.00     0.275 C 
ENDROOT
BRANCH   1   2
ATOM      2  O   UNL A   1      40.660  20.870  25.585  1.00  0.00    -0.457 OA
BRANCH   2   3
ATOM      3  C   UNL A   1      39.751  21.639  26.276  1.00  0.00     0.358 C 
ATOM      4  O   UNL A   1      40.068  22.401  27.189  1.00  0.00    -0.244 OA
BRANCH   3   5
ATOM      5  C   UNL A   1      38.373  21.578  25.756  1.00  0.00     0.170 A 
ATOM      6  N   UNL A   1      36.368  22.069  25.200  1.00  0.00    -0.260 N 
ATOM      7  C   UNL A   1      36.536  20.774  24.789  1.00  0.00     0.110 A 
ATOM      8  N   UNL A   1      37.489  22.599  25.751  1.00  0.00    -0.165 NA
ATOM      9  C   UNL A   1      37.817  20.432  25.124  1.00  0.00     0.057 A 
BRANCH   6  10
ATOM     10  C   UNL A   1      35.196  22.904  24.943  1.00  0.00     0.193 C 
ATOM     11  C   UNL A   1      35.249  24.310  25.553  1.00  0.00     0.044 C 
BRANCH  10  12
ATOM     12  C   UNL A   1      34.795  23.012  23.480  1.00  0.00     0.245 C 
ATOM     13  N   UNL A   1      33.614  22.543  22.994  1.00  0.00    -0.346 N 
ATOM     14  H   UNL A   1      33.579  22.451  22.014  1.00  0.00     0.164 HD
ATOM     15  O   UNL A   1      35.624  23.394  22.641  1.00  0.00    -0.273 OA
BRANCH  13  16
ATOM     16  C   UNL A   1      32.389  22.154  23.689  1.00  0.00     0.130 C 
ATOM     17  C   UNL A   1      32.114  23.081  24.870  1.00  0.00     0.038 C 
BRANCH  16  18
ATOM     18  C   UNL A   1      32.536  20.731  24.148  1.00  0.00     0.084 A 
ATOM     19  N   UNL A   1      32.623  18.625  23.992  1.00  0.00    -0.273 N 
ATOM     20  C   UNL A   1      32.869  18.866  25.307  1.00  0.00     0.109 A 
ATOM     21  N   UNL A   1      32.379  19.731  23.275  1.00  0.00    -0.176 NA
ATOM     22  C   UNL A   1      32.817  20.231  25.448  1.00  0.00     0.047 A 
BRANCH  19  23
ATOM     23  C   UNL A   1      32.754  17.365  23.303  1.00  0.00     0.141 C 
ATOM     24  C   UNL A   1      34.178  16.868  23.195  1.00  0.00     0.029 C 
ENDBRANCH  19  23
ENDBRANCH  16  18
ENDBRANCH  13  16
ENDBRANCH  10  12
ENDBRANCH   6  10
ENDBRANCH   3   5
ENDBRANCH   2   3
ENDBRANCH   1   2
BRANCH   1  25
ATOM     25  C   UNL A   1      42.827  19.602  25.898  1.00  0.00     0.275 C 
BRANCH  25  26
ATOM     26  O   UNL A   1      43.393  20.300  24.774  1.00  0.00    -0.458 OA
BRANCH  26  27
ATOM     27  C   UNL A   1      44.460  21.084  25.023  1.00  0.00     0.338 C 
ATOM     28  O   UNL A   1      45.625  20.794  24.778  1.00  0.00    -0.246 OA
BRANCH  27  29
ATOM     29  C   UNL A   1      44.154  22.349  25.699  1.00  0.00     0.060 A 
ATOM     30  C   UNL A   1      44.738  22.558  26.960  1.00  0.00     0.016 A 
ATOM     31  C   UNL A   1      43.214  23.249  25.188  1.00  0.00     0.016 A 
ATOM     32  C   UNL A   1      44.361  23.649  27.723  1.00  0.00     0.010 A 
ATOM     33  C   UNL A   1      42.828  24.338  25.960  1.00  0.00     0.010 A 
ATOM     34  C   UNL A   1      43.396  24.529  27.225  1.00  0.00    -0.014 A 
BRANCH  34  35
ATOM     35  C   UNL A   1      43.207  25.790  27.939  1.00  0.00     0.031 A 
ATOM     36  C   UNL A   1      44.297  26.780  27.670  1.00  0.00     0.074 A 
ATOM     37  C   UNL A   1      42.080  26.120  28.598  1.00  0.00     0.049 A 
ATOM     38  N   UNL A   1      45.088  27.370  28.506  1.00  0.00    -0.248 NA
ATOM     39  C   UNL A   1      44.637  27.031  26.255  1.00  0.00     0.031 C 
ATOM     40  C   UNL A   1      40.824  25.370  28.671  1.00  0.00     0.029 A 
ATOM     41  N   UNL A   1      41.778  27.276  29.251  1.00  0.00    -0.354 N 
ATOM     42  C   UNL A   1      45.892  28.213  27.738  1.00  0.00     0.074 A 
ATOM     43  C   UNL A   1      45.695  27.833  26.366  1.00  0.00     0.031 C 
ATOM     44  C   UNL A   1      39.843  26.192  29.112  1.00  0.00     0.029 A 
ATOM     45  C   UNL A   1      40.419  27.481  29.459  1.00  0.00     0.049 A 
ATOM     46  H   UNL A   1      42.465  27.914  29.552  1.00  0.00     0.167 HD
ATOM     47  C   UNL A   1      46.502  29.315  28.256  1.00  0.00     0.037 A 
ATOM     48  C   UNL A   1      39.819  28.654  29.798  1.00  0.00     0.037 A 
ATOM     49  C   UNL A   1      46.605  29.240  29.688  1.00  0.00     0.049 A 
ATOM     50  C   UNL A   1      40.874  29.545  30.352  1.00  0.00     0.074 A 
ATOM     51  C   UNL A   1      47.208  28.356  30.562  1.00  0.00     0.029 A 
ATOM     52  N   UNL A   1      45.709  29.955  30.444  1.00  0.00    -0.354 N 
ATOM     53  N   UNL A   1      41.506  29.319  31.471  1.00  0.00    -0.248 NA
ATOM     54  C   UNL A   1      41.551  30.441  29.425  1.00  0.00     0.031 C 
ATOM     55  C   UNL A   1      46.291  28.231  31.647  1.00  0.00     0.029 A 
ATOM     56  C   UNL A   1      45.224  29.097  31.400  1.00  0.00     0.049 A 
ATOM     57  H   UNL A   1      45.461  30.900  30.324  1.00  0.00     0.167 HD
ATOM     58  C   UNL A   1      42.821  29.687  31.220  1.00  0.00     0.074 A 
ATOM     59  C   UNL A   1      42.773  30.436  29.965  1.00  0.00     0.031 C 
ATOM     60  C   UNL A   1      43.865  29.120  31.894  1.00  0.00     0.037 A 
BRANCH  47  61
ATOM     61  C   UNL A   1      46.707  30.593  27.478  1.00  0.00     0.058 A 
ATOM     62  C   UNL A   1      47.992  31.160  27.375  1.00  0.00     0.135 A 
ATOM     63  C   UNL A   1      45.642  31.416  27.045  1.00  0.00     0.135 A 
ATOM     64  F   UNL A   1      49.075  30.480  27.785  1.00  0.00    -0.206 F 
ATOM     65  C   UNL A   1      48.197  32.463  26.915  1.00  0.00     0.059 A 
ATOM     66  C   UNL A   1      45.829  32.692  26.529  1.00  0.00     0.059 A 
ATOM     67  F   UNL A   1      44.360  31.061  27.193  1.00  0.00    -0.206 F 
ATOM     68  C   UNL A   1      47.106  33.224  26.503  1.00  0.00     0.060 A 
BRANCH  68  69
ATOM     69  S   UNL A   1      47.351  34.933  25.993  1.00  0.00     0.124 S 
ATOM     70  O   UNL A   1      45.984  35.343  25.688  1.00  0.00    -0.237 OA
ATOM     71  O   UNL A   1      47.945  35.524  27.188  1.00  0.00    -0.237 OA
ATOM     72  O   UNL A   1      48.247  34.817  24.847  1.00  0.00    -0.744 OA
ENDBRANCH  68  69
ENDBRANCH  47  61
BRANCH  48  73
ATOM     73  C   UNL A   1      38.507  29.177  29.317  1.00  0.00     0.058 A 
ATOM     74  C   UNL A   1      37.448  29.446  30.206  1.00  0.00     0.135 A 
ATOM     75  C   UNL A   1      38.354  29.686  28.011  1.00  0.00     0.135 A 
ATOM     76  F   UNL A   1      37.515  29.027  31.479  1.00  0.00    -0.206 F 
ATOM     77  C   UNL A   1      36.329  30.204  29.834  1.00  0.00     0.059 A 
ATOM     78  C   UNL A   1      37.244  30.433  27.614  1.00  0.00     0.059 A 
ATOM     79  F   UNL A   1      39.326  29.555  27.096  1.00  0.00    -0.206 F 
ATOM     80  C   UNL A   1      36.245  30.710  28.537  1.00  0.00     0.060 A 
BRANCH  80  81
ATOM     81  S   UNL A   1      34.894  31.829  28.093  1.00  0.00     0.124 S 
ATOM     82  O   UNL A   1      34.309  32.127  29.396  1.00  0.00    -0.237 OA
ATOM     83  O   UNL A   1      35.602  32.926  27.444  1.00  0.00    -0.237 OA
ATOM     84  O   UNL A   1      34.061  31.018  27.207  1.00  0.00    -0.744 OA
ENDBRANCH  80  81
ENDBRANCH  48  73
BRANCH  60  85
ATOM     85  C   UNL A   1      43.569  28.263  33.100  1.00  0.00     0.058 A 
ATOM     86  C   UNL A   1      43.288  28.766  34.384  1.00  0.00     0.135 A 
ATOM     87  C   UNL A   1      43.396  26.884  32.906  1.00  0.00     0.135 A 
ATOM     88  F   UNL A   1      43.322  30.082  34.633  1.00  0.00    -0.206 F 
ATOM     89  C   UNL A   1      42.893  27.932  35.433  1.00  0.00     0.059 A 
ATOM     90  C   UNL A   1      42.970  26.039  33.928  1.00  0.00     0.059 A 
ATOM     91  F   UNL A   1      43.586  26.347  31.690  1.00  0.00    -0.206 F 
ATOM     92  C   UNL A   1      42.733  26.568  35.194  1.00  0.00     0.060 A 
BRANCH  92  93
ATOM     93  S   UNL A   1      42.144  25.504  36.529  1.00  0.00     0.124 S 
ATOM     94  O   UNL A   1      43.318  25.411  37.388  1.00  0.00    -0.237 OA
ATOM     95  O   UNL A   1      41.020  26.264  37.070  1.00  0.00    -0.237 OA
ATOM     96  O   UNL A   1      41.775  24.268  35.842  1.00  0.00    -0.744 OA
ENDBRANCH  92  93
ENDBRANCH  60  85
ENDBRANCH  34  35
ENDBRANCH  27  29
ENDBRANCH  26  27
ENDBRANCH  25  26
ENDBRANCH   1  25
TORSDOF 19
ENDMDL
MODEL 2
REMARK VINA RESULT:     -11.5      1.232      2.479
REMARK SMILES CCn1ccc([C@@H](C)NC(=O)[C@H](C)n2ccc(C(=O)OCCOC(=O)c3ccc(-c4c5nc(c(-c6c(F)cc(S(=O)(=O)[O-])cc6F)c6ccc([nH]6)c(-c6c(F)cc(S(=O)(=O)[O-])cc6F)c6nc(c(-c7c(F)cc(S(=O)(=O)[O-])cc7F)c7ccc4[nH]7)C=C6)C=C5)cc3)n2)n1
REMARK SMILES IDX 21 1 20 2 18 3 19 4 17 5 14 6 15 7 92 8 16 9 12 10 13 11
REMARK SMILES IDX 10 12 9 13 11 15 7 16 8 17 6 18 3 19 4 20 93 21 5 22 2 23
REMARK SMILES IDX 1 24 22 25 23 26 24 27 25 28 26 29 27 30 91 31 28 32 90 33
REMARK SMILES IDX 29 34 30 35 31 36 84 37 32 38 89 39 83 40 85 41 33 42 88 43
REMARK SMILES IDX 82 44 81 45 34 47 68 48 47 49 67 50 48 51 51 52 66 53 86 54
REMARK SMILES IDX 49 55 50 56 65 58 87 59 52 60 35 61 36 62 45 63 37 64 38 65
REMARK SMILES IDX 44 66 46 67 39 68 40 69 41 70 42 71 43 72 69 73 70 74 79 75
REMARK SMILES IDX 71 76 72 77 78 78 80 79 73 80 74 81 75 82 76 83 77 84 53 85
REMARK SMILES IDX 54 86 63 87 55 88 56 89 62 90 64 91 57 92 58 93 59 94 60 95
REMARK SMILES IDX 61 96
REMARK H PARENT 9 14 85 46 51 57
REMARK Flexibility Score: inf
ROOT
ATOM      1  C   UNL A   1      41.979  19.229  26.336  1.00  0.00     0.275 C 
ENDROOT
BRANCH   1   2
ATOM      2  O   UNL A   1      40.918  19.784  25.545  1.00  0.00    -0.457 OA
BRANCH   2   3
ATOM      3  C   UNL A   1      40.191  20.772  26.171  1.00  0.00     0.358 C 
ATOM      4  O   UNL A   1      40.675  21.550  26.991  1.00  0.00    -0.244 OA
BRANCH   3   5
ATOM      5  C   UNL A   1      38.805  20.912  25.688  1.00  0.00     0.170 A 
ATOM      6  N   UNL A   1      36.885  21.696  25.166  1.00  0.00    -0.260 N 
ATOM      7  C   UNL A   1      36.835  20.378  24.801  1.00  0.00     0.110 A 
ATOM      8  N   UNL A   1      38.092  22.060  25.668  1.00  0.00    -0.165 NA
ATOM      9  C   UNL A   1      38.055  19.849  25.115  1.00  0.00     0.057 A 
BRANCH   6  10
ATOM     10  C   UNL A   1      35.852  22.697  24.908  1.00  0.00     0.193 C 
ATOM     11  C   UNL A   1      36.014  24.016  25.672  1.00  0.00     0.044 C 
BRANCH  10  12
ATOM     12  C   UNL A   1      35.609  23.002  23.437  1.00  0.00     0.245 C 
ATOM     13  N   UNL A   1      34.375  22.978  22.865  1.00  0.00    -0.346 N 
ATOM     14  H   UNL A   1      34.377  22.949  21.881  1.00  0.00     0.164 HD
ATOM     15  O   UNL A   1      36.572  23.124  22.666  1.00  0.00    -0.273 OA
BRANCH  13  16
ATOM     16  C   UNL A   1      33.046  22.989  23.474  1.00  0.00     0.130 C 
ATOM     17  C   UNL A   1      32.131  21.970  22.803  1.00  0.00     0.038 C 
BRANCH  16  18
ATOM     18  C   UNL A   1      32.482  24.377  23.356  1.00  0.00     0.084 A 
ATOM     19  N   UNL A   1      31.643  26.208  23.996  1.00  0.00    -0.273 N 
ATOM     20  C   UNL A   1      31.792  26.368  22.654  1.00  0.00     0.109 A 
ATOM     21  N   UNL A   1      32.015  25.000  24.442  1.00  0.00    -0.176 NA
ATOM     22  C   UNL A   1      32.335  25.190  22.200  1.00  0.00     0.047 A 
BRANCH  19  23
ATOM     23  C   UNL A   1      31.290  27.225  24.955  1.00  0.00     0.141 C 
ATOM     24  C   UNL A   1      31.181  28.613  24.366  1.00  0.00     0.029 C 
ENDBRANCH  19  23
ENDBRANCH  16  18
ENDBRANCH  13  16
ENDBRANCH  10  12
ENDBRANCH   6  10
ENDBRANCH   3   5
ENDBRANCH   2   3
ENDBRANCH   1   2
BRANCH   1  25
ATOM     25  C   UNL A   1      43.395  19.296  25.728  1.00  0.00     0.275 C 
BRANCH  25  26
ATOM     26  O   UNL A   1      43.653  20.140  24.593  1.00  0.00    -0.458 OA
BRANCH  26  27
ATOM     27  C   UNL A   1      44.669  21.017  24.708  1.00  0.00     0.338 C 
ATOM     28  O   UNL A   1      45.817  20.827  24.323  1.00  0.00    -0.246 OA
BRANCH  27  29
ATOM     29  C   UNL A   1      44.337  22.258  25.416  1.00  0.00     0.060 A 
ATOM     30  C   UNL A   1      45.025  22.514  26.615  1.00  0.00     0.016 A 
ATOM     31  C   UNL A   1      43.288  23.084  25.003  1.00  0.00     0.016 A 
ATOM     32  C   UNL A   1      44.644  23.576  27.415  1.00  0.00     0.010 A 
ATOM     33  C   UNL A   1      42.899  24.143  25.814  1.00  0.00     0.010 A 
ATOM     34  C   UNL A   1      43.572  24.380  27.018  1.00  0.00    -0.014 A 
BRANCH  34  35
ATOM     35  C   UNL A   1      43.361  25.626  27.752  1.00  0.00     0.031 A 
ATOM     36  C   UNL A   1      44.438  26.637  27.505  1.00  0.00     0.074 A 
ATOM     37  C   UNL A   1      42.225  25.929  28.410  1.00  0.00     0.049 A 
ATOM     38  N   UNL A   1      45.215  27.225  28.355  1.00  0.00    -0.248 NA
ATOM     39  C   UNL A   1      44.781  26.917  26.096  1.00  0.00     0.031 C 
ATOM     40  C   UNL A   1      40.981  25.158  28.464  1.00  0.00     0.029 A 
ATOM     41  N   UNL A   1      41.903  27.068  29.081  1.00  0.00    -0.354 N 
ATOM     42  C   UNL A   1      46.011  28.092  27.605  1.00  0.00     0.074 A 
ATOM     43  C   UNL A   1      45.826  27.732  26.227  1.00  0.00     0.031 C 
ATOM     44  C   UNL A   1      39.985  25.958  28.914  1.00  0.00     0.029 A 
ATOM     45  C   UNL A   1      40.541  27.249  29.285  1.00  0.00     0.049 A 
ATOM     46  H   UNL A   1      42.579  27.711  29.396  1.00  0.00     0.167 HD
ATOM     47  C   UNL A   1      46.601  29.194  28.146  1.00  0.00     0.037 A 
ATOM     48  C   UNL A   1      39.920  28.407  29.640  1.00  0.00     0.037 A 
ATOM     49  C   UNL A   1      46.698  29.097  29.576  1.00  0.00     0.049 A 
ATOM     50  C   UNL A   1      40.959  29.305  30.215  1.00  0.00     0.074 A 
ATOM     51  C   UNL A   1      47.310  28.207  30.439  1.00  0.00     0.029 A 
ATOM     52  N   UNL A   1      45.787  29.785  30.340  1.00  0.00    -0.354 N 
ATOM     53  N   UNL A   1      41.590  29.070  31.334  1.00  0.00    -0.248 NA
ATOM     54  C   UNL A   1      41.628  30.226  29.307  1.00  0.00     0.031 C 
ATOM     55  C   UNL A   1      46.389  28.050  31.516  1.00  0.00     0.029 A 
ATOM     56  C   UNL A   1      45.311  28.904  31.278  1.00  0.00     0.049 A 
ATOM     57  H   UNL A   1      45.525  30.729  30.234  1.00  0.00     0.167 HD
ATOM     58  C   UNL A   1      42.900  29.461  31.096  1.00  0.00     0.074 A 
ATOM     59  C   UNL A   1      42.847  30.230  29.853  1.00  0.00     0.031 C 
ATOM     60  C   UNL A   1      43.949  28.899  31.766  1.00  0.00     0.037 A 
BRANCH  47  61
ATOM     61  C   UNL A   1      46.791  30.488  27.390  1.00  0.00     0.058 A 
ATOM     62  C   UNL A   1      48.065  31.082  27.314  1.00  0.00     0.135 A 
ATOM     63  C   UNL A   1      45.715  31.296  26.955  1.00  0.00     0.135 A 
ATOM     64  F   UNL A   1      49.156  30.417  27.728  1.00  0.00    -0.206 F 
ATOM     65  C   UNL A   1      48.251  32.396  26.876  1.00  0.00     0.059 A 
ATOM     66  C   UNL A   1      45.883  32.584  26.462  1.00  0.00     0.059 A 
ATOM     67  F   UNL A   1      44.438  30.913  27.080  1.00  0.00    -0.206 F 
ATOM     68  C   UNL A   1      47.150  33.141  26.461  1.00  0.00     0.060 A 
BRANCH  68  69
ATOM     69  S   UNL A   1      47.367  34.863  25.981  1.00  0.00     0.124 S 
ATOM     70  O   UNL A   1      48.307  34.739  24.873  1.00  0.00    -0.237 OA
ATOM     71  O   UNL A   1      46.006  35.253  25.626  1.00  0.00    -0.237 OA
ATOM     72  O   UNL A   1      47.894  35.485  27.192  1.00  0.00    -0.744 OA
ENDBRANCH  68  69
ENDBRANCH  47  61
BRANCH  48  73
ATOM     73  C   UNL A   1      38.603  28.919  29.161  1.00  0.00     0.058 A 
ATOM     74  C   UNL A   1      37.527  29.130  30.045  1.00  0.00     0.135 A 
ATOM     75  C   UNL A   1      38.456  29.473  27.873  1.00  0.00     0.135 A 
ATOM     76  F   UNL A   1      37.587  28.666  31.302  1.00  0.00    -0.206 F 
ATOM     77  C   UNL A   1      36.396  29.877  29.687  1.00  0.00     0.059 A 
ATOM     78  C   UNL A   1      37.335  30.209  27.489  1.00  0.00     0.059 A 
ATOM     79  F   UNL A   1      39.442  29.398  26.968  1.00  0.00    -0.206 F 
ATOM     80  C   UNL A   1      36.318  30.429  28.408  1.00  0.00     0.060 A 
BRANCH  80  81
ATOM     81  S   UNL A   1      34.947  31.534  27.987  1.00  0.00     0.124 S 
ATOM     82  O   UNL A   1      34.332  31.760  29.291  1.00  0.00    -0.237 OA
ATOM     83  O   UNL A   1      35.639  32.675  27.400  1.00  0.00    -0.237 OA
ATOM     84  O   UNL A   1      34.151  30.743  27.052  1.00  0.00    -0.744 OA
ENDBRANCH  80  81
ENDBRANCH  48  73
BRANCH  60  85
ATOM     85  C   UNL A   1      43.659  28.017  32.955  1.00  0.00     0.058 A 
ATOM     86  C   UNL A   1      43.620  26.611  32.913  1.00  0.00     0.135 A 
ATOM     87  C   UNL A   1      43.587  28.616  34.222  1.00  0.00     0.135 A 
ATOM     88  F   UNL A   1      43.790  25.950  31.760  1.00  0.00    -0.206 F 
ATOM     89  C   UNL A   1      43.477  25.841  34.069  1.00  0.00     0.059 A 
ATOM     90  C   UNL A   1      43.477  27.867  35.391  1.00  0.00     0.059 A 
ATOM     91  F   UNL A   1      43.681  29.951  34.341  1.00  0.00    -0.206 F 
ATOM     92  C   UNL A   1      43.409  26.479  35.307  1.00  0.00     0.060 A 
BRANCH  92  93
ATOM     93  S   UNL A   1      43.306  25.480  36.807  1.00  0.00     0.124 S 
ATOM     94  O   UNL A   1      44.630  24.871  36.863  1.00  0.00    -0.237 OA
ATOM     95  O   UNL A   1      43.023  26.478  37.836  1.00  0.00    -0.237 OA
ATOM     96  O   UNL A   1      42.206  24.559  36.528  1.00  0.00    -0.744 OA
ENDBRANCH  92  93
ENDBRANCH  60  85
ENDBRANCH  34  35
ENDBRANCH  27  29
ENDBRANCH  26  27
ENDBRANCH  25  26
ENDBRANCH   1  25
TORSDOF 19
ENDMDL
MODEL 3
REMARK VINA RESULT:     -11.5      1.392      2.068
REMARK SMILES CCn1ccc([C@@H](C)NC(=O)[C@H](C)n2ccc(C(=O)OCCOC(=O)c3ccc(-c4c5nc(c(-c6c(F)cc(S(=O)(=O)[O-])cc6F)c6ccc([nH]6)c(-c6c(F)cc(S(=O)(=O)[O-])cc6F)c6nc(c(-c7c(F)cc(S(=O)(=O)[O-])cc7F)c7ccc4[nH]7)C=C6)C=C5)cc3)n2)n1
REMARK SMILES IDX 21 1 20 2 18 3 19 4 17 5 14 6 15 7 92 8 16 9 12 10 13 11
REMARK SMILES IDX 10 12 9 13 11 15 7 16 8 17 6 18 3 19 4 20 93 21 5 22 2 23
REMARK SMILES IDX 1 24 22 25 23 26 24 27 25 28 26 29 27 30 91 31 28 32 90 33
REMARK SMILES IDX 29 34 30 35 31 36 84 37 32 38 89 39 83 40 85 41 33 42 88 43
REMARK SMILES IDX 82 44 81 45 34 47 68 48 47 49 67 50 48 51 51 52 66 53 86 54
REMARK SMILES IDX 49 55 50 56 65 58 87 59 52 60 35 61 36 62 45 63 37 64 38 65
REMARK SMILES IDX 44 66 46 67 39 68 40 69 41 70 42 71 43 72 69 73 70 74 79 75
REMARK SMILES IDX 71 76 72 77 78 78 80 79 73 80 74 81 75 82 76 83 77 84 53 85
REMARK SMILES IDX 54 86 63 87 55 88 56 89 62 90 64 91 57 92 58 93 59 94 60 95
REMARK SMILES IDX 61 96
REMARK H PARENT 9 14 85 46 51 57
REMARK Flexibility Score: inf
ROOT
ATOM      1  C   UNL A   1      42.014  19.493  26.586  1.00  0.00     0.275 C 
ENDROOT
BRANCH   1   2
ATOM      2  O   UNL A   1      40.833  20.205  26.190  1.00  0.00    -0.457 OA
BRANCH   2   3
ATOM      3  C   UNL A   1      40.555  21.323  26.944  1.00  0.00     0.358 C 
ATOM      4  O   UNL A   1      41.248  21.687  27.892  1.00  0.00    -0.244 OA
BRANCH   3   5
ATOM      5  C   UNL A   1      39.426  22.131  26.448  1.00  0.00     0.170 A 
ATOM      6  N   UNL A   1      37.649  22.776  25.449  1.00  0.00    -0.260 N 
ATOM      7  C   UNL A   1      38.073  23.873  26.149  1.00  0.00     0.110 A 
ATOM      8  N   UNL A   1      38.431  21.685  25.650  1.00  0.00    -0.165 NA
ATOM      9  C   UNL A   1      39.207  23.489  26.808  1.00  0.00     0.057 A 
BRANCH   6  10
ATOM     10  C   UNL A   1      36.403  22.671  24.692  1.00  0.00     0.193 C 
ATOM     11  C   UNL A   1      36.562  22.673  23.167  1.00  0.00     0.044 C 
BRANCH  10  12
ATOM     12  C   UNL A   1      35.504  21.513  25.095  1.00  0.00     0.245 C 
ATOM     13  N   UNL A   1      34.540  21.614  26.050  1.00  0.00    -0.346 N 
ATOM     14  H   UNL A   1      34.202  20.754  26.388  1.00  0.00     0.164 HD
ATOM     15  O   UNL A   1      35.740  20.372  24.670  1.00  0.00    -0.273 OA
BRANCH  13  16
ATOM     16  C   UNL A   1      33.924  22.793  26.656  1.00  0.00     0.130 C 
ATOM     17  C   UNL A   1      33.315  22.454  28.013  1.00  0.00     0.038 C 
BRANCH  16  18
ATOM     18  C   UNL A   1      32.877  23.318  25.713  1.00  0.00     0.084 A 
ATOM     19  N   UNL A   1      32.087  24.187  23.957  1.00  0.00    -0.273 N 
ATOM     20  C   UNL A   1      30.987  23.896  24.702  1.00  0.00     0.109 A 
ATOM     21  N   UNL A   1      33.245  23.885  24.560  1.00  0.00    -0.176 NA
ATOM     22  C   UNL A   1      31.464  23.330  25.859  1.00  0.00     0.047 A 
BRANCH  19  23
ATOM     23  C   UNL A   1      32.111  24.619  22.582  1.00  0.00     0.141 C 
ATOM     24  C   UNL A   1      32.779  25.959  22.370  1.00  0.00     0.029 C 
ENDBRANCH  19  23
ENDBRANCH  16  18
ENDBRANCH  13  16
ENDBRANCH  10  12
ENDBRANCH   6  10
ENDBRANCH   3   5
ENDBRANCH   2   3
ENDBRANCH   1   2
BRANCH   1  25
ATOM     25  C   UNL A   1      43.092  19.296  25.501  1.00  0.00     0.275 C 
BRANCH  25  26
ATOM     26  O   UNL A   1      44.287  20.098  25.517  1.00  0.00    -0.458 OA
BRANCH  26  27
ATOM     27  C   UNL A   1      44.283  21.205  24.749  1.00  0.00     0.338 C 
ATOM     28  O   UNL A   1      44.536  21.238  23.551  1.00  0.00    -0.246 OA
BRANCH  27  29
ATOM     29  C   UNL A   1      44.011  22.455  25.468  1.00  0.00     0.060 A 
ATOM     30  C   UNL A   1      44.672  22.645  26.693  1.00  0.00     0.016 A 
ATOM     31  C   UNL A   1      43.033  23.355  25.036  1.00  0.00     0.016 A 
ATOM     32  C   UNL A   1      44.336  23.718  27.499  1.00  0.00     0.010 A 
ATOM     33  C   UNL A   1      42.688  24.425  25.852  1.00  0.00     0.010 A 
ATOM     34  C   UNL A   1      43.333  24.598  27.081  1.00  0.00    -0.014 A 
BRANCH  34  35
ATOM     35  C   UNL A   1      43.181  25.843  27.830  1.00  0.00     0.031 A 
ATOM     36  C   UNL A   1      44.269  26.831  27.546  1.00  0.00     0.074 A 
ATOM     37  C   UNL A   1      42.079  26.167  28.535  1.00  0.00     0.049 A 
ATOM     38  N   UNL A   1      45.093  27.396  28.368  1.00  0.00    -0.248 NA
ATOM     39  C   UNL A   1      44.562  27.112  26.126  1.00  0.00     0.031 C 
ATOM     40  C   UNL A   1      40.821  25.425  28.634  1.00  0.00     0.029 A 
ATOM     41  N   UNL A   1      41.810  27.310  29.225  1.00  0.00    -0.354 N 
ATOM     42  C   UNL A   1      45.878  28.249  27.591  1.00  0.00     0.074 A 
ATOM     43  C   UNL A   1      45.630  27.903  26.219  1.00  0.00     0.031 C 
ATOM     44  C   UNL A   1      39.863  26.244  29.128  1.00  0.00     0.029 A 
ATOM     45  C   UNL A   1      40.462  27.520  29.484  1.00  0.00     0.049 A 
ATOM     46  H   UNL A   1      42.513  27.935  29.516  1.00  0.00     0.167 HD
ATOM     47  C   UNL A   1      46.515  29.334  28.113  1.00  0.00     0.037 A 
ATOM     48  C   UNL A   1      39.883  28.690  29.870  1.00  0.00     0.037 A 
ATOM     49  C   UNL A   1      46.667  29.225  29.538  1.00  0.00     0.049 A 
ATOM     50  C   UNL A   1      40.964  29.560  30.408  1.00  0.00     0.074 A 
ATOM     51  C   UNL A   1      47.292  28.317  30.371  1.00  0.00     0.029 A 
ATOM     52  N   UNL A   1      45.803  29.929  30.342  1.00  0.00    -0.354 N 
ATOM     53  N   UNL A   1      41.633  29.303  31.499  1.00  0.00    -0.248 NA
ATOM     54  C   UNL A   1      41.617  30.472  29.479  1.00  0.00     0.031 C 
ATOM     55  C   UNL A   1      46.412  28.174  31.483  1.00  0.00     0.029 A 
ATOM     56  C   UNL A   1      45.344  29.053  31.294  1.00  0.00     0.049 A 
ATOM     57  H   UNL A   1      45.559  30.879  30.252  1.00  0.00     0.167 HD
ATOM     58  C   UNL A   1      42.941  29.666  31.211  1.00  0.00     0.074 A 
ATOM     59  C   UNL A   1      42.856  30.444  29.976  1.00  0.00     0.031 C 
ATOM     60  C   UNL A   1      44.003  29.076  31.835  1.00  0.00     0.037 A 
BRANCH  47  61
ATOM     61  C   UNL A   1      46.704  30.628  27.358  1.00  0.00     0.058 A 
ATOM     62  C   UNL A   1      47.992  31.176  27.204  1.00  0.00     0.135 A 
ATOM     63  C   UNL A   1      45.633  31.480  27.001  1.00  0.00     0.135 A 
ATOM     64  F   UNL A   1      49.082  30.467  27.540  1.00  0.00    -0.206 F 
ATOM     65  C   UNL A   1      48.198  32.486  26.766  1.00  0.00     0.059 A 
ATOM     66  C   UNL A   1      45.817  32.766  26.509  1.00  0.00     0.059 A 
ATOM     67  F   UNL A   1      44.354  31.144  27.205  1.00  0.00    -0.206 F 
ATOM     68  C   UNL A   1      47.102  33.276  26.430  1.00  0.00     0.060 A 
BRANCH  68  69
ATOM     69  S   UNL A   1      47.352  34.994  25.952  1.00  0.00     0.124 S 
ATOM     70  O   UNL A   1      47.635  35.616  27.241  1.00  0.00    -0.237 OA
ATOM     71  O   UNL A   1      48.478  34.892  25.029  1.00  0.00    -0.237 OA
ATOM     72  O   UNL A   1      46.078  35.361  25.339  1.00  0.00    -0.744 OA
ENDBRANCH  68  69
ENDBRANCH  47  61
BRANCH  48  73
ATOM     73  C   UNL A   1      38.560  29.234  29.447  1.00  0.00     0.058 A 
ATOM     74  C   UNL A   1      37.558  29.552  30.385  1.00  0.00     0.135 A 
ATOM     75  C   UNL A   1      38.348  29.714  28.139  1.00  0.00     0.135 A 
ATOM     76  F   UNL A   1      37.684  29.163  31.663  1.00  0.00    -0.206 F 
ATOM     77  C   UNL A   1      36.439  30.329  30.055  1.00  0.00     0.059 A 
ATOM     78  C   UNL A   1      37.237  30.479  27.783  1.00  0.00     0.059 A 
ATOM     79  F   UNL A   1      39.265  29.536  27.177  1.00  0.00    -0.206 F 
ATOM     80  C   UNL A   1      36.297  30.804  28.751  1.00  0.00     0.060 A 
BRANCH  80  81
ATOM     81  S   UNL A   1      34.951  31.946  28.351  1.00  0.00     0.124 S 
ATOM     82  O   UNL A   1      35.652  32.989  27.610  1.00  0.00    -0.237 OA
ATOM     83  O   UNL A   1      34.051  31.104  27.573  1.00  0.00    -0.237 OA
ATOM     84  O   UNL A   1      34.447  32.347  29.662  1.00  0.00    -0.744 OA
ENDBRANCH  80  81
ENDBRANCH  48  73
BRANCH  60  85
ATOM     85  C   UNL A   1      43.741  28.193  33.031  1.00  0.00     0.058 A 
ATOM     86  C   UNL A   1      43.483  28.669  34.330  1.00  0.00     0.135 A 
ATOM     87  C   UNL A   1      43.578  26.817  32.814  1.00  0.00     0.135 A 
ATOM     88  F   UNL A   1      43.508  29.980  34.603  1.00  0.00    -0.206 F 
ATOM     89  C   UNL A   1      43.119  27.812  35.370  1.00  0.00     0.059 A 
ATOM     90  C   UNL A   1      43.184  25.948  33.829  1.00  0.00     0.059 A 
ATOM     91  F   UNL A   1      43.749  26.304  31.584  1.00  0.00    -0.206 F 
ATOM     92  C   UNL A   1      42.968  26.451  35.110  1.00  0.00     0.060 A 
BRANCH  92  93
ATOM     93  S   UNL A   1      42.418  25.356  36.436  1.00  0.00     0.124 S 
ATOM     94  O   UNL A   1      41.861  26.298  37.400  1.00  0.00    -0.237 OA
ATOM     95  O   UNL A   1      41.452  24.495  35.759  1.00  0.00    -0.237 OA
ATOM     96  O   UNL A   1      43.647  24.686  36.857  1.00  0.00    -0.744 OA
ENDBRANCH  92  93
ENDBRANCH  60  85
ENDBRANCH  34  35
ENDBRANCH  27  29
ENDBRANCH  26  27
ENDBRANCH  25  26
ENDBRANCH   1  25
TORSDOF 19
ENDMDL
