MODEL 1
REMARK VINA RESULT:     -11.4      0.000      0.000
REMARK SMILES Cc1cc([N+](=O)[O-])c(-c2ccc(C(=O)OCCOC(=O)c3ccc(-c4c5nc(c(-c6c(F)cc(S(=O)(=O)[O-])cc6F)c6ccc([nH]6)c(-c6c(F)cc(S(=O)(=O)[O-])cc6F)c6nc(c(-c7c(F)cc(S(=O)(=O)[O-])cc7F)c7ccc4[nH]7)C=C6)C=C5)cc3)o2)cc1Cl
REMARK SMILES IDX 17 1 16 2 15 3 13 4 14 5 12 6 9 7 10 8 87 9 11 10 8 11 1 12
REMARK SMILES IDX 2 13 3 14 89 15 4 16 88 17 90 18 5 19 6 20 7 21 18 22 19 23
REMARK SMILES IDX 20 24 21 25 22 26 86 27 23 28 85 29 24 30 25 31 26 32 79 33
REMARK SMILES IDX 27 34 84 35 78 36 80 37 28 38 83 39 77 40 76 41 29 43 63 44
REMARK SMILES IDX 42 45 62 46 43 47 46 48 61 49 81 50 44 51 45 52 60 54 82 55
REMARK SMILES IDX 47 56 30 57 31 58 40 59 32 60 33 61 39 62 41 63 34 64 35 65
REMARK SMILES IDX 36 66 37 67 38 68 64 69 65 70 74 71 66 72 67 73 73 74 75 75
REMARK SMILES IDX 68 76 69 77 70 78 71 79 72 80 48 81 49 82 58 83 50 84 51 85
REMARK SMILES IDX 57 86 59 87 52 88 53 89 54 90 55 91 56 92
REMARK H PARENT 80 42 46 53
REMARK Flexibility Score: inf
ROOT
ATOM      1  C   UNL A   1      40.466  22.327  26.455  1.00  0.00     0.275 C 
ENDROOT
BRANCH   1   2
ATOM      2  C   UNL A   1      39.300  21.424  26.033  1.00  0.00     0.275 C 
BRANCH   2   3
ATOM      3  O   UNL A   1      38.084  22.174  25.852  1.00  0.00    -0.456 OA
BRANCH   3   4
ATOM      4  C   UNL A   1      36.998  21.452  25.437  1.00  0.00     0.374 C 
ATOM      5  O   UNL A   1      37.068  20.347  24.916  1.00  0.00    -0.242 OA
BRANCH   4   6
ATOM      6  C   UNL A   1      35.779  22.144  25.789  1.00  0.00     0.212 A 
ATOM      7  C   UNL A   1      34.329  23.796  25.606  1.00  0.00     0.142 A 
ATOM      8  C   UNL A   1      33.736  22.857  26.417  1.00  0.00     0.052 A 
ATOM      9  O   UNL A   1      35.575  23.389  25.250  1.00  0.00    -0.449 OA
ATOM     10  C   UNL A   1      34.666  21.790  26.532  1.00  0.00     0.059 A 
BRANCH   7  11
ATOM     11  C   UNL A   1      33.886  25.036  24.997  1.00  0.00     0.096 A 
ATOM     12  C   UNL A   1      32.855  28.892  23.273  1.00  0.00     0.046 C 
ATOM     13  C   UNL A   1      33.193  27.564  23.892  1.00  0.00    -0.026 A 
ATOM     14  C   UNL A   1      33.025  26.386  23.148  1.00  0.00     0.091 A 
ATOM     15  C   UNL A   1      33.687  27.463  25.201  1.00  0.00     0.045 A 
ATOM     16  C   UNL A   1      33.366  25.138  23.702  1.00  0.00     0.280 A 
ATOM     17  C   UNL A   1      34.029  26.218  25.743  1.00  0.00     0.040 A 
ATOM     18  Cl  UNL A   1      33.920  28.857  26.192  1.00  0.00    -0.084 Cl
BRANCH  16  19
ATOM     19  N   UNL A   1      33.200  23.960  22.860  1.00  0.00     0.063 N 
ATOM     20  O   UNL A   1      32.111  23.374  22.876  1.00  0.00    -0.258 OA
ATOM     21  O   UNL A   1      34.171  23.633  22.162  1.00  0.00    -0.258 OA
ENDBRANCH  16  19
ENDBRANCH   7  11
ENDBRANCH   4   6
ENDBRANCH   3   4
ENDBRANCH   2   3
ENDBRANCH   1   2
BRANCH   1  22
ATOM     22  O   UNL A   1      40.078  23.710  26.559  1.00  0.00    -0.458 OA
BRANCH  22  23
ATOM     23  C   UNL A   1      41.103  24.590  26.657  1.00  0.00     0.338 C 
ATOM     24  O   UNL A   1      42.116  24.606  25.978  1.00  0.00    -0.246 OA
BRANCH  23  25
ATOM     25  C   UNL A   1      40.775  25.648  27.631  1.00  0.00     0.060 A 
ATOM     26  C   UNL A   1      41.674  26.709  27.760  1.00  0.00     0.016 A 
ATOM     27  C   UNL A   1      39.652  25.570  28.458  1.00  0.00     0.016 A 
ATOM     28  C   UNL A   1      41.468  27.691  28.724  1.00  0.00     0.010 A 
ATOM     29  C   UNL A   1      39.448  26.556  29.432  1.00  0.00     0.010 A 
ATOM     30  C   UNL A   1      40.364  27.613  29.580  1.00  0.00    -0.014 A 
BRANCH  30  31
ATOM     31  C   UNL A   1      40.229  28.604  30.675  1.00  0.00     0.031 A 
ATOM     32  C   UNL A   1      41.141  28.523  31.866  1.00  0.00     0.074 A 
ATOM     33  C   UNL A   1      39.338  29.609  30.569  1.00  0.00     0.049 A 
ATOM     34  N   UNL A   1      41.175  29.276  32.935  1.00  0.00    -0.248 NA
ATOM     35  C   UNL A   1      42.149  27.452  31.852  1.00  0.00     0.031 C 
ATOM     36  C   UNL A   1      38.434  29.819  29.438  1.00  0.00     0.029 A 
ATOM     37  N   UNL A   1      39.055  30.645  31.421  1.00  0.00    -0.354 N 
ATOM     38  C   UNL A   1      42.200  28.768  33.724  1.00  0.00     0.074 A 
ATOM     39  C   UNL A   1      42.750  27.628  33.022  1.00  0.00     0.031 C 
ATOM     40  C   UNL A   1      37.700  30.922  29.663  1.00  0.00     0.029 A 
ATOM     41  C   UNL A   1      38.060  31.476  30.966  1.00  0.00     0.049 A 
ATOM     42  H   UNL A   1      39.521  30.781  32.278  1.00  0.00     0.167 HD
ATOM     43  C   UNL A   1      42.646  29.216  34.922  1.00  0.00     0.037 A 
ATOM     44  C   UNL A   1      37.494  32.555  31.542  1.00  0.00     0.037 A 
ATOM     45  C   UNL A   1      42.105  30.358  35.612  1.00  0.00     0.049 A 
ATOM     46  C   UNL A   1      37.982  33.008  32.893  1.00  0.00     0.074 A 
ATOM     47  C   UNL A   1      42.473  30.878  36.841  1.00  0.00     0.029 A 
ATOM     48  N   UNL A   1      41.084  31.162  35.129  1.00  0.00    -0.354 N 
ATOM     49  N   UNL A   1      38.935  32.503  33.638  1.00  0.00    -0.248 NA
ATOM     50  C   UNL A   1      37.315  34.180  33.482  1.00  0.00     0.031 C 
ATOM     51  C   UNL A   1      41.660  31.984  37.111  1.00  0.00     0.029 A 
ATOM     52  C   UNL A   1      40.807  32.173  36.034  1.00  0.00     0.049 A 
ATOM     53  H   UNL A   1      40.624  31.035  34.267  1.00  0.00     0.167 HD
ATOM     54  C   UNL A   1      38.999  33.306  34.771  1.00  0.00     0.074 A 
ATOM     55  C   UNL A   1      37.994  34.338  34.610  1.00  0.00     0.031 C 
ATOM     56  C   UNL A   1      39.815  33.200  35.848  1.00  0.00     0.037 A 
BRANCH  43  57
ATOM     57  C   UNL A   1      43.767  28.457  35.571  1.00  0.00     0.058 A 
ATOM     58  C   UNL A   1      43.522  27.406  36.467  1.00  0.00     0.135 A 
ATOM     59  C   UNL A   1      45.104  28.765  35.271  1.00  0.00     0.135 A 
ATOM     60  F   UNL A   1      42.262  27.084  36.802  1.00  0.00    -0.206 F 
ATOM     61  C   UNL A   1      44.562  26.698  37.061  1.00  0.00     0.059 A 
ATOM     62  C   UNL A   1      46.160  28.058  35.837  1.00  0.00     0.059 A 
ATOM     63  F   UNL A   1      45.393  29.764  34.422  1.00  0.00    -0.206 F 
ATOM     64  C   UNL A   1      45.880  27.034  36.741  1.00  0.00     0.060 A 
BRANCH  64  65
ATOM     65  S   UNL A   1      47.222  26.107  37.514  1.00  0.00     0.124 S 
ATOM     66  O   UNL A   1      48.190  26.034  36.424  1.00  0.00    -0.237 OA
ATOM     67  O   UNL A   1      47.594  26.964  38.634  1.00  0.00    -0.237 OA
ATOM     68  O   UNL A   1      46.593  24.841  37.880  1.00  0.00    -0.744 OA
ENDBRANCH  64  65
ENDBRANCH  43  57
BRANCH  44  69
ATOM     69  C   UNL A   1      36.394  33.279  30.853  1.00  0.00     0.058 A 
ATOM     70  C   UNL A   1      36.650  34.110  29.753  1.00  0.00     0.135 A 
ATOM     71  C   UNL A   1      35.066  33.164  31.292  1.00  0.00     0.135 A 
ATOM     72  F   UNL A   1      37.906  34.259  29.303  1.00  0.00    -0.206 F 
ATOM     73  C   UNL A   1      35.633  34.820  29.124  1.00  0.00     0.059 A 
ATOM     74  C   UNL A   1      34.028  33.846  30.665  1.00  0.00     0.059 A 
ATOM     75  F   UNL A   1      34.768  32.373  32.334  1.00  0.00    -0.206 F 
ATOM     76  C   UNL A   1      34.324  34.683  29.590  1.00  0.00     0.060 A 
BRANCH  76  77
ATOM     77  S   UNL A   1      33.001  35.582  28.753  1.00  0.00     0.124 S 
ATOM     78  O   UNL A   1      33.754  36.591  28.015  1.00  0.00    -0.237 OA
ATOM     79  O   UNL A   1      32.375  34.538  27.948  1.00  0.00    -0.237 OA
ATOM     80  O   UNL A   1      32.187  36.083  29.857  1.00  0.00    -0.744 OA
ENDBRANCH  76  77
ENDBRANCH  44  69
BRANCH  56  81
ATOM     81  C   UNL A   1      39.683  34.247  36.916  1.00  0.00     0.058 A 
ATOM     82  C   UNL A   1      38.961  34.007  38.095  1.00  0.00     0.135 A 
ATOM     83  C   UNL A   1      40.326  35.487  36.777  1.00  0.00     0.135 A 
ATOM     84  F   UNL A   1      38.326  32.838  38.273  1.00  0.00    -0.206 F 
ATOM     85  C   UNL A   1      38.862  34.972  39.094  1.00  0.00     0.059 A 
ATOM     86  C   UNL A   1      40.256  36.458  37.771  1.00  0.00     0.059 A 
ATOM     87  F   UNL A   1      41.036  35.760  35.672  1.00  0.00    -0.206 F 
ATOM     88  C   UNL A   1      39.512  36.195  38.920  1.00  0.00     0.060 A 
BRANCH  88  89
ATOM     89  S   UNL A   1      39.404  37.432  40.233  1.00  0.00     0.124 S 
ATOM     90  O   UNL A   1      38.779  36.665  41.306  1.00  0.00    -0.237 OA
ATOM     91  O   UNL A   1      40.802  37.793  40.444  1.00  0.00    -0.237 OA
ATOM     92  O   UNL A   1      38.575  38.479  39.643  1.00  0.00    -0.744 OA
ENDBRANCH  88  89
ENDBRANCH  56  81
ENDBRANCH  30  31
ENDBRANCH  23  25
ENDBRANCH  22  23
ENDBRANCH   1  22
TORSDOF 16
ENDMDL
MODEL 2
REMARK VINA RESULT:     -11.4      4.797     10.518
REMARK SMILES Cc1cc([N+](=O)[O-])c(-c2ccc(C(=O)OCCOC(=O)c3ccc(-c4c5nc(c(-c6c(F)cc(S(=O)(=O)[O-])cc6F)c6ccc([nH]6)c(-c6c(F)cc(S(=O)(=O)[O-])cc6F)c6nc(c(-c7c(F)cc(S(=O)(=O)[O-])cc7F)c7ccc4[nH]7)C=C6)C=C5)cc3)o2)cc1Cl
REMARK SMILES IDX 17 1 16 2 15 3 13 4 14 5 12 6 9 7 10 8 87 9 11 10 8 11 1 12
REMARK SMILES IDX 2 13 3 14 89 15 4 16 88 17 90 18 5 19 6 20 7 21 18 22 19 23
REMARK SMILES IDX 20 24 21 25 22 26 86 27 23 28 85 29 24 30 25 31 26 32 79 33
REMARK SMILES IDX 27 34 84 35 78 36 80 37 28 38 83 39 77 40 76 41 29 43 63 44
REMARK SMILES IDX 42 45 62 46 43 47 46 48 61 49 81 50 44 51 45 52 60 54 82 55
REMARK SMILES IDX 47 56 30 57 31 58 40 59 32 60 33 61 39 62 41 63 34 64 35 65
REMARK SMILES IDX 36 66 37 67 38 68 64 69 65 70 74 71 66 72 67 73 73 74 75 75
REMARK SMILES IDX 68 76 69 77 70 78 71 79 72 80 48 81 49 82 58 83 50 84 51 85
REMARK SMILES IDX 57 86 59 87 52 88 53 89 54 90 55 91 56 92
REMARK H PARENT 80 42 46 53
REMARK Flexibility Score: inf
ROOT
ATOM      1  C   UNL A   1      33.674  28.381  26.043  1.00  0.00     0.275 C 
ENDROOT
BRANCH   1   2
ATOM      2  C   UNL A   1      32.233  28.440  25.519  1.00  0.00     0.275 C 
BRANCH   2   3
ATOM      3  O   UNL A   1      32.017  27.503  24.448  1.00  0.00    -0.456 OA
BRANCH   3   4
ATOM      4  C   UNL A   1      30.892  26.730  24.553  1.00  0.00     0.374 C 
ATOM      5  O   UNL A   1      29.797  27.049  24.111  1.00  0.00    -0.242 OA
BRANCH   4   6
ATOM      6  C   UNL A   1      31.216  25.466  25.173  1.00  0.00     0.212 A 
ATOM      7  C   UNL A   1      32.523  23.724  25.528  1.00  0.00     0.142 A 
ATOM      8  C   UNL A   1      31.503  23.628  26.446  1.00  0.00     0.052 A 
ATOM      9  O   UNL A   1      32.339  24.810  24.734  1.00  0.00    -0.449 OA
ATOM     10  C   UNL A   1      30.664  24.752  26.223  1.00  0.00     0.059 A 
BRANCH   7  11
ATOM     11  C   UNL A   1      33.754  22.992  25.300  1.00  0.00     0.096 A 
ATOM     12  C   UNL A   1      37.538  20.881  24.938  1.00  0.00     0.046 C 
ATOM     13  C   UNL A   1      36.241  21.634  25.047  1.00  0.00    -0.026 A 
ATOM     14  C   UNL A   1      35.044  21.020  24.645  1.00  0.00     0.091 A 
ATOM     15  C   UNL A   1      36.184  22.941  25.553  1.00  0.00     0.045 A 
ATOM     16  C   UNL A   1      33.818  21.699  24.769  1.00  0.00     0.280 A 
ATOM     17  C   UNL A   1      34.959  23.608  25.678  1.00  0.00     0.040 A 
ATOM     18  Cl  UNL A   1      37.605  23.776  26.065  1.00  0.00    -0.084 Cl
BRANCH  16  19
ATOM     19  N   UNL A   1      32.611  20.989  24.367  1.00  0.00     0.063 N 
ATOM     20  O   UNL A   1      31.991  20.350  25.225  1.00  0.00    -0.258 OA
ATOM     21  O   UNL A   1      32.274  21.091  23.178  1.00  0.00    -0.258 OA
ENDBRANCH  16  19
ENDBRANCH   7  11
ENDBRANCH   4   6
ENDBRANCH   3   4
ENDBRANCH   2   3
ENDBRANCH   1   2
BRANCH   1  22
ATOM     22  O   UNL A   1      33.762  28.727  27.439  1.00  0.00    -0.458 OA
BRANCH  22  23
ATOM     23  C   UNL A   1      34.311  29.938  27.698  1.00  0.00     0.338 C 
ATOM     24  O   UNL A   1      33.728  31.010  27.725  1.00  0.00    -0.246 OA
BRANCH  23  25
ATOM     25  C   UNL A   1      35.724  29.784  28.089  1.00  0.00     0.060 A 
ATOM     26  C   UNL A   1      36.693  29.979  27.102  1.00  0.00     0.016 A 
ATOM     27  C   UNL A   1      36.097  29.381  29.373  1.00  0.00     0.016 A 
ATOM     28  C   UNL A   1      38.038  29.760  27.384  1.00  0.00     0.010 A 
ATOM     29  C   UNL A   1      37.451  29.156  29.655  1.00  0.00     0.010 A 
ATOM     30  C   UNL A   1      38.426  29.330  28.657  1.00  0.00    -0.014 A 
BRANCH  30  31
ATOM     31  C   UNL A   1      39.849  28.990  28.901  1.00  0.00     0.031 A 
ATOM     32  C   UNL A   1      40.753  30.001  29.548  1.00  0.00     0.074 A 
ATOM     33  C   UNL A   1      40.309  27.760  28.602  1.00  0.00     0.049 A 
ATOM     34  N   UNL A   1      42.026  29.911  29.830  1.00  0.00    -0.248 NA
ATOM     35  C   UNL A   1      40.141  31.283  29.930  1.00  0.00     0.031 C 
ATOM     36  C   UNL A   1      39.514  26.681  28.016  1.00  0.00     0.029 A 
ATOM     37  N   UNL A   1      41.555  27.210  28.759  1.00  0.00    -0.354 N 
ATOM     38  C   UNL A   1      42.373  31.123  30.415  1.00  0.00     0.074 A 
ATOM     39  C   UNL A   1      41.179  31.942  30.429  1.00  0.00     0.031 C 
ATOM     40  C   UNL A   1      40.291  25.594  27.870  1.00  0.00     0.029 A 
ATOM     41  C   UNL A   1      41.644  25.911  28.321  1.00  0.00     0.049 A 
ATOM     42  H   UNL A   1      42.315  27.700  29.150  1.00  0.00     0.167 HD
ATOM     43  C   UNL A   1      43.574  31.515  30.903  1.00  0.00     0.037 A 
ATOM     44  C   UNL A   1      42.700  25.076  28.277  1.00  0.00     0.037 A 
ATOM     45  C   UNL A   1      44.756  30.693  30.900  1.00  0.00     0.049 A 
ATOM     46  C   UNL A   1      44.035  25.550  28.789  1.00  0.00     0.074 A 
ATOM     47  C   UNL A   1      46.027  31.007  31.350  1.00  0.00     0.029 A 
ATOM     48  N   UNL A   1      44.811  29.390  30.429  1.00  0.00    -0.354 N 
ATOM     49  N   UNL A   1      44.352  26.708  29.317  1.00  0.00    -0.248 NA
ATOM     50  C   UNL A   1      45.156  24.603  28.699  1.00  0.00     0.031 C 
ATOM     51  C   UNL A   1      46.855  29.901  31.131  1.00  0.00     0.029 A 
ATOM     52  C   UNL A   1      46.092  28.886  30.574  1.00  0.00     0.049 A 
ATOM     53  H   UNL A   1      44.050  28.894  30.047  1.00  0.00     0.167 HD
ATOM     54  C   UNL A   1      45.700  26.621  29.642  1.00  0.00     0.074 A 
ATOM     55  C   UNL A   1      46.138  25.294  29.261  1.00  0.00     0.031 C 
ATOM     56  C   UNL A   1      46.504  27.556  30.204  1.00  0.00     0.037 A 
BRANCH  43  57
ATOM     57  C   UNL A   1      43.673  32.903  31.467  1.00  0.00     0.058 A 
ATOM     58  C   UNL A   1      43.985  34.005  30.658  1.00  0.00     0.135 A 
ATOM     59  C   UNL A   1      43.424  33.137  32.829  1.00  0.00     0.135 A 
ATOM     60  F   UNL A   1      44.250  33.831  29.353  1.00  0.00    -0.206 F 
ATOM     61  C   UNL A   1      44.068  35.291  31.181  1.00  0.00     0.059 A 
ATOM     62  C   UNL A   1      43.481  34.418  33.371  1.00  0.00     0.059 A 
ATOM     63  F   UNL A   1      43.124  32.116  33.647  1.00  0.00    -0.206 F 
ATOM     64  C   UNL A   1      43.817  35.487  32.541  1.00  0.00     0.060 A 
BRANCH  64  65
ATOM     65  S   UNL A   1      43.923  37.161  33.210  1.00  0.00     0.124 S 
ATOM     66  O   UNL A   1      42.717  37.223  34.030  1.00  0.00    -0.237 OA
ATOM     67  O   UNL A   1      45.184  37.129  33.942  1.00  0.00    -0.237 OA
ATOM     68  O   UNL A   1      43.915  38.003  32.017  1.00  0.00    -0.744 OA
ENDBRANCH  64  65
ENDBRANCH  43  57
BRANCH  44  69
ATOM     69  C   UNL A   1      42.548  23.707  27.719  1.00  0.00     0.058 A 
ATOM     70  C   UNL A   1      42.396  22.594  28.558  1.00  0.00     0.135 A 
ATOM     71  C   UNL A   1      42.565  23.485  26.333  1.00  0.00     0.135 A 
ATOM     72  F   UNL A   1      42.383  22.756  29.891  1.00  0.00    -0.206 F 
ATOM     73  C   UNL A   1      42.288  21.305  28.047  1.00  0.00     0.059 A 
ATOM     74  C   UNL A   1      42.436  22.207  25.797  1.00  0.00     0.059 A 
ATOM     75  F   UNL A   1      42.697  24.518  25.488  1.00  0.00    -0.206 F 
ATOM     76  C   UNL A   1      42.312  21.122  26.663  1.00  0.00     0.060 A 
BRANCH  76  77
ATOM     77  S   UNL A   1      42.143  19.451  26.000  1.00  0.00     0.124 S 
ATOM     78  O   UNL A   1      40.704  19.372  25.771  1.00  0.00    -0.237 OA
ATOM     79  O   UNL A   1      42.977  19.504  24.803  1.00  0.00    -0.237 OA
ATOM     80  O   UNL A   1      42.659  18.611  27.077  1.00  0.00    -0.744 OA
ENDBRANCH  76  77
ENDBRANCH  44  69
BRANCH  56  81
ATOM     81  C   UNL A   1      47.928  27.164  30.480  1.00  0.00     0.058 A 
ATOM     82  C   UNL A   1      48.927  27.288  29.503  1.00  0.00     0.135 A 
ATOM     83  C   UNL A   1      48.303  26.700  31.750  1.00  0.00     0.135 A 
ATOM     84  F   UNL A   1      48.617  27.723  28.270  1.00  0.00    -0.206 F 
ATOM     85  C   UNL A   1      50.249  26.946  29.769  1.00  0.00     0.059 A 
ATOM     86  C   UNL A   1      49.622  26.371  32.045  1.00  0.00     0.059 A 
ATOM     87  F   UNL A   1      47.385  26.572  32.721  1.00  0.00    -0.206 F 
ATOM     88  C   UNL A   1      50.586  26.486  31.044  1.00  0.00     0.060 A 
BRANCH  88  89
ATOM     89  S   UNL A   1      52.309  26.071  31.392  1.00  0.00     0.124 S 
ATOM     90  O   UNL A   1      52.189  24.699  31.873  1.00  0.00    -0.237 OA
ATOM     91  O   UNL A   1      52.944  26.232  30.087  1.00  0.00    -0.237 OA
ATOM     92  O   UNL A   1      52.697  27.059  32.395  1.00  0.00    -0.744 OA
ENDBRANCH  88  89
ENDBRANCH  56  81
ENDBRANCH  30  31
ENDBRANCH  23  25
ENDBRANCH  22  23
ENDBRANCH   1  22
TORSDOF 16
ENDMDL
MODEL 3
REMARK VINA RESULT:     -11.3      4.912     11.960
REMARK SMILES Cc1cc([N+](=O)[O-])c(-c2ccc(C(=O)OCCOC(=O)c3ccc(-c4c5nc(c(-c6c(F)cc(S(=O)(=O)[O-])cc6F)c6ccc([nH]6)c(-c6c(F)cc(S(=O)(=O)[O-])cc6F)c6nc(c(-c7c(F)cc(S(=O)(=O)[O-])cc7F)c7ccc4[nH]7)C=C6)C=C5)cc3)o2)cc1Cl
REMARK SMILES IDX 17 1 16 2 15 3 13 4 14 5 12 6 9 7 10 8 87 9 11 10 8 11 1 12
REMARK SMILES IDX 2 13 3 14 89 15 4 16 88 17 90 18 5 19 6 20 7 21 18 22 19 23
REMARK SMILES IDX 20 24 21 25 22 26 86 27 23 28 85 29 24 30 25 31 26 32 79 33
REMARK SMILES IDX 27 34 84 35 78 36 80 37 28 38 83 39 77 40 76 41 29 43 63 44
REMARK SMILES IDX 42 45 62 46 43 47 46 48 61 49 81 50 44 51 45 52 60 54 82 55
REMARK SMILES IDX 47 56 30 57 31 58 40 59 32 60 33 61 39 62 41 63 34 64 35 65
REMARK SMILES IDX 36 66 37 67 38 68 64 69 65 70 74 71 66 72 67 73 73 74 75 75
REMARK SMILES IDX 68 76 69 77 70 78 71 79 72 80 48 81 49 82 58 83 50 84 51 85
REMARK SMILES IDX 57 86 59 87 52 88 53 89 54 90 55 91 56 92
REMARK H PARENT 80 42 46 53
REMARK Flexibility Score: inf
ROOT
ATOM      1  C   UNL A   1      33.784  32.941  28.469  1.00  0.00     0.275 C 
ENDROOT
BRANCH   1   2
ATOM      2  C   UNL A   1      34.647  33.676  29.501  1.00  0.00     0.275 C 
BRANCH   2   3
ATOM      3  O   UNL A   1      34.310  33.294  30.848  1.00  0.00    -0.456 OA
BRANCH   3   4
ATOM      4  C   UNL A   1      34.488  34.260  31.801  1.00  0.00     0.374 C 
ATOM      5  O   UNL A   1      33.978  35.371  31.754  1.00  0.00    -0.242 OA
BRANCH   4   6
ATOM      6  C   UNL A   1      35.278  33.739  32.893  1.00  0.00     0.212 A 
ATOM      7  C   UNL A   1      36.868  32.467  33.742  1.00  0.00     0.142 A 
ATOM      8  C   UNL A   1      36.445  33.283  34.766  1.00  0.00     0.052 A 
ATOM      9  O   UNL A   1      36.145  32.712  32.618  1.00  0.00    -0.449 OA
ATOM     10  C   UNL A   1      35.425  34.106  34.220  1.00  0.00     0.059 A 
BRANCH   7  11
ATOM     11  C   UNL A   1      37.943  31.505  33.589  1.00  0.00     0.096 A 
ATOM     12  C   UNL A   1      41.026  28.536  32.827  1.00  0.00     0.046 C 
ATOM     13  C   UNL A   1      39.947  29.544  33.110  1.00  0.00    -0.026 A 
ATOM     14  C   UNL A   1      40.294  30.834  33.540  1.00  0.00     0.091 A 
ATOM     15  C   UNL A   1      38.588  29.238  32.945  1.00  0.00     0.045 A 
ATOM     16  C   UNL A   1      39.297  31.798  33.780  1.00  0.00     0.280 A 
ATOM     17  C   UNL A   1      37.603  30.205  33.180  1.00  0.00     0.040 A 
ATOM     18  Cl  UNL A   1      38.068  27.676  32.426  1.00  0.00    -0.084 Cl
BRANCH  16  19
ATOM     19  N   UNL A   1      39.731  33.128  34.189  1.00  0.00     0.063 N 
ATOM     20  O   UNL A   1      39.877  33.353  35.397  1.00  0.00    -0.258 OA
ATOM     21  O   UNL A   1      39.946  33.947  33.284  1.00  0.00    -0.258 OA
ENDBRANCH  16  19
ENDBRANCH   7  11
ENDBRANCH   4   6
ENDBRANCH   3   4
ENDBRANCH   2   3
ENDBRANCH   1   2
BRANCH   1  22
ATOM     22  O   UNL A   1      34.567  32.100  27.601  1.00  0.00    -0.458 OA
BRANCH  22  23
ATOM     23  C   UNL A   1      34.505  30.774  27.874  1.00  0.00     0.338 C 
ATOM     24  O   UNL A   1      33.501  30.080  27.882  1.00  0.00    -0.246 OA
BRANCH  23  25
ATOM     25  C   UNL A   1      35.862  30.223  28.037  1.00  0.00     0.060 A 
ATOM     26  C   UNL A   1      36.276  29.893  29.329  1.00  0.00     0.016 A 
ATOM     27  C   UNL A   1      36.745  30.101  26.962  1.00  0.00     0.016 A 
ATOM     28  C   UNL A   1      37.576  29.453  29.561  1.00  0.00     0.010 A 
ATOM     29  C   UNL A   1      38.056  29.664  27.196  1.00  0.00     0.010 A 
ATOM     30  C   UNL A   1      38.481  29.352  28.499  1.00  0.00    -0.014 A 
BRANCH  30  31
ATOM     31  C   UNL A   1      39.891  28.996  28.786  1.00  0.00     0.031 A 
ATOM     32  C   UNL A   1      40.788  29.997  29.459  1.00  0.00     0.074 A 
ATOM     33  C   UNL A   1      40.345  27.759  28.504  1.00  0.00     0.049 A 
ATOM     34  N   UNL A   1      42.051  29.891  29.779  1.00  0.00    -0.248 NA
ATOM     35  C   UNL A   1      40.181  31.287  29.819  1.00  0.00     0.031 C 
ATOM     36  C   UNL A   1      39.554  26.688  27.897  1.00  0.00     0.029 A 
ATOM     37  N   UNL A   1      41.579  27.194  28.700  1.00  0.00    -0.354 N 
ATOM     38  C   UNL A   1      42.395  31.101  30.372  1.00  0.00     0.074 A 
ATOM     39  C   UNL A   1      41.212  31.934  30.347  1.00  0.00     0.031 C 
ATOM     40  C   UNL A   1      40.322  25.592  27.777  1.00  0.00     0.029 A 
ATOM     41  C   UNL A   1      41.664  25.893  28.268  1.00  0.00     0.049 A 
ATOM     42  H   UNL A   1      42.332  27.675  29.113  1.00  0.00     0.167 HD
ATOM     43  C   UNL A   1      43.586  31.478  30.895  1.00  0.00     0.037 A 
ATOM     44  C   UNL A   1      42.711  25.044  28.259  1.00  0.00     0.037 A 
ATOM     45  C   UNL A   1      44.757  30.642  30.929  1.00  0.00     0.049 A 
ATOM     46  C   UNL A   1      44.035  25.503  28.809  1.00  0.00     0.074 A 
ATOM     47  C   UNL A   1      46.017  30.941  31.416  1.00  0.00     0.029 A 
ATOM     48  N   UNL A   1      44.809  29.337  30.463  1.00  0.00    -0.354 N 
ATOM     49  N   UNL A   1      44.351  26.658  29.344  1.00  0.00    -0.248 NA
ATOM     50  C   UNL A   1      45.147  24.542  28.756  1.00  0.00     0.031 C 
ATOM     51  C   UNL A   1      46.838  29.824  31.225  1.00  0.00     0.029 A 
ATOM     52  C   UNL A   1      46.080  28.818  30.649  1.00  0.00     0.049 A 
ATOM     53  H   UNL A   1      44.054  28.850  30.059  1.00  0.00     0.167 HD
ATOM     54  C   UNL A   1      45.687  26.556  29.710  1.00  0.00     0.074 A 
ATOM     55  C   UNL A   1      46.120  25.222  29.346  1.00  0.00     0.031 C 
ATOM     56  C   UNL A   1      46.486  27.482  30.294  1.00  0.00     0.037 A 
BRANCH  43  57
ATOM     57  C   UNL A   1      43.685  32.867  31.458  1.00  0.00     0.058 A 
ATOM     58  C   UNL A   1      43.464  33.125  32.819  1.00  0.00     0.135 A 
ATOM     59  C   UNL A   1      44.035  33.947  30.633  1.00  0.00     0.135 A 
ATOM     60  F   UNL A   1      43.109  32.129  33.647  1.00  0.00    -0.206 F 
ATOM     61  C   UNL A   1      43.565  34.411  33.340  1.00  0.00     0.059 A 
ATOM     62  C   UNL A   1      44.162  35.238  31.136  1.00  0.00     0.059 A 
ATOM     63  F   UNL A   1      44.254  33.754  29.323  1.00  0.00    -0.206 F 
ATOM     64  C   UNL A   1      43.912  35.463  32.489  1.00  0.00     0.060 A 
BRANCH  64  65
ATOM     65  S   UNL A   1      44.044  37.127  33.177  1.00  0.00     0.124 S 
ATOM     66  O   UNL A   1      42.934  37.138  34.126  1.00  0.00    -0.237 OA
ATOM     67  O   UNL A   1      45.379  37.121  33.764  1.00  0.00    -0.237 OA
ATOM     68  O   UNL A   1      43.879  37.990  32.011  1.00  0.00    -0.744 OA
ENDBRANCH  64  65
ENDBRANCH  43  57
BRANCH  44  69
ATOM     69  C   UNL A   1      42.558  23.676  27.699  1.00  0.00     0.058 A 
ATOM     70  C   UNL A   1      42.378  22.565  28.536  1.00  0.00     0.135 A 
ATOM     71  C   UNL A   1      42.604  23.451  26.314  1.00  0.00     0.135 A 
ATOM     72  F   UNL A   1      42.337  22.730  29.868  1.00  0.00    -0.206 F 
ATOM     73  C   UNL A   1      42.270  21.277  28.025  1.00  0.00     0.059 A 
ATOM     74  C   UNL A   1      42.474  22.174  25.777  1.00  0.00     0.059 A 
ATOM     75  F   UNL A   1      42.764  24.482  25.470  1.00  0.00    -0.206 F 
ATOM     76  C   UNL A   1      42.322  21.091  26.642  1.00  0.00     0.060 A 
BRANCH  76  77
ATOM     77  S   UNL A   1      42.152  19.420  25.978  1.00  0.00     0.124 S 
ATOM     78  O   UNL A   1      40.716  19.351  25.729  1.00  0.00    -0.237 OA
ATOM     79  O   UNL A   1      43.004  19.468  24.793  1.00  0.00    -0.237 OA
ATOM     80  O   UNL A   1      42.647  18.578  27.063  1.00  0.00    -0.744 OA
ENDBRANCH  76  77
ENDBRANCH  44  69
BRANCH  56  81
ATOM     81  C   UNL A   1      47.895  27.072  30.614  1.00  0.00     0.058 A 
ATOM     82  C   UNL A   1      48.951  27.314  29.722  1.00  0.00     0.135 A 
ATOM     83  C   UNL A   1      48.198  26.471  31.845  1.00  0.00     0.135 A 
ATOM     84  F   UNL A   1      48.712  27.883  28.529  1.00  0.00    -0.206 F 
ATOM     85  C   UNL A   1      50.259  26.955  30.031  1.00  0.00     0.059 A 
ATOM     86  C   UNL A   1      49.501  26.122  32.184  1.00  0.00     0.059 A 
ATOM     87  F   UNL A   1      47.224  26.227  32.736  1.00  0.00    -0.206 F 
ATOM     88  C   UNL A   1      50.523  26.357  31.265  1.00  0.00     0.060 A 
BRANCH  88  89
ATOM     89  S   UNL A   1      52.228  25.920  31.673  1.00  0.00     0.124 S 
ATOM     90  O   UNL A   1      52.075  24.543  32.131  1.00  0.00    -0.237 OA
ATOM     91  O   UNL A   1      52.913  26.090  30.395  1.00  0.00    -0.237 OA
ATOM     92  O   UNL A   1      52.588  26.890  32.703  1.00  0.00    -0.744 OA
ENDBRANCH  88  89
ENDBRANCH  56  81
ENDBRANCH  30  31
ENDBRANCH  23  25
ENDBRANCH  22  23
ENDBRANCH   1  22
TORSDOF 16
ENDMDL
