MODEL 1
REMARK VINA RESULT:      -9.7      0.000      0.000
REMARK SMILES O=Cc1ccc(-c2ccc(C(=O)OCCOC(=O)c3ccc(-c4c5nc(c(-c6c(F)cc(S(=O)(=O)[O-])cc6F)c6ccc([nH]6)c(-c6c(F)cc(S(=O)(=O)[O-])cc6F)c6nc(c(-c7c(F)cc(S(=O)(=O)[O-])cc7F)c7ccc4[nH]7)C=C6)C=C5)cc3)cn2)cc1
REMARK SMILES IDX 15 1 14 2 13 3 11 4 12 5 10 6 7 7 8 8 86 9 9 10 85 11 6 12
REMARK SMILES IDX 3 13 4 14 88 15 5 16 87 17 2 18 1 19 16 20 17 21 18 22 19 23
REMARK SMILES IDX 20 24 84 25 21 26 83 27 22 28 23 29 24 30 77 31 25 32 82 33
REMARK SMILES IDX 76 34 78 35 26 36 81 37 75 38 74 39 27 41 61 42 40 43 60 44
REMARK SMILES IDX 41 45 44 46 59 47 79 48 42 49 43 50 58 52 80 53 45 54 28 55
REMARK SMILES IDX 29 56 38 57 30 58 31 59 37 60 39 61 32 62 33 63 34 64 35 65
REMARK SMILES IDX 36 66 62 67 63 68 72 69 64 70 65 71 71 72 73 73 66 74 67 75
REMARK SMILES IDX 68 76 69 77 70 78 46 79 47 80 56 81 48 82 49 83 55 84 57 85
REMARK SMILES IDX 50 86 51 87 52 88 53 89 54 90
REMARK H PARENT 78 40 44 51
REMARK Flexibility Score: inf
ROOT
ATOM      1  C   UNL A   1      34.165  33.060  28.185  1.00  0.00     0.275 C 
ENDROOT
BRANCH   1   2
ATOM      2  C   UNL A   1      34.238  34.326  29.044  1.00  0.00     0.275 C 
BRANCH   2   3
ATOM      3  O   UNL A   1      33.485  34.186  30.269  1.00  0.00    -0.458 OA
BRANCH   3   4
ATOM      4  C   UNL A   1      34.019  34.806  31.349  1.00  0.00     0.339 C 
ATOM      5  O   UNL A   1      33.709  35.902  31.777  1.00  0.00    -0.246 OA
BRANCH   4   6
ATOM      6  C   UNL A   1      35.026  33.959  32.015  1.00  0.00     0.078 A 
ATOM      7  C   UNL A   1      37.156  32.544  33.034  1.00  0.00     0.070 A 
ATOM      8  C   UNL A   1      36.024  31.853  32.599  1.00  0.00     0.030 A 
ATOM      9  N   UNL A   1      37.229  33.889  33.020  1.00  0.00    -0.255 NA
ATOM     10  C   UNL A   1      34.935  32.573  32.095  1.00  0.00     0.019 A 
ATOM     11  C   UNL A   1      36.183  34.558  32.491  1.00  0.00     0.127 A 
BRANCH   7  12
ATOM     12  C   UNL A   1      38.422  31.892  33.365  1.00  0.00     0.000 A 
ATOM     13  C   UNL A   1      40.878  30.593  33.762  1.00  0.00     0.014 A 
ATOM     14  C   UNL A   1      40.816  31.989  33.812  1.00  0.00     0.012 A 
ATOM     15  C   UNL A   1      39.730  29.842  33.509  1.00  0.00     0.012 A 
ATOM     16  C   UNL A   1      39.591  32.633  33.603  1.00  0.00     0.011 A 
ATOM     17  C   UNL A   1      38.511  30.490  33.316  1.00  0.00     0.011 A 
BRANCH  13  18
ATOM     18  C   UNL A   1      42.171  29.911  33.966  1.00  0.00     0.260 C 
ATOM     19  O   UNL A   1      42.811  29.439  33.035  1.00  0.00    -0.298 OA
ENDBRANCH  13  18
ENDBRANCH   7  12
ENDBRANCH   4   6
ENDBRANCH   3   4
ENDBRANCH   2   3
ENDBRANCH   1   2
BRANCH   1  20
ATOM     20  O   UNL A   1      34.408  31.874  28.962  1.00  0.00    -0.458 OA
BRANCH  20  21
ATOM     21  C   UNL A   1      34.503  30.734  28.243  1.00  0.00     0.338 C 
ATOM     22  O   UNL A   1      33.659  30.254  27.502  1.00  0.00    -0.246 OA
BRANCH  21  23
ATOM     23  C   UNL A   1      35.840  30.151  28.394  1.00  0.00     0.060 A 
ATOM     24  C   UNL A   1      36.231  29.722  29.658  1.00  0.00     0.016 A 
ATOM     25  C   UNL A   1      36.757  30.183  27.349  1.00  0.00     0.016 A 
ATOM     26  C   UNL A   1      37.565  29.449  29.928  1.00  0.00     0.010 A 
ATOM     27  C   UNL A   1      38.074  29.779  27.589  1.00  0.00     0.010 A 
ATOM     28  C   UNL A   1      38.501  29.441  28.889  1.00  0.00    -0.014 A 
BRANCH  28  29
ATOM     29  C   UNL A   1      39.921  29.074  29.142  1.00  0.00     0.031 A 
ATOM     30  C   UNL A   1      40.890  30.123  29.617  1.00  0.00     0.074 A 
ATOM     31  C   UNL A   1      40.349  27.818  28.902  1.00  0.00     0.049 A 
ATOM     32  N   UNL A   1      42.196  30.101  29.624  1.00  0.00    -0.248 NA
ATOM     33  C   UNL A   1      40.308  31.375  30.130  1.00  0.00     0.031 C 
ATOM     34  C   UNL A   1      39.502  26.689  28.503  1.00  0.00     0.029 A 
ATOM     35  N   UNL A   1      41.612  27.280  28.934  1.00  0.00    -0.354 N 
ATOM     36  C   UNL A   1      42.595  31.351  30.085  1.00  0.00     0.074 A 
ATOM     37  C   UNL A   1      41.390  32.111  30.339  1.00  0.00     0.031 C 
ATOM     38  C   UNL A   1      40.263  25.599  28.335  1.00  0.00     0.029 A 
ATOM     39  C   UNL A   1      41.660  25.971  28.507  1.00  0.00     0.049 A 
ATOM     40  H   UNL A   1      42.406  27.780  29.233  1.00  0.00     0.167 HD
ATOM     41  C   UNL A   1      43.854  31.815  30.269  1.00  0.00     0.037 A 
ATOM     42  C   UNL A   1      42.709  25.178  28.217  1.00  0.00     0.037 A 
ATOM     43  C   UNL A   1      45.036  31.022  30.043  1.00  0.00     0.049 A 
ATOM     44  C   UNL A   1      44.097  25.734  28.361  1.00  0.00     0.074 A 
ATOM     45  C   UNL A   1      46.361  31.384  30.212  1.00  0.00     0.029 A 
ATOM     46  N   UNL A   1      45.034  29.705  29.605  1.00  0.00    -0.354 N 
ATOM     47  N   UNL A   1      44.466  26.930  28.754  1.00  0.00    -0.248 NA
ATOM     48  C   UNL A   1      45.211  24.844  28.012  1.00  0.00     0.031 C 
ATOM     49  C   UNL A   1      47.160  30.305  29.825  1.00  0.00     0.029 A 
ATOM     50  C   UNL A   1      46.335  29.247  29.478  1.00  0.00     0.049 A 
ATOM     51  H   UNL A   1      44.228  29.174  29.413  1.00  0.00     0.167 HD
ATOM     52  C   UNL A   1      45.855  26.925  28.734  1.00  0.00     0.074 A 
ATOM     53  C   UNL A   1      46.260  25.607  28.288  1.00  0.00     0.031 C 
ATOM     54  C   UNL A   1      46.715  27.919  29.060  1.00  0.00     0.037 A 
BRANCH  41  55
ATOM     55  C   UNL A   1      44.026  33.249  30.696  1.00  0.00     0.058 A 
ATOM     56  C   UNL A   1      44.146  34.298  29.772  1.00  0.00     0.135 A 
ATOM     57  C   UNL A   1      44.031  33.582  32.062  1.00  0.00     0.135 A 
ATOM     58  F   UNL A   1      44.162  34.040  28.454  1.00  0.00    -0.206 F 
ATOM     59  C   UNL A   1      44.294  35.619  30.184  1.00  0.00     0.059 A 
ATOM     60  C   UNL A   1      44.146  34.899  32.498  1.00  0.00     0.059 A 
ATOM     61  F   UNL A   1      43.920  32.621  32.993  1.00  0.00    -0.206 F 
ATOM     62  C   UNL A   1      44.292  35.911  31.551  1.00  0.00     0.060 A 
BRANCH  62  63
ATOM     63  S   UNL A   1      44.484  37.630  32.067  1.00  0.00     0.124 S 
ATOM     64  O   UNL A   1      45.938  37.767  32.090  1.00  0.00    -0.237 OA
ATOM     65  O   UNL A   1      43.797  38.353  31.003  1.00  0.00    -0.237 OA
ATOM     66  O   UNL A   1      43.832  37.670  33.372  1.00  0.00    -0.744 OA
ENDBRANCH  62  63
ENDBRANCH  41  55
BRANCH  42  67
ATOM     67  C   UNL A   1      42.476  23.795  27.718  1.00  0.00     0.058 A 
ATOM     68  C   UNL A   1      42.319  23.540  26.348  1.00  0.00     0.135 A 
ATOM     69  C   UNL A   1      42.435  22.697  28.594  1.00  0.00     0.135 A 
ATOM     70  F   UNL A   1      42.342  24.554  25.471  1.00  0.00    -0.206 F 
ATOM     71  C   UNL A   1      42.116  22.251  25.865  1.00  0.00     0.059 A 
ATOM     72  C   UNL A   1      42.267  21.396  28.133  1.00  0.00     0.059 A 
ATOM     73  F   UNL A   1      42.597  22.883  29.914  1.00  0.00    -0.206 F 
ATOM     74  C   UNL A   1      42.097  21.185  26.766  1.00  0.00     0.060 A 
BRANCH  74  75
ATOM     75  S   UNL A   1      41.875  19.512  26.122  1.00  0.00     0.124 S 
ATOM     76  O   UNL A   1      42.779  19.517  24.977  1.00  0.00    -0.237 OA
ATOM     77  O   UNL A   1      42.286  18.691  27.257  1.00  0.00    -0.237 OA
ATOM     78  O   UNL A   1      40.452  19.459  25.803  1.00  0.00    -0.744 OA
ENDBRANCH  74  75
ENDBRANCH  42  67
BRANCH  54  79
ATOM     79  C   UNL A   1      48.186  27.612  29.017  1.00  0.00     0.058 A 
ATOM     80  C   UNL A   1      48.950  27.797  27.857  1.00  0.00     0.135 A 
ATOM     81  C   UNL A   1      48.852  27.221  30.191  1.00  0.00     0.135 A 
ATOM     82  F   UNL A   1      48.358  28.157  26.707  1.00  0.00    -0.206 F 
ATOM     83  C   UNL A   1      50.328  27.609  27.860  1.00  0.00     0.059 A 
ATOM     84  C   UNL A   1      50.232  27.055  30.224  1.00  0.00     0.059 A 
ATOM     85  F   UNL A   1      48.164  27.034  31.328  1.00  0.00    -0.206 F 
ATOM     86  C   UNL A   1      50.961  27.252  29.053  1.00  0.00     0.060 A 
BRANCH  86  87
ATOM     87  S   UNL A   1      52.759  27.099  29.063  1.00  0.00     0.124 S 
ATOM     88  O   UNL A   1      53.017  26.560  27.732  1.00  0.00    -0.237 OA
ATOM     89  O   UNL A   1      53.187  28.477  29.283  1.00  0.00    -0.237 OA
ATOM     90  O   UNL A   1      53.018  26.184  30.171  1.00  0.00    -0.744 OA
ENDBRANCH  86  87
ENDBRANCH  54  79
ENDBRANCH  28  29
ENDBRANCH  21  23
ENDBRANCH  20  21
ENDBRANCH   1  20
TORSDOF 16
ENDMDL
MODEL 2
REMARK VINA RESULT:      -9.6      3.685      6.552
REMARK SMILES O=Cc1ccc(-c2ccc(C(=O)OCCOC(=O)c3ccc(-c4c5nc(c(-c6c(F)cc(S(=O)(=O)[O-])cc6F)c6ccc([nH]6)c(-c6c(F)cc(S(=O)(=O)[O-])cc6F)c6nc(c(-c7c(F)cc(S(=O)(=O)[O-])cc7F)c7ccc4[nH]7)C=C6)C=C5)cc3)cn2)cc1
REMARK SMILES IDX 15 1 14 2 13 3 11 4 12 5 10 6 7 7 8 8 86 9 9 10 85 11 6 12
REMARK SMILES IDX 3 13 4 14 88 15 5 16 87 17 2 18 1 19 16 20 17 21 18 22 19 23
REMARK SMILES IDX 20 24 84 25 21 26 83 27 22 28 23 29 24 30 77 31 25 32 82 33
REMARK SMILES IDX 76 34 78 35 26 36 81 37 75 38 74 39 27 41 61 42 40 43 60 44
REMARK SMILES IDX 41 45 44 46 59 47 79 48 42 49 43 50 58 52 80 53 45 54 28 55
REMARK SMILES IDX 29 56 38 57 30 58 31 59 37 60 39 61 32 62 33 63 34 64 35 65
REMARK SMILES IDX 36 66 62 67 63 68 72 69 64 70 65 71 71 72 73 73 66 74 67 75
REMARK SMILES IDX 68 76 69 77 70 78 46 79 47 80 56 81 48 82 49 83 55 84 57 85
REMARK SMILES IDX 50 86 51 87 52 88 53 89 54 90
REMARK H PARENT 78 40 44 51
REMARK Flexibility Score: inf
ROOT
ATOM      1  C   UNL A   1      34.006  28.265  26.293  1.00  0.00     0.275 C 
ENDROOT
BRANCH   1   2
ATOM      2  C   UNL A   1      32.614  28.193  25.659  1.00  0.00     0.275 C 
BRANCH   2   3
ATOM      3  O   UNL A   1      32.330  26.877  25.138  1.00  0.00    -0.458 OA
BRANCH   3   4
ATOM      4  C   UNL A   1      31.800  26.005  26.030  1.00  0.00     0.339 C 
ATOM      5  O   UNL A   1      30.961  26.259  26.874  1.00  0.00    -0.246 OA
BRANCH   4   6
ATOM      6  C   UNL A   1      32.329  24.643  25.833  1.00  0.00     0.078 A 
ATOM      7  C   UNL A   1      33.110  22.092  25.152  1.00  0.00     0.070 A 
ATOM      8  C   UNL A   1      32.619  22.336  26.436  1.00  0.00     0.030 A 
ATOM      9  N   UNL A   1      33.263  23.073  24.241  1.00  0.00    -0.255 NA
ATOM     10  C   UNL A   1      32.237  23.635  26.787  1.00  0.00     0.019 A 
ATOM     11  C   UNL A   1      32.849  24.309  24.591  1.00  0.00     0.127 A 
BRANCH   7  12
ATOM     12  C   UNL A   1      33.325  20.751  24.611  1.00  0.00     0.000 A 
ATOM     13  C   UNL A   1      33.688  18.091  23.796  1.00  0.00     0.014 A 
ATOM     14  C   UNL A   1      32.518  18.770  23.445  1.00  0.00     0.012 A 
ATOM     15  C   UNL A   1      34.673  18.723  24.556  1.00  0.00     0.012 A 
ATOM     16  C   UNL A   1      32.336  20.093  23.862  1.00  0.00     0.011 A 
ATOM     17  C   UNL A   1      34.491  20.046  24.955  1.00  0.00     0.011 A 
BRANCH  13  18
ATOM     18  C   UNL A   1      33.875  16.690  23.372  1.00  0.00     0.260 C 
ATOM     19  O   UNL A   1      34.100  15.791  24.174  1.00  0.00    -0.298 OA
ENDBRANCH  13  18
ENDBRANCH   7  12
ENDBRANCH   4   6
ENDBRANCH   3   4
ENDBRANCH   2   3
ENDBRANCH   1   2
BRANCH   1  20
ATOM     20  O   UNL A   1      33.951  28.760  27.644  1.00  0.00    -0.458 OA
BRANCH  20  21
ATOM     21  C   UNL A   1      34.486  29.988  27.819  1.00  0.00     0.338 C 
ATOM     22  O   UNL A   1      33.913  31.063  27.742  1.00  0.00    -0.246 OA
BRANCH  21  23
ATOM     23  C   UNL A   1      35.892  29.874  28.221  1.00  0.00     0.060 A 
ATOM     24  C   UNL A   1      36.871  30.100  27.258  1.00  0.00     0.016 A 
ATOM     25  C   UNL A   1      36.241  29.386  29.475  1.00  0.00     0.016 A 
ATOM     26  C   UNL A   1      38.186  29.718  27.487  1.00  0.00     0.010 A 
ATOM     27  C   UNL A   1      37.587  29.127  29.751  1.00  0.00     0.010 A 
ATOM     28  C   UNL A   1      38.570  29.256  28.749  1.00  0.00    -0.014 A 
BRANCH  28  29
ATOM     29  C   UNL A   1      39.989  28.916  29.039  1.00  0.00     0.031 A 
ATOM     30  C   UNL A   1      40.922  29.981  29.550  1.00  0.00     0.074 A 
ATOM     31  C   UNL A   1      40.450  27.671  28.801  1.00  0.00     0.049 A 
ATOM     32  N   UNL A   1      42.227  29.985  29.595  1.00  0.00    -0.248 NA
ATOM     33  C   UNL A   1      40.300  31.215  30.057  1.00  0.00     0.031 C 
ATOM     34  C   UNL A   1      39.639  26.529  28.368  1.00  0.00     0.029 A 
ATOM     35  N   UNL A   1      41.723  27.159  28.864  1.00  0.00    -0.354 N 
ATOM     36  C   UNL A   1      42.587  31.239  30.078  1.00  0.00     0.074 A 
ATOM     37  C   UNL A   1      41.360  31.972  30.304  1.00  0.00     0.031 C 
ATOM     38  C   UNL A   1      40.426  25.457  28.212  1.00  0.00     0.029 A 
ATOM     39  C   UNL A   1      41.810  25.856  28.428  1.00  0.00     0.049 A 
ATOM     40  H   UNL A   1      42.497  27.673  29.191  1.00  0.00     0.167 HD
ATOM     41  C   UNL A   1      43.831  31.727  30.302  1.00  0.00     0.037 A 
ATOM     42  C   UNL A   1      42.883  25.087  28.162  1.00  0.00     0.037 A 
ATOM     43  C   UNL A   1      45.035  30.961  30.103  1.00  0.00     0.049 A 
ATOM     44  C   UNL A   1      44.254  25.670  28.350  1.00  0.00     0.074 A 
ATOM     45  C   UNL A   1      46.346  31.348  30.313  1.00  0.00     0.029 A 
ATOM     46  N   UNL A   1      45.073  29.648  29.654  1.00  0.00    -0.354 N 
ATOM     47  N   UNL A   1      44.587  26.870  28.764  1.00  0.00    -0.248 NA
ATOM     48  C   UNL A   1      45.396  24.806  28.025  1.00  0.00     0.031 C 
ATOM     49  C   UNL A   1      47.179  30.290  29.939  1.00  0.00     0.029 A 
ATOM     50  C   UNL A   1      46.386  29.218  29.560  1.00  0.00     0.049 A 
ATOM     51  H   UNL A   1      44.284  29.102  29.435  1.00  0.00     0.167 HD
ATOM     52  C   UNL A   1      45.976  26.894  28.783  1.00  0.00     0.074 A 
ATOM     53  C   UNL A   1      46.421  25.588  28.337  1.00  0.00     0.031 C 
ATOM     54  C   UNL A   1      46.806  27.903  29.142  1.00  0.00     0.037 A 
BRANCH  41  55
ATOM     55  C   UNL A   1      43.960  33.160  30.746  1.00  0.00     0.058 A 
ATOM     56  C   UNL A   1      44.134  34.215  29.837  1.00  0.00     0.135 A 
ATOM     57  C   UNL A   1      43.870  33.487  32.111  1.00  0.00     0.135 A 
ATOM     58  F   UNL A   1      44.242  33.964  28.522  1.00  0.00    -0.206 F 
ATOM     59  C   UNL A   1      44.241  35.535  30.264  1.00  0.00     0.059 A 
ATOM     60  C   UNL A   1      43.943  34.803  32.558  1.00  0.00     0.059 A 
ATOM     61  F   UNL A   1      43.704  32.520  33.028  1.00  0.00    -0.206 F 
ATOM     62  C   UNL A   1      44.144  35.820  31.628  1.00  0.00     0.060 A 
BRANCH  62  63
ATOM     63  S   UNL A   1      44.285  37.538  32.164  1.00  0.00     0.124 S 
ATOM     64  O   UNL A   1      45.722  37.652  32.404  1.00  0.00    -0.237 OA
ATOM     65  O   UNL A   1      43.778  38.268  31.007  1.00  0.00    -0.237 OA
ATOM     66  O   UNL A   1      43.446  37.595  33.356  1.00  0.00    -0.744 OA
ENDBRANCH  62  63
ENDBRANCH  41  55
BRANCH  42  67
ATOM     67  C   UNL A   1      42.694  23.704  27.644  1.00  0.00     0.058 A 
ATOM     68  C   UNL A   1      42.603  22.613  28.521  1.00  0.00     0.135 A 
ATOM     69  C   UNL A   1      42.572  23.447  26.268  1.00  0.00     0.135 A 
ATOM     70  F   UNL A   1      42.721  22.804  29.843  1.00  0.00    -0.206 F 
ATOM     71  C   UNL A   1      42.411  21.316  28.053  1.00  0.00     0.059 A 
ATOM     72  C   UNL A   1      42.346  22.165  25.779  1.00  0.00     0.059 A 
ATOM     73  F   UNL A   1      42.635  24.457  25.386  1.00  0.00    -0.206 F 
ATOM     74  C   UNL A   1      42.279  21.104  26.680  1.00  0.00     0.060 A 
BRANCH  74  75
ATOM     75  S   UNL A   1      41.987  19.422  26.089  1.00  0.00     0.124 S 
ATOM     76  O   UNL A   1      42.829  19.380  24.899  1.00  0.00    -0.237 OA
ATOM     77  O   UNL A   1      42.440  18.619  27.220  1.00  0.00    -0.237 OA
ATOM     78  O   UNL A   1      40.549  19.395  25.846  1.00  0.00    -0.744 OA
ENDBRANCH  74  75
ENDBRANCH  42  67
BRANCH  54  79
ATOM     79  C   UNL A   1      48.283  27.626  29.139  1.00  0.00     0.058 A 
ATOM     80  C   UNL A   1      49.108  28.008  28.071  1.00  0.00     0.135 A 
ATOM     81  C   UNL A   1      48.890  27.058  30.272  1.00  0.00     0.135 A 
ATOM     82  F   UNL A   1      48.574  28.542  26.961  1.00  0.00    -0.206 F 
ATOM     83  C   UNL A   1      50.487  27.840  28.128  1.00  0.00     0.059 A 
ATOM     84  C   UNL A   1      50.269  26.907  30.361  1.00  0.00     0.059 A 
ATOM     85  F   UNL A   1      48.142  26.679  31.320  1.00  0.00    -0.206 F 
ATOM     86  C   UNL A   1      51.059  27.302  29.283  1.00  0.00     0.060 A 
BRANCH  86  87
ATOM     87  S   UNL A   1      52.857  27.174  29.376  1.00  0.00     0.124 S 
ATOM     88  O   UNL A   1      53.156  26.356  28.205  1.00  0.00    -0.237 OA
ATOM     89  O   UNL A   1      53.273  28.570  29.298  1.00  0.00    -0.237 OA
ATOM     90  O   UNL A   1      53.086  26.528  30.666  1.00  0.00    -0.744 OA
ENDBRANCH  86  87
ENDBRANCH  54  79
ENDBRANCH  28  29
ENDBRANCH  21  23
ENDBRANCH  20  21
ENDBRANCH   1  20
TORSDOF 16
ENDMDL
MODEL 3
REMARK VINA RESULT:      -9.5      3.493     11.149
REMARK SMILES O=Cc1ccc(-c2ccc(C(=O)OCCOC(=O)c3ccc(-c4c5nc(c(-c6c(F)cc(S(=O)(=O)[O-])cc6F)c6ccc([nH]6)c(-c6c(F)cc(S(=O)(=O)[O-])cc6F)c6nc(c(-c7c(F)cc(S(=O)(=O)[O-])cc7F)c7ccc4[nH]7)C=C6)C=C5)cc3)cn2)cc1
REMARK SMILES IDX 15 1 14 2 13 3 11 4 12 5 10 6 7 7 8 8 86 9 9 10 85 11 6 12
REMARK SMILES IDX 3 13 4 14 88 15 5 16 87 17 2 18 1 19 16 20 17 21 18 22 19 23
REMARK SMILES IDX 20 24 84 25 21 26 83 27 22 28 23 29 24 30 77 31 25 32 82 33
REMARK SMILES IDX 76 34 78 35 26 36 81 37 75 38 74 39 27 41 61 42 40 43 60 44
REMARK SMILES IDX 41 45 44 46 59 47 79 48 42 49 43 50 58 52 80 53 45 54 28 55
REMARK SMILES IDX 29 56 38 57 30 58 31 59 37 60 39 61 32 62 33 63 34 64 35 65
REMARK SMILES IDX 36 66 62 67 63 68 72 69 64 70 65 71 71 72 73 73 66 74 67 75
REMARK SMILES IDX 68 76 69 77 70 78 46 79 47 80 56 81 48 82 49 83 55 84 57 85
REMARK SMILES IDX 50 86 51 87 52 88 53 89 54 90
REMARK H PARENT 78 40 44 51
REMARK Flexibility Score: inf
ROOT
ATOM      1  C   UNL A   1      38.816  21.087  25.382  1.00  0.00     0.275 C 
ENDROOT
BRANCH   1   2
ATOM      2  C   UNL A   1      39.656  19.856  25.735  1.00  0.00     0.275 C 
BRANCH   2   3
ATOM      3  O   UNL A   1      40.547  20.115  26.841  1.00  0.00    -0.458 OA
BRANCH   3   4
ATOM      4  C   UNL A   1      41.853  20.258  26.509  1.00  0.00     0.339 C 
ATOM      5  O   UNL A   1      42.607  19.372  26.153  1.00  0.00    -0.246 OA
BRANCH   4   6
ATOM      6  C   UNL A   1      42.276  21.669  26.578  1.00  0.00     0.078 A 
ATOM      7  C   UNL A   1      43.360  24.198  26.498  1.00  0.00     0.070 A 
ATOM      8  C   UNL A   1      43.013  23.644  27.731  1.00  0.00     0.030 A 
ATOM      9  N   UNL A   1      43.139  23.559  25.333  1.00  0.00    -0.255 NA
ATOM     10  C   UNL A   1      42.448  22.364  27.771  1.00  0.00     0.019 A 
ATOM     11  C   UNL A   1      42.631  22.311  25.401  1.00  0.00     0.127 A 
BRANCH   7  12
ATOM     12  C   UNL A   1      44.152  25.419  26.357  1.00  0.00     0.000 A 
ATOM     13  C   UNL A   1      45.833  27.630  25.957  1.00  0.00     0.014 A 
ATOM     14  C   UNL A   1      44.656  27.511  25.213  1.00  0.00     0.012 A 
ATOM     15  C   UNL A   1      46.183  26.653  26.890  1.00  0.00     0.012 A 
ATOM     16  C   UNL A   1      43.826  26.402  25.408  1.00  0.00     0.011 A 
ATOM     17  C   UNL A   1      45.343  25.558  27.090  1.00  0.00     0.011 A 
BRANCH  13  18
ATOM     18  C   UNL A   1      46.720  28.790  25.742  1.00  0.00     0.260 C 
ATOM     19  O   UNL A   1      46.307  29.847  25.281  1.00  0.00    -0.298 OA
ENDBRANCH  13  18
ENDBRANCH   7  12
ENDBRANCH   4   6
ENDBRANCH   3   4
ENDBRANCH   2   3
ENDBRANCH   1   2
BRANCH   1  20
ATOM     20  O   UNL A   1      38.966  22.133  26.360  1.00  0.00    -0.458 OA
BRANCH  20  21
ATOM     21  C   UNL A   1      38.590  23.360  25.940  1.00  0.00     0.338 C 
ATOM     22  O   UNL A   1      37.776  23.627  25.070  1.00  0.00    -0.246 OA
BRANCH  21  23
ATOM     23  C   UNL A   1      39.242  24.394  26.751  1.00  0.00     0.060 A 
ATOM     24  C   UNL A   1      38.954  24.441  28.111  1.00  0.00     0.016 A 
ATOM     25  C   UNL A   1      39.987  25.406  26.156  1.00  0.00     0.016 A 
ATOM     26  C   UNL A   1      39.290  25.557  28.865  1.00  0.00     0.010 A 
ATOM     27  C   UNL A   1      40.441  26.467  26.945  1.00  0.00     0.010 A 
ATOM     28  C   UNL A   1      40.068  26.573  28.300  1.00  0.00    -0.014 A 
BRANCH  28  29
ATOM     29  C   UNL A   1      40.505  27.741  29.112  1.00  0.00     0.031 A 
ATOM     30  C   UNL A   1      41.789  27.667  29.894  1.00  0.00     0.074 A 
ATOM     31  C   UNL A   1      39.732  28.843  29.185  1.00  0.00     0.049 A 
ATOM     32  N   UNL A   1      42.210  28.428  30.868  1.00  0.00    -0.248 NA
ATOM     33  C   UNL A   1      42.712  26.573  29.545  1.00  0.00     0.031 C 
ATOM     34  C   UNL A   1      38.498  29.071  28.428  1.00  0.00     0.029 A 
ATOM     35  N   UNL A   1      39.855  29.975  29.954  1.00  0.00    -0.354 N 
ATOM     36  C   UNL A   1      43.415  27.875  31.289  1.00  0.00     0.074 A 
ATOM     37  C   UNL A   1      43.654  26.708  30.469  1.00  0.00     0.031 C 
ATOM     38  C   UNL A   1      37.983  30.263  28.762  1.00  0.00     0.029 A 
ATOM     39  C   UNL A   1      38.788  30.837  29.832  1.00  0.00     0.049 A 
ATOM     40  H   UNL A   1      40.630  30.153  30.534  1.00  0.00     0.167 HD
ATOM     41  C   UNL A   1      44.236  28.306  32.278  1.00  0.00     0.037 A 
ATOM     42  C   UNL A   1      38.452  31.928  30.546  1.00  0.00     0.037 A 
ATOM     43  C   UNL A   1      43.991  29.495  33.055  1.00  0.00     0.049 A 
ATOM     44  C   UNL A   1      39.339  32.349  31.682  1.00  0.00     0.074 A 
ATOM     45  C   UNL A   1      44.762  30.033  34.069  1.00  0.00     0.029 A 
ATOM     46  N   UNL A   1      42.894  30.331  32.899  1.00  0.00    -0.354 N 
ATOM     47  N   UNL A   1      40.452  31.797  32.104  1.00  0.00    -0.248 NA
ATOM     48  C   UNL A   1      38.924  33.530  32.450  1.00  0.00     0.031 C 
ATOM     49  C   UNL A   1      44.105  31.164  34.563  1.00  0.00     0.029 A 
ATOM     50  C   UNL A   1      42.959  31.370  33.813  1.00  0.00     0.049 A 
ATOM     51  H   UNL A   1      42.177  30.205  32.237  1.00  0.00     0.167 HD
ATOM     52  C   UNL A   1      40.890  32.582  33.162  1.00  0.00     0.074 A 
ATOM     53  C   UNL A   1      39.920  33.648  33.318  1.00  0.00     0.031 C 
ATOM     54  C   UNL A   1      41.995  32.438  33.931  1.00  0.00     0.037 A 
BRANCH  41  55
ATOM     55  C   UNL A   1      45.448  27.475  32.604  1.00  0.00     0.058 A 
ATOM     56  C   UNL A   1      45.397  26.388  33.490  1.00  0.00     0.135 A 
ATOM     57  C   UNL A   1      46.680  27.751  31.984  1.00  0.00     0.135 A 
ATOM     58  F   UNL A   1      44.252  26.085  34.123  1.00  0.00    -0.206 F 
ATOM     59  C   UNL A   1      46.526  25.624  33.772  1.00  0.00     0.059 A 
ATOM     60  C   UNL A   1      47.814  26.981  32.227  1.00  0.00     0.059 A 
ATOM     61  F   UNL A   1      46.791  28.778  31.127  1.00  0.00    -0.206 F 
ATOM     62  C   UNL A   1      47.731  25.928  33.135  1.00  0.00     0.060 A 
BRANCH  62  63
ATOM     63  S   UNL A   1      49.185  24.926  33.513  1.00  0.00     0.124 S 
ATOM     64  O   UNL A   1      48.575  23.744  34.116  1.00  0.00    -0.237 OA
ATOM     65  O   UNL A   1      49.777  24.729  32.194  1.00  0.00    -0.237 OA
ATOM     66  O   UNL A   1      49.953  25.768  34.424  1.00  0.00    -0.744 OA
ENDBRANCH  62  63
ENDBRANCH  41  55
BRANCH  42  67
ATOM     67  C   UNL A   1      37.196  32.662  30.231  1.00  0.00     0.058 A 
ATOM     68  C   UNL A   1      37.196  33.739  29.333  1.00  0.00     0.135 A 
ATOM     69  C   UNL A   1      35.966  32.286  30.797  1.00  0.00     0.135 A 
ATOM     70  F   UNL A   1      38.345  34.142  28.771  1.00  0.00    -0.206 F 
ATOM     71  C   UNL A   1      36.028  34.426  29.017  1.00  0.00     0.059 A 
ATOM     72  C   UNL A   1      34.779  32.935  30.472  1.00  0.00     0.059 A 
ATOM     73  F   UNL A   1      35.906  31.252  31.651  1.00  0.00    -0.206 F 
ATOM     74  C   UNL A   1      34.823  34.012  29.589  1.00  0.00     0.060 A 
BRANCH  74  75
ATOM     75  S   UNL A   1      33.307  34.884  29.138  1.00  0.00     0.124 S 
ATOM     76  O   UNL A   1      33.837  36.129  28.592  1.00  0.00    -0.237 OA
ATOM     77  O   UNL A   1      32.704  33.970  28.173  1.00  0.00    -0.237 OA
ATOM     78  O   UNL A   1      32.596  35.003  30.407  1.00  0.00    -0.744 OA
ENDBRANCH  74  75
ENDBRANCH  42  67
BRANCH  54  79
ATOM     79  C   UNL A   1      42.266  33.489  34.970  1.00  0.00     0.058 A 
ATOM     80  C   UNL A   1      42.974  34.662  34.674  1.00  0.00     0.135 A 
ATOM     81  C   UNL A   1      41.716  33.357  36.257  1.00  0.00     0.135 A 
ATOM     82  F   UNL A   1      43.530  34.829  33.463  1.00  0.00    -0.206 F 
ATOM     83  C   UNL A   1      43.126  35.672  35.617  1.00  0.00     0.059 A 
ATOM     84  C   UNL A   1      41.832  34.366  37.205  1.00  0.00     0.059 A 
ATOM     85  F   UNL A   1      41.027  32.253  36.588  1.00  0.00    -0.206 F 
ATOM     86  C   UNL A   1      42.539  35.521  36.875  1.00  0.00     0.060 A 
BRANCH  86  87
ATOM     87  S   UNL A   1      42.669  36.879  38.057  1.00  0.00     0.124 S 
ATOM     88  O   UNL A   1      41.265  37.199  38.294  1.00  0.00    -0.237 OA
ATOM     89  O   UNL A   1      43.374  36.256  39.172  1.00  0.00    -0.237 OA
ATOM     90  O   UNL A   1      43.428  37.892  37.329  1.00  0.00    -0.744 OA
ENDBRANCH  86  87
ENDBRANCH  54  79
ENDBRANCH  28  29
ENDBRANCH  21  23
ENDBRANCH  20  21
ENDBRANCH   1  20
TORSDOF 16
ENDMDL
