MODEL 1
REMARK VINA RESULT:     -11.0      0.000      0.000
REMARK SMILES O=C(Nc1ccccc1C(=O)OCCOC(=O)c1ccc(-c2c3nc(c(-c4c(F)cc(S(=O)(=O)[O-])cc4F)c4ccc([nH]4)c(-c4c(F)cc(S(=O)(=O)[O-])cc4F)c4nc(c(-c5c(F)cc(S(=O)(=O)[O-])cc5F)c5ccc2[nH]5)C=C4)C=C3)cc1)c1ccc(N2C(=O)[C@H]3CC=CC[C@H]3C2=O)cc1
REMARK SMILES IDX 13 1 12 2 10 3 11 4 9 5 4 6 5 7 6 8 8 9 7 10 3 11 1 12 2 13
REMARK SMILES IDX 84 15 85 16 100 17 86 18 99 19 87 20 88 21 89 22 97 23 90 24
REMARK SMILES IDX 91 25 96 26 98 27 92 28 95 29 93 30 94 31 14 32 15 33 16 34
REMARK SMILES IDX 17 35 18 36 19 37 83 38 20 39 82 40 21 41 22 42 23 43 76 44
REMARK SMILES IDX 24 45 81 46 75 47 77 48 25 49 80 50 74 51 73 52 26 54 60 55
REMARK SMILES IDX 39 56 59 57 40 58 43 59 58 60 78 61 41 62 42 63 57 65 79 66
REMARK SMILES IDX 44 67 27 68 28 69 37 70 29 71 30 72 36 73 38 74 31 75 32 76
REMARK SMILES IDX 33 77 34 78 35 79 61 80 62 81 71 82 63 83 64 84 70 85 72 86
REMARK SMILES IDX 65 87 66 88 67 89 68 90 69 91 45 92 46 93 55 94 47 95 48 96
REMARK SMILES IDX 54 97 56 98 49 99 50 100 51 101 52 102 53 103
REMARK H PARENT 3 14 77 53 43 64
REMARK Flexibility Score: inf
ROOT
ATOM      1  C   UNL A   1      47.726  23.602  38.523  1.00  0.00     0.275 C 
ENDROOT
BRANCH   1   2
ATOM      2  O   UNL A   1      47.366  23.912  37.156  1.00  0.00    -0.458 OA
BRANCH   2   3
ATOM      3  C   UNL A   1      46.140  23.473  36.777  1.00  0.00     0.340 C 
ATOM      4  O   UNL A   1      45.327  22.929  37.500  1.00  0.00    -0.246 OA
BRANCH   3   5
ATOM      5  C   UNL A   1      45.848  23.703  35.346  1.00  0.00     0.083 A 
ATOM      6  C   UNL A   1      45.229  22.767  34.507  1.00  0.00     0.056 A 
ATOM      7  C   UNL A   1      45.064  23.093  33.148  1.00  0.00     0.027 A 
ATOM      8  C   UNL A   1      45.376  24.365  32.660  1.00  0.00     0.002 A 
ATOM      9  C   UNL A   1      46.177  24.973  34.834  1.00  0.00     0.018 A 
ATOM     10  C   UNL A   1      45.917  25.316  33.510  1.00  0.00     0.001 A 
BRANCH   6  11
ATOM     11  N   UNL A   1      44.715  21.510  34.885  1.00  0.00    -0.321 N 
ATOM     12  O   UNL A   1      44.635  19.267  35.118  1.00  0.00    -0.269 OA
ATOM     13  C   UNL A   1      45.323  20.285  35.056  1.00  0.00     0.255 C 
ATOM     14  H   UNL A   1      43.746  21.506  35.059  1.00  0.00     0.170 HD
BRANCH  13  15
ATOM     15  C   UNL A   1      46.790  20.168  35.248  1.00  0.00     0.040 A 
ATOM     16  C   UNL A   1      47.397  20.241  36.509  1.00  0.00     0.016 A 
ATOM     17  C   UNL A   1      47.581  20.034  34.105  1.00  0.00     0.016 A 
ATOM     18  C   UNL A   1      48.794  20.309  36.610  1.00  0.00     0.027 A 
ATOM     19  C   UNL A   1      48.966  20.170  34.204  1.00  0.00     0.027 A 
ATOM     20  C   UNL A   1      49.580  20.346  35.452  1.00  0.00     0.052 A 
BRANCH  20  21
ATOM     21  N   UNL A   1      50.973  20.566  35.508  1.00  0.00    -0.250 N 
ATOM     22  C   UNL A   1      51.884  19.623  35.905  1.00  0.00     0.238 C 
ATOM     23  C   UNL A   1      51.563  21.743  35.119  1.00  0.00     0.238 C 
ATOM     24  O   UNL A   1      51.660  18.515  36.375  1.00  0.00    -0.274 OA
ATOM     25  C   UNL A   1      53.270  20.112  35.547  1.00  0.00     0.096 C 
ATOM     26  C   UNL A   1      53.063  21.578  35.147  1.00  0.00     0.096 C 
ATOM     27  O   UNL A   1      51.017  22.795  34.807  1.00  0.00    -0.274 OA
ATOM     28  C   UNL A   1      53.843  19.217  34.437  1.00  0.00     0.041 C 
ATOM     29  C   UNL A   1      53.599  21.972  33.766  1.00  0.00     0.041 C 
ATOM     30  C   UNL A   1      53.388  19.623  33.063  1.00  0.00    -0.030 C 
ATOM     31  C   UNL A   1      53.285  20.920  32.742  1.00  0.00    -0.030 C 
ENDBRANCH  20  21
ENDBRANCH  13  15
ENDBRANCH   6  11
ENDBRANCH   3   5
ENDBRANCH   2   3
ENDBRANCH   1   2
BRANCH   1  32
ATOM     32  C   UNL A   1      47.799  24.816  39.451  1.00  0.00     0.275 C 
BRANCH  32  33
ATOM     33  O   UNL A   1      46.594  25.598  39.406  1.00  0.00    -0.458 OA
BRANCH  33  34
ATOM     34  C   UNL A   1      46.781  26.861  38.972  1.00  0.00     0.338 C 
ATOM     35  O   UNL A   1      47.588  27.675  39.394  1.00  0.00    -0.246 OA
BRANCH  34  36
ATOM     36  C   UNL A   1      45.927  27.161  37.818  1.00  0.00     0.060 A 
ATOM     37  C   UNL A   1      46.385  28.111  36.914  1.00  0.00     0.016 A 
ATOM     38  C   UNL A   1      44.599  26.751  37.791  1.00  0.00     0.016 A 
ATOM     39  C   UNL A   1      45.503  28.798  36.106  1.00  0.00     0.010 A 
ATOM     40  C   UNL A   1      43.730  27.346  36.872  1.00  0.00     0.010 A 
ATOM     41  C   UNL A   1      44.165  28.416  36.067  1.00  0.00    -0.014 A 
BRANCH  41  42
ATOM     42  C   UNL A   1      43.220  29.188  35.229  1.00  0.00     0.031 A 
ATOM     43  C   UNL A   1      42.477  30.344  35.836  1.00  0.00     0.074 A 
ATOM     44  C   UNL A   1      43.061  28.869  33.930  1.00  0.00     0.049 A 
ATOM     45  N   UNL A   1      41.448  30.998  35.370  1.00  0.00    -0.248 NA
ATOM     46  C   UNL A   1      42.941  30.812  37.155  1.00  0.00     0.031 C 
ATOM     47  C   UNL A   1      43.800  27.824  33.212  1.00  0.00     0.029 A 
ATOM     48  N   UNL A   1      42.224  29.390  32.978  1.00  0.00    -0.354 N 
ATOM     49  C   UNL A   1      41.095  31.903  36.366  1.00  0.00     0.074 A 
ATOM     50  C   UNL A   1      42.020  31.714  37.461  1.00  0.00     0.031 C 
ATOM     51  C   UNL A   1      43.400  27.797  31.934  1.00  0.00     0.029 A 
ATOM     52  C   UNL A   1      42.299  28.735  31.771  1.00  0.00     0.049 A 
ATOM     53  H   UNL A   1      41.628  30.157  33.141  1.00  0.00     0.167 HD
ATOM     54  C   UNL A   1      40.080  32.798  36.355  1.00  0.00     0.037 A 
ATOM     55  C   UNL A   1      41.520  28.828  30.679  1.00  0.00     0.037 A 
ATOM     56  C   UNL A   1      39.208  32.988  35.224  1.00  0.00     0.049 A 
ATOM     57  C   UNL A   1      40.366  29.787  30.711  1.00  0.00     0.074 A 
ATOM     58  C   UNL A   1      38.153  33.870  35.087  1.00  0.00     0.029 A 
ATOM     59  N   UNL A   1      39.302  32.286  34.028  1.00  0.00    -0.354 N 
ATOM     60  N   UNL A   1      39.995  30.594  31.677  1.00  0.00    -0.248 NA
ATOM     61  C   UNL A   1      39.514  29.837  29.519  1.00  0.00     0.031 C 
ATOM     62  C   UNL A   1      37.576  33.666  33.830  1.00  0.00     0.029 A 
ATOM     63  C   UNL A   1      38.311  32.701  33.156  1.00  0.00     0.049 A 
ATOM     64  H   UNL A   1      39.974  31.595  33.830  1.00  0.00     0.167 HD
ATOM     65  C   UNL A   1      38.879  31.268  31.200  1.00  0.00     0.074 A 
ATOM     66  C   UNL A   1      38.648  30.782  29.854  1.00  0.00     0.031 C 
ATOM     67  C   UNL A   1      38.114  32.203  31.817  1.00  0.00     0.037 A 
BRANCH  54  68
ATOM     68  C   UNL A   1      39.826  33.592  37.608  1.00  0.00     0.058 A 
ATOM     69  C   UNL A   1      40.514  34.781  37.898  1.00  0.00     0.135 A 
ATOM     70  C   UNL A   1      38.852  33.164  38.526  1.00  0.00     0.135 A 
ATOM     71  F   UNL A   1      41.471  35.229  37.070  1.00  0.00    -0.206 F 
ATOM     72  C   UNL A   1      40.263  35.502  39.063  1.00  0.00     0.059 A 
ATOM     73  C   UNL A   1      38.562  33.885  39.681  1.00  0.00     0.059 A 
ATOM     74  F   UNL A   1      38.167  32.030  38.305  1.00  0.00    -0.206 F 
ATOM     75  C   UNL A   1      39.283  35.047  39.947  1.00  0.00     0.060 A 
BRANCH  75  76
ATOM     76  S   UNL A   1      38.960  36.001  41.445  1.00  0.00     0.124 S 
ATOM     77  O   UNL A   1      40.165  35.734  42.227  1.00  0.00    -0.237 OA
ATOM     78  O   UNL A   1      38.831  37.359  40.927  1.00  0.00    -0.237 OA
ATOM     79  O   UNL A   1      37.731  35.413  41.967  1.00  0.00    -0.744 OA
ENDBRANCH  75  76
ENDBRANCH  54  68
BRANCH  55  80
ATOM     80  C   UNL A   1      41.778  27.951  29.505  1.00  0.00     0.058 A 
ATOM     81  C   UNL A   1      42.878  28.174  28.666  1.00  0.00     0.135 A 
ATOM     82  C   UNL A   1      40.948  26.854  29.216  1.00  0.00     0.135 A 
ATOM     83  F   UNL A   1      43.697  29.211  28.895  1.00  0.00    -0.206 F 
ATOM     84  C   UNL A   1      43.142  27.349  27.577  1.00  0.00     0.059 A 
ATOM     85  C   UNL A   1      41.211  25.996  28.154  1.00  0.00     0.059 A 
ATOM     86  F   UNL A   1      39.892  26.582  30.000  1.00  0.00    -0.206 F 
ATOM     87  C   UNL A   1      42.305  26.259  27.334  1.00  0.00     0.060 A 
BRANCH  87  88
ATOM     88  S   UNL A   1      42.687  25.162  25.951  1.00  0.00     0.124 S 
ATOM     89  O   UNL A   1      42.234  25.956  24.814  1.00  0.00    -0.237 OA
ATOM     90  O   UNL A   1      44.131  24.999  26.083  1.00  0.00    -0.237 OA
ATOM     91  O   UNL A   1      41.900  23.968  26.243  1.00  0.00    -0.744 OA
ENDBRANCH  87  88
ENDBRANCH  55  80
BRANCH  67  92
ATOM     92  C   UNL A   1      36.987  32.794  31.018  1.00  0.00     0.058 A 
ATOM     93  C   UNL A   1      35.663  32.353  31.165  1.00  0.00     0.135 A 
ATOM     94  C   UNL A   1      37.236  33.846  30.123  1.00  0.00     0.135 A 
ATOM     95  F   UNL A   1      35.376  31.341  32.000  1.00  0.00    -0.206 F 
ATOM     96  C   UNL A   1      34.627  32.919  30.433  1.00  0.00     0.059 A 
ATOM     97  C   UNL A   1      36.210  34.450  29.406  1.00  0.00     0.059 A 
ATOM     98  F   UNL A   1      38.485  34.310  29.952  1.00  0.00    -0.206 F 
ATOM     99  C   UNL A   1      34.911  33.970  29.558  1.00  0.00     0.060 A 
BRANCH  99 100
ATOM    100  S   UNL A   1      33.550  34.719  28.640  1.00  0.00     0.124 S 
ATOM    101  O   UNL A   1      34.202  35.881  28.046  1.00  0.00    -0.237 OA
ATOM    102  O   UNL A   1      33.179  33.655  27.712  1.00  0.00    -0.237 OA
ATOM    103  O   UNL A   1      32.563  35.013  29.674  1.00  0.00    -0.744 OA
ENDBRANCH  99 100
ENDBRANCH  67  92
ENDBRANCH  41  42
ENDBRANCH  34  36
ENDBRANCH  33  34
ENDBRANCH  32  33
ENDBRANCH   1  32
TORSDOF 17
ENDMDL
MODEL 2
REMARK VINA RESULT:     -10.9      4.700     11.880
REMARK SMILES O=C(Nc1ccccc1C(=O)OCCOC(=O)c1ccc(-c2c3nc(c(-c4c(F)cc(S(=O)(=O)[O-])cc4F)c4ccc([nH]4)c(-c4c(F)cc(S(=O)(=O)[O-])cc4F)c4nc(c(-c5c(F)cc(S(=O)(=O)[O-])cc5F)c5ccc2[nH]5)C=C4)C=C3)cc1)c1ccc(N2C(=O)[C@H]3CC=CC[C@H]3C2=O)cc1
REMARK SMILES IDX 13 1 12 2 10 3 11 4 9 5 4 6 5 7 6 8 8 9 7 10 3 11 1 12 2 13
REMARK SMILES IDX 84 15 85 16 100 17 86 18 99 19 87 20 88 21 89 22 97 23 90 24
REMARK SMILES IDX 91 25 96 26 98 27 92 28 95 29 93 30 94 31 14 32 15 33 16 34
REMARK SMILES IDX 17 35 18 36 19 37 83 38 20 39 82 40 21 41 22 42 23 43 76 44
REMARK SMILES IDX 24 45 81 46 75 47 77 48 25 49 80 50 74 51 73 52 26 54 60 55
REMARK SMILES IDX 39 56 59 57 40 58 43 59 58 60 78 61 41 62 42 63 57 65 79 66
REMARK SMILES IDX 44 67 27 68 28 69 37 70 29 71 30 72 36 73 38 74 31 75 32 76
REMARK SMILES IDX 33 77 34 78 35 79 61 80 62 81 71 82 63 83 64 84 70 85 72 86
REMARK SMILES IDX 65 87 66 88 67 89 68 90 69 91 45 92 46 93 55 94 47 95 48 96
REMARK SMILES IDX 54 97 56 98 49 99 50 100 51 101 52 102 53 103
REMARK H PARENT 3 14 77 53 43 64
REMARK Flexibility Score: inf
ROOT
ATOM      1  C   UNL A   1      45.800  24.075  25.227  1.00  0.00     0.275 C 
ENDROOT
BRANCH   1   2
ATOM      2  O   UNL A   1      44.651  24.449  24.432  1.00  0.00    -0.458 OA
BRANCH   2   3
ATOM      3  C   UNL A   1      43.467  23.959  24.876  1.00  0.00     0.340 C 
ATOM      4  O   UNL A   1      43.031  22.846  24.650  1.00  0.00    -0.246 OA
BRANCH   3   5
ATOM      5  C   UNL A   1      42.696  24.925  25.687  1.00  0.00     0.083 A 
ATOM      6  C   UNL A   1      41.924  24.579  26.804  1.00  0.00     0.056 A 
ATOM      7  C   UNL A   1      41.192  25.592  27.452  1.00  0.00     0.027 A 
ATOM      8  C   UNL A   1      41.328  26.935  27.090  1.00  0.00     0.002 A 
ATOM      9  C   UNL A   1      42.805  26.281  25.321  1.00  0.00     0.018 A 
ATOM     10  C   UNL A   1      42.153  27.284  26.033  1.00  0.00     0.001 A 
BRANCH   6  11
ATOM     11  N   UNL A   1      41.814  23.300  27.386  1.00  0.00    -0.321 N 
ATOM     12  O   UNL A   1      40.811  21.494  28.292  1.00  0.00    -0.269 OA
ATOM     13  C   UNL A   1      40.748  22.435  27.502  1.00  0.00     0.255 C 
ATOM     14  H   UNL A   1      42.651  22.963  27.779  1.00  0.00     0.170 HD
BRANCH  13  15
ATOM     15  C   UNL A   1      39.548  22.563  26.639  1.00  0.00     0.040 A 
ATOM     16  C   UNL A   1      38.744  23.710  26.624  1.00  0.00     0.016 A 
ATOM     17  C   UNL A   1      39.194  21.459  25.859  1.00  0.00     0.016 A 
ATOM     18  C   UNL A   1      37.525  23.703  25.931  1.00  0.00     0.027 A 
ATOM     19  C   UNL A   1      37.951  21.431  25.227  1.00  0.00     0.027 A 
ATOM     20  C   UNL A   1      37.091  22.537  25.289  1.00  0.00     0.052 A 
BRANCH  20  21
ATOM     21  N   UNL A   1      35.806  22.443  24.711  1.00  0.00    -0.250 N 
ATOM     22  C   UNL A   1      34.697  21.990  25.375  1.00  0.00     0.238 C 
ATOM     23  C   UNL A   1      35.530  22.847  23.428  1.00  0.00     0.238 C 
ATOM     24  O   UNL A   1      34.642  21.496  26.494  1.00  0.00    -0.274 OA
ATOM     25  C   UNL A   1      33.474  22.318  24.548  1.00  0.00     0.096 C 
ATOM     26  C   UNL A   1      34.041  22.767  23.195  1.00  0.00     0.096 C 
ATOM     27  O   UNL A   1      36.319  23.206  22.563  1.00  0.00    -0.274 OA
ATOM     28  C   UNL A   1      32.646  23.383  25.283  1.00  0.00     0.041 C 
ATOM     29  C   UNL A   1      33.574  24.141  22.702  1.00  0.00     0.041 C 
ATOM     30  C   UNL A   1      33.139  24.783  25.037  1.00  0.00    -0.030 C 
ATOM     31  C   UNL A   1      33.564  25.144  23.819  1.00  0.00    -0.030 C 
ENDBRANCH  20  21
ENDBRANCH  13  15
ENDBRANCH   6  11
ENDBRANCH   3   5
ENDBRANCH   2   3
ENDBRANCH   1   2
BRANCH   1  32
ATOM     32  C   UNL A   1      46.645  25.252  25.716  1.00  0.00     0.275 C 
BRANCH  32  33
ATOM     33  O   UNL A   1      45.932  26.068  26.660  1.00  0.00    -0.458 OA
BRANCH  33  34
ATOM     34  C   UNL A   1      45.805  25.504  27.879  1.00  0.00     0.338 C 
ATOM     35  O   UNL A   1      46.468  24.588  28.341  1.00  0.00    -0.246 OA
BRANCH  34  36
ATOM     36  C   UNL A   1      44.784  26.187  28.679  1.00  0.00     0.060 A 
ATOM     37  C   UNL A   1      44.784  27.576  28.666  1.00  0.00     0.016 A 
ATOM     38  C   UNL A   1      44.055  25.497  29.640  1.00  0.00     0.016 A 
ATOM     39  C   UNL A   1      44.224  28.292  29.703  1.00  0.00     0.010 A 
ATOM     40  C   UNL A   1      43.366  26.225  30.614  1.00  0.00     0.010 A 
ATOM     41  C   UNL A   1      43.497  27.626  30.685  1.00  0.00    -0.014 A 
BRANCH  41  42
ATOM     42  C   UNL A   1      42.938  28.399  31.816  1.00  0.00     0.031 A 
ATOM     43  C   UNL A   1      41.638  29.129  31.635  1.00  0.00     0.074 A 
ATOM     44  C   UNL A   1      43.580  28.414  33.001  1.00  0.00     0.049 A 
ATOM     45  N   UNL A   1      41.092  30.040  32.392  1.00  0.00    -0.248 NA
ATOM     46  C   UNL A   1      40.858  28.804  30.427  1.00  0.00     0.031 C 
ATOM     47  C   UNL A   1      44.803  27.666  33.317  1.00  0.00     0.029 A 
ATOM     48  N   UNL A   1      43.297  29.083  34.162  1.00  0.00    -0.354 N 
ATOM     49  C   UNL A   1      39.946  30.451  31.720  1.00  0.00     0.074 A 
ATOM     50  C   UNL A   1      39.874  29.689  30.494  1.00  0.00     0.031 C 
ATOM     51  C   UNL A   1      45.150  27.902  34.589  1.00  0.00     0.029 A 
ATOM     52  C   UNL A   1      44.248  28.903  35.140  1.00  0.00     0.049 A 
ATOM     53  H   UNL A   1      42.494  29.639  34.286  1.00  0.00     0.167 HD
ATOM     54  C   UNL A   1      39.049  31.390  32.102  1.00  0.00     0.037 A 
ATOM     55  C   UNL A   1      44.416  29.528  36.318  1.00  0.00     0.037 A 
ATOM     56  C   UNL A   1      39.130  32.095  33.355  1.00  0.00     0.049 A 
ATOM     57  C   UNL A   1      43.441  30.605  36.694  1.00  0.00     0.074 A 
ATOM     58  C   UNL A   1      38.277  33.058  33.860  1.00  0.00     0.029 A 
ATOM     59  N   UNL A   1      40.123  31.900  34.308  1.00  0.00    -0.354 N 
ATOM     60  N   UNL A   1      42.396  31.037  36.028  1.00  0.00    -0.248 NA
ATOM     61  C   UNL A   1      43.674  31.293  37.968  1.00  0.00     0.031 C 
ATOM     62  C   UNL A   1      38.782  33.484  35.092  1.00  0.00     0.029 A 
ATOM     63  C   UNL A   1      39.916  32.740  35.388  1.00  0.00     0.049 A 
ATOM     64  H   UNL A   1      40.866  31.260  34.226  1.00  0.00     0.167 HD
ATOM     65  C   UNL A   1      41.830  32.032  36.813  1.00  0.00     0.074 A 
ATOM     66  C   UNL A   1      42.644  32.125  38.011  1.00  0.00     0.031 C 
ATOM     67  C   UNL A   1      40.740  32.801  36.570  1.00  0.00     0.037 A 
BRANCH  54  68
ATOM     68  C   UNL A   1      37.945  31.743  31.141  1.00  0.00     0.058 A 
ATOM     69  C   UNL A   1      36.689  31.116  31.173  1.00  0.00     0.135 A 
ATOM     70  C   UNL A   1      38.144  32.753  30.184  1.00  0.00     0.135 A 
ATOM     71  F   UNL A   1      36.447  30.130  32.051  1.00  0.00    -0.206 F 
ATOM     72  C   UNL A   1      35.681  31.459  30.276  1.00  0.00     0.059 A 
ATOM     73  C   UNL A   1      37.140  33.133  29.297  1.00  0.00     0.059 A 
ATOM     74  F   UNL A   1      39.327  33.383  30.101  1.00  0.00    -0.206 F 
ATOM     75  C   UNL A   1      35.915  32.471  29.343  1.00  0.00     0.060 A 
BRANCH  75  76
ATOM     76  S   UNL A   1      34.593  32.913  28.197  1.00  0.00     0.124 S 
ATOM     77  O   UNL A   1      34.276  31.617  27.603  1.00  0.00    -0.237 OA
ATOM     78  O   UNL A   1      33.579  33.465  29.089  1.00  0.00    -0.237 OA
ATOM     79  O   UNL A   1      35.225  33.875  27.299  1.00  0.00    -0.744 OA
ENDBRANCH  75  76
ENDBRANCH  54  68
BRANCH  55  80
ATOM     80  C   UNL A   1      45.578  29.186  37.181  1.00  0.00     0.058 A 
ATOM     81  C   UNL A   1      45.516  28.118  38.086  1.00  0.00     0.135 A 
ATOM     82  C   UNL A   1      46.786  29.901  37.097  1.00  0.00     0.135 A 
ATOM     83  F   UNL A   1      44.385  27.408  38.208  1.00  0.00    -0.206 F 
ATOM     84  C   UNL A   1      46.603  27.775  38.884  1.00  0.00     0.059 A 
ATOM     85  C   UNL A   1      47.896  29.556  37.860  1.00  0.00     0.059 A 
ATOM     86  F   UNL A   1      46.907  30.921  36.233  1.00  0.00    -0.206 F 
ATOM     87  C   UNL A   1      47.791  28.497  38.759  1.00  0.00     0.060 A 
BRANCH  87  88
ATOM     88  S   UNL A   1      49.213  28.010  39.759  1.00  0.00     0.124 S 
ATOM     89  O   UNL A   1      49.276  29.099  40.727  1.00  0.00    -0.237 OA
ATOM     90  O   UNL A   1      48.789  26.715  40.279  1.00  0.00    -0.237 OA
ATOM     91  O   UNL A   1      50.304  27.962  38.790  1.00  0.00    -0.744 OA
ENDBRANCH  87  88
ENDBRANCH  55  80
BRANCH  67  92
ATOM     92  C   UNL A   1      40.339  33.771  37.644  1.00  0.00     0.058 A 
ATOM     93  C   UNL A   1      40.921  35.044  37.748  1.00  0.00     0.135 A 
ATOM     94  C   UNL A   1      39.325  33.433  38.555  1.00  0.00     0.135 A 
ATOM     95  F   UNL A   1      41.902  35.410  36.908  1.00  0.00    -0.206 F 
ATOM     96  C   UNL A   1      40.529  35.939  38.735  1.00  0.00     0.059 A 
ATOM     97  C   UNL A   1      38.894  34.326  39.529  1.00  0.00     0.059 A 
ATOM     98  F   UNL A   1      38.731  32.230  38.492  1.00  0.00    -0.206 F 
ATOM     99  C   UNL A   1      39.512  35.572  39.619  1.00  0.00     0.060 A 
BRANCH  99 100
ATOM    100  S   UNL A   1      38.989  36.758  40.874  1.00  0.00     0.124 S 
ATOM    101  O   UNL A   1      38.313  37.764  40.063  1.00  0.00    -0.237 OA
ATOM    102  O   UNL A   1      38.128  35.946  41.729  1.00  0.00    -0.237 OA
ATOM    103  O   UNL A   1      40.246  37.184  41.483  1.00  0.00    -0.744 OA
ENDBRANCH  99 100
ENDBRANCH  67  92
ENDBRANCH  41  42
ENDBRANCH  34  36
ENDBRANCH  33  34
ENDBRANCH  32  33
ENDBRANCH   1  32
TORSDOF 17
ENDMDL
MODEL 3
REMARK VINA RESULT:     -10.8      0.861      7.918
REMARK SMILES O=C(Nc1ccccc1C(=O)OCCOC(=O)c1ccc(-c2c3nc(c(-c4c(F)cc(S(=O)(=O)[O-])cc4F)c4ccc([nH]4)c(-c4c(F)cc(S(=O)(=O)[O-])cc4F)c4nc(c(-c5c(F)cc(S(=O)(=O)[O-])cc5F)c5ccc2[nH]5)C=C4)C=C3)cc1)c1ccc(N2C(=O)[C@H]3CC=CC[C@H]3C2=O)cc1
REMARK SMILES IDX 13 1 12 2 10 3 11 4 9 5 4 6 5 7 6 8 8 9 7 10 3 11 1 12 2 13
REMARK SMILES IDX 84 15 85 16 100 17 86 18 99 19 87 20 88 21 89 22 97 23 90 24
REMARK SMILES IDX 91 25 96 26 98 27 92 28 95 29 93 30 94 31 14 32 15 33 16 34
REMARK SMILES IDX 17 35 18 36 19 37 83 38 20 39 82 40 21 41 22 42 23 43 76 44
REMARK SMILES IDX 24 45 81 46 75 47 77 48 25 49 80 50 74 51 73 52 26 54 60 55
REMARK SMILES IDX 39 56 59 57 40 58 43 59 58 60 78 61 41 62 42 63 57 65 79 66
REMARK SMILES IDX 44 67 27 68 28 69 37 70 29 71 30 72 36 73 38 74 31 75 32 76
REMARK SMILES IDX 33 77 34 78 35 79 61 80 62 81 71 82 63 83 64 84 70 85 72 86
REMARK SMILES IDX 65 87 66 88 67 89 68 90 69 91 45 92 46 93 55 94 47 95 48 96
REMARK SMILES IDX 54 97 56 98 49 99 50 100 51 101 52 102 53 103
REMARK H PARENT 3 14 77 53 43 64
REMARK Flexibility Score: inf
ROOT
ATOM      1  C   UNL A   1      47.679  24.464  38.206  1.00  0.00     0.275 C 
ENDROOT
BRANCH   1   2
ATOM      2  O   UNL A   1      47.477  23.639  37.035  1.00  0.00    -0.458 OA
BRANCH   2   3
ATOM      3  C   UNL A   1      46.179  23.377  36.740  1.00  0.00     0.340 C 
ATOM      4  O   UNL A   1      45.344  22.961  37.521  1.00  0.00    -0.246 OA
BRANCH   3   5
ATOM      5  C   UNL A   1      45.833  23.635  35.326  1.00  0.00     0.083 A 
ATOM      6  C   UNL A   1      45.181  22.716  34.493  1.00  0.00     0.056 A 
ATOM      7  C   UNL A   1      44.964  23.068  33.148  1.00  0.00     0.027 A 
ATOM      8  C   UNL A   1      45.258  24.350  32.673  1.00  0.00     0.002 A 
ATOM      9  C   UNL A   1      46.142  24.915  34.826  1.00  0.00     0.018 A 
ATOM     10  C   UNL A   1      45.832  25.284  33.521  1.00  0.00     0.001 A 
BRANCH   6  11
ATOM     11  N   UNL A   1      44.681  21.451  34.865  1.00  0.00    -0.321 N 
ATOM     12  O   UNL A   1      44.626  19.207  35.088  1.00  0.00    -0.269 OA
ATOM     13  C   UNL A   1      45.303  20.233  35.030  1.00  0.00     0.255 C 
ATOM     14  H   UNL A   1      43.713  21.436  35.040  1.00  0.00     0.170 HD
BRANCH  13  15
ATOM     15  C   UNL A   1      46.771  20.130  35.220  1.00  0.00     0.040 A 
ATOM     16  C   UNL A   1      47.378  20.195  36.482  1.00  0.00     0.016 A 
ATOM     17  C   UNL A   1      47.564  20.020  34.075  1.00  0.00     0.016 A 
ATOM     18  C   UNL A   1      48.774  20.278  36.584  1.00  0.00     0.027 A 
ATOM     19  C   UNL A   1      48.946  20.172  34.176  1.00  0.00     0.027 A 
ATOM     20  C   UNL A   1      49.559  20.339  35.426  1.00  0.00     0.052 A 
BRANCH  20  21
ATOM     21  N   UNL A   1      50.950  20.575  35.485  1.00  0.00    -0.250 N 
ATOM     22  C   UNL A   1      51.868  19.651  35.907  1.00  0.00     0.238 C 
ATOM     23  C   UNL A   1      51.529  21.750  35.072  1.00  0.00     0.238 C 
ATOM     24  O   UNL A   1      51.653  18.551  36.401  1.00  0.00    -0.274 OA
ATOM     25  C   UNL A   1      53.251  20.146  35.546  1.00  0.00     0.096 C 
ATOM     26  C   UNL A   1      53.030  21.601  35.112  1.00  0.00     0.096 C 
ATOM     27  O   UNL A   1      50.974  22.788  34.734  1.00  0.00    -0.274 OA
ATOM     28  C   UNL A   1      53.839  19.233  34.459  1.00  0.00     0.041 C 
ATOM     29  C   UNL A   1      53.570  21.970  33.725  1.00  0.00     0.041 C 
ATOM     30  C   UNL A   1      53.387  19.604  33.073  1.00  0.00    -0.030 C 
ATOM     31  C   UNL A   1      53.273  20.892  32.723  1.00  0.00    -0.030 C 
ENDBRANCH  20  21
ENDBRANCH  13  15
ENDBRANCH   6  11
ENDBRANCH   3   5
ENDBRANCH   2   3
ENDBRANCH   1   2
BRANCH   1  32
ATOM     32  C   UNL A   1      48.705  25.583  38.026  1.00  0.00     0.275 C 
BRANCH  32  33
ATOM     33  O   UNL A   1      48.076  26.867  37.872  1.00  0.00    -0.458 OA
BRANCH  33  34
ATOM     34  C   UNL A   1      48.052  27.311  36.599  1.00  0.00     0.338 C 
ATOM     35  O   UNL A   1      48.804  26.992  35.691  1.00  0.00    -0.246 OA
BRANCH  34  36
ATOM     36  C   UNL A   1      46.916  28.210  36.369  1.00  0.00     0.060 A 
ATOM     37  C   UNL A   1      45.704  27.872  36.957  1.00  0.00     0.016 A 
ATOM     38  C   UNL A   1      46.965  29.175  35.370  1.00  0.00     0.016 A 
ATOM     39  C   UNL A   1      44.514  28.341  36.440  1.00  0.00     0.010 A 
ATOM     40  C   UNL A   1      45.770  29.760  34.940  1.00  0.00     0.010 A 
ATOM     41  C   UNL A   1      44.533  29.300  35.432  1.00  0.00    -0.014 A 
BRANCH  41  42
ATOM     42  C   UNL A   1      43.251  29.764  34.855  1.00  0.00     0.031 A 
ATOM     43  C   UNL A   1      42.746  29.135  33.588  1.00  0.00     0.074 A 
ATOM     44  C   UNL A   1      42.538  30.717  35.486  1.00  0.00     0.049 A 
ATOM     45  N   UNL A   1      41.791  29.535  32.793  1.00  0.00    -0.248 NA
ATOM     46  C   UNL A   1      43.420  27.901  33.145  1.00  0.00     0.031 C 
ATOM     47  C   UNL A   1      42.888  31.333  36.771  1.00  0.00     0.029 A 
ATOM     48  N   UNL A   1      41.369  31.340  35.134  1.00  0.00    -0.354 N 
ATOM     49  C   UNL A   1      41.798  28.649  31.722  1.00  0.00     0.074 A 
ATOM     50  C   UNL A   1      42.851  27.689  31.968  1.00  0.00     0.031 C 
ATOM     51  C   UNL A   1      41.947  32.225  37.106  1.00  0.00     0.029 A 
ATOM     52  C   UNL A   1      40.994  32.330  36.011  1.00  0.00     0.049 A 
ATOM     53  H   UNL A   1      40.849  31.102  34.332  1.00  0.00     0.167 HD
ATOM     54  C   UNL A   1      40.997  28.656  30.631  1.00  0.00     0.037 A 
ATOM     55  C   UNL A   1      40.035  33.267  35.910  1.00  0.00     0.037 A 
ATOM     56  C   UNL A   1      39.927  29.602  30.445  1.00  0.00     0.049 A 
ATOM     57  C   UNL A   1      39.195  33.290  34.666  1.00  0.00     0.074 A 
ATOM     58  C   UNL A   1      39.039  29.703  29.390  1.00  0.00     0.029 A 
ATOM     59  N   UNL A   1      39.595  30.606  31.347  1.00  0.00    -0.354 N 
ATOM     60  N   UNL A   1      39.246  32.492  33.625  1.00  0.00    -0.248 NA
ATOM     61  C   UNL A   1      38.183  34.346  34.570  1.00  0.00     0.031 C 
ATOM     62  C   UNL A   1      38.205  30.800  29.628  1.00  0.00     0.029 A 
ATOM     63  C   UNL A   1      38.529  31.345  30.863  1.00  0.00     0.049 A 
ATOM     64  H   UNL A   1      40.051  30.769  32.203  1.00  0.00     0.167 HD
ATOM     65  C   UNL A   1      38.255  32.934  32.759  1.00  0.00     0.074 A 
ATOM     66  C   UNL A   1      37.613  34.061  33.409  1.00  0.00     0.031 C 
ATOM     67  C   UNL A   1      37.906  32.456  31.539  1.00  0.00     0.037 A 
BRANCH  54  68
ATOM     68  C   UNL A   1      41.276  27.654  29.543  1.00  0.00     0.058 A 
ATOM     69  C   UNL A   1      42.423  27.719  28.736  1.00  0.00     0.135 A 
ATOM     70  C   UNL A   1      40.385  26.590  29.322  1.00  0.00     0.135 A 
ATOM     71  F   UNL A   1      43.300  28.725  28.886  1.00  0.00    -0.206 F 
ATOM     72  C   UNL A   1      42.664  26.781  27.735  1.00  0.00     0.059 A 
ATOM     73  C   UNL A   1      40.621  25.623  28.349  1.00  0.00     0.059 A 
ATOM     74  F   UNL A   1      39.267  26.480  30.058  1.00  0.00    -0.206 F 
ATOM     75  C   UNL A   1      41.758  25.735  27.551  1.00  0.00     0.060 A 
BRANCH  75  76
ATOM     76  S   UNL A   1      42.092  24.520  26.259  1.00  0.00     0.124 S 
ATOM     77  O   UNL A   1      43.390  23.997  26.677  1.00  0.00    -0.237 OA
ATOM     78  O   UNL A   1      40.966  23.601  26.397  1.00  0.00    -0.237 OA
ATOM     79  O   UNL A   1      42.101  25.315  25.035  1.00  0.00    -0.744 OA
ENDBRANCH  75  76
ENDBRANCH  54  68
BRANCH  55  80
ATOM     80  C   UNL A   1      39.868  34.279  36.987  1.00  0.00     0.058 A 
ATOM     81  C   UNL A   1      40.575  35.488  36.959  1.00  0.00     0.135 A 
ATOM     82  C   UNL A   1      38.974  34.071  38.051  1.00  0.00     0.135 A 
ATOM     83  F   UNL A   1      41.445  35.733  35.968  1.00  0.00    -0.206 F 
ATOM     84  C   UNL A   1      40.412  36.450  37.950  1.00  0.00     0.059 A 
ATOM     85  C   UNL A   1      38.768  35.032  39.035  1.00  0.00     0.059 A 
ATOM     86  F   UNL A   1      38.255  32.939  38.117  1.00  0.00    -0.206 F 
ATOM     87  C   UNL A   1      39.501  36.215  38.981  1.00  0.00     0.060 A 
BRANCH  87  88
ATOM     88  S   UNL A   1      39.256  37.493  40.232  1.00  0.00     0.124 S 
ATOM     89  O   UNL A   1      40.589  38.080  40.316  1.00  0.00    -0.237 OA
ATOM     90  O   UNL A   1      38.228  38.326  39.619  1.00  0.00    -0.237 OA
ATOM     91  O   UNL A   1      38.823  36.737  41.404  1.00  0.00    -0.744 OA
ENDBRANCH  87  88
ENDBRANCH  55  80
BRANCH  67  92
ATOM     92  C   UNL A   1      36.747  33.121  30.855  1.00  0.00     0.058 A 
ATOM     93  C   UNL A   1      35.423  32.919  31.275  1.00  0.00     0.135 A 
ATOM     94  C   UNL A   1      36.972  34.007  29.789  1.00  0.00     0.135 A 
ATOM     95  F   UNL A   1      35.155  32.074  32.283  1.00  0.00    -0.206 F 
ATOM     96  C   UNL A   1      34.360  33.554  30.645  1.00  0.00     0.059 A 
ATOM     97  C   UNL A   1      35.927  34.678  29.166  1.00  0.00     0.059 A 
ATOM     98  F   UNL A   1      38.221  34.239  29.355  1.00  0.00    -0.206 F 
ATOM     99  C   UNL A   1      34.623  34.434  29.594  1.00  0.00     0.060 A 
BRANCH  99 100
ATOM    100  S   UNL A   1      33.235  35.278  28.807  1.00  0.00     0.124 S 
ATOM    101  O   UNL A   1      32.672  34.212  27.986  1.00  0.00    -0.237 OA
ATOM    102  O   UNL A   1      32.431  35.689  29.954  1.00  0.00    -0.237 OA
ATOM    103  O   UNL A   1      33.872  36.367  28.072  1.00  0.00    -0.744 OA
ENDBRANCH  99 100
ENDBRANCH  67  92
ENDBRANCH  41  42
ENDBRANCH  34  36
ENDBRANCH  33  34
ENDBRANCH  32  33
ENDBRANCH   1  32
TORSDOF 17
ENDMDL
