MODEL 1
REMARK VINA RESULT:     -11.0      0.000      0.000
REMARK SMILES C[C@@H](C(=O)OCCOC(=O)c1ccc(-c2c3nc(c(-c4c(F)cc(S(=O)(=O)[O-])cc4F)c4ccc([nH]4)c(-c4c(F)cc(S(=O)(=O)[O-])cc4F)c4nc(c(-c5c(F)cc(S(=O)(=O)[O-])cc5F)c5ccc2[nH]5)C=C4)C=C3)cc1)c1ccc(C[C@H]2CCC[C@@H]2O)cc1
REMARK SMILES IDX 6 1 5 2 3 3 4 4 2 5 1 6 77 7 78 8 89 9 79 10 88 11 80 12
REMARK SMILES IDX 81 13 82 14 83 15 86 16 84 17 85 18 87 19 7 21 8 22 9 23
REMARK SMILES IDX 10 24 11 25 12 26 76 27 13 28 75 29 14 30 15 31 16 32 69 33
REMARK SMILES IDX 17 34 74 35 68 36 70 37 18 38 73 39 67 40 66 41 19 43 53 44
REMARK SMILES IDX 32 45 52 46 33 47 36 48 51 49 71 50 34 51 35 52 50 54 72 55
REMARK SMILES IDX 37 56 20 57 21 58 30 59 22 60 23 61 29 62 31 63 24 64 25 65
REMARK SMILES IDX 26 66 27 67 28 68 54 69 55 70 64 71 56 72 57 73 63 74 65 75
REMARK SMILES IDX 58 76 59 77 60 78 61 79 62 80 38 81 39 82 48 83 40 84 41 85
REMARK SMILES IDX 47 86 49 87 42 88 43 89 44 90 45 91 46 92
REMARK H PARENT 87 20 70 42 36 53
REMARK Flexibility Score: inf
ROOT
ATOM      1  C   UNL A   1      34.372  32.733  29.176  1.00  0.00     0.274 C 
ENDROOT
BRANCH   1   2
ATOM      2  O   UNL A   1      34.615  31.867  28.049  1.00  0.00    -0.462 OA
BRANCH   2   3
ATOM      3  C   UNL A   1      33.561  31.170  27.533  1.00  0.00     0.313 C 
ATOM      4  O   UNL A   1      32.487  31.685  27.243  1.00  0.00    -0.252 OA
BRANCH   3   5
ATOM      5  C   UNL A   1      33.858  29.662  27.435  1.00  0.00     0.126 C 
ATOM      6  C   UNL A   1      35.375  29.422  27.252  1.00  0.00     0.025 C 
BRANCH   5   7
ATOM      7  C   UNL A   1      33.045  28.882  26.392  1.00  0.00    -0.034 A 
ATOM      8  C   UNL A   1      33.568  28.693  25.102  1.00  0.00     0.005 A 
ATOM      9  C   UNL A   1      31.796  28.301  26.647  1.00  0.00     0.005 A 
ATOM     10  C   UNL A   1      32.814  28.119  24.074  1.00  0.00     0.004 A 
ATOM     11  C   UNL A   1      31.039  27.726  25.612  1.00  0.00     0.004 A 
ATOM     12  C   UNL A   1      31.502  27.711  24.291  1.00  0.00    -0.048 A 
BRANCH  12  13
ATOM     13  C   UNL A   1      30.598  27.249  23.167  1.00  0.00     0.041 C 
BRANCH  13  14
ATOM     14  C   UNL A   1      29.598  28.261  22.564  1.00  0.00     0.022 C 
ATOM     15  C   UNL A   1      28.170  28.242  23.129  1.00  0.00     0.007 C 
ATOM     16  C   UNL A   1      30.004  29.737  22.595  1.00  0.00     0.117 C 
ATOM     17  C   UNL A   1      27.689  29.696  23.148  1.00  0.00     0.003 C 
ATOM     18  C   UNL A   1      28.696  30.463  22.307  1.00  0.00     0.032 C 
BRANCH  16  19
ATOM     19  O   UNL A   1      30.999  30.042  21.637  1.00  0.00    -0.393 OA
ATOM     20  H   UNL A   1      30.864  30.943  21.305  1.00  0.00     0.210 HD
ENDBRANCH  16  19
ENDBRANCH  13  14
ENDBRANCH  12  13
ENDBRANCH   5   7
ENDBRANCH   3   5
ENDBRANCH   2   3
ENDBRANCH   1   2
BRANCH   1  21
ATOM     21  C   UNL A   1      35.012  32.103  30.409  1.00  0.00     0.275 C 
BRANCH  21  22
ATOM     22  O   UNL A   1      36.338  31.683  30.047  1.00  0.00    -0.458 OA
BRANCH  22  23
ATOM     23  C   UNL A   1      36.785  30.543  30.618  1.00  0.00     0.338 C 
ATOM     24  O   UNL A   1      36.167  29.796  31.365  1.00  0.00    -0.246 OA
BRANCH  23  25
ATOM     25  C   UNL A   1      38.183  30.330  30.207  1.00  0.00     0.060 A 
ATOM     26  C   UNL A   1      38.504  30.313  28.852  1.00  0.00     0.016 A 
ATOM     27  C   UNL A   1      39.169  30.082  31.162  1.00  0.00     0.016 A 
ATOM     28  C   UNL A   1      39.806  30.008  28.455  1.00  0.00     0.010 A 
ATOM     29  C   UNL A   1      40.489  29.842  30.755  1.00  0.00     0.010 A 
ATOM     30  C   UNL A   1      40.821  29.771  29.392  1.00  0.00    -0.014 A 
BRANCH  30  31
ATOM     31  C   UNL A   1      42.177  29.357  28.921  1.00  0.00     0.031 A 
ATOM     32  C   UNL A   1      42.423  27.932  28.484  1.00  0.00     0.074 A 
ATOM     33  C   UNL A   1      43.168  30.262  28.765  1.00  0.00     0.049 A 
ATOM     34  N   UNL A   1      43.531  27.376  28.059  1.00  0.00    -0.248 NA
ATOM     35  C   UNL A   1      41.265  27.023  28.491  1.00  0.00     0.031 C 
ATOM     36  C   UNL A   1      43.066  31.692  29.060  1.00  0.00     0.029 A 
ATOM     37  N   UNL A   1      44.452  30.117  28.292  1.00  0.00    -0.354 N 
ATOM     38  C   UNL A   1      43.207  26.057  27.763  1.00  0.00     0.074 A 
ATOM     39  C   UNL A   1      41.804  25.888  28.070  1.00  0.00     0.031 C 
ATOM     40  C   UNL A   1      44.215  32.297  28.721  1.00  0.00     0.029 A 
ATOM     41  C   UNL A   1      45.170  31.292  28.259  1.00  0.00     0.049 A 
ATOM     42  H   UNL A   1      44.825  29.253  28.003  1.00  0.00     0.167 HD
ATOM     43  C   UNL A   1      43.997  25.075  27.269  1.00  0.00     0.037 A 
ATOM     44  C   UNL A   1      46.456  31.537  27.935  1.00  0.00     0.037 A 
ATOM     45  C   UNL A   1      45.391  25.222  26.950  1.00  0.00     0.049 A 
ATOM     46  C   UNL A   1      47.354  30.394  27.540  1.00  0.00     0.074 A 
ATOM     47  C   UNL A   1      46.272  24.261  26.483  1.00  0.00     0.029 A 
ATOM     48  N   UNL A   1      46.111  26.400  27.066  1.00  0.00    -0.354 N 
ATOM     49  N   UNL A   1      47.046  29.137  27.333  1.00  0.00    -0.248 NA
ATOM     50  C   UNL A   1      48.784  30.698  27.372  1.00  0.00     0.031 C 
ATOM     51  C   UNL A   1      47.536  24.850  26.355  1.00  0.00     0.029 A 
ATOM     52  C   UNL A   1      47.431  26.185  26.707  1.00  0.00     0.049 A 
ATOM     53  H   UNL A   1      45.738  27.263  27.360  1.00  0.00     0.167 HD
ATOM     54  C   UNL A   1      48.241  28.502  27.010  1.00  0.00     0.074 A 
ATOM     55  C   UNL A   1      49.274  29.516  27.026  1.00  0.00     0.031 C 
ATOM     56  C   UNL A   1      48.460  27.193  26.735  1.00  0.00     0.037 A 
BRANCH  43  57
ATOM     57  C   UNL A   1      43.370  23.724  27.086  1.00  0.00     0.058 A 
ATOM     58  C   UNL A   1      43.199  22.839  28.162  1.00  0.00     0.135 A 
ATOM     59  C   UNL A   1      42.926  23.318  25.818  1.00  0.00     0.135 A 
ATOM     60  F   UNL A   1      43.629  23.176  29.389  1.00  0.00    -0.206 F 
ATOM     61  C   UNL A   1      42.630  21.583  27.980  1.00  0.00     0.059 A 
ATOM     62  C   UNL A   1      42.338  22.073  25.617  1.00  0.00     0.059 A 
ATOM     63  F   UNL A   1      43.073  24.129  24.759  1.00  0.00    -0.206 F 
ATOM     64  C   UNL A   1      42.208  21.208  26.702  1.00  0.00     0.060 A 
BRANCH  64  65
ATOM     65  S   UNL A   1      41.491  19.567  26.475  1.00  0.00     0.124 S 
ATOM     66  O   UNL A   1      41.751  18.955  27.775  1.00  0.00    -0.237 OA
ATOM     67  O   UNL A   1      40.094  19.872  26.186  1.00  0.00    -0.237 OA
ATOM     68  O   UNL A   1      42.253  19.014  25.359  1.00  0.00    -0.744 OA
ENDBRANCH  64  65
ENDBRANCH  43  57
BRANCH  44  69
ATOM     69  C   UNL A   1      47.003  32.917  28.034  1.00  0.00     0.058 A 
ATOM     70  C   UNL A   1      46.952  33.801  26.945  1.00  0.00     0.135 A 
ATOM     71  C   UNL A   1      47.606  33.374  29.216  1.00  0.00     0.135 A 
ATOM     72  F   UNL A   1      46.406  33.404  25.785  1.00  0.00    -0.206 F 
ATOM     73  C   UNL A   1      47.481  35.086  27.024  1.00  0.00     0.059 A 
ATOM     74  C   UNL A   1      48.117  34.662  29.328  1.00  0.00     0.059 A 
ATOM     75  F   UNL A   1      47.684  32.567  30.286  1.00  0.00    -0.206 F 
ATOM     76  C   UNL A   1      48.060  35.508  28.222  1.00  0.00     0.060 A 
BRANCH  76  77
ATOM     77  S   UNL A   1      48.697  37.194  28.345  1.00  0.00     0.124 S 
ATOM     78  O   UNL A   1      47.493  37.980  28.105  1.00  0.00    -0.237 OA
ATOM     79  O   UNL A   1      49.224  37.231  29.705  1.00  0.00    -0.237 OA
ATOM     80  O   UNL A   1      49.706  37.242  27.290  1.00  0.00    -0.744 OA
ENDBRANCH  76  77
ENDBRANCH  44  69
BRANCH  56  81
ATOM     81  C   UNL A   1      49.870  26.773  26.428  1.00  0.00     0.058 A 
ATOM     82  C   UNL A   1      50.745  26.362  27.446  1.00  0.00     0.135 A 
ATOM     83  C   UNL A   1      50.335  26.729  25.105  1.00  0.00     0.135 A 
ATOM     84  F   UNL A   1      50.352  26.392  28.729  1.00  0.00    -0.206 F 
ATOM     85  C   UNL A   1      52.040  25.936  27.163  1.00  0.00     0.059 A 
ATOM     86  C   UNL A   1      51.619  26.287  24.796  1.00  0.00     0.059 A 
ATOM     87  F   UNL A   1      49.535  27.103  24.094  1.00  0.00    -0.206 F 
ATOM     88  C   UNL A   1      52.467  25.901  25.835  1.00  0.00     0.060 A 
BRANCH  88  89
ATOM     89  S   UNL A   1      54.135  25.308  25.473  1.00  0.00     0.124 S 
ATOM     90  O   UNL A   1      54.718  26.464  24.801  1.00  0.00    -0.237 OA
ATOM     91  O   UNL A   1      54.661  25.016  26.802  1.00  0.00    -0.237 OA
ATOM     92  O   UNL A   1      53.902  24.139  24.629  1.00  0.00    -0.744 OA
ENDBRANCH  88  89
ENDBRANCH  56  81
ENDBRANCH  30  31
ENDBRANCH  23  25
ENDBRANCH  22  23
ENDBRANCH  21  22
ENDBRANCH   1  21
TORSDOF 18
ENDMDL
MODEL 2
REMARK VINA RESULT:     -10.9      7.086     12.457
REMARK SMILES C[C@@H](C(=O)OCCOC(=O)c1ccc(-c2c3nc(c(-c4c(F)cc(S(=O)(=O)[O-])cc4F)c4ccc([nH]4)c(-c4c(F)cc(S(=O)(=O)[O-])cc4F)c4nc(c(-c5c(F)cc(S(=O)(=O)[O-])cc5F)c5ccc2[nH]5)C=C4)C=C3)cc1)c1ccc(C[C@H]2CCC[C@@H]2O)cc1
REMARK SMILES IDX 6 1 5 2 3 3 4 4 2 5 1 6 77 7 78 8 89 9 79 10 88 11 80 12
REMARK SMILES IDX 81 13 82 14 83 15 86 16 84 17 85 18 87 19 7 21 8 22 9 23
REMARK SMILES IDX 10 24 11 25 12 26 76 27 13 28 75 29 14 30 15 31 16 32 69 33
REMARK SMILES IDX 17 34 74 35 68 36 70 37 18 38 73 39 67 40 66 41 19 43 53 44
REMARK SMILES IDX 32 45 52 46 33 47 36 48 51 49 71 50 34 51 35 52 50 54 72 55
REMARK SMILES IDX 37 56 20 57 21 58 30 59 22 60 23 61 29 62 31 63 24 64 25 65
REMARK SMILES IDX 26 66 27 67 28 68 54 69 55 70 64 71 56 72 57 73 63 74 65 75
REMARK SMILES IDX 58 76 59 77 60 78 61 79 62 80 38 81 39 82 48 83 40 84 41 85
REMARK SMILES IDX 47 86 49 87 42 88 43 89 44 90 45 91 46 92
REMARK H PARENT 87 20 70 42 36 53
REMARK Flexibility Score: inf
ROOT
ATOM      1  C   UNL A   1      40.895  21.510  26.523  1.00  0.00     0.274 C 
ENDROOT
BRANCH   1   2
ATOM      2  O   UNL A   1      39.565  22.049  26.650  1.00  0.00    -0.462 OA
BRANCH   2   3
ATOM      3  C   UNL A   1      38.605  21.607  25.788  1.00  0.00     0.313 C 
ATOM      4  O   UNL A   1      38.540  20.452  25.383  1.00  0.00    -0.252 OA
BRANCH   3   5
ATOM      5  C   UNL A   1      37.671  22.744  25.330  1.00  0.00     0.126 C 
ATOM      6  C   UNL A   1      37.824  23.973  26.255  1.00  0.00     0.025 C 
BRANCH   5   7
ATOM      7  C   UNL A   1      36.194  22.370  25.149  1.00  0.00    -0.034 A 
ATOM      8  C   UNL A   1      35.444  21.939  26.256  1.00  0.00     0.005 A 
ATOM      9  C   UNL A   1      35.508  22.456  23.930  1.00  0.00     0.005 A 
ATOM     10  C   UNL A   1      34.140  21.451  26.124  1.00  0.00     0.004 A 
ATOM     11  C   UNL A   1      34.198  21.962  23.798  1.00  0.00     0.004 A 
ATOM     12  C   UNL A   1      33.531  21.368  24.876  1.00  0.00    -0.048 A 
BRANCH  12  13
ATOM     13  C   UNL A   1      32.195  20.685  24.668  1.00  0.00     0.041 C 
BRANCH  13  14
ATOM     14  C   UNL A   1      32.183  19.173  24.347  1.00  0.00     0.022 C 
ATOM     15  C   UNL A   1      32.487  18.772  22.897  1.00  0.00     0.007 C 
ATOM     16  C   UNL A   1      33.096  18.280  25.192  1.00  0.00     0.117 C 
ATOM     17  C   UNL A   1      33.287  17.467  22.964  1.00  0.00     0.003 C 
ATOM     18  C   UNL A   1      33.145  16.982  24.397  1.00  0.00     0.032 C 
BRANCH  16  19
ATOM     19  O   UNL A   1      32.593  18.080  26.499  1.00  0.00    -0.393 OA
ATOM     20  H   UNL A   1      33.162  18.537  27.138  1.00  0.00     0.210 HD
ENDBRANCH  16  19
ENDBRANCH  13  14
ENDBRANCH  12  13
ENDBRANCH   5   7
ENDBRANCH   3   5
ENDBRANCH   2   3
ENDBRANCH   1   2
BRANCH   1  21
ATOM     21  C   UNL A   1      41.810  22.611  25.996  1.00  0.00     0.275 C 
BRANCH  21  22
ATOM     22  O   UNL A   1      41.148  23.868  26.213  1.00  0.00    -0.458 OA
BRANCH  22  23
ATOM     23  C   UNL A   1      41.886  24.980  26.004  1.00  0.00     0.338 C 
ATOM     24  O   UNL A   1      42.531  25.265  25.003  1.00  0.00    -0.246 OA
BRANCH  23  25
ATOM     25  C   UNL A   1      41.809  25.827  27.207  1.00  0.00     0.060 A 
ATOM     26  C   UNL A   1      41.025  25.419  28.283  1.00  0.00     0.016 A 
ATOM     27  C   UNL A   1      42.462  27.059  27.246  1.00  0.00     0.016 A 
ATOM     28  C   UNL A   1      40.865  26.264  29.381  1.00  0.00     0.010 A 
ATOM     29  C   UNL A   1      42.348  27.873  28.382  1.00  0.00     0.010 A 
ATOM     30  C   UNL A   1      41.522  27.500  29.455  1.00  0.00    -0.014 A 
BRANCH  30  31
ATOM     31  C   UNL A   1      41.249  28.413  30.606  1.00  0.00     0.031 A 
ATOM     32  C   UNL A   1      42.157  28.400  31.813  1.00  0.00     0.074 A 
ATOM     33  C   UNL A   1      40.268  29.340  30.544  1.00  0.00     0.049 A 
ATOM     34  N   UNL A   1      42.079  29.103  32.916  1.00  0.00    -0.248 NA
ATOM     35  C   UNL A   1      43.326  27.506  31.758  1.00  0.00     0.031 C 
ATOM     36  C   UNL A   1      39.359  29.539  29.415  1.00  0.00     0.029 A 
ATOM     37  N   UNL A   1      39.889  30.309  31.444  1.00  0.00    -0.354 N 
ATOM     38  C   UNL A   1      43.174  28.729  33.686  1.00  0.00     0.074 A 
ATOM     39  C   UNL A   1      43.895  27.725  32.935  1.00  0.00     0.031 C 
ATOM     40  C   UNL A   1      38.562  30.590  29.668  1.00  0.00     0.029 A 
ATOM     41  C   UNL A   1      38.843  31.093  31.010  1.00  0.00     0.049 A 
ATOM     42  H   UNL A   1      40.325  30.433  32.318  1.00  0.00     0.167 HD
ATOM     43  C   UNL A   1      43.557  29.184  34.902  1.00  0.00     0.037 A 
ATOM     44  C   UNL A   1      38.159  32.078  31.627  1.00  0.00     0.037 A 
ATOM     45  C   UNL A   1      42.860  30.186  35.663  1.00  0.00     0.049 A 
ATOM     46  C   UNL A   1      38.508  32.454  33.043  1.00  0.00     0.074 A 
ATOM     47  C   UNL A   1      43.163  30.672  36.924  1.00  0.00     0.029 A 
ATOM     48  N   UNL A   1      41.722  30.854  35.241  1.00  0.00    -0.354 N 
ATOM     49  N   UNL A   1      39.506  32.038  33.783  1.00  0.00    -0.248 NA
ATOM     50  C   UNL A   1      37.614  33.406  33.719  1.00  0.00     0.031 C 
ATOM     51  C   UNL A   1      42.182  31.606  37.281  1.00  0.00     0.029 A 
ATOM     52  C   UNL A   1      41.293  31.727  36.226  1.00  0.00     0.049 A 
ATOM     53  H   UNL A   1      41.284  30.725  34.368  1.00  0.00     0.167 HD
ATOM     54  C   UNL A   1      39.360  32.677  35.010  1.00  0.00     0.074 A 
ATOM     55  C   UNL A   1      38.192  33.526  34.907  1.00  0.00     0.031 C 
ATOM     56  C   UNL A   1      40.123  32.561  36.125  1.00  0.00     0.037 A 
BRANCH  43  57
ATOM     57  C   UNL A   1      44.777  28.557  35.510  1.00  0.00     0.058 A 
ATOM     58  C   UNL A   1      46.057  29.099  35.318  1.00  0.00     0.135 A 
ATOM     59  C   UNL A   1      44.658  27.405  36.303  1.00  0.00     0.135 A 
ATOM     60  F   UNL A   1      46.222  30.187  34.548  1.00  0.00    -0.206 F 
ATOM     61  C   UNL A   1      47.184  28.502  35.874  1.00  0.00     0.059 A 
ATOM     62  C   UNL A   1      45.769  26.803  36.883  1.00  0.00     0.059 A 
ATOM     63  F   UNL A   1      43.453  26.850  36.511  1.00  0.00    -0.206 F 
ATOM     64  C   UNL A   1      47.029  27.351  36.650  1.00  0.00     0.060 A 
BRANCH  64  65
ATOM     65  S   UNL A   1      48.502  26.574  37.348  1.00  0.00     0.124 S 
ATOM     66  O   UNL A   1      48.390  26.951  38.754  1.00  0.00    -0.237 OA
ATOM     67  O   UNL A   1      48.282  25.162  37.051  1.00  0.00    -0.237 OA
ATOM     68  O   UNL A   1      49.598  27.202  36.615  1.00  0.00    -0.744 OA
ENDBRANCH  64  65
ENDBRANCH  43  57
BRANCH  44  69
ATOM     69  C   UNL A   1      37.018  32.742  30.938  1.00  0.00     0.058 A 
ATOM     70  C   UNL A   1      35.693  32.348  31.179  1.00  0.00     0.135 A 
ATOM     71  C   UNL A   1      37.233  33.773  30.011  1.00  0.00     0.135 A 
ATOM     72  F   UNL A   1      35.436  31.352  32.041  1.00  0.00    -0.206 F 
ATOM     73  C   UNL A   1      34.622  32.950  30.524  1.00  0.00     0.059 A 
ATOM     74  C   UNL A   1      36.179  34.408  29.363  1.00  0.00     0.059 A 
ATOM     75  F   UNL A   1      38.482  34.185  29.741  1.00  0.00    -0.206 F 
ATOM     76  C   UNL A   1      34.877  33.982  29.618  1.00  0.00     0.060 A 
BRANCH  76  77
ATOM     77  S   UNL A   1      33.487  34.802  28.807  1.00  0.00     0.124 S 
ATOM     78  O   UNL A   1      32.546  34.942  29.911  1.00  0.00    -0.237 OA
ATOM     79  O   UNL A   1      34.092  36.039  28.323  1.00  0.00    -0.237 OA
ATOM     80  O   UNL A   1      33.105  33.852  27.766  1.00  0.00    -0.744 OA
ENDBRANCH  76  77
ENDBRANCH  44  69
BRANCH  56  81
ATOM     81  C   UNL A   1      39.724  33.368  37.328  1.00  0.00     0.058 A 
ATOM     82  C   UNL A   1      38.769  32.892  38.240  1.00  0.00     0.135 A 
ATOM     83  C   UNL A   1      40.336  34.601  37.602  1.00  0.00     0.135 A 
ATOM     84  F   UNL A   1      38.149  31.722  38.021  1.00  0.00    -0.206 F 
ATOM     85  C   UNL A   1      38.423  33.618  39.376  1.00  0.00     0.059 A 
ATOM     86  C   UNL A   1      40.022  35.335  38.743  1.00  0.00     0.059 A 
ATOM     87  F   UNL A   1      41.261  35.097  36.766  1.00  0.00    -0.206 F 
ATOM     88  C   UNL A   1      39.056  34.839  39.620  1.00  0.00     0.060 A 
BRANCH  88  89
ATOM     89  S   UNL A   1      38.632  35.755  41.118  1.00  0.00     0.124 S 
ATOM     90  O   UNL A   1      37.392  35.100  41.521  1.00  0.00    -0.237 OA
ATOM     91  O   UNL A   1      39.786  35.508  41.976  1.00  0.00    -0.237 OA
ATOM     92  O   UNL A   1      38.494  37.130  40.645  1.00  0.00    -0.744 OA
ENDBRANCH  88  89
ENDBRANCH  56  81
ENDBRANCH  30  31
ENDBRANCH  23  25
ENDBRANCH  22  23
ENDBRANCH  21  22
ENDBRANCH   1  21
TORSDOF 18
ENDMDL
MODEL 3
REMARK VINA RESULT:     -10.7      7.263     12.679
REMARK SMILES C[C@@H](C(=O)OCCOC(=O)c1ccc(-c2c3nc(c(-c4c(F)cc(S(=O)(=O)[O-])cc4F)c4ccc([nH]4)c(-c4c(F)cc(S(=O)(=O)[O-])cc4F)c4nc(c(-c5c(F)cc(S(=O)(=O)[O-])cc5F)c5ccc2[nH]5)C=C4)C=C3)cc1)c1ccc(C[C@H]2CCC[C@@H]2O)cc1
REMARK SMILES IDX 6 1 5 2 3 3 4 4 2 5 1 6 77 7 78 8 89 9 79 10 88 11 80 12
REMARK SMILES IDX 81 13 82 14 83 15 86 16 84 17 85 18 87 19 7 21 8 22 9 23
REMARK SMILES IDX 10 24 11 25 12 26 76 27 13 28 75 29 14 30 15 31 16 32 69 33
REMARK SMILES IDX 17 34 74 35 68 36 70 37 18 38 73 39 67 40 66 41 19 43 53 44
REMARK SMILES IDX 32 45 52 46 33 47 36 48 51 49 71 50 34 51 35 52 50 54 72 55
REMARK SMILES IDX 37 56 20 57 21 58 30 59 22 60 23 61 29 62 31 63 24 64 25 65
REMARK SMILES IDX 26 66 27 67 28 68 54 69 55 70 64 71 56 72 57 73 63 74 65 75
REMARK SMILES IDX 58 76 59 77 60 78 61 79 62 80 38 81 39 82 48 83 40 84 41 85
REMARK SMILES IDX 47 86 49 87 42 88 43 89 44 90 45 91 46 92
REMARK H PARENT 87 20 70 42 36 53
REMARK Flexibility Score: inf
ROOT
ATOM      1  C   UNL A   1      40.690  22.041  26.726  1.00  0.00     0.274 C 
ENDROOT
BRANCH   1   2
ATOM      2  O   UNL A   1      39.373  22.611  26.602  1.00  0.00    -0.462 OA
BRANCH   2   3
ATOM      3  C   UNL A   1      38.490  22.016  25.748  1.00  0.00     0.313 C 
ATOM      4  O   UNL A   1      38.578  20.847  25.391  1.00  0.00    -0.252 OA
BRANCH   3   5
ATOM      5  C   UNL A   1      37.429  23.006  25.230  1.00  0.00     0.126 C 
ATOM      6  C   UNL A   1      37.370  24.256  26.138  1.00  0.00     0.025 C 
BRANCH   5   7
ATOM      7  C   UNL A   1      36.027  22.428  24.994  1.00  0.00    -0.034 A 
ATOM      8  C   UNL A   1      35.456  21.575  25.953  1.00  0.00     0.005 A 
ATOM      9  C   UNL A   1      35.238  22.719  23.874  1.00  0.00     0.005 A 
ATOM     10  C   UNL A   1      34.248  20.908  25.726  1.00  0.00     0.004 A 
ATOM     11  C   UNL A   1      34.026  22.046  23.645  1.00  0.00     0.004 A 
ATOM     12  C   UNL A   1      33.561  21.063  24.526  1.00  0.00    -0.048 A 
BRANCH  12  13
ATOM     13  C   UNL A   1      32.348  20.227  24.172  1.00  0.00     0.041 C 
BRANCH  13  14
ATOM     14  C   UNL A   1      32.493  18.689  24.157  1.00  0.00     0.022 C 
ATOM     15  C   UNL A   1      33.110  18.065  22.897  1.00  0.00     0.007 C 
ATOM     16  C   UNL A   1      33.266  18.055  25.316  1.00  0.00     0.117 C 
ATOM     17  C   UNL A   1      33.957  16.879  23.367  1.00  0.00     0.003 C 
ATOM     18  C   UNL A   1      33.555  16.647  24.814  1.00  0.00     0.032 C 
BRANCH  16  19
ATOM     19  O   UNL A   1      32.520  18.045  26.519  1.00  0.00    -0.393 OA
ATOM     20  H   UNL A   1      32.710  18.850  27.024  1.00  0.00     0.210 HD
ENDBRANCH  16  19
ENDBRANCH  13  14
ENDBRANCH  12  13
ENDBRANCH   5   7
ENDBRANCH   3   5
ENDBRANCH   2   3
ENDBRANCH   1   2
BRANCH   1  21
ATOM     21  C   UNL A   1      41.631  22.809  25.803  1.00  0.00     0.275 C 
BRANCH  21  22
ATOM     22  O   UNL A   1      42.252  23.847  26.579  1.00  0.00    -0.458 OA
BRANCH  22  23
ATOM     23  C   UNL A   1      41.983  25.118  26.206  1.00  0.00     0.338 C 
ATOM     24  O   UNL A   1      41.830  25.541  25.068  1.00  0.00    -0.246 OA
BRANCH  23  25
ATOM     25  C   UNL A   1      41.911  25.955  27.416  1.00  0.00     0.060 A 
ATOM     26  C   UNL A   1      40.965  25.664  28.396  1.00  0.00     0.016 A 
ATOM     27  C   UNL A   1      42.738  27.070  27.554  1.00  0.00     0.016 A 
ATOM     28  C   UNL A   1      40.823  26.513  29.493  1.00  0.00     0.010 A 
ATOM     29  C   UNL A   1      42.633  27.881  28.692  1.00  0.00     0.010 A 
ATOM     30  C   UNL A   1      41.650  27.631  29.665  1.00  0.00    -0.014 A 
BRANCH  30  31
ATOM     31  C   UNL A   1      41.401  28.565  30.805  1.00  0.00     0.031 A 
ATOM     32  C   UNL A   1      40.273  29.567  30.729  1.00  0.00     0.074 A 
ATOM     33  C   UNL A   1      42.093  28.456  31.961  1.00  0.00     0.049 A 
ATOM     34  N   UNL A   1      39.907  30.470  31.604  1.00  0.00    -0.248 NA
ATOM     35  C   UNL A   1      39.424  29.524  29.527  1.00  0.00     0.031 C 
ATOM     36  C   UNL A   1      43.155  27.485  32.225  1.00  0.00     0.029 A 
ATOM     37  N   UNL A   1      41.987  29.155  33.141  1.00  0.00    -0.354 N 
ATOM     38  C   UNL A   1      38.800  31.106  31.057  1.00  0.00     0.074 A 
ATOM     39  C   UNL A   1      38.560  30.500  29.765  1.00  0.00     0.031 C 
ATOM     40  C   UNL A   1      43.569  27.617  33.496  1.00  0.00     0.029 A 
ATOM     41  C   UNL A   1      42.863  28.735  34.117  1.00  0.00     0.049 A 
ATOM     42  H   UNL A   1      41.343  29.887  33.278  1.00  0.00     0.167 HD
ATOM     43  C   UNL A   1      38.040  32.098  31.579  1.00  0.00     0.037 A 
ATOM     44  C   UNL A   1      43.104  29.211  35.356  1.00  0.00     0.037 A 
ATOM     45  C   UNL A   1      38.254  32.710  32.863  1.00  0.00     0.049 A 
ATOM     46  C   UNL A   1      42.350  30.418  35.850  1.00  0.00     0.074 A 
ATOM     47  C   UNL A   1      37.551  33.750  33.447  1.00  0.00     0.029 A 
ATOM     48  N   UNL A   1      39.245  32.344  33.760  1.00  0.00    -0.354 N 
ATOM     49  N   UNL A   1      41.351  31.052  35.286  1.00  0.00    -0.248 NA
ATOM     50  C   UNL A   1      42.783  30.994  37.132  1.00  0.00     0.031 C 
ATOM     51  C   UNL A   1      38.144  34.040  34.682  1.00  0.00     0.029 A 
ATOM     52  C   UNL A   1      39.191  33.156  34.881  1.00  0.00     0.049 A 
ATOM     53  H   UNL A   1      39.892  31.615  33.620  1.00  0.00     0.167 HD
ATOM     54  C   UNL A   1      41.036  32.101  36.145  1.00  0.00     0.074 A 
ATOM     55  C   UNL A   1      41.934  32.003  37.276  1.00  0.00     0.031 C 
ATOM     56  C   UNL A   1      40.093  33.064  36.000  1.00  0.00     0.037 A 
BRANCH  43  57
ATOM     57  C   UNL A   1      36.918  32.617  30.728  1.00  0.00     0.058 A 
ATOM     58  C   UNL A   1      35.637  32.047  30.770  1.00  0.00     0.135 A 
ATOM     59  C   UNL A   1      37.132  33.706  29.868  1.00  0.00     0.135 A 
ATOM     60  F   UNL A   1      35.392  30.990  31.561  1.00  0.00    -0.206 F 
ATOM     61  C   UNL A   1      34.607  32.527  29.966  1.00  0.00     0.059 A 
ATOM     62  C   UNL A   1      36.112  34.212  29.069  1.00  0.00     0.059 A 
ATOM     63  F   UNL A   1      38.343  34.279  29.792  1.00  0.00    -0.206 F 
ATOM     64  C   UNL A   1      34.858  33.606  29.115  1.00  0.00     0.060 A 
BRANCH  64  65
ATOM     65  S   UNL A   1      33.519  34.204  28.061  1.00  0.00     0.124 S 
ATOM     66  O   UNL A   1      34.263  34.908  27.020  1.00  0.00    -0.237 OA
ATOM     67  O   UNL A   1      32.869  32.966  27.647  1.00  0.00    -0.237 OA
ATOM     68  O   UNL A   1      32.736  35.053  28.954  1.00  0.00    -0.744 OA
ENDBRANCH  64  65
ENDBRANCH  43  57
BRANCH  44  69
ATOM     69  C   UNL A   1      44.160  28.592  36.203  1.00  0.00     0.058 A 
ATOM     70  C   UNL A   1      43.872  27.512  37.051  1.00  0.00     0.135 A 
ATOM     71  C   UNL A   1      45.475  29.082  36.195  1.00  0.00     0.135 A 
ATOM     72  F   UNL A   1      42.625  27.021  37.112  1.00  0.00    -0.206 F 
ATOM     73  C   UNL A   1      44.850  26.941  37.862  1.00  0.00     0.059 A 
ATOM     74  C   UNL A   1      46.475  28.512  36.975  1.00  0.00     0.059 A 
ATOM     75  F   UNL A   1      45.802  30.116  35.404  1.00  0.00    -0.206 F 
ATOM     76  C   UNL A   1      46.150  27.447  37.815  1.00  0.00     0.060 A 
BRANCH  76  77
ATOM     77  S   UNL A   1      47.432  26.674  38.824  1.00  0.00     0.124 S 
ATOM     78  O   UNL A   1      48.362  26.204  37.805  1.00  0.00    -0.237 OA
ATOM     79  O   UNL A   1      47.895  27.786  39.648  1.00  0.00    -0.237 OA
ATOM     80  O   UNL A   1      46.703  25.634  39.544  1.00  0.00    -0.744 OA
ENDBRANCH  76  77
ENDBRANCH  44  69
BRANCH  56  81
ATOM     81  C   UNL A   1      39.977  34.094  37.088  1.00  0.00     0.058 A 
ATOM     82  C   UNL A   1      40.628  35.333  36.990  1.00  0.00     0.135 A 
ATOM     83  C   UNL A   1      39.169  33.864  38.212  1.00  0.00     0.135 A 
ATOM     84  F   UNL A   1      41.419  35.600  35.938  1.00  0.00    -0.206 F 
ATOM     85  C   UNL A   1      40.494  36.306  37.976  1.00  0.00     0.059 A 
ATOM     86  C   UNL A   1      39.003  34.830  39.201  1.00  0.00     0.059 A 
ATOM     87  F   UNL A   1      38.518  32.699  38.350  1.00  0.00    -0.206 F 
ATOM     88  C   UNL A   1      39.678  36.045  39.078  1.00  0.00     0.060 A 
BRANCH  88  89
ATOM     89  S   UNL A   1      39.476  37.328  40.334  1.00  0.00     0.124 S 
ATOM     90  O   UNL A   1      38.766  36.603  41.383  1.00  0.00    -0.237 OA
ATOM     91  O   UNL A   1      40.856  37.691  40.639  1.00  0.00    -0.237 OA
ATOM     92  O   UNL A   1      38.702  38.357  39.645  1.00  0.00    -0.744 OA
ENDBRANCH  88  89
ENDBRANCH  56  81
ENDBRANCH  30  31
ENDBRANCH  23  25
ENDBRANCH  22  23
ENDBRANCH  21  22
ENDBRANCH   1  21
TORSDOF 18
ENDMDL
