MODEL 1
REMARK VINA RESULT:     -11.5      0.000      0.000
REMARK SMILES CCc1cc(OC(F)(F)F)cc2c1O[C@@H](C(F)(F)F)C(C(=O)OCCOC(=O)c1ccc(-c3c4nc(c(-c5c(F)cc(S(=O)(=O)[O-])cc5F)c5ccc([nH]5)c(-c5c(F)cc(S(=O)(=O)[O-])cc5F)c5nc(c(-c6c(F)cc(S(=O)(=O)[O-])cc6F)c6ccc3[nH]6)C=C5)C=C4)cc1)=C2
REMARK SMILES IDX 25 1 24 2 23 3 21 4 22 5 20 6 3 7 4 8 13 9 5 10 12 11 14 12
REMARK SMILES IDX 11 13 95 14 15 15 2 16 1 17 6 18 7 19 8 20 9 21 10 22 16 23
REMARK SMILES IDX 17 24 18 25 19 26 26 27 27 28 28 29 29 30 30 31 94 32 31 33
REMARK SMILES IDX 93 34 32 35 33 36 34 37 87 38 35 39 92 40 86 41 88 42 36 43
REMARK SMILES IDX 91 44 85 45 84 46 37 48 71 49 50 50 70 51 51 52 54 53 69 54
REMARK SMILES IDX 89 55 52 56 53 57 68 59 90 60 55 61 38 62 39 63 48 64 40 65
REMARK SMILES IDX 41 66 47 67 49 68 42 69 43 70 44 71 45 72 46 73 72 74 73 75
REMARK SMILES IDX 82 76 74 77 75 78 81 79 83 80 76 81 77 82 78 83 79 84 80 85
REMARK SMILES IDX 56 86 57 87 66 88 58 89 59 90 65 91 67 92 60 93 61 94 62 95
REMARK SMILES IDX 63 96 64 97
REMARK H PARENT 88 47 54 58
REMARK Flexibility Score: inf
ROOT
ATOM      1  C   UNL A   1      33.462  30.027  26.406  1.00  0.00     0.275 C 
ENDROOT
BRANCH   1   2
ATOM      2  C   UNL A   1      31.933  29.946  26.362  1.00  0.00     0.275 C 
BRANCH   2   3
ATOM      3  O   UNL A   1      31.486  28.749  25.693  1.00  0.00    -0.459 OA
BRANCH   3   4
ATOM      4  C   UNL A   1      31.605  27.592  26.399  1.00  0.00     0.338 C 
ATOM      5  O   UNL A   1      31.221  27.420  27.538  1.00  0.00    -0.246 OA
BRANCH   4   6
ATOM      6  C   UNL A   1      32.243  26.527  25.593  1.00  0.00     0.087 C 
ATOM      7  C   UNL A   1      33.793  23.433  23.249  1.00  0.00    -0.002 A 
ATOM      8  C   UNL A   1      35.134  23.050  23.406  1.00  0.00     0.054 A 
ATOM      9  C   UNL A   1      33.261  24.394  24.118  1.00  0.00     0.131 A 
ATOM     10  C   UNL A   1      35.920  23.611  24.416  1.00  0.00     0.130 A 
ATOM     11  C   UNL A   1      34.053  25.023  25.083  1.00  0.00     0.021 A 
ATOM     12  O   UNL A   1      31.918  24.638  24.034  1.00  0.00    -0.475 OA
ATOM     13  C   UNL A   1      35.384  24.620  25.229  1.00  0.00     0.058 A 
ATOM     14  C   UNL A   1      33.459  26.061  25.926  1.00  0.00     0.027 C 
ATOM     15  C   UNL A   1      31.500  25.983  24.386  1.00  0.00     0.316 C 
BRANCH   7  16
ATOM     16  C   UNL A   1      32.966  22.858  22.122  1.00  0.00     0.036 C 
ATOM     17  C   UNL A   1      32.244  21.586  22.551  1.00  0.00     0.009 C 
ENDBRANCH   7  16
BRANCH  10  18
ATOM     18  O   UNL A   1      37.215  23.276  24.695  1.00  0.00    -0.406 OA
BRANCH  18  19
ATOM     19  C   UNL A   1      37.427  22.122  25.495  1.00  0.00     0.573 C 
ATOM     20  F   UNL A   1      38.388  22.329  26.421  1.00  0.00    -0.132 F 
ATOM     21  F   UNL A   1      36.286  21.739  26.106  1.00  0.00    -0.132 F 
ATOM     22  F   UNL A   1      37.834  21.110  24.695  1.00  0.00    -0.132 F 
ENDBRANCH  18  19
ENDBRANCH  10  18
BRANCH  15  23
ATOM     23  C   UNL A   1      29.960  25.984  24.398  1.00  0.00     0.430 C 
ATOM     24  F   UNL A   1      29.448  25.077  23.536  1.00  0.00    -0.167 F 
ATOM     25  F   UNL A   1      29.503  25.623  25.627  1.00  0.00    -0.167 F 
ATOM     26  F   UNL A   1      29.439  27.198  24.124  1.00  0.00    -0.167 F 
ENDBRANCH  15  23
ENDBRANCH   4   6
ENDBRANCH   3   4
ENDBRANCH   2   3
ENDBRANCH   1   2
BRANCH   1  27
ATOM     27  O   UNL A   1      33.972  29.675  27.704  1.00  0.00    -0.458 OA
BRANCH  27  28
ATOM     28  C   UNL A   1      34.723  30.631  28.302  1.00  0.00     0.338 C 
ATOM     29  O   UNL A   1      34.318  31.669  28.802  1.00  0.00    -0.246 OA
BRANCH  28  30
ATOM     30  C   UNL A   1      36.119  30.168  28.436  1.00  0.00     0.060 A 
ATOM     31  C   UNL A   1      36.519  29.717  29.698  1.00  0.00     0.016 A 
ATOM     32  C   UNL A   1      37.026  30.179  27.376  1.00  0.00     0.016 A 
ATOM     33  C   UNL A   1      37.799  29.205  29.893  1.00  0.00     0.010 A 
ATOM     34  C   UNL A   1      38.333  29.723  27.585  1.00  0.00     0.010 A 
ATOM     35  C   UNL A   1      38.721  29.226  28.842  1.00  0.00    -0.014 A 
BRANCH  35  36
ATOM     36  C   UNL A   1      40.128  28.838  29.092  1.00  0.00     0.031 A 
ATOM     37  C   UNL A   1      41.072  29.861  29.652  1.00  0.00     0.074 A 
ATOM     38  C   UNL A   1      40.550  27.587  28.832  1.00  0.00     0.049 A 
ATOM     39  N   UNL A   1      42.360  29.772  29.856  1.00  0.00    -0.248 NA
ATOM     40  C   UNL A   1      40.484  31.151  30.046  1.00  0.00     0.031 C 
ATOM     41  C   UNL A   1      39.701  26.488  28.375  1.00  0.00     0.029 A 
ATOM     42  N   UNL A   1      41.805  27.037  28.904  1.00  0.00    -0.354 N 
ATOM     43  C   UNL A   1      42.738  30.993  30.400  1.00  0.00     0.074 A 
ATOM     44  C   UNL A   1      41.546  31.806  30.494  1.00  0.00     0.031 C 
ATOM     45  C   UNL A   1      40.468  25.401  28.175  1.00  0.00     0.029 A 
ATOM     46  C   UNL A   1      41.863  25.740  28.452  1.00  0.00     0.049 A 
ATOM     47  H   UNL A   1      42.589  27.525  29.247  1.00  0.00     0.167 HD
ATOM     48  C   UNL A   1      43.974  31.400  30.776  1.00  0.00     0.037 A 
ATOM     49  C   UNL A   1      42.927  24.937  28.247  1.00  0.00     0.037 A 
ATOM     50  C   UNL A   1      45.159  30.598  30.641  1.00  0.00     0.049 A 
ATOM     51  C   UNL A   1      44.309  25.455  28.559  1.00  0.00     0.074 A 
ATOM     52  C   UNL A   1      46.465  30.934  30.954  1.00  0.00     0.029 A 
ATOM     53  N   UNL A   1      45.186  29.306  30.138  1.00  0.00    -0.354 N 
ATOM     54  N   UNL A   1      44.661  26.617  29.060  1.00  0.00    -0.248 NA
ATOM     55  C   UNL A   1      45.442  24.562  28.270  1.00  0.00     0.031 C 
ATOM     56  C   UNL A   1      47.286  29.860  30.597  1.00  0.00     0.029 A 
ATOM     57  C   UNL A   1      46.488  28.837  30.111  1.00  0.00     0.049 A 
ATOM     58  H   UNL A   1      44.396  28.798  29.844  1.00  0.00     0.167 HD
ATOM     59  C   UNL A   1      46.047  26.579  29.176  1.00  0.00     0.074 A 
ATOM     60  C   UNL A   1      46.472  25.284  28.691  1.00  0.00     0.031 C 
ATOM     61  C   UNL A   1      46.889  27.531  29.647  1.00  0.00     0.037 A 
BRANCH  48  62
ATOM     62  C   UNL A   1      44.105  32.796  31.312  1.00  0.00     0.058 A 
ATOM     63  C   UNL A   1      44.053  33.065  32.688  1.00  0.00     0.135 A 
ATOM     64  C   UNL A   1      44.296  33.876  30.436  1.00  0.00     0.135 A 
ATOM     65  F   UNL A   1      43.849  32.071  33.566  1.00  0.00    -0.206 F 
ATOM     66  C   UNL A   1      44.161  34.364  33.178  1.00  0.00     0.059 A 
ATOM     67  C   UNL A   1      44.429  35.180  30.905  1.00  0.00     0.059 A 
ATOM     68  F   UNL A   1      44.346  33.671  29.111  1.00  0.00    -0.206 F 
ATOM     69  C   UNL A   1      44.345  35.415  32.276  1.00  0.00     0.060 A 
BRANCH  69  70
ATOM     70  S   UNL A   1      44.470  37.096  32.922  1.00  0.00     0.124 S 
ATOM     71  O   UNL A   1      44.752  37.853  31.706  1.00  0.00    -0.237 OA
ATOM     72  O   UNL A   1      43.149  37.306  33.506  1.00  0.00    -0.237 OA
ATOM     73  O   UNL A   1      45.570  37.012  33.877  1.00  0.00    -0.744 OA
ENDBRANCH  69  70
ENDBRANCH  48  62
BRANCH  49  74
ATOM     74  C   UNL A   1      42.738  23.575  27.678  1.00  0.00     0.058 A 
ATOM     75  C   UNL A   1      42.497  22.468  28.503  1.00  0.00     0.135 A 
ATOM     76  C   UNL A   1      42.809  23.353  26.293  1.00  0.00     0.135 A 
ATOM     77  F   UNL A   1      42.434  22.624  29.834  1.00  0.00    -0.206 F 
ATOM     78  C   UNL A   1      42.348  21.186  27.979  1.00  0.00     0.059 A 
ATOM     79  C   UNL A   1      42.639  22.085  25.744  1.00  0.00     0.059 A 
ATOM     80  F   UNL A   1      43.035  24.379  25.457  1.00  0.00    -0.206 F 
ATOM     81  C   UNL A   1      42.420  21.006  26.596  1.00  0.00     0.060 A 
BRANCH  81  82
ATOM     82  S   UNL A   1      42.196  19.344  25.923  1.00  0.00     0.124 S 
ATOM     83  O   UNL A   1      42.993  19.411  24.704  1.00  0.00    -0.237 OA
ATOM     84  O   UNL A   1      42.731  18.505  26.991  1.00  0.00    -0.237 OA
ATOM     85  O   UNL A   1      40.752  19.254  25.729  1.00  0.00    -0.744 OA
ENDBRANCH  81  82
ENDBRANCH  49  74
BRANCH  61  86
ATOM     86  C   UNL A   1      48.355  27.204  29.720  1.00  0.00     0.058 A 
ATOM     87  C   UNL A   1      49.236  27.525  28.678  1.00  0.00     0.135 A 
ATOM     88  C   UNL A   1      48.897  26.667  30.900  1.00  0.00     0.135 A 
ATOM     89  F   UNL A   1      48.766  28.034  27.528  1.00  0.00    -0.206 F 
ATOM     90  C   UNL A   1      50.608  27.329  28.803  1.00  0.00     0.059 A 
ATOM     91  C   UNL A   1      50.267  26.484  31.055  1.00  0.00     0.059 A 
ATOM     92  F   UNL A   1      48.096  26.352  31.930  1.00  0.00    -0.206 F 
ATOM     93  C   UNL A   1      51.116  26.818  30.000  1.00  0.00     0.060 A 
BRANCH  93  94
ATOM     94  S   UNL A   1      52.904  26.651  30.183  1.00  0.00     0.124 S 
ATOM     95  O   UNL A   1      53.289  28.001  30.575  1.00  0.00    -0.237 OA
ATOM     96  O   UNL A   1      53.019  25.631  31.221  1.00  0.00    -0.237 OA
ATOM     97  O   UNL A   1      53.344  26.234  28.854  1.00  0.00    -0.744 OA
ENDBRANCH  93  94
ENDBRANCH  61  86
ENDBRANCH  35  36
ENDBRANCH  28  30
ENDBRANCH  27  28
ENDBRANCH   1  27
TORSDOF 18
ENDMDL
MODEL 2
REMARK VINA RESULT:     -11.3      2.144      2.902
REMARK SMILES CCc1cc(OC(F)(F)F)cc2c1O[C@@H](C(F)(F)F)C(C(=O)OCCOC(=O)c1ccc(-c3c4nc(c(-c5c(F)cc(S(=O)(=O)[O-])cc5F)c5ccc([nH]5)c(-c5c(F)cc(S(=O)(=O)[O-])cc5F)c5nc(c(-c6c(F)cc(S(=O)(=O)[O-])cc6F)c6ccc3[nH]6)C=C5)C=C4)cc1)=C2
REMARK SMILES IDX 25 1 24 2 23 3 21 4 22 5 20 6 3 7 4 8 13 9 5 10 12 11 14 12
REMARK SMILES IDX 11 13 95 14 15 15 2 16 1 17 6 18 7 19 8 20 9 21 10 22 16 23
REMARK SMILES IDX 17 24 18 25 19 26 26 27 27 28 28 29 29 30 30 31 94 32 31 33
REMARK SMILES IDX 93 34 32 35 33 36 34 37 87 38 35 39 92 40 86 41 88 42 36 43
REMARK SMILES IDX 91 44 85 45 84 46 37 48 71 49 50 50 70 51 51 52 54 53 69 54
REMARK SMILES IDX 89 55 52 56 53 57 68 59 90 60 55 61 38 62 39 63 48 64 40 65
REMARK SMILES IDX 41 66 47 67 49 68 42 69 43 70 44 71 45 72 46 73 72 74 73 75
REMARK SMILES IDX 82 76 74 77 75 78 81 79 83 80 76 81 77 82 78 83 79 84 80 85
REMARK SMILES IDX 56 86 57 87 66 88 58 89 59 90 65 91 67 92 60 93 61 94 62 95
REMARK SMILES IDX 63 96 64 97
REMARK H PARENT 88 47 54 58
REMARK Flexibility Score: inf
ROOT
ATOM      1  C   UNL A   1      34.553  30.200  27.159  1.00  0.00     0.275 C 
ENDROOT
BRANCH   1   2
ATOM      2  C   UNL A   1      33.066  29.852  27.275  1.00  0.00     0.275 C 
BRANCH   2   3
ATOM      3  O   UNL A   1      32.660  28.921  26.251  1.00  0.00    -0.459 OA
BRANCH   3   4
ATOM      4  C   UNL A   1      32.248  27.699  26.685  1.00  0.00     0.338 C 
ATOM      5  O   UNL A   1      31.525  27.500  27.641  1.00  0.00    -0.246 OA
BRANCH   4   6
ATOM      6  C   UNL A   1      32.764  26.613  25.822  1.00  0.00     0.087 C 
ATOM      7  C   UNL A   1      33.962  23.491  23.314  1.00  0.00    -0.002 A 
ATOM      8  C   UNL A   1      35.252  22.956  23.444  1.00  0.00     0.054 A 
ATOM      9  C   UNL A   1      33.539  24.460  24.234  1.00  0.00     0.131 A 
ATOM     10  C   UNL A   1      36.096  23.374  24.476  1.00  0.00     0.130 A 
ATOM     11  C   UNL A   1      34.396  24.947  25.225  1.00  0.00     0.021 A 
ATOM     12  O   UNL A   1      32.232  24.854  24.171  1.00  0.00    -0.475 OA
ATOM     13  C   UNL A   1      35.675  24.393  25.343  1.00  0.00     0.058 A 
ATOM     14  C   UNL A   1      33.921  26.000  26.124  1.00  0.00     0.027 C 
ATOM     15  C   UNL A   1      31.965  26.217  24.593  1.00  0.00     0.316 C 
BRANCH   7  16
ATOM     16  C   UNL A   1      33.076  23.070  22.165  1.00  0.00     0.036 C 
ATOM     17  C   UNL A   1      32.336  21.774  22.476  1.00  0.00     0.009 C 
ENDBRANCH   7  16
BRANCH  10  18
ATOM     18  O   UNL A   1      37.346  22.884  24.730  1.00  0.00    -0.406 OA
BRANCH  18  19
ATOM     19  C   UNL A   1      37.429  21.597  25.324  1.00  0.00     0.573 C 
ATOM     20  F   UNL A   1      38.473  21.509  26.177  1.00  0.00    -0.132 F 
ATOM     21  F   UNL A   1      36.287  21.288  25.973  1.00  0.00    -0.132 F 
ATOM     22  F   UNL A   1      37.615  20.681  24.346  1.00  0.00    -0.132 F 
ENDBRANCH  18  19
ENDBRANCH  10  18
BRANCH  15  23
ATOM     23  C   UNL A   1      30.434  26.387  24.615  1.00  0.00     0.430 C 
ATOM     24  F   UNL A   1      29.833  25.666  23.642  1.00  0.00    -0.167 F 
ATOM     25  F   UNL A   1      29.929  25.918  25.787  1.00  0.00    -0.167 F 
ATOM     26  F   UNL A   1      30.054  27.677  24.509  1.00  0.00    -0.167 F 
ENDBRANCH  15  23
ENDBRANCH   4   6
ENDBRANCH   3   4
ENDBRANCH   2   3
ENDBRANCH   1   2
BRANCH   1  27
ATOM     27  O   UNL A   1      35.345  29.455  28.101  1.00  0.00    -0.458 OA
BRANCH  27  28
ATOM     28  C   UNL A   1      36.054  30.209  28.975  1.00  0.00     0.338 C 
ATOM     29  O   UNL A   1      35.601  30.964  29.822  1.00  0.00    -0.246 OA
BRANCH  28  30
ATOM     30  C   UNL A   1      37.488  29.864  28.894  1.00  0.00     0.060 A 
ATOM     31  C   UNL A   1      38.027  29.692  27.615  1.00  0.00     0.016 A 
ATOM     32  C   UNL A   1      38.294  29.700  30.022  1.00  0.00     0.016 A 
ATOM     33  C   UNL A   1      39.384  29.428  27.449  1.00  0.00     0.010 A 
ATOM     34  C   UNL A   1      39.645  29.374  29.859  1.00  0.00     0.010 A 
ATOM     35  C   UNL A   1      40.197  29.246  28.572  1.00  0.00    -0.014 A 
BRANCH  35  36
ATOM     36  C   UNL A   1      41.599  28.802  28.399  1.00  0.00     0.031 A 
ATOM     37  C   UNL A   1      42.696  29.824  28.469  1.00  0.00     0.074 A 
ATOM     38  C   UNL A   1      41.886  27.504  28.193  1.00  0.00     0.049 A 
ATOM     39  N   UNL A   1      43.976  29.678  28.250  1.00  0.00    -0.248 NA
ATOM     40  C   UNL A   1      42.298  31.189  28.848  1.00  0.00     0.031 C 
ATOM     41  C   UNL A   1      40.912  26.413  28.199  1.00  0.00     0.029 A 
ATOM     42  N   UNL A   1      43.082  26.887  27.927  1.00  0.00    -0.354 N 
ATOM     43  C   UNL A   1      44.538  30.931  28.463  1.00  0.00     0.074 A 
ATOM     44  C   UNL A   1      43.461  31.825  28.826  1.00  0.00     0.031 C 
ATOM     45  C   UNL A   1      41.547  25.262  27.914  1.00  0.00     0.029 A 
ATOM     46  C   UNL A   1      42.960  25.542  27.668  1.00  0.00     0.049 A 
ATOM     47  H   UNL A   1      43.945  27.362  27.922  1.00  0.00     0.167 HD
ATOM     48  C   UNL A   1      45.835  31.300  28.352  1.00  0.00     0.037 A 
ATOM     49  C   UNL A   1      43.879  24.652  27.241  1.00  0.00     0.037 A 
ATOM     50  C   UNL A   1      46.892  30.413  27.950  1.00  0.00     0.049 A 
ATOM     51  C   UNL A   1      45.296  25.114  27.006  1.00  0.00     0.074 A 
ATOM     52  C   UNL A   1      48.233  30.699  27.767  1.00  0.00     0.029 A 
ATOM     53  N   UNL A   1      46.724  29.068  27.653  1.00  0.00    -0.354 N 
ATOM     54  N   UNL A   1      45.817  26.304  27.196  1.00  0.00    -0.248 NA
ATOM     55  C   UNL A   1      46.250  24.120  26.491  1.00  0.00     0.031 C 
ATOM     56  C   UNL A   1      48.868  29.538  27.315  1.00  0.00     0.029 A 
ATOM     57  C   UNL A   1      47.933  28.515  27.267  1.00  0.00     0.049 A 
ATOM     58  H   UNL A   1      45.872  28.579  27.709  1.00  0.00     0.167 HD
ATOM     59  C   UNL A   1      47.162  26.192  26.856  1.00  0.00     0.074 A 
ATOM     60  C   UNL A   1      47.375  24.820  26.445  1.00  0.00     0.031 C 
ATOM     61  C   UNL A   1      48.131  27.138  26.886  1.00  0.00     0.037 A 
BRANCH  48  62
ATOM     62  C   UNL A   1      46.165  32.741  28.614  1.00  0.00     0.058 A 
ATOM     63  C   UNL A   1      46.134  33.703  27.592  1.00  0.00     0.135 A 
ATOM     64  C   UNL A   1      46.506  33.166  29.908  1.00  0.00     0.135 A 
ATOM     65  F   UNL A   1      45.836  33.344  26.334  1.00  0.00    -0.206 F 
ATOM     66  C   UNL A   1      46.454  35.034  27.840  1.00  0.00     0.059 A 
ATOM     67  C   UNL A   1      46.808  34.496  30.182  1.00  0.00     0.059 A 
ATOM     68  F   UNL A   1      46.557  32.283  30.917  1.00  0.00    -0.206 F 
ATOM     69  C   UNL A   1      46.794  35.419  29.139  1.00  0.00     0.060 A 
BRANCH  69  70
ATOM     70  S   UNL A   1      47.221  37.147  29.444  1.00  0.00     0.124 S 
ATOM     71  O   UNL A   1      47.837  37.522  28.175  1.00  0.00    -0.237 OA
ATOM     72  O   UNL A   1      45.920  37.747  29.719  1.00  0.00    -0.237 OA
ATOM     73  O   UNL A   1      48.130  37.076  30.584  1.00  0.00    -0.744 OA
ENDBRANCH  69  70
ENDBRANCH  48  62
BRANCH  49  74
ATOM     74  C   UNL A   1      43.484  23.244  26.962  1.00  0.00     0.058 A 
ATOM     75  C   UNL A   1      43.234  22.339  28.003  1.00  0.00     0.135 A 
ATOM     76  C   UNL A   1      43.363  22.773  25.644  1.00  0.00     0.135 A 
ATOM     77  F   UNL A   1      43.351  22.735  29.280  1.00  0.00    -0.206 F 
ATOM     78  C   UNL A   1      42.893  21.012  27.749  1.00  0.00     0.059 A 
ATOM     79  C   UNL A   1      43.000  21.459  25.366  1.00  0.00     0.059 A 
ATOM     80  F   UNL A   1      43.589  23.600  24.611  1.00  0.00    -0.206 F 
ATOM     81  C   UNL A   1      42.777  20.583  26.426  1.00  0.00     0.060 A 
BRANCH  81  82
ATOM     82  S   UNL A   1      42.305  18.869  26.106  1.00  0.00     0.124 S 
ATOM     83  O   UNL A   1      40.910  19.017  25.710  1.00  0.00    -0.237 OA
ATOM     84  O   UNL A   1      43.233  18.486  25.046  1.00  0.00    -0.237 OA
ATOM     85  O   UNL A   1      42.530  18.214  27.392  1.00  0.00    -0.744 OA
ENDBRANCH  81  82
ENDBRANCH  49  74
BRANCH  61  86
ATOM     86  C   UNL A   1      49.531  26.728  26.519  1.00  0.00     0.058 A 
ATOM     87  C   UNL A   1      50.351  26.024  27.411  1.00  0.00     0.135 A 
ATOM     88  C   UNL A   1      50.008  26.945  25.216  1.00  0.00     0.135 A 
ATOM     89  F   UNL A   1      49.943  25.798  28.671  1.00  0.00    -0.206 F 
ATOM     90  C   UNL A   1      51.598  25.543  27.024  1.00  0.00     0.059 A 
ATOM     91  C   UNL A   1      51.241  26.453  24.800  1.00  0.00     0.059 A 
ATOM     92  F   UNL A   1      49.256  27.605  24.321  1.00  0.00    -0.206 F 
ATOM     93  C   UNL A   1      52.030  25.753  25.712  1.00  0.00     0.060 A 
BRANCH  93  94
ATOM     94  S   UNL A   1      53.611  25.049  25.196  1.00  0.00     0.124 S 
ATOM     95  O   UNL A   1      53.348  23.619  25.309  1.00  0.00    -0.237 OA
ATOM     96  O   UNL A   1      53.753  25.562  23.837  1.00  0.00    -0.237 OA
ATOM     97  O   UNL A   1      54.557  25.592  26.165  1.00  0.00    -0.744 OA
ENDBRANCH  93  94
ENDBRANCH  61  86
ENDBRANCH  35  36
ENDBRANCH  28  30
ENDBRANCH  27  28
ENDBRANCH   1  27
TORSDOF 18
ENDMDL
MODEL 3
REMARK VINA RESULT:     -11.0      5.017     10.612
REMARK SMILES CCc1cc(OC(F)(F)F)cc2c1O[C@@H](C(F)(F)F)C(C(=O)OCCOC(=O)c1ccc(-c3c4nc(c(-c5c(F)cc(S(=O)(=O)[O-])cc5F)c5ccc([nH]5)c(-c5c(F)cc(S(=O)(=O)[O-])cc5F)c5nc(c(-c6c(F)cc(S(=O)(=O)[O-])cc6F)c6ccc3[nH]6)C=C5)C=C4)cc1)=C2
REMARK SMILES IDX 25 1 24 2 23 3 21 4 22 5 20 6 3 7 4 8 13 9 5 10 12 11 14 12
REMARK SMILES IDX 11 13 95 14 15 15 2 16 1 17 6 18 7 19 8 20 9 21 10 22 16 23
REMARK SMILES IDX 17 24 18 25 19 26 26 27 27 28 28 29 29 30 30 31 94 32 31 33
REMARK SMILES IDX 93 34 32 35 33 36 34 37 87 38 35 39 92 40 86 41 88 42 36 43
REMARK SMILES IDX 91 44 85 45 84 46 37 48 71 49 50 50 70 51 51 52 54 53 69 54
REMARK SMILES IDX 89 55 52 56 53 57 68 59 90 60 55 61 38 62 39 63 48 64 40 65
REMARK SMILES IDX 41 66 47 67 49 68 42 69 43 70 44 71 45 72 46 73 72 74 73 75
REMARK SMILES IDX 82 76 74 77 75 78 81 79 83 80 76 81 77 82 78 83 79 84 80 85
REMARK SMILES IDX 56 86 57 87 66 88 58 89 59 90 65 91 67 92 60 93 61 94 62 95
REMARK SMILES IDX 63 96 64 97
REMARK H PARENT 88 47 54 58
REMARK Flexibility Score: inf
ROOT
ATOM      1  C   UNL A   1      38.694  22.972  26.372  1.00  0.00     0.275 C 
ENDROOT
BRANCH   1   2
ATOM      2  C   UNL A   1      37.693  22.703  25.244  1.00  0.00     0.275 C 
BRANCH   2   3
ATOM      3  O   UNL A   1      36.616  23.663  25.254  1.00  0.00    -0.459 OA
BRANCH   3   4
ATOM      4  C   UNL A   1      35.378  23.167  25.525  1.00  0.00     0.338 C 
ATOM      5  O   UNL A   1      35.144  22.045  25.928  1.00  0.00    -0.246 OA
BRANCH   4   6
ATOM      6  C   UNL A   1      34.325  24.182  25.302  1.00  0.00     0.087 C 
ATOM      7  C   UNL A   1      31.339  26.968  24.410  1.00  0.00    -0.002 A 
ATOM      8  C   UNL A   1      31.117  28.046  25.280  1.00  0.00     0.054 A 
ATOM      9  C   UNL A   1      32.415  26.107  24.666  1.00  0.00     0.131 A 
ATOM     10  C   UNL A   1      31.958  28.263  26.374  1.00  0.00     0.130 A 
ATOM     11  C   UNL A   1      33.219  26.262  25.799  1.00  0.00     0.021 A 
ATOM     12  O   UNL A   1      32.693  25.156  23.724  1.00  0.00    -0.475 OA
ATOM     13  C   UNL A   1      32.987  27.349  26.647  1.00  0.00     0.058 A 
ATOM     14  C   UNL A   1      34.294  25.301  26.047  1.00  0.00     0.027 C 
ATOM     15  C   UNL A   1      33.285  23.930  24.225  1.00  0.00     0.316 C 
BRANCH   7  16
ATOM     16  C   UNL A   1      30.394  26.712  23.259  1.00  0.00     0.036 C 
ATOM     17  C   UNL A   1      28.951  26.598  23.737  1.00  0.00     0.009 C 
ENDBRANCH   7  16
BRANCH  10  18
ATOM     18  O   UNL A   1      31.870  29.308  27.251  1.00  0.00    -0.406 OA
BRANCH  18  19
ATOM     19  C   UNL A   1      32.497  30.525  26.873  1.00  0.00     0.573 C 
ATOM     20  F   UNL A   1      33.191  30.390  25.722  1.00  0.00    -0.132 F 
ATOM     21  F   UNL A   1      31.591  31.516  26.742  1.00  0.00    -0.132 F 
ATOM     22  F   UNL A   1      33.369  30.881  27.844  1.00  0.00    -0.132 F 
ENDBRANCH  18  19
ENDBRANCH  10  18
BRANCH  15  23
ATOM     23  C   UNL A   1      33.677  23.088  22.996  1.00  0.00     0.430 C 
ATOM     24  F   UNL A   1      33.316  21.793  23.135  1.00  0.00    -0.167 F 
ATOM     25  F   UNL A   1      33.020  23.538  21.893  1.00  0.00    -0.167 F 
ATOM     26  F   UNL A   1      34.997  23.152  22.722  1.00  0.00    -0.167 F 
ENDBRANCH  15  23
ENDBRANCH   4   6
ENDBRANCH   3   4
ENDBRANCH   2   3
ENDBRANCH   1   2
BRANCH   1  27
ATOM     27  O   UNL A   1      38.982  24.376  26.499  1.00  0.00    -0.458 OA
BRANCH  27  28
ATOM     28  C   UNL A   1      40.279  24.673  26.756  1.00  0.00     0.338 C 
ATOM     29  O   UNL A   1      41.255  24.263  26.147  1.00  0.00    -0.246 OA
BRANCH  28  30
ATOM     30  C   UNL A   1      40.362  25.726  27.788  1.00  0.00     0.060 A 
ATOM     31  C   UNL A   1      39.339  25.762  28.740  1.00  0.00     0.016 A 
ATOM     32  C   UNL A   1      41.395  26.664  27.833  1.00  0.00     0.016 A 
ATOM     33  C   UNL A   1      39.376  26.683  29.784  1.00  0.00     0.010 A 
ATOM     34  C   UNL A   1      41.401  27.630  28.845  1.00  0.00     0.010 A 
ATOM     35  C   UNL A   1      40.397  27.637  29.830  1.00  0.00    -0.014 A 
BRANCH  35  36
ATOM     36  C   UNL A   1      40.346  28.719  30.840  1.00  0.00     0.031 A 
ATOM     37  C   UNL A   1      41.253  28.638  32.033  1.00  0.00     0.074 A 
ATOM     38  C   UNL A   1      39.510  29.761  30.686  1.00  0.00     0.049 A 
ATOM     39  N   UNL A   1      41.307  29.414  33.083  1.00  0.00    -0.248 NA
ATOM     40  C   UNL A   1      42.237  27.544  32.037  1.00  0.00     0.031 C 
ATOM     41  C   UNL A   1      38.653  29.990  29.524  1.00  0.00     0.029 A 
ATOM     42  N   UNL A   1      39.236  30.815  31.520  1.00  0.00    -0.354 N 
ATOM     43  C   UNL A   1      42.329  28.904  33.874  1.00  0.00     0.074 A 
ATOM     44  C   UNL A   1      42.866  27.751  33.185  1.00  0.00     0.031 C 
ATOM     45  C   UNL A   1      37.923  31.101  29.735  1.00  0.00     0.029 A 
ATOM     46  C   UNL A   1      38.232  31.634  31.060  1.00  0.00     0.049 A 
ATOM     47  H   UNL A   1      39.714  30.970  32.368  1.00  0.00     0.167 HD
ATOM     48  C   UNL A   1      42.768  29.352  35.074  1.00  0.00     0.037 A 
ATOM     49  C   UNL A   1      37.610  32.669  31.660  1.00  0.00     0.037 A 
ATOM     50  C   UNL A   1      42.200  30.475  35.769  1.00  0.00     0.049 A 
ATOM     51  C   UNL A   1      38.035  33.075  33.049  1.00  0.00     0.074 A 
ATOM     52  C   UNL A   1      42.546  30.984  37.008  1.00  0.00     0.029 A 
ATOM     53  N   UNL A   1      41.155  31.253  35.292  1.00  0.00    -0.354 N 
ATOM     54  N   UNL A   1      38.992  32.578  33.798  1.00  0.00    -0.248 NA
ATOM     55  C   UNL A   1      37.292  34.175  33.684  1.00  0.00     0.031 C 
ATOM     56  C   UNL A   1      41.680  32.042  37.300  1.00  0.00     0.029 A 
ATOM     57  C   UNL A   1      40.829  32.225  36.221  1.00  0.00     0.049 A 
ATOM     58  H   UNL A   1      40.713  31.131  34.421  1.00  0.00     0.167 HD
ATOM     59  C   UNL A   1      38.987  33.325  34.972  1.00  0.00     0.074 A 
ATOM     60  C   UNL A   1      37.930  34.305  34.839  1.00  0.00     0.031 C 
ATOM     61  C   UNL A   1      39.788  33.211  36.059  1.00  0.00     0.037 A 
BRANCH  48  62
ATOM     62  C   UNL A   1      43.880  28.586  35.730  1.00  0.00     0.058 A 
ATOM     63  C   UNL A   1      43.625  27.510  36.594  1.00  0.00     0.135 A 
ATOM     64  C   UNL A   1      45.219  28.927  35.479  1.00  0.00     0.135 A 
ATOM     65  F   UNL A   1      42.363  27.159  36.884  1.00  0.00    -0.206 F 
ATOM     66  C   UNL A   1      44.661  26.813  37.209  1.00  0.00     0.059 A 
ATOM     67  C   UNL A   1      46.270  28.229  36.066  1.00  0.00     0.059 A 
ATOM     68  F   UNL A   1      45.515  29.952  34.666  1.00  0.00    -0.206 F 
ATOM     69  C   UNL A   1      45.980  27.184  36.941  1.00  0.00     0.060 A 
BRANCH  69  70
ATOM     70  S   UNL A   1      47.315  26.281  37.757  1.00  0.00     0.124 S 
ATOM     71  O   UNL A   1      47.657  27.191  38.845  1.00  0.00    -0.237 OA
ATOM     72  O   UNL A   1      46.656  25.040  38.152  1.00  0.00    -0.237 OA
ATOM     73  O   UNL A   1      48.323  26.148  36.711  1.00  0.00    -0.744 OA
ENDBRANCH  69  70
ENDBRANCH  48  62
BRANCH  49  74
ATOM     74  C   UNL A   1      36.489  33.367  30.974  1.00  0.00     0.058 A 
ATOM     75  C   UNL A   1      36.720  34.230  29.895  1.00  0.00     0.135 A 
ATOM     76  C   UNL A   1      35.161  33.194  31.399  1.00  0.00     0.135 A 
ATOM     77  F   UNL A   1      37.972  34.442  29.461  1.00  0.00    -0.206 F 
ATOM     78  C   UNL A   1      35.678  34.909  29.267  1.00  0.00     0.059 A 
ATOM     79  C   UNL A   1      34.101  33.843  30.772  1.00  0.00     0.059 A 
ATOM     80  F   UNL A   1      34.883  32.377  32.426  1.00  0.00    -0.206 F 
ATOM     81  C   UNL A   1      34.371  34.708  29.714  1.00  0.00     0.060 A 
BRANCH  81  82
ATOM     82  S   UNL A   1      33.023  35.570  28.875  1.00  0.00     0.124 S 
ATOM     83  O   UNL A   1      32.427  34.493  28.093  1.00  0.00    -0.237 OA
ATOM     84  O   UNL A   1      32.227  36.060  29.996  1.00  0.00    -0.237 OA
ATOM     85  O   UNL A   1      33.712  36.602  28.106  1.00  0.00    -0.744 OA
ENDBRANCH  81  82
ENDBRANCH  49  74
BRANCH  61  86
ATOM     86  C   UNL A   1      39.605  34.198  37.179  1.00  0.00     0.058 A 
ATOM     87  C   UNL A   1      38.865  33.883  38.327  1.00  0.00     0.135 A 
ATOM     88  C   UNL A   1      40.279  35.430  37.147  1.00  0.00     0.135 A 
ATOM     89  F   UNL A   1      38.198  32.720  38.404  1.00  0.00    -0.206 F 
ATOM     90  C   UNL A   1      38.801  34.755  39.409  1.00  0.00     0.059 A 
ATOM     91  C   UNL A   1      40.247  36.307  38.226  1.00  0.00     0.059 A 
ATOM     92  F   UNL A   1      41.009  35.774  36.074  1.00  0.00    -0.206 F 
ATOM     93  C   UNL A   1      39.505  35.960  39.354  1.00  0.00     0.060 A 
BRANCH  93  94
ATOM     94  S   UNL A   1      39.485  37.043  40.799  1.00  0.00     0.124 S 
ATOM     95  O   UNL A   1      38.711  38.177  40.308  1.00  0.00    -0.237 OA
ATOM     96  O   UNL A   1      38.828  36.214  41.804  1.00  0.00    -0.237 OA
ATOM     97  O   UNL A   1      40.900  37.308  41.044  1.00  0.00    -0.744 OA
ENDBRANCH  93  94
ENDBRANCH  61  86
ENDBRANCH  35  36
ENDBRANCH  28  30
ENDBRANCH  27  28
ENDBRANCH   1  27
TORSDOF 18
ENDMDL
