MODEL 1
REMARK VINA RESULT:     -10.3      0.000      0.000
REMARK SMILES CN(CC(C)(C)O)C(=O)N[C@H]1CC[C@H](C(=O)OCCOC(=O)c2ccc(-c3c4nc(c(-c5c(F)cc(S(=O)(=O)[O-])cc5F)c5ccc([nH]5)c(-c5c(F)cc(S(=O)(=O)[O-])cc5F)c5nc(c(-c6c(F)cc(S(=O)(=O)[O-])cc6F)c6ccc3[nH]6)C=C5)C=C4)cc2)C1
REMARK SMILES IDX 18 1 17 2 15 3 16 4 14 5 11 6 12 7 89 8 13 9 10 10 8 11 9 12
REMARK SMILES IDX 2 14 1 15 3 16 4 17 5 18 6 19 7 20 19 22 20 23 21 24 22 25
REMARK SMILES IDX 23 26 24 27 88 28 25 29 87 30 26 31 27 32 28 33 81 34 29 35
REMARK SMILES IDX 86 36 80 37 82 38 30 39 85 40 79 41 78 42 31 44 65 45 44 46
REMARK SMILES IDX 64 47 45 48 48 49 63 50 83 51 46 52 47 53 62 55 84 56 49 57
REMARK SMILES IDX 32 58 33 59 42 60 34 61 35 62 41 63 43 64 36 65 37 66 38 67
REMARK SMILES IDX 39 68 40 69 66 70 67 71 76 72 68 73 69 74 75 75 77 76 70 77
REMARK SMILES IDX 71 78 72 79 73 80 74 81 50 82 51 83 60 84 52 85 53 86 59 87
REMARK SMILES IDX 61 88 54 89 55 90 56 91 57 92 58 93
REMARK H PARENT 10 13 7 21 82 43 48 54
REMARK Flexibility Score: inf
ROOT
ATOM      1  C   UNL A   1      42.904  22.324  25.519  1.00  0.00     0.274 C 
ENDROOT
BRANCH   1   2
ATOM      2  O   UNL A   1      41.517  21.936  25.515  1.00  0.00    -0.462 OA
BRANCH   2   3
ATOM      3  C   UNL A   1      41.009  21.568  26.723  1.00  0.00     0.309 C 
ATOM      4  O   UNL A   1      41.622  20.957  27.587  1.00  0.00    -0.252 OA
BRANCH   3   5
ATOM      5  C   UNL A   1      39.562  21.980  26.883  1.00  0.00     0.101 C 
ATOM      6  C   UNL A   1      37.614  22.461  25.551  1.00  0.00     0.084 C 
ATOM      7  C   UNL A   1      38.286  23.795  25.855  1.00  0.00     0.026 C 
ATOM      8  C   UNL A   1      38.709  21.425  25.752  1.00  0.00     0.040 C 
ATOM      9  C   UNL A   1      39.326  23.499  26.919  1.00  0.00     0.017 C 
BRANCH   6  10
ATOM     10  N   UNL A   1      36.473  22.218  26.416  1.00  0.00    -0.335 N 
ATOM     11  C   UNL A   1      35.231  21.713  26.281  1.00  0.00     0.317 C 
ATOM     12  O   UNL A   1      34.534  21.769  27.300  1.00  0.00    -0.249 OA
ATOM     13  H   UNL A   1      36.653  22.496  27.343  1.00  0.00     0.165 HD
BRANCH  11  14
ATOM     14  N   UNL A   1      34.744  21.192  25.114  1.00  0.00    -0.325 N 
ATOM     15  C   UNL A   1      34.511  22.155  24.043  1.00  0.00     0.148 C 
BRANCH  14  16
ATOM     16  C   UNL A   1      34.471  19.797  24.770  1.00  0.00     0.155 C 
BRANCH  16  17
ATOM     17  C   UNL A   1      32.968  19.384  24.820  1.00  0.00     0.077 C 
ATOM     18  C   UNL A   1      32.197  19.497  23.497  1.00  0.00     0.043 C 
ATOM     19  C   UNL A   1      32.860  17.953  25.361  1.00  0.00     0.043 C 
BRANCH  17  20
ATOM     20  O   UNL A   1      32.310  20.244  25.769  1.00  0.00    -0.389 OA
ATOM     21  H   UNL A   1      31.399  19.939  25.904  1.00  0.00     0.211 HD
ENDBRANCH  17  20
ENDBRANCH  16  17
ENDBRANCH  14  16
ENDBRANCH  11  14
ENDBRANCH   6  10
ENDBRANCH   3   5
ENDBRANCH   2   3
ENDBRANCH   1   2
BRANCH   1  22
ATOM     22  C   UNL A   1      43.038  23.773  25.055  1.00  0.00     0.275 C 
BRANCH  22  23
ATOM     23  O   UNL A   1      42.683  24.662  26.130  1.00  0.00    -0.458 OA
BRANCH  23  24
ATOM     24  C   UNL A   1      42.549  25.967  25.796  1.00  0.00     0.338 C 
ATOM     25  O   UNL A   1      42.755  26.480  24.712  1.00  0.00    -0.246 OA
BRANCH  24  26
ATOM     26  C   UNL A   1      42.047  26.717  26.958  1.00  0.00     0.060 A 
ATOM     27  C   UNL A   1      42.444  28.042  27.136  1.00  0.00     0.016 A 
ATOM     28  C   UNL A   1      41.286  26.077  27.932  1.00  0.00     0.016 A 
ATOM     29  C   UNL A   1      42.142  28.718  28.312  1.00  0.00     0.010 A 
ATOM     30  C   UNL A   1      40.915  26.781  29.082  1.00  0.00     0.010 A 
ATOM     31  C   UNL A   1      41.362  28.099  29.296  1.00  0.00    -0.014 A 
BRANCH  31  32
ATOM     32  C   UNL A   1      41.053  28.813  30.561  1.00  0.00     0.031 A 
ATOM     33  C   UNL A   1      39.907  29.785  30.608  1.00  0.00     0.074 A 
ATOM     34  C   UNL A   1      41.790  28.588  31.666  1.00  0.00     0.049 A 
ATOM     35  N   UNL A   1      39.590  30.646  31.539  1.00  0.00    -0.248 NA
ATOM     36  C   UNL A   1      39.007  29.796  29.445  1.00  0.00     0.031 C 
ATOM     37  C   UNL A   1      42.894  27.631  31.769  1.00  0.00     0.029 A 
ATOM     38  N   UNL A   1      41.726  29.155  32.914  1.00  0.00    -0.354 N 
ATOM     39  C   UNL A   1      38.487  31.339  31.053  1.00  0.00     0.074 A 
ATOM     40  C   UNL A   1      38.191  30.797  29.745  1.00  0.00     0.031 C 
ATOM     41  C   UNL A   1      43.397  27.671  33.013  1.00  0.00     0.029 A 
ATOM     42  C   UNL A   1      42.704  28.707  33.771  1.00  0.00     0.049 A 
ATOM     43  H   UNL A   1      41.046  29.819  33.172  1.00  0.00     0.167 HD
ATOM     44  C   UNL A   1      37.792  32.340  31.646  1.00  0.00     0.037 A 
ATOM     45  C   UNL A   1      43.039  29.116  35.010  1.00  0.00     0.037 A 
ATOM     46  C   UNL A   1      38.071  32.843  32.966  1.00  0.00     0.049 A 
ATOM     47  C   UNL A   1      42.267  30.238  35.642  1.00  0.00     0.074 A 
ATOM     48  C   UNL A   1      37.427  33.852  33.660  1.00  0.00     0.029 A 
ATOM     49  N   UNL A   1      39.071  32.361  33.800  1.00  0.00    -0.354 N 
ATOM     50  N   UNL A   1      41.265  30.927  35.150  1.00  0.00    -0.248 NA
ATOM     51  C   UNL A   1      42.680  30.652  36.990  1.00  0.00     0.031 C 
ATOM     52  C   UNL A   1      38.056  33.999  34.903  1.00  0.00     0.029 A 
ATOM     53  C   UNL A   1      39.068  33.057  34.997  1.00  0.00     0.049 A 
ATOM     54  H   UNL A   1      39.691  31.631  33.573  1.00  0.00     0.167 HD
ATOM     55  C   UNL A   1      40.924  31.854  36.128  1.00  0.00     0.074 A 
ATOM     56  C   UNL A   1      41.814  31.624  37.248  1.00  0.00     0.031 C 
ATOM     57  C   UNL A   1      39.966  32.813  36.099  1.00  0.00     0.037 A 
BRANCH  44  58
ATOM     58  C   UNL A   1      36.694  32.983  30.845  1.00  0.00     0.058 A 
ATOM     59  C   UNL A   1      36.961  33.897  29.814  1.00  0.00     0.135 A 
ATOM     60  C   UNL A   1      35.351  32.683  31.122  1.00  0.00     0.135 A 
ATOM     61  F   UNL A   1      38.227  34.234  29.521  1.00  0.00    -0.206 F 
ATOM     62  C   UNL A   1      35.934  34.521  29.112  1.00  0.00     0.059 A 
ATOM     63  C   UNL A   1      34.307  33.277  30.417  1.00  0.00     0.059 A 
ATOM     64  F   UNL A   1      35.039  31.816  32.099  1.00  0.00    -0.206 F 
ATOM     65  C   UNL A   1      34.610  34.211  29.428  1.00  0.00     0.060 A 
BRANCH  65  66
ATOM     66  S   UNL A   1      33.283  35.051  28.536  1.00  0.00     0.124 S 
ATOM     67  O   UNL A   1      34.038  35.963  27.685  1.00  0.00    -0.237 OA
ATOM     68  O   UNL A   1      32.618  33.948  27.849  1.00  0.00    -0.237 OA
ATOM     69  O   UNL A   1      32.505  35.680  29.599  1.00  0.00    -0.744 OA
ENDBRANCH  65  66
ENDBRANCH  44  58
BRANCH  45  70
ATOM     70  C   UNL A   1      44.194  28.484  35.702  1.00  0.00     0.058 A 
ATOM     71  C   UNL A   1      44.014  27.400  36.572  1.00  0.00     0.135 A 
ATOM     72  C   UNL A   1      45.506  28.927  35.469  1.00  0.00     0.135 A 
ATOM     73  F   UNL A   1      42.778  26.950  36.835  1.00  0.00    -0.206 F 
ATOM     74  C   UNL A   1      45.094  26.773  37.185  1.00  0.00     0.059 A 
ATOM     75  C   UNL A   1      46.602  28.302  36.050  1.00  0.00     0.059 A 
ATOM     76  F   UNL A   1      45.730  29.955  34.635  1.00  0.00    -0.206 F 
ATOM     77  C   UNL A   1      46.387  27.227  36.912  1.00  0.00     0.060 A 
BRANCH  77  78
ATOM     78  S   UNL A   1      47.791  26.359  37.645  1.00  0.00     0.124 S 
ATOM     79  O   UNL A   1      47.150  25.160  38.173  1.00  0.00    -0.237 OA
ATOM     80  O   UNL A   1      48.668  26.161  36.496  1.00  0.00    -0.237 OA
ATOM     81  O   UNL A   1      48.283  27.305  38.643  1.00  0.00    -0.744 OA
ENDBRANCH  77  78
ENDBRANCH  45  70
BRANCH  57  82
ATOM     82  C   UNL A   1      39.820  33.672  37.321  1.00  0.00     0.058 A 
ATOM     83  C   UNL A   1      40.536  34.871  37.462  1.00  0.00     0.135 A 
ATOM     84  C   UNL A   1      38.925  33.315  38.341  1.00  0.00     0.135 A 
ATOM     85  F   UNL A   1      41.410  35.252  36.516  1.00  0.00    -0.206 F 
ATOM     86  C   UNL A   1      40.381  35.680  38.582  1.00  0.00     0.059 A 
ATOM     87  C   UNL A   1      38.739  34.118  39.461  1.00  0.00     0.059 A 
ATOM     88  F   UNL A   1      38.212  32.180  38.248  1.00  0.00    -0.206 F 
ATOM     89  C   UNL A   1      39.480  35.294  39.577  1.00  0.00     0.060 A 
BRANCH  89  90
ATOM     90  S   UNL A   1      39.261  36.367  41.014  1.00  0.00     0.124 S 
ATOM     91  O   UNL A   1      40.559  36.251  41.668  1.00  0.00    -0.237 OA
ATOM     92  O   UNL A   1      38.973  37.660  40.400  1.00  0.00    -0.237 OA
ATOM     93  O   UNL A   1      38.141  35.756  41.724  1.00  0.00    -0.744 OA
ENDBRANCH  89  90
ENDBRANCH  57  82
ENDBRANCH  31  32
ENDBRANCH  24  26
ENDBRANCH  23  24
ENDBRANCH  22  23
ENDBRANCH   1  22
TORSDOF 19
ENDMDL
MODEL 2
REMARK VINA RESULT:     -10.2      6.514     11.793
REMARK SMILES CN(CC(C)(C)O)C(=O)N[C@H]1CC[C@H](C(=O)OCCOC(=O)c2ccc(-c3c4nc(c(-c5c(F)cc(S(=O)(=O)[O-])cc5F)c5ccc([nH]5)c(-c5c(F)cc(S(=O)(=O)[O-])cc5F)c5nc(c(-c6c(F)cc(S(=O)(=O)[O-])cc6F)c6ccc3[nH]6)C=C5)C=C4)cc2)C1
REMARK SMILES IDX 18 1 17 2 15 3 16 4 14 5 11 6 12 7 89 8 13 9 10 10 8 11 9 12
REMARK SMILES IDX 2 14 1 15 3 16 4 17 5 18 6 19 7 20 19 22 20 23 21 24 22 25
REMARK SMILES IDX 23 26 24 27 88 28 25 29 87 30 26 31 27 32 28 33 81 34 29 35
REMARK SMILES IDX 86 36 80 37 82 38 30 39 85 40 79 41 78 42 31 44 65 45 44 46
REMARK SMILES IDX 64 47 45 48 48 49 63 50 83 51 46 52 47 53 62 55 84 56 49 57
REMARK SMILES IDX 32 58 33 59 42 60 34 61 35 62 41 63 43 64 36 65 37 66 38 67
REMARK SMILES IDX 39 68 40 69 66 70 67 71 76 72 68 73 69 74 75 75 77 76 70 77
REMARK SMILES IDX 71 78 72 79 73 80 74 81 50 82 51 83 60 84 52 85 53 86 59 87
REMARK SMILES IDX 61 88 54 89 55 90 56 91 57 92 58 93
REMARK H PARENT 10 13 7 21 82 43 48 54
REMARK Flexibility Score: inf
ROOT
ATOM      1  C   UNL A   1      34.133  31.309  27.424  1.00  0.00     0.274 C 
ENDROOT
BRANCH   1   2
ATOM      2  O   UNL A   1      33.156  30.294  27.723  1.00  0.00    -0.462 OA
BRANCH   2   3
ATOM      3  C   UNL A   1      32.161  30.152  26.805  1.00  0.00     0.309 C 
ATOM      4  O   UNL A   1      31.636  31.069  26.189  1.00  0.00    -0.252 OA
BRANCH   3   5
ATOM      5  C   UNL A   1      31.741  28.708  26.637  1.00  0.00     0.101 C 
ATOM      6  C   UNL A   1      32.673  26.563  26.065  1.00  0.00     0.084 C 
ATOM      7  C   UNL A   1      32.076  27.144  24.788  1.00  0.00     0.026 C 
ATOM      8  C   UNL A   1      32.888  27.765  26.969  1.00  0.00     0.040 C 
ATOM      9  C   UNL A   1      31.253  28.341  25.226  1.00  0.00     0.017 C 
BRANCH   6  10
ATOM     10  N   UNL A   1      31.799  25.576  26.673  1.00  0.00    -0.335 N 
ATOM     11  C   UNL A   1      31.383  24.327  26.387  1.00  0.00     0.317 C 
ATOM     12  O   UNL A   1      30.541  23.868  27.167  1.00  0.00    -0.249 OA
ATOM     13  H   UNL A   1      31.407  25.906  27.513  1.00  0.00     0.165 HD
BRANCH  11  14
ATOM     14  N   UNL A   1      31.824  23.605  25.312  1.00  0.00    -0.325 N 
ATOM     15  C   UNL A   1      30.940  23.600  24.152  1.00  0.00     0.148 C 
BRANCH  14  16
ATOM     16  C   UNL A   1      33.081  22.878  25.143  1.00  0.00     0.155 C 
BRANCH  16  17
ATOM     17  C   UNL A   1      33.102  21.440  25.749  1.00  0.00     0.077 C 
ATOM     18  C   UNL A   1      33.901  20.392  24.961  1.00  0.00     0.043 C 
ATOM     19  C   UNL A   1      33.623  21.512  27.190  1.00  0.00     0.043 C 
BRANCH  17  20
ATOM     20  O   UNL A   1      31.742  20.975  25.815  1.00  0.00    -0.389 OA
ATOM     21  H   UNL A   1      31.140  21.735  25.828  1.00  0.00     0.211 HD
ENDBRANCH  17  20
ENDBRANCH  16  17
ENDBRANCH  14  16
ENDBRANCH  11  14
ENDBRANCH   6  10
ENDBRANCH   3   5
ENDBRANCH   2   3
ENDBRANCH   1   2
BRANCH   1  22
ATOM     22  C   UNL A   1      34.457  32.105  28.687  1.00  0.00     0.275 C 
BRANCH  22  23
ATOM     23  O   UNL A   1      35.876  32.079  28.928  1.00  0.00    -0.458 OA
BRANCH  23  24
ATOM     24  C   UNL A   1      36.276  31.381  30.016  1.00  0.00     0.338 C 
ATOM     25  O   UNL A   1      35.682  31.243  31.069  1.00  0.00    -0.246 OA
BRANCH  24  26
ATOM     26  C   UNL A   1      37.567  30.735  29.732  1.00  0.00     0.060 A 
ATOM     27  C   UNL A   1      38.474  30.536  30.772  1.00  0.00     0.016 A 
ATOM     28  C   UNL A   1      37.929  30.437  28.421  1.00  0.00     0.016 A 
ATOM     29  C   UNL A   1      39.767  30.102  30.509  1.00  0.00     0.010 A 
ATOM     30  C   UNL A   1      39.205  29.926  28.163  1.00  0.00     0.010 A 
ATOM     31  C   UNL A   1      40.146  29.780  29.201  1.00  0.00    -0.014 A 
BRANCH  31  32
ATOM     32  C   UNL A   1      41.533  29.333  28.914  1.00  0.00     0.031 A 
ATOM     33  C   UNL A   1      42.661  30.325  28.963  1.00  0.00     0.074 A 
ATOM     34  C   UNL A   1      41.784  28.043  28.615  1.00  0.00     0.049 A 
ATOM     35  N   UNL A   1      43.899  30.191  28.564  1.00  0.00    -0.248 NA
ATOM     36  C   UNL A   1      42.350  31.647  29.528  1.00  0.00     0.031 C 
ATOM     37  C   UNL A   1      40.787  26.970  28.586  1.00  0.00     0.029 A 
ATOM     38  N   UNL A   1      42.955  27.416  28.272  1.00  0.00    -0.354 N 
ATOM     39  C   UNL A   1      44.500  31.426  28.777  1.00  0.00     0.074 A 
ATOM     40  C   UNL A   1      43.491  32.295  29.342  1.00  0.00     0.031 C 
ATOM     41  C   UNL A   1      41.390  25.818  28.252  1.00  0.00     0.029 A 
ATOM     42  C   UNL A   1      42.796  26.084  27.970  1.00  0.00     0.049 A 
ATOM     43  H   UNL A   1      43.826  27.876  28.243  1.00  0.00     0.167 HD
ATOM     44  C   UNL A   1      45.777  31.799  28.517  1.00  0.00     0.037 A 
ATOM     45  C   UNL A   1      43.671  25.186  27.476  1.00  0.00     0.037 A 
ATOM     46  C   UNL A   1      46.784  30.913  27.993  1.00  0.00     0.049 A 
ATOM     47  C   UNL A   1      45.077  25.623  27.179  1.00  0.00     0.074 A 
ATOM     48  C   UNL A   1      48.107  31.189  27.696  1.00  0.00     0.029 A 
ATOM     49  N   UNL A   1      46.581  29.571  27.702  1.00  0.00    -0.354 N 
ATOM     50  N   UNL A   1      45.619  26.809  27.328  1.00  0.00    -0.248 NA
ATOM     51  C   UNL A   1      45.987  24.608  26.631  1.00  0.00     0.031 C 
ATOM     52  C   UNL A   1      48.697  30.020  27.199  1.00  0.00     0.029 A 
ATOM     53  C   UNL A   1      47.751  29.007  27.220  1.00  0.00     0.049 A 
ATOM     54  H   UNL A   1      45.730  29.091  27.820  1.00  0.00     0.167 HD
ATOM     55  C   UNL A   1      46.934  26.684  26.896  1.00  0.00     0.074 A 
ATOM     56  C   UNL A   1      47.111  25.301  26.499  1.00  0.00     0.031 C 
ATOM     57  C   UNL A   1      47.904  27.628  26.828  1.00  0.00     0.037 A 
BRANCH  44  58
ATOM     58  C   UNL A   1      46.135  33.239  28.756  1.00  0.00     0.058 A 
ATOM     59  C   UNL A   1      46.643  33.688  29.984  1.00  0.00     0.135 A 
ATOM     60  C   UNL A   1      45.957  34.188  27.735  1.00  0.00     0.135 A 
ATOM     61  F   UNL A   1      46.814  32.827  30.999  1.00  0.00    -0.206 F 
ATOM     62  C   UNL A   1      46.925  35.033  30.207  1.00  0.00     0.059 A 
ATOM     63  C   UNL A   1      46.255  35.534  27.927  1.00  0.00     0.059 A 
ATOM     64  F   UNL A   1      45.474  33.812  26.540  1.00  0.00    -0.206 F 
ATOM     65  C   UNL A   1      46.718  35.950  29.174  1.00  0.00     0.060 A 
BRANCH  65  66
ATOM     66  S   UNL A   1      47.054  37.697  29.481  1.00  0.00     0.124 S 
ATOM     67  O   UNL A   1      47.630  37.651  30.821  1.00  0.00    -0.237 OA
ATOM     68  O   UNL A   1      47.980  38.034  28.405  1.00  0.00    -0.237 OA
ATOM     69  O   UNL A   1      45.736  38.318  29.384  1.00  0.00    -0.744 OA
ENDBRANCH  65  66
ENDBRANCH  44  58
BRANCH  45  70
ATOM     70  C   UNL A   1      43.214  23.801  27.187  1.00  0.00     0.058 A 
ATOM     71  C   UNL A   1      43.172  22.826  28.194  1.00  0.00     0.135 A 
ATOM     72  C   UNL A   1      42.767  23.441  25.906  1.00  0.00     0.135 A 
ATOM     73  F   UNL A   1      43.600  23.121  29.430  1.00  0.00    -0.206 F 
ATOM     74  C   UNL A   1      42.699  21.542  27.943  1.00  0.00     0.059 A 
ATOM     75  C   UNL A   1      42.267  22.172  25.636  1.00  0.00     0.059 A 
ATOM     76  F   UNL A   1      42.777  24.342  24.912  1.00  0.00    -0.206 F 
ATOM     77  C   UNL A   1      42.242  21.226  26.661  1.00  0.00     0.060 A 
BRANCH  77  78
ATOM     78  S   UNL A   1      41.554  19.583  26.359  1.00  0.00     0.124 S 
ATOM     79  O   UNL A   1      42.352  19.136  25.225  1.00  0.00    -0.237 OA
ATOM     80  O   UNL A   1      41.806  18.904  27.626  1.00  0.00    -0.237 OA
ATOM     81  O   UNL A   1      40.148  19.858  26.075  1.00  0.00    -0.744 OA
ENDBRANCH  77  78
ENDBRANCH  45  70
BRANCH  57  82
ATOM     82  C   UNL A   1      49.249  27.192  26.322  1.00  0.00     0.058 A 
ATOM     83  C   UNL A   1      50.249  26.740  27.197  1.00  0.00     0.135 A 
ATOM     84  C   UNL A   1      49.524  27.186  24.946  1.00  0.00     0.135 A 
ATOM     85  F   UNL A   1      50.035  26.735  28.522  1.00  0.00    -0.206 F 
ATOM     86  C   UNL A   1      51.484  26.312  26.726  1.00  0.00     0.059 A 
ATOM     87  C   UNL A   1      50.746  26.744  24.451  1.00  0.00     0.059 A 
ATOM     88  F   UNL A   1      48.597  27.602  24.069  1.00  0.00    -0.206 F 
ATOM     89  C   UNL A   1      51.724  26.319  25.350  1.00  0.00     0.060 A 
BRANCH  89  90
ATOM     90  S   UNL A   1      53.320  25.730  24.743  1.00  0.00     0.124 S 
ATOM     91  O   UNL A   1      53.261  26.115  23.337  1.00  0.00    -0.237 OA
ATOM     92  O   UNL A   1      54.266  26.478  25.567  1.00  0.00    -0.237 OA
ATOM     93  O   UNL A   1      53.273  24.294  25.005  1.00  0.00    -0.744 OA
ENDBRANCH  89  90
ENDBRANCH  57  82
ENDBRANCH  31  32
ENDBRANCH  24  26
ENDBRANCH  23  24
ENDBRANCH  22  23
ENDBRANCH   1  22
TORSDOF 19
ENDMDL
MODEL 3
REMARK VINA RESULT:     -10.2      6.851     11.789
REMARK SMILES CN(CC(C)(C)O)C(=O)N[C@H]1CC[C@H](C(=O)OCCOC(=O)c2ccc(-c3c4nc(c(-c5c(F)cc(S(=O)(=O)[O-])cc5F)c5ccc([nH]5)c(-c5c(F)cc(S(=O)(=O)[O-])cc5F)c5nc(c(-c6c(F)cc(S(=O)(=O)[O-])cc6F)c6ccc3[nH]6)C=C5)C=C4)cc2)C1
REMARK SMILES IDX 18 1 17 2 15 3 16 4 14 5 11 6 12 7 89 8 13 9 10 10 8 11 9 12
REMARK SMILES IDX 2 14 1 15 3 16 4 17 5 18 6 19 7 20 19 22 20 23 21 24 22 25
REMARK SMILES IDX 23 26 24 27 88 28 25 29 87 30 26 31 27 32 28 33 81 34 29 35
REMARK SMILES IDX 86 36 80 37 82 38 30 39 85 40 79 41 78 42 31 44 65 45 44 46
REMARK SMILES IDX 64 47 45 48 48 49 63 50 83 51 46 52 47 53 62 55 84 56 49 57
REMARK SMILES IDX 32 58 33 59 42 60 34 61 35 62 41 63 43 64 36 65 37 66 38 67
REMARK SMILES IDX 39 68 40 69 66 70 67 71 76 72 68 73 69 74 75 75 77 76 70 77
REMARK SMILES IDX 71 78 72 79 73 80 74 81 50 82 51 83 60 84 52 85 53 86 59 87
REMARK SMILES IDX 61 88 54 89 55 90 56 91 57 92 58 93
REMARK H PARENT 10 13 7 21 82 43 48 54
REMARK Flexibility Score: inf
ROOT
ATOM      1  C   UNL A   1      33.148  29.633  27.191  1.00  0.00     0.274 C 
ENDROOT
BRANCH   1   2
ATOM      2  O   UNL A   1      32.701  29.874  25.843  1.00  0.00    -0.462 OA
BRANCH   2   3
ATOM      3  C   UNL A   1      33.137  28.980  24.914  1.00  0.00     0.309 C 
ATOM      4  O   UNL A   1      33.815  29.257  23.935  1.00  0.00    -0.252 OA
BRANCH   3   5
ATOM      5  C   UNL A   1      32.663  27.574  25.210  1.00  0.00     0.101 C 
ATOM      6  C   UNL A   1      33.525  25.335  25.416  1.00  0.00     0.084 C 
ATOM      7  C   UNL A   1      32.996  25.479  23.994  1.00  0.00     0.026 C 
ATOM      8  C   UNL A   1      33.758  26.761  25.886  1.00  0.00     0.040 C 
ATOM      9  C   UNL A   1      32.209  26.776  23.977  1.00  0.00     0.017 C 
BRANCH   6  10
ATOM     10  N   UNL A   1      32.590  24.627  26.274  1.00  0.00    -0.335 N 
ATOM     11  C   UNL A   1      32.467  23.382  26.772  1.00  0.00     0.317 C 
ATOM     12  O   UNL A   1      31.433  23.181  27.420  1.00  0.00    -0.249 OA
ATOM     13  H   UNL A   1      31.852  25.210  26.567  1.00  0.00     0.165 HD
BRANCH  11  14
ATOM     14  N   UNL A   1      33.388  22.390  26.577  1.00  0.00    -0.325 N 
ATOM     15  C   UNL A   1      34.112  21.960  27.768  1.00  0.00     0.148 C 
BRANCH  14  16
ATOM     16  C   UNL A   1      33.715  21.663  25.351  1.00  0.00     0.155 C 
BRANCH  16  17
ATOM     17  C   UNL A   1      32.492  21.061  24.592  1.00  0.00     0.077 C 
ATOM     18  C   UNL A   1      31.882  21.945  23.495  1.00  0.00     0.043 C 
ATOM     19  C   UNL A   1      32.890  19.704  23.999  1.00  0.00     0.043 C 
BRANCH  17  20
ATOM     20  O   UNL A   1      31.457  20.810  25.559  1.00  0.00    -0.389 OA
ATOM     21  H   UNL A   1      31.487  21.491  26.250  1.00  0.00     0.211 HD
ENDBRANCH  17  20
ENDBRANCH  16  17
ENDBRANCH  14  16
ENDBRANCH  11  14
ENDBRANCH   6  10
ENDBRANCH   3   5
ENDBRANCH   2   3
ENDBRANCH   1   2
BRANCH   1  22
ATOM     22  C   UNL A   1      34.334  30.541  27.514  1.00  0.00     0.275 C 
BRANCH  22  23
ATOM     23  O   UNL A   1      35.416  29.756  28.048  1.00  0.00    -0.458 OA
BRANCH  23  24
ATOM     24  C   UNL A   1      36.071  30.296  29.102  1.00  0.00     0.338 C 
ATOM     25  O   UNL A   1      35.588  30.864  30.065  1.00  0.00    -0.246 OA
BRANCH  24  26
ATOM     26  C   UNL A   1      37.514  30.053  28.954  1.00  0.00     0.060 A 
ATOM     27  C   UNL A   1      38.052  29.896  27.678  1.00  0.00     0.016 A 
ATOM     28  C   UNL A   1      38.312  29.859  30.079  1.00  0.00     0.016 A 
ATOM     29  C   UNL A   1      39.368  29.483  27.511  1.00  0.00     0.010 A 
ATOM     30  C   UNL A   1      39.658  29.520  29.912  1.00  0.00     0.010 A 
ATOM     31  C   UNL A   1      40.192  29.301  28.627  1.00  0.00    -0.014 A 
BRANCH  31  32
ATOM     32  C   UNL A   1      41.594  28.842  28.453  1.00  0.00     0.031 A 
ATOM     33  C   UNL A   1      42.721  29.833  28.554  1.00  0.00     0.074 A 
ATOM     34  C   UNL A   1      41.860  27.544  28.212  1.00  0.00     0.049 A 
ATOM     35  N   UNL A   1      43.983  29.684  28.247  1.00  0.00    -0.248 NA
ATOM     36  C   UNL A   1      42.376  31.172  29.055  1.00  0.00     0.031 C 
ATOM     37  C   UNL A   1      40.863  26.473  28.143  1.00  0.00     0.029 A 
ATOM     38  N   UNL A   1      43.050  26.904  27.971  1.00  0.00    -0.354 N 
ATOM     39  C   UNL A   1      44.573  30.924  28.466  1.00  0.00     0.074 A 
ATOM     40  C   UNL A   1      43.530  31.812  28.931  1.00  0.00     0.031 C 
ATOM     41  C   UNL A   1      41.483  25.310  27.888  1.00  0.00     0.029 A 
ATOM     42  C   UNL A   1      42.907  25.564  27.699  1.00  0.00     0.049 A 
ATOM     43  H   UNL A   1      43.922  27.361  27.991  1.00  0.00     0.167 HD
ATOM     44  C   UNL A   1      45.867  31.285  28.287  1.00  0.00     0.037 A 
ATOM     45  C   UNL A   1      43.810  24.650  27.295  1.00  0.00     0.037 A 
ATOM     46  C   UNL A   1      46.904  30.382  27.862  1.00  0.00     0.049 A 
ATOM     47  C   UNL A   1      45.236  25.075  27.086  1.00  0.00     0.074 A 
ATOM     48  C   UNL A   1      48.246  30.646  27.652  1.00  0.00     0.029 A 
ATOM     49  N   UNL A   1      46.717  29.032  27.597  1.00  0.00    -0.354 N 
ATOM     50  N   UNL A   1      45.771  26.263  27.238  1.00  0.00    -0.248 NA
ATOM     51  C   UNL A   1      46.178  24.041  26.635  1.00  0.00     0.031 C 
ATOM     52  C   UNL A   1      48.865  29.461  27.233  1.00  0.00     0.029 A 
ATOM     53  C   UNL A   1      47.915  28.451  27.217  1.00  0.00     0.049 A 
ATOM     54  H   UNL A   1      45.857  28.558  27.669  1.00  0.00     0.167 HD
ATOM     55  C   UNL A   1      47.113  26.121  26.905  1.00  0.00     0.074 A 
ATOM     56  C   UNL A   1      47.312  24.727  26.563  1.00  0.00     0.031 C 
ATOM     57  C   UNL A   1      48.090  27.061  26.878  1.00  0.00     0.037 A 
BRANCH  44  58
ATOM     58  C   UNL A   1      46.214  32.732  28.507  1.00  0.00     0.058 A 
ATOM     59  C   UNL A   1      46.160  33.677  27.473  1.00  0.00     0.135 A 
ATOM     60  C   UNL A   1      46.614  33.174  29.779  1.00  0.00     0.135 A 
ATOM     61  F   UNL A   1      45.803  33.304  26.234  1.00  0.00    -0.206 F 
ATOM     62  C   UNL A   1      46.530  35.003  27.679  1.00  0.00     0.059 A 
ATOM     63  C   UNL A   1      46.966  34.501  30.015  1.00  0.00     0.059 A 
ATOM     64  F   UNL A   1      46.683  32.311  30.805  1.00  0.00    -0.206 F 
ATOM     65  C   UNL A   1      46.941  35.403  28.953  1.00  0.00     0.060 A 
BRANCH  65  66
ATOM     66  S   UNL A   1      47.451  37.116  29.205  1.00  0.00     0.124 S 
ATOM     67  O   UNL A   1      47.284  37.669  27.865  1.00  0.00    -0.237 OA
ATOM     68  O   UNL A   1      46.498  37.585  30.206  1.00  0.00    -0.237 OA
ATOM     69  O   UNL A   1      48.830  36.995  29.668  1.00  0.00    -0.744 OA
ENDBRANCH  65  66
ENDBRANCH  44  58
BRANCH  45  70
ATOM     70  C   UNL A   1      43.369  23.258  27.016  1.00  0.00     0.058 A 
ATOM     71  C   UNL A   1      43.259  22.780  25.703  1.00  0.00     0.135 A 
ATOM     72  C   UNL A   1      43.095  22.364  28.064  1.00  0.00     0.135 A 
ATOM     73  F   UNL A   1      43.500  23.600  24.669  1.00  0.00    -0.206 F 
ATOM     74  C   UNL A   1      42.896  21.463  25.436  1.00  0.00     0.059 A 
ATOM     75  C   UNL A   1      42.753  21.039  27.824  1.00  0.00     0.059 A 
ATOM     76  F   UNL A   1      43.197  22.772  29.339  1.00  0.00    -0.206 F 
ATOM     77  C   UNL A   1      42.651  20.598  26.505  1.00  0.00     0.060 A 
BRANCH  77  78
ATOM     78  S   UNL A   1      42.258  18.869  26.156  1.00  0.00     0.124 S 
ATOM     79  O   UNL A   1      42.487  18.249  27.456  1.00  0.00    -0.237 OA
ATOM     80  O   UNL A   1      40.867  18.948  25.722  1.00  0.00    -0.237 OA
ATOM     81  O   UNL A   1      43.213  18.515  25.110  1.00  0.00    -0.744 OA
ENDBRANCH  77  78
ENDBRANCH  45  70
BRANCH  57  82
ATOM     82  C   UNL A   1      49.465  26.607  26.482  1.00  0.00     0.058 A 
ATOM     83  C   UNL A   1      50.306  25.943  27.389  1.00  0.00     0.135 A 
ATOM     84  C   UNL A   1      49.929  26.800  25.172  1.00  0.00     0.135 A 
ATOM     85  F   UNL A   1      49.909  25.742  28.655  1.00  0.00    -0.206 F 
ATOM     86  C   UNL A   1      51.569  25.500  27.014  1.00  0.00     0.059 A 
ATOM     87  C   UNL A   1      51.181  26.348  24.770  1.00  0.00     0.059 A 
ATOM     88  F   UNL A   1      49.158  27.423  24.266  1.00  0.00    -0.206 F 
ATOM     89  C   UNL A   1      51.999  25.708  25.702  1.00  0.00     0.060 A 
BRANCH  89  90
ATOM     90  S   UNL A   1      53.628  25.100  25.214  1.00  0.00     0.124 S 
ATOM     91  O   UNL A   1      53.452  23.657  25.337  1.00  0.00    -0.237 OA
ATOM     92  O   UNL A   1      53.759  25.609  23.852  1.00  0.00    -0.237 OA
ATOM     93  O   UNL A   1      54.523  25.710  26.192  1.00  0.00    -0.744 OA
ENDBRANCH  89  90
ENDBRANCH  57  82
ENDBRANCH  31  32
ENDBRANCH  24  26
ENDBRANCH  23  24
ENDBRANCH  22  23
ENDBRANCH   1  22
TORSDOF 19
ENDMDL
