MODEL 1
REMARK VINA RESULT:     -11.1      0.000      0.000
REMARK SMILES COc1ccc(C(=O)c2ccccc2)cc1[C@@H](C)C(=O)OCCOC(=O)c1ccc(-c2c3nc(c(-c4c(F)cc(S(=O)(=O)[O-])cc4F)c4ccc([nH]4)c(-c4c(F)cc(S(=O)(=O)[O-])cc4F)c4nc(c(-c5c(F)cc(S(=O)(=O)[O-])cc5F)c5ccc2[nH]5)C=C4)C=C3)cc1
REMARK SMILES IDX 22 1 21 2 19 3 20 4 17 5 18 6 16 7 3 8 4 9 5 10 15 11 6 12
REMARK SMILES IDX 2 13 1 14 7 15 8 16 9 17 10 18 14 19 11 20 13 21 12 22 23 23
REMARK SMILES IDX 24 24 25 25 26 26 27 27 28 28 92 29 29 30 91 31 30 32 31 33
REMARK SMILES IDX 32 34 85 35 33 36 90 37 84 38 86 39 34 40 89 41 83 42 82 43
REMARK SMILES IDX 35 45 69 46 48 47 68 48 49 49 52 50 67 51 87 52 50 53 51 54
REMARK SMILES IDX 66 56 88 57 53 58 36 59 37 60 46 61 38 62 39 63 45 64 47 65
REMARK SMILES IDX 40 66 41 67 42 68 43 69 44 70 70 71 71 72 80 73 72 74 73 75
REMARK SMILES IDX 79 76 81 77 74 78 75 79 76 80 77 81 78 82 54 83 55 84 64 85
REMARK SMILES IDX 56 86 57 87 63 88 65 89 58 90 59 91 60 92 61 93 62 94
REMARK H PARENT 86 44 52 55
REMARK Flexibility Score: inf
ROOT
ATOM      1  C   UNL A   1      31.655  27.890  27.155  1.00  0.00     0.274 C 
ENDROOT
BRANCH   1   2
ATOM      2  O   UNL A   1      31.651  26.511  26.739  1.00  0.00    -0.462 OA
BRANCH   2   3
ATOM      3  C   UNL A   1      30.911  26.180  25.652  1.00  0.00     0.313 C 
ATOM      4  O   UNL A   1      30.279  26.995  24.985  1.00  0.00    -0.252 OA
BRANCH   3   5
ATOM      5  C   UNL A   1      30.877  24.683  25.342  1.00  0.00     0.130 C 
ATOM      6  C   UNL A   1      30.747  23.894  26.643  1.00  0.00     0.025 C 
BRANCH   5   7
ATOM      7  C   UNL A   1      31.992  24.112  24.474  1.00  0.00     0.009 A 
ATOM      8  C   UNL A   1      32.091  24.432  23.112  1.00  0.00     0.122 A 
ATOM      9  C   UNL A   1      33.103  23.891  22.312  1.00  0.00     0.047 A 
ATOM     10  C   UNL A   1      34.034  23.008  22.862  1.00  0.00     0.016 A 
ATOM     11  C   UNL A   1      32.921  23.198  24.996  1.00  0.00     0.020 A 
ATOM     12  C   UNL A   1      33.936  22.638  24.206  1.00  0.00     0.023 A 
BRANCH   8  13
ATOM     13  O   UNL A   1      31.103  25.186  22.536  1.00  0.00    -0.496 OA
ATOM     14  C   UNL A   1      31.632  26.271  21.775  1.00  0.00     0.278 C 
ENDBRANCH   8  13
BRANCH  12  15
ATOM     15  C   UNL A   1      34.924  21.673  24.777  1.00  0.00     0.193 C 
ATOM     16  O   UNL A   1      34.660  20.478  24.873  1.00  0.00    -0.289 OA
BRANCH  15  17
ATOM     17  C   UNL A   1      36.265  22.134  25.209  1.00  0.00     0.022 A 
ATOM     18  C   UNL A   1      36.415  23.461  25.621  1.00  0.00     0.012 A 
ATOM     19  C   UNL A   1      37.354  21.255  25.243  1.00  0.00     0.012 A 
ATOM     20  C   UNL A   1      37.645  23.893  26.120  1.00  0.00     0.001 A 
ATOM     21  C   UNL A   1      38.578  21.690  25.753  1.00  0.00     0.001 A 
ATOM     22  C   UNL A   1      38.719  23.005  26.198  1.00  0.00     0.000 A 
ENDBRANCH  15  17
ENDBRANCH  12  15
ENDBRANCH   5   7
ENDBRANCH   3   5
ENDBRANCH   2   3
ENDBRANCH   1   2
BRANCH   1  23
ATOM     23  C   UNL A   1      32.926  28.593  26.681  1.00  0.00     0.275 C 
BRANCH  23  24
ATOM     24  O   UNL A   1      33.880  28.701  27.750  1.00  0.00    -0.458 OA
BRANCH  24  25
ATOM     25  C   UNL A   1      34.413  29.933  27.917  1.00  0.00     0.338 C 
ATOM     26  O   UNL A   1      33.835  31.005  27.901  1.00  0.00    -0.246 OA
BRANCH  25  27
ATOM     27  C   UNL A   1      35.840  29.802  28.223  1.00  0.00     0.060 A 
ATOM     28  C   UNL A   1      36.765  30.011  27.198  1.00  0.00     0.016 A 
ATOM     29  C   UNL A   1      36.251  29.364  29.481  1.00  0.00     0.016 A 
ATOM     30  C   UNL A   1      38.112  29.732  27.415  1.00  0.00     0.010 A 
ATOM     31  C   UNL A   1      37.608  29.125  29.706  1.00  0.00     0.010 A 
ATOM     32  C   UNL A   1      38.546  29.284  28.669  1.00  0.00    -0.014 A 
BRANCH  32  33
ATOM     33  C   UNL A   1      39.969  28.934  28.902  1.00  0.00     0.031 A 
ATOM     34  C   UNL A   1      40.921  29.986  29.400  1.00  0.00     0.074 A 
ATOM     35  C   UNL A   1      40.412  27.689  28.645  1.00  0.00     0.049 A 
ATOM     36  N   UNL A   1      42.226  29.964  29.448  1.00  0.00    -0.248 NA
ATOM     37  C   UNL A   1      40.319  31.232  29.905  1.00  0.00     0.031 C 
ATOM     38  C   UNL A   1      39.578  26.564  28.219  1.00  0.00     0.029 A 
ATOM     39  N   UNL A   1      41.680  27.167  28.691  1.00  0.00    -0.354 N 
ATOM     40  C   UNL A   1      42.608  31.207  29.937  1.00  0.00     0.074 A 
ATOM     41  C   UNL A   1      41.395  31.957  30.181  1.00  0.00     0.031 C 
ATOM     42  C   UNL A   1      40.357  25.485  28.039  1.00  0.00     0.029 A 
ATOM     43  C   UNL A   1      41.749  25.861  28.267  1.00  0.00     0.049 A 
ATOM     44  H   UNL A   1      42.464  27.678  28.996  1.00  0.00     0.167 HD
ATOM     45  C   UNL A   1      43.859  31.679  30.152  1.00  0.00     0.037 A 
ATOM     46  C   UNL A   1      42.815  25.072  28.037  1.00  0.00     0.037 A 
ATOM     47  C   UNL A   1      45.057  30.910  29.936  1.00  0.00     0.049 A 
ATOM     48  C   UNL A   1      44.196  25.625  28.246  1.00  0.00     0.074 A 
ATOM     49  C   UNL A   1      46.374  31.296  30.112  1.00  0.00     0.029 A 
ATOM     50  N   UNL A   1      45.081  29.590  29.509  1.00  0.00    -0.354 N 
ATOM     51  N   UNL A   1      44.550  26.824  28.645  1.00  0.00    -0.248 NA
ATOM     52  C   UNL A   1      45.325  24.728  27.957  1.00  0.00     0.031 C 
ATOM     53  C   UNL A   1      47.196  30.216  29.770  1.00  0.00     0.029 A 
ATOM     54  C   UNL A   1      46.389  29.147  29.413  1.00  0.00     0.049 A 
ATOM     55  H   UNL A   1      44.285  29.048  29.303  1.00  0.00     0.167 HD
ATOM     56  C   UNL A   1      45.939  26.820  28.673  1.00  0.00     0.074 A 
ATOM     57  C   UNL A   1      46.363  25.499  28.254  1.00  0.00     0.031 C 
ATOM     58  C   UNL A   1      46.787  27.821  29.013  1.00  0.00     0.037 A 
BRANCH  45  59
ATOM     59  C   UNL A   1      43.998  33.104  30.605  1.00  0.00     0.058 A 
ATOM     60  C   UNL A   1      44.039  34.172  29.697  1.00  0.00     0.135 A 
ATOM     61  C   UNL A   1      44.065  33.404  31.976  1.00  0.00     0.135 A 
ATOM     62  F   UNL A   1      43.998  33.937  28.376  1.00  0.00    -0.206 F 
ATOM     63  C   UNL A   1      44.167  35.488  30.130  1.00  0.00     0.059 A 
ATOM     64  C   UNL A   1      44.171  34.714  32.434  1.00  0.00     0.059 A 
ATOM     65  F   UNL A   1      44.032  32.419  32.887  1.00  0.00    -0.206 F 
ATOM     66  C   UNL A   1      44.237  35.749  31.500  1.00  0.00     0.060 A 
BRANCH  66  67
ATOM     67  S   UNL A   1      44.407  37.460  32.053  1.00  0.00     0.124 S 
ATOM     68  O   UNL A   1      43.437  37.510  33.142  1.00  0.00    -0.237 OA
ATOM     69  O   UNL A   1      45.810  37.525  32.453  1.00  0.00    -0.237 OA
ATOM     70  O   UNL A   1      44.062  38.236  30.866  1.00  0.00    -0.744 OA
ENDBRANCH  66  67
ENDBRANCH  45  59
BRANCH  46  71
ATOM     71  C   UNL A   1      42.609  23.686  27.543  1.00  0.00     0.058 A 
ATOM     72  C   UNL A   1      42.568  23.409  26.171  1.00  0.00     0.135 A 
ATOM     73  C   UNL A   1      42.491  22.608  28.435  1.00  0.00     0.135 A 
ATOM     74  F   UNL A   1      42.667  24.408  25.281  1.00  0.00    -0.206 F 
ATOM     75  C   UNL A   1      42.417  22.110  25.695  1.00  0.00     0.059 A 
ATOM     76  C   UNL A   1      42.362  21.298  27.984  1.00  0.00     0.059 A 
ATOM     77  F   UNL A   1      42.538  22.821  29.759  1.00  0.00    -0.206 F 
ATOM     78  C   UNL A   1      42.320  21.060  26.611  1.00  0.00     0.060 A 
BRANCH  78  79
ATOM     79  S   UNL A   1      42.198  19.369  25.989  1.00  0.00     0.124 S 
ATOM     80  O   UNL A   1      42.688  18.602  27.127  1.00  0.00    -0.237 OA
ATOM     81  O   UNL A   1      40.772  19.245  25.700  1.00  0.00    -0.237 OA
ATOM     82  O   UNL A   1      43.066  19.384  24.814  1.00  0.00    -0.744 OA
ENDBRANCH  78  79
ENDBRANCH  46  71
BRANCH  58  83
ATOM     83  C   UNL A   1      48.256  27.519  28.995  1.00  0.00     0.058 A 
ATOM     84  C   UNL A   1      49.057  27.839  27.889  1.00  0.00     0.135 A 
ATOM     85  C   UNL A   1      48.880  26.978  30.130  1.00  0.00     0.135 A 
ATOM     86  F   UNL A   1      48.503  28.352  26.780  1.00  0.00    -0.206 F 
ATOM     87  C   UNL A   1      50.432  27.629  27.907  1.00  0.00     0.059 A 
ATOM     88  C   UNL A   1      50.255  26.774  30.176  1.00  0.00     0.059 A 
ATOM     89  F   UNL A   1      48.154  26.662  31.214  1.00  0.00    -0.206 F 
ATOM     90  C   UNL A   1      51.022  27.099  29.058  1.00  0.00     0.060 A 
BRANCH  90  91
ATOM     91  S   UNL A   1      52.815  26.887  29.096  1.00  0.00     0.124 S 
ATOM     92  O   UNL A   1      53.276  28.261  28.928  1.00  0.00    -0.237 OA
ATOM     93  O   UNL A   1      53.037  26.301  30.415  1.00  0.00    -0.237 OA
ATOM     94  O   UNL A   1      53.074  25.995  27.969  1.00  0.00    -0.744 OA
ENDBRANCH  90  91
ENDBRANCH  58  83
ENDBRANCH  32  33
ENDBRANCH  25  27
ENDBRANCH  24  25
ENDBRANCH  23  24
ENDBRANCH   1  23
TORSDOF 18
ENDMDL
MODEL 2
REMARK VINA RESULT:     -10.9      1.234      2.074
REMARK SMILES COc1ccc(C(=O)c2ccccc2)cc1[C@@H](C)C(=O)OCCOC(=O)c1ccc(-c2c3nc(c(-c4c(F)cc(S(=O)(=O)[O-])cc4F)c4ccc([nH]4)c(-c4c(F)cc(S(=O)(=O)[O-])cc4F)c4nc(c(-c5c(F)cc(S(=O)(=O)[O-])cc5F)c5ccc2[nH]5)C=C4)C=C3)cc1
REMARK SMILES IDX 22 1 21 2 19 3 20 4 17 5 18 6 16 7 3 8 4 9 5 10 15 11 6 12
REMARK SMILES IDX 2 13 1 14 7 15 8 16 9 17 10 18 14 19 11 20 13 21 12 22 23 23
REMARK SMILES IDX 24 24 25 25 26 26 27 27 28 28 92 29 29 30 91 31 30 32 31 33
REMARK SMILES IDX 32 34 85 35 33 36 90 37 84 38 86 39 34 40 89 41 83 42 82 43
REMARK SMILES IDX 35 45 69 46 48 47 68 48 49 49 52 50 67 51 87 52 50 53 51 54
REMARK SMILES IDX 66 56 88 57 53 58 36 59 37 60 46 61 38 62 39 63 45 64 47 65
REMARK SMILES IDX 40 66 41 67 42 68 43 69 44 70 70 71 71 72 80 73 72 74 73 75
REMARK SMILES IDX 79 76 81 77 74 78 75 79 76 80 77 81 78 82 54 83 55 84 64 85
REMARK SMILES IDX 56 86 57 87 63 88 65 89 58 90 59 91 60 92 61 93 62 94
REMARK H PARENT 86 44 52 55
REMARK Flexibility Score: inf
ROOT
ATOM      1  C   UNL A   1      31.826  29.666  26.937  1.00  0.00     0.274 C 
ENDROOT
BRANCH   1   2
ATOM      2  O   UNL A   1      32.009  28.491  26.124  1.00  0.00    -0.462 OA
BRANCH   2   3
ATOM      3  C   UNL A   1      32.234  28.667  24.799  1.00  0.00     0.313 C 
ATOM      4  O   UNL A   1      31.415  29.161  24.029  1.00  0.00    -0.252 OA
BRANCH   3   5
ATOM      5  C   UNL A   1      33.587  28.148  24.313  1.00  0.00     0.130 C 
ATOM      6  C   UNL A   1      34.016  28.923  23.068  1.00  0.00     0.025 C 
BRANCH   5   7
ATOM      7  C   UNL A   1      33.735  26.648  24.090  1.00  0.00     0.009 A 
ATOM      8  C   UNL A   1      33.304  26.041  22.901  1.00  0.00     0.122 A 
ATOM      9  C   UNL A   1      33.422  24.662  22.706  1.00  0.00     0.047 A 
ATOM     10  C   UNL A   1      33.970  23.857  23.707  1.00  0.00     0.016 A 
ATOM     11  C   UNL A   1      34.254  25.813  25.093  1.00  0.00     0.020 A 
ATOM     12  C   UNL A   1      34.371  24.427  24.918  1.00  0.00     0.023 A 
BRANCH   8  13
ATOM     13  O   UNL A   1      32.641  26.801  21.974  1.00  0.00    -0.496 OA
ATOM     14  C   UNL A   1      31.943  25.998  21.023  1.00  0.00     0.278 C 
ENDBRANCH   8  13
BRANCH  12  15
ATOM     15  C   UNL A   1      34.934  23.551  25.992  1.00  0.00     0.193 C 
ATOM     16  O   UNL A   1      34.274  23.264  26.986  1.00  0.00    -0.289 OA
BRANCH  15  17
ATOM     17  C   UNL A   1      36.295  22.980  25.862  1.00  0.00     0.022 A 
ATOM     18  C   UNL A   1      37.388  23.760  26.248  1.00  0.00     0.012 A 
ATOM     19  C   UNL A   1      36.487  21.673  25.397  1.00  0.00     0.012 A 
ATOM     20  C   UNL A   1      38.670  23.209  26.223  1.00  0.00     0.001 A 
ATOM     21  C   UNL A   1      37.770  21.125  25.384  1.00  0.00     0.001 A 
ATOM     22  C   UNL A   1      38.858  21.891  25.804  1.00  0.00     0.000 A 
ENDBRANCH  15  17
ENDBRANCH  12  15
ENDBRANCH   5   7
ENDBRANCH   3   5
ENDBRANCH   2   3
ENDBRANCH   1   2
BRANCH   1  23
ATOM     23  C   UNL A   1      33.124  30.468  27.028  1.00  0.00     0.275 C 
BRANCH  23  24
ATOM     24  O   UNL A   1      34.083  29.794  27.859  1.00  0.00    -0.458 OA
BRANCH  24  25
ATOM     25  C   UNL A   1      34.887  30.610  28.578  1.00  0.00     0.338 C 
ATOM     26  O   UNL A   1      34.575  31.614  29.192  1.00  0.00    -0.246 OA
BRANCH  25  27
ATOM     27  C   UNL A   1      36.243  30.052  28.599  1.00  0.00     0.060 A 
ATOM     28  C   UNL A   1      36.760  29.599  29.814  1.00  0.00     0.016 A 
ATOM     29  C   UNL A   1      37.032  30.084  27.451  1.00  0.00     0.016 A 
ATOM     30  C   UNL A   1      38.097  29.220  29.898  1.00  0.00     0.010 A 
ATOM     31  C   UNL A   1      38.362  29.664  27.530  1.00  0.00     0.010 A 
ATOM     32  C   UNL A   1      38.911  29.252  28.759  1.00  0.00    -0.014 A 
BRANCH  32  33
ATOM     33  C   UNL A   1      40.350  28.900  28.841  1.00  0.00     0.031 A 
ATOM     34  C   UNL A   1      41.355  29.958  29.202  1.00  0.00     0.074 A 
ATOM     35  C   UNL A   1      40.758  27.646  28.570  1.00  0.00     0.049 A 
ATOM     36  N   UNL A   1      42.657  29.930  29.105  1.00  0.00    -0.248 NA
ATOM     37  C   UNL A   1      40.818  31.221  29.737  1.00  0.00     0.031 C 
ATOM     38  C   UNL A   1      39.879  26.515  28.270  1.00  0.00     0.029 A 
ATOM     39  N   UNL A   1      42.021  27.118  28.488  1.00  0.00    -0.354 N 
ATOM     40  C   UNL A   1      43.095  31.183  29.515  1.00  0.00     0.074 A 
ATOM     41  C   UNL A   1      41.920  31.947  29.872  1.00  0.00     0.031 C 
ATOM     42  C   UNL A   1      40.628  25.427  28.034  1.00  0.00     0.029 A 
ATOM     43  C   UNL A   1      42.039  25.801  28.094  1.00  0.00     0.049 A 
ATOM     44  H   UNL A   1      42.837  27.632  28.690  1.00  0.00     0.167 HD
ATOM     45  C   UNL A   1      44.365  31.653  29.575  1.00  0.00     0.037 A 
ATOM     46  C   UNL A   1      43.070  24.999  27.768  1.00  0.00     0.037 A 
ATOM     47  C   UNL A   1      45.528  30.871  29.248  1.00  0.00     0.049 A 
ATOM     48  C   UNL A   1      44.468  25.549  27.807  1.00  0.00     0.074 A 
ATOM     49  C   UNL A   1      46.858  31.254  29.266  1.00  0.00     0.029 A 
ATOM     50  N   UNL A   1      45.500  29.541  28.856  1.00  0.00    -0.354 N 
ATOM     51  N   UNL A   1      44.868  26.756  28.131  1.00  0.00    -0.248 NA
ATOM     52  C   UNL A   1      45.554  24.638  27.418  1.00  0.00     0.031 C 
ATOM     53  C   UNL A   1      47.633  30.160  28.863  1.00  0.00     0.029 A 
ATOM     54  C   UNL A   1      46.788  29.087  28.627  1.00  0.00     0.049 A 
ATOM     55  H   UNL A   1      44.685  28.998  28.756  1.00  0.00     0.167 HD
ATOM     56  C   UNL A   1      46.251  26.744  28.004  1.00  0.00     0.074 A 
ATOM     57  C   UNL A   1      46.621  25.411  27.576  1.00  0.00     0.031 C 
ATOM     58  C   UNL A   1      47.134  27.749  28.221  1.00  0.00     0.037 A 
BRANCH  45  59
ATOM     59  C   UNL A   1      44.558  33.088  29.972  1.00  0.00     0.058 A 
ATOM     60  C   UNL A   1      44.841  33.461  31.295  1.00  0.00     0.135 A 
ATOM     61  C   UNL A   1      44.482  34.104  29.005  1.00  0.00     0.135 A 
ATOM     62  F   UNL A   1      44.904  32.530  32.259  1.00  0.00    -0.206 F 
ATOM     63  C   UNL A   1      45.020  34.795  31.650  1.00  0.00     0.059 A 
ATOM     64  C   UNL A   1      44.678  35.443  29.333  1.00  0.00     0.059 A 
ATOM     65  F   UNL A   1      44.212  33.802  27.726  1.00  0.00    -0.206 F 
ATOM     66  C   UNL A   1      44.931  35.779  30.663  1.00  0.00     0.060 A 
BRANCH  66  67
ATOM     67  S   UNL A   1      45.159  37.507  31.135  1.00  0.00     0.124 S 
ATOM     68  O   UNL A   1      45.776  38.056  29.932  1.00  0.00    -0.237 OA
ATOM     69  O   UNL A   1      43.792  37.945  31.400  1.00  0.00    -0.237 OA
ATOM     70  O   UNL A   1      46.025  37.428  32.307  1.00  0.00    -0.744 OA
ENDBRANCH  66  67
ENDBRANCH  45  59
BRANCH  46  71
ATOM     71  C   UNL A   1      42.806  23.602  27.337  1.00  0.00     0.058 A 
ATOM     72  C   UNL A   1      42.783  23.259  25.980  1.00  0.00     0.135 A 
ATOM     73  C   UNL A   1      42.613  22.577  28.278  1.00  0.00     0.135 A 
ATOM     74  F   UNL A   1      42.954  24.206  25.045  1.00  0.00    -0.206 F 
ATOM     75  C   UNL A   1      42.578  21.946  25.564  1.00  0.00     0.059 A 
ATOM     76  C   UNL A   1      42.428  21.255  27.888  1.00  0.00     0.059 A 
ATOM     77  F   UNL A   1      42.638  22.854  29.590  1.00  0.00    -0.206 F 
ATOM     78  C   UNL A   1      42.406  20.950  26.528  1.00  0.00     0.060 A 
BRANCH  78  79
ATOM     79  S   UNL A   1      42.214  19.238  25.986  1.00  0.00     0.124 S 
ATOM     80  O   UNL A   1      42.715  18.507  27.143  1.00  0.00    -0.237 OA
ATOM     81  O   UNL A   1      40.777  19.147  25.746  1.00  0.00    -0.237 OA
ATOM     82  O   UNL A   1      43.045  19.174  24.787  1.00  0.00    -0.744 OA
ENDBRANCH  78  79
ENDBRANCH  46  71
BRANCH  58  83
ATOM     83  C   UNL A   1      48.592  27.438  28.047  1.00  0.00     0.058 A 
ATOM     84  C   UNL A   1      49.363  26.927  29.102  1.00  0.00     0.135 A 
ATOM     85  C   UNL A   1      49.199  27.577  26.790  1.00  0.00     0.135 A 
ATOM     86  F   UNL A   1      48.827  26.783  30.323  1.00  0.00    -0.206 F 
ATOM     87  C   UNL A   1      50.694  26.568  28.915  1.00  0.00     0.059 A 
ATOM     88  C   UNL A   1      50.523  27.209  26.577  1.00  0.00     0.059 A 
ATOM     89  F   UNL A   1      48.497  28.056  25.750  1.00  0.00    -0.206 F 
ATOM     90  C   UNL A   1      51.264  26.709  27.646  1.00  0.00     0.060 A 
BRANCH  90  91
ATOM     91  S   UNL A   1      52.973  26.181  27.398  1.00  0.00     0.124 S 
ATOM     92  O   UNL A   1      53.523  27.310  26.655  1.00  0.00    -0.237 OA
ATOM     93  O   UNL A   1      53.458  26.028  28.767  1.00  0.00    -0.237 OA
ATOM     94  O   UNL A   1      52.837  24.938  26.645  1.00  0.00    -0.744 OA
ENDBRANCH  90  91
ENDBRANCH  58  83
ENDBRANCH  32  33
ENDBRANCH  25  27
ENDBRANCH  24  25
ENDBRANCH  23  24
ENDBRANCH   1  23
TORSDOF 18
ENDMDL
MODEL 3
REMARK VINA RESULT:     -10.9      1.868      4.170
REMARK SMILES COc1ccc(C(=O)c2ccccc2)cc1[C@@H](C)C(=O)OCCOC(=O)c1ccc(-c2c3nc(c(-c4c(F)cc(S(=O)(=O)[O-])cc4F)c4ccc([nH]4)c(-c4c(F)cc(S(=O)(=O)[O-])cc4F)c4nc(c(-c5c(F)cc(S(=O)(=O)[O-])cc5F)c5ccc2[nH]5)C=C4)C=C3)cc1
REMARK SMILES IDX 22 1 21 2 19 3 20 4 17 5 18 6 16 7 3 8 4 9 5 10 15 11 6 12
REMARK SMILES IDX 2 13 1 14 7 15 8 16 9 17 10 18 14 19 11 20 13 21 12 22 23 23
REMARK SMILES IDX 24 24 25 25 26 26 27 27 28 28 92 29 29 30 91 31 30 32 31 33
REMARK SMILES IDX 32 34 85 35 33 36 90 37 84 38 86 39 34 40 89 41 83 42 82 43
REMARK SMILES IDX 35 45 69 46 48 47 68 48 49 49 52 50 67 51 87 52 50 53 51 54
REMARK SMILES IDX 66 56 88 57 53 58 36 59 37 60 46 61 38 62 39 63 45 64 47 65
REMARK SMILES IDX 40 66 41 67 42 68 43 69 44 70 70 71 71 72 80 73 72 74 73 75
REMARK SMILES IDX 79 76 81 77 74 78 75 79 76 80 77 81 78 82 54 83 55 84 64 85
REMARK SMILES IDX 56 86 57 87 63 88 65 89 58 90 59 91 60 92 61 93 62 94
REMARK H PARENT 86 44 52 55
REMARK Flexibility Score: inf
ROOT
ATOM      1  C   UNL A   1      31.812  27.483  27.185  1.00  0.00     0.274 C 
ENDROOT
BRANCH   1   2
ATOM      2  O   UNL A   1      32.192  26.367  26.356  1.00  0.00    -0.462 OA
BRANCH   2   3
ATOM      3  C   UNL A   1      31.443  25.240  26.430  1.00  0.00     0.313 C 
ATOM      4  O   UNL A   1      31.485  24.455  27.373  1.00  0.00    -0.252 OA
BRANCH   3   5
ATOM      5  C   UNL A   1      30.564  24.983  25.206  1.00  0.00     0.130 C 
ATOM      6  C   UNL A   1      30.957  23.655  24.562  1.00  0.00     0.025 C 
BRANCH   5   7
ATOM      7  C   UNL A   1      30.469  26.084  24.155  1.00  0.00     0.009 A 
ATOM      8  C   UNL A   1      31.539  26.359  23.290  1.00  0.00     0.122 A 
ATOM      9  C   UNL A   1      31.458  27.382  22.340  1.00  0.00     0.047 A 
ATOM     10  C   UNL A   1      30.302  28.159  22.243  1.00  0.00     0.016 A 
ATOM     11  C   UNL A   1      29.330  26.899  24.059  1.00  0.00     0.020 A 
ATOM     12  C   UNL A   1      29.236  27.935  23.119  1.00  0.00     0.023 A 
BRANCH   8  13
ATOM     13  O   UNL A   1      32.723  25.695  23.470  1.00  0.00    -0.496 OA
ATOM     14  C   UNL A   1      33.625  25.904  22.384  1.00  0.00     0.278 C 
ENDBRANCH   8  13
BRANCH  12  15
ATOM     15  C   UNL A   1      28.013  28.790  23.022  1.00  0.00     0.193 C 
ATOM     16  O   UNL A   1      26.906  28.347  23.314  1.00  0.00    -0.289 OA
BRANCH  15  17
ATOM     17  C   UNL A   1      28.116  30.208  22.603  1.00  0.00     0.022 A 
ATOM     18  C   UNL A   1      28.440  31.167  23.566  1.00  0.00     0.012 A 
ATOM     19  C   UNL A   1      27.932  30.581  21.266  1.00  0.00     0.012 A 
ATOM     20  C   UNL A   1      28.636  32.494  23.178  1.00  0.00     0.001 A 
ATOM     21  C   UNL A   1      28.138  31.906  20.883  1.00  0.00     0.001 A 
ATOM     22  C   UNL A   1      28.497  32.859  21.838  1.00  0.00     0.000 A 
ENDBRANCH  15  17
ENDBRANCH  12  15
ENDBRANCH   5   7
ENDBRANCH   3   5
ENDBRANCH   2   3
ENDBRANCH   1   2
BRANCH   1  23
ATOM     23  C   UNL A   1      32.650  28.716  26.848  1.00  0.00     0.275 C 
BRANCH  23  24
ATOM     24  O   UNL A   1      33.886  28.709  27.581  1.00  0.00    -0.458 OA
BRANCH  24  25
ATOM     25  C   UNL A   1      34.397  29.932  27.849  1.00  0.00     0.338 C 
ATOM     26  O   UNL A   1      33.802  30.992  27.912  1.00  0.00    -0.246 OA
BRANCH  25  27
ATOM     27  C   UNL A   1      35.823  29.800  28.159  1.00  0.00     0.060 A 
ATOM     28  C   UNL A   1      36.750  29.985  27.132  1.00  0.00     0.016 A 
ATOM     29  C   UNL A   1      36.231  29.384  29.426  1.00  0.00     0.016 A 
ATOM     30  C   UNL A   1      38.095  29.704  27.356  1.00  0.00     0.010 A 
ATOM     31  C   UNL A   1      37.586  29.143  29.657  1.00  0.00     0.010 A 
ATOM     32  C   UNL A   1      38.526  29.277  28.618  1.00  0.00    -0.014 A 
BRANCH  32  33
ATOM     33  C   UNL A   1      39.947  28.925  28.859  1.00  0.00     0.031 A 
ATOM     34  C   UNL A   1      40.898  29.976  29.359  1.00  0.00     0.074 A 
ATOM     35  C   UNL A   1      40.388  27.679  28.609  1.00  0.00     0.049 A 
ATOM     36  N   UNL A   1      42.204  29.952  29.413  1.00  0.00    -0.248 NA
ATOM     37  C   UNL A   1      40.298  31.225  29.856  1.00  0.00     0.031 C 
ATOM     38  C   UNL A   1      39.554  26.554  28.183  1.00  0.00     0.029 A 
ATOM     39  N   UNL A   1      41.655  27.154  28.663  1.00  0.00    -0.354 N 
ATOM     40  C   UNL A   1      42.586  31.196  29.900  1.00  0.00     0.074 A 
ATOM     41  C   UNL A   1      41.373  31.950  30.135  1.00  0.00     0.031 C 
ATOM     42  C   UNL A   1      40.331  25.473  28.011  1.00  0.00     0.029 A 
ATOM     43  C   UNL A   1      41.723  25.846  28.244  1.00  0.00     0.049 A 
ATOM     44  H   UNL A   1      42.439  27.664  28.970  1.00  0.00     0.167 HD
ATOM     45  C   UNL A   1      43.837  31.666  30.118  1.00  0.00     0.037 A 
ATOM     46  C   UNL A   1      42.789  25.053  28.022  1.00  0.00     0.037 A 
ATOM     47  C   UNL A   1      45.035  30.893  29.911  1.00  0.00     0.049 A 
ATOM     48  C   UNL A   1      44.170  25.604  28.236  1.00  0.00     0.074 A 
ATOM     49  C   UNL A   1      46.352  31.277  30.093  1.00  0.00     0.029 A 
ATOM     50  N   UNL A   1      45.058  29.572  29.489  1.00  0.00    -0.354 N 
ATOM     51  N   UNL A   1      44.524  26.803  28.632  1.00  0.00    -0.248 NA
ATOM     52  C   UNL A   1      45.298  24.704  27.956  1.00  0.00     0.031 C 
ATOM     53  C   UNL A   1      47.173  30.194  29.758  1.00  0.00     0.029 A 
ATOM     54  C   UNL A   1      46.365  29.125  29.401  1.00  0.00     0.049 A 
ATOM     55  H   UNL A   1      44.261  29.031  29.281  1.00  0.00     0.167 HD
ATOM     56  C   UNL A   1      45.913  26.797  28.667  1.00  0.00     0.074 A 
ATOM     57  C   UNL A   1      46.336  25.474  28.255  1.00  0.00     0.031 C 
ATOM     58  C   UNL A   1      46.761  27.797  29.008  1.00  0.00     0.037 A 
BRANCH  45  59
ATOM     59  C   UNL A   1      43.977  33.092  30.568  1.00  0.00     0.058 A 
ATOM     60  C   UNL A   1      43.994  33.444  31.926  1.00  0.00     0.135 A 
ATOM     61  C   UNL A   1      44.123  34.119  29.621  1.00  0.00     0.135 A 
ATOM     62  F   UNL A   1      43.839  32.502  32.869  1.00  0.00    -0.206 F 
ATOM     63  C   UNL A   1      44.126  34.769  32.330  1.00  0.00     0.059 A 
ATOM     64  C   UNL A   1      44.277  35.449  30.002  1.00  0.00     0.059 A 
ATOM     65  F   UNL A   1      44.111  33.836  28.309  1.00  0.00    -0.206 F 
ATOM     66  C   UNL A   1      44.262  35.765  31.360  1.00  0.00     0.060 A 
BRANCH  66  67
ATOM     67  S   UNL A   1      44.427  37.482  31.894  1.00  0.00     0.124 S 
ATOM     68  O   UNL A   1      43.781  38.190  30.794  1.00  0.00    -0.237 OA
ATOM     69  O   UNL A   1      43.704  37.490  33.162  1.00  0.00    -0.237 OA
ATOM     70  O   UNL A   1      45.871  37.667  32.000  1.00  0.00    -0.744 OA
ENDBRANCH  66  67
ENDBRANCH  45  59
BRANCH  46  71
ATOM     71  C   UNL A   1      42.582  23.666  27.532  1.00  0.00     0.058 A 
ATOM     72  C   UNL A   1      42.569  23.381  26.160  1.00  0.00     0.135 A 
ATOM     73  C   UNL A   1      42.435  22.595  28.427  1.00  0.00     0.135 A 
ATOM     74  F   UNL A   1      42.697  24.374  25.267  1.00  0.00    -0.206 F 
ATOM     75  C   UNL A   1      42.417  22.080  25.689  1.00  0.00     0.059 A 
ATOM     76  C   UNL A   1      42.304  21.284  27.982  1.00  0.00     0.059 A 
ATOM     77  F   UNL A   1      42.453  22.816  29.751  1.00  0.00    -0.206 F 
ATOM     78  C   UNL A   1      42.291  21.037  26.609  1.00  0.00     0.060 A 
BRANCH  78  79
ATOM     79  S   UNL A   1      42.169  19.344  25.995  1.00  0.00     0.124 S 
ATOM     80  O   UNL A   1      43.020  19.399  24.813  1.00  0.00    -0.237 OA
ATOM     81  O   UNL A   1      42.685  18.566  27.118  1.00  0.00    -0.237 OA
ATOM     82  O   UNL A   1      40.740  19.184  25.740  1.00  0.00    -0.744 OA
ENDBRANCH  78  79
ENDBRANCH  46  71
BRANCH  58  83
ATOM     83  C   UNL A   1      48.230  27.492  28.998  1.00  0.00     0.058 A 
ATOM     84  C   UNL A   1      49.037  27.806  27.894  1.00  0.00     0.135 A 
ATOM     85  C   UNL A   1      48.847  26.953  30.137  1.00  0.00     0.135 A 
ATOM     86  F   UNL A   1      48.490  28.317  26.781  1.00  0.00    -0.206 F 
ATOM     87  C   UNL A   1      50.412  27.593  27.920  1.00  0.00     0.059 A 
ATOM     88  C   UNL A   1      50.222  26.746  30.191  1.00  0.00     0.059 A 
ATOM     89  F   UNL A   1      48.116  26.642  31.219  1.00  0.00    -0.206 F 
ATOM     90  C   UNL A   1      50.995  27.065  29.076  1.00  0.00     0.060 A 
BRANCH  90  91
ATOM     91  S   UNL A   1      52.788  26.850  29.123  1.00  0.00     0.124 S 
ATOM     92  O   UNL A   1      53.007  25.967  27.981  1.00  0.00    -0.237 OA
ATOM     93  O   UNL A   1      53.274  28.217  28.969  1.00  0.00    -0.237 OA
ATOM     94  O   UNL A   1      53.021  26.252  30.434  1.00  0.00    -0.744 OA
ENDBRANCH  90  91
ENDBRANCH  58  83
ENDBRANCH  32  33
ENDBRANCH  25  27
ENDBRANCH  24  25
ENDBRANCH  23  24
ENDBRANCH   1  23
TORSDOF 18
ENDMDL
