MODEL 1
REMARK VINA RESULT:     -11.3      0.000      0.000
REMARK SMILES O=C(C[C@H]1CSCCN1C(=O)c1ccc(Br)nc1)OCCOC(=O)c1ccc(-c2c3nc(c(-c4c(F)cc(S(=O)(=O)[O-])cc4F)c4ccc([nH]4)c(-c4c(F)cc(S(=O)(=O)[O-])cc4F)c4nc(c(-c5c(F)cc(S(=O)(=O)[O-])cc5F)c5ccc2[nH]5)C=C4)C=C3)cc1
REMARK SMILES IDX 20 1 19 2 2 3 1 4 3 5 4 6 5 7 9 8 6 9 8 10 7 11 10 12 11 13
REMARK SMILES IDX 12 14 13 15 18 16 14 17 17 18 15 19 16 20 21 21 22 22 23 23
REMARK SMILES IDX 24 24 25 25 26 26 90 27 27 28 89 29 28 30 29 31 30 32 83 33
REMARK SMILES IDX 31 34 88 35 82 36 84 37 32 38 87 39 81 40 80 41 33 43 67 44
REMARK SMILES IDX 46 45 66 46 47 47 50 48 65 49 85 50 48 51 49 52 64 54 86 55
REMARK SMILES IDX 51 56 34 57 35 58 44 59 36 60 37 61 43 62 45 63 38 64 39 65
REMARK SMILES IDX 40 66 41 67 42 68 68 69 69 70 78 71 70 72 71 73 77 74 79 75
REMARK SMILES IDX 72 76 73 77 74 78 75 79 76 80 52 81 53 82 62 83 54 84 55 85
REMARK SMILES IDX 61 86 63 87 56 88 57 89 58 90 59 91 60 92
REMARK H PARENT 84 42 50 53
REMARK Flexibility Score: inf
ROOT
ATOM      1  C   UNL A   1      31.829  29.795  25.725  1.00  0.00     0.274 C 
ENDROOT
BRANCH   1   2
ATOM      2  O   UNL A   1      32.357  28.504  26.061  1.00  0.00    -0.462 OA
BRANCH   2   3
ATOM      3  C   UNL A   1      33.316  27.907  25.321  1.00  0.00     0.308 C 
ATOM      4  O   UNL A   1      33.930  28.565  24.486  1.00  0.00    -0.252 OA
BRANCH   3   5
ATOM      5  C   UNL A   1      33.652  26.439  25.567  1.00  0.00     0.148 C 
BRANCH   5   6
ATOM      6  C   UNL A   1      33.710  25.479  24.384  1.00  0.00     0.106 C 
ATOM      7  C   UNL A   1      34.392  24.140  24.811  1.00  0.00     0.095 C 
ATOM      8  N   UNL A   1      32.504  25.286  23.455  1.00  0.00    -0.333 N 
ATOM      9  S   UNL A   1      34.807  22.996  23.461  1.00  0.00    -0.158 SA
ATOM     10  C   UNL A   1      32.885  24.507  22.261  1.00  0.00     0.131 C 
ATOM     11  C   UNL A   1      33.209  23.059  22.608  1.00  0.00     0.091 C 
BRANCH   8  12
ATOM     12  C   UNL A   1      31.114  25.545  23.473  1.00  0.00     0.255 C 
ATOM     13  O   UNL A   1      30.320  24.676  23.862  1.00  0.00    -0.269 OA
BRANCH  12  14
ATOM     14  C   UNL A   1      30.393  26.750  23.036  1.00  0.00     0.058 A 
ATOM     15  C   UNL A   1      29.133  27.120  23.501  1.00  0.00     0.018 A 
ATOM     16  C   UNL A   1      31.138  27.762  22.437  1.00  0.00     0.126 A 
ATOM     17  C   UNL A   1      28.604  28.378  23.144  1.00  0.00     0.037 A 
ATOM     18  N   UNL A   1      30.650  28.968  22.045  1.00  0.00    -0.249 NA
ATOM     19  C   UNL A   1      29.369  29.234  22.365  1.00  0.00     0.106 A 
ATOM     20  Br  UNL A   1      28.579  30.794  21.637  1.00  0.00    -0.029 Br
ENDBRANCH  12  14
ENDBRANCH   8  12
ENDBRANCH   5   6
ENDBRANCH   3   5
ENDBRANCH   2   3
ENDBRANCH   1   2
BRANCH   1  21
ATOM     21  C   UNL A   1      32.233  30.841  26.765  1.00  0.00     0.275 C 
BRANCH  21  22
ATOM     22  O   UNL A   1      33.499  30.478  27.361  1.00  0.00    -0.458 OA
BRANCH  22  23
ATOM     23  C   UNL A   1      34.345  31.498  27.658  1.00  0.00     0.338 C 
ATOM     24  O   UNL A   1      34.032  32.678  27.697  1.00  0.00    -0.246 OA
BRANCH  23  25
ATOM     25  C   UNL A   1      35.713  31.013  28.020  1.00  0.00     0.060 A 
ATOM     26  C   UNL A   1      35.924  29.640  28.122  1.00  0.00     0.016 A 
ATOM     27  C   UNL A   1      36.790  31.862  28.283  1.00  0.00     0.016 A 
ATOM     28  C   UNL A   1      37.142  29.148  28.602  1.00  0.00     0.010 A 
ATOM     29  C   UNL A   1      38.013  31.392  28.753  1.00  0.00     0.010 A 
ATOM     30  C   UNL A   1      38.165  30.028  28.980  1.00  0.00    -0.014 A 
BRANCH  30  31
ATOM     31  C   UNL A   1      39.333  29.536  29.735  1.00  0.00     0.031 A 
ATOM     32  C   UNL A   1      39.550  30.035  31.136  1.00  0.00     0.074 A 
ATOM     33  C   UNL A   1      40.201  28.687  29.159  1.00  0.00     0.049 A 
ATOM     34  N   UNL A   1      40.343  29.574  32.065  1.00  0.00    -0.248 NA
ATOM     35  C   UNL A   1      38.785  31.229  31.536  1.00  0.00     0.031 C 
ATOM     36  C   UNL A   1      40.156  28.257  27.762  1.00  0.00     0.029 A 
ATOM     37  N   UNL A   1      41.286  28.038  29.681  1.00  0.00    -0.354 N 
ATOM     38  C   UNL A   1      40.140  30.390  33.174  1.00  0.00     0.074 A 
ATOM     39  C   UNL A   1      39.211  31.424  32.777  1.00  0.00     0.031 C 
ATOM     40  C   UNL A   1      41.163  27.393  27.541  1.00  0.00     0.029 A 
ATOM     41  C   UNL A   1      41.893  27.188  28.789  1.00  0.00     0.049 A 
ATOM     42  H   UNL A   1      41.602  28.168  30.604  1.00  0.00     0.167 HD
ATOM     43  C   UNL A   1      40.667  30.259  34.415  1.00  0.00     0.037 A 
ATOM     44  C   UNL A   1      42.891  26.305  28.984  1.00  0.00     0.037 A 
ATOM     45  C   UNL A   1      41.618  29.230  34.754  1.00  0.00     0.049 A 
ATOM     46  C   UNL A   1      43.415  26.118  30.383  1.00  0.00     0.074 A 
ATOM     47  C   UNL A   1      42.169  28.927  35.986  1.00  0.00     0.029 A 
ATOM     48  N   UNL A   1      42.177  28.347  33.839  1.00  0.00    -0.354 N 
ATOM     49  N   UNL A   1      43.092  26.769  31.478  1.00  0.00    -0.248 NA
ATOM     50  C   UNL A   1      44.397  25.047  30.585  1.00  0.00     0.031 C 
ATOM     51  C   UNL A   1      43.099  27.896  35.804  1.00  0.00     0.029 A 
ATOM     52  C   UNL A   1      43.082  27.515  34.471  1.00  0.00     0.049 A 
ATOM     53  H   UNL A   1      41.959  28.317  32.879  1.00  0.00     0.167 HD
ATOM     54  C   UNL A   1      43.804  26.162  32.507  1.00  0.00     0.074 A 
ATOM     55  C   UNL A   1      44.562  25.083  31.900  1.00  0.00     0.031 C 
ATOM     56  C   UNL A   1      43.826  26.456  33.832  1.00  0.00     0.037 A 
BRANCH  43  57
ATOM     57  C   UNL A   1      40.221  31.225  35.484  1.00  0.00     0.058 A 
ATOM     58  C   UNL A   1      38.992  31.071  36.151  1.00  0.00     0.135 A 
ATOM     59  C   UNL A   1      41.043  32.290  35.887  1.00  0.00     0.135 A 
ATOM     60  F   UNL A   1      38.156  30.079  35.806  1.00  0.00    -0.206 F 
ATOM     61  C   UNL A   1      38.584  31.950  37.151  1.00  0.00     0.059 A 
ATOM     62  C   UNL A   1      40.670  33.164  36.906  1.00  0.00     0.059 A 
ATOM     63  F   UNL A   1      42.229  32.492  35.289  1.00  0.00    -0.206 F 
ATOM     64  C   UNL A   1      39.431  32.994  37.524  1.00  0.00     0.060 A 
BRANCH  64  65
ATOM     65  S   UNL A   1      38.892  34.116  38.832  1.00  0.00     0.124 S 
ATOM     66  O   UNL A   1      38.903  35.399  38.137  1.00  0.00    -0.237 OA
ATOM     67  O   UNL A   1      37.574  33.590  39.170  1.00  0.00    -0.237 OA
ATOM     68  O   UNL A   1      39.913  33.953  39.863  1.00  0.00    -0.744 OA
ENDBRANCH  64  65
ENDBRANCH  43  57
BRANCH  44  69
ATOM     69  C   UNL A   1      43.355  25.458  27.852  1.00  0.00     0.058 A 
ATOM     70  C   UNL A   1      44.406  25.874  27.022  1.00  0.00     0.135 A 
ATOM     71  C   UNL A   1      42.792  24.196  27.609  1.00  0.00     0.135 A 
ATOM     72  F   UNL A   1      44.983  27.070  27.218  1.00  0.00    -0.206 F 
ATOM     73  C   UNL A   1      44.873  25.080  25.980  1.00  0.00     0.059 A 
ATOM     74  C   UNL A   1      43.256  23.373  26.587  1.00  0.00     0.059 A 
ATOM     75  F   UNL A   1      41.803  23.738  28.392  1.00  0.00    -0.206 F 
ATOM     76  C   UNL A   1      44.292  23.828  25.771  1.00  0.00     0.060 A 
BRANCH  76  77
ATOM     77  S   UNL A   1      44.943  22.783  24.449  1.00  0.00     0.124 S 
ATOM     78  O   UNL A   1      43.757  22.580  23.625  1.00  0.00    -0.237 OA
ATOM     79  O   UNL A   1      45.984  23.631  23.875  1.00  0.00    -0.237 OA
ATOM     80  O   UNL A   1      45.427  21.604  25.161  1.00  0.00    -0.744 OA
ENDBRANCH  76  77
ENDBRANCH  44  69
BRANCH  56  81
ATOM     81  C   UNL A   1      44.677  25.579  34.710  1.00  0.00     0.058 A 
ATOM     82  C   UNL A   1      44.183  24.389  35.267  1.00  0.00     0.135 A 
ATOM     83  C   UNL A   1      46.011  25.926  34.976  1.00  0.00     0.135 A 
ATOM     84  F   UNL A   1      42.914  24.012  35.043  1.00  0.00    -0.206 F 
ATOM     85  C   UNL A   1      44.970  23.596  36.095  1.00  0.00     0.059 A 
ATOM     86  C   UNL A   1      46.825  25.132  35.774  1.00  0.00     0.059 A 
ATOM     87  F   UNL A   1      46.537  27.046  34.453  1.00  0.00    -0.206 F 
ATOM     88  C   UNL A   1      46.289  23.979  36.346  1.00  0.00     0.060 A 
BRANCH  88  89
ATOM     89  S   UNL A   1      47.299  22.944  37.424  1.00  0.00     0.124 S 
ATOM     90  O   UNL A   1      46.293  22.389  38.325  1.00  0.00    -0.237 OA
ATOM     91  O   UNL A   1      47.896  22.001  36.483  1.00  0.00    -0.237 OA
ATOM     92  O   UNL A   1      48.230  23.890  38.029  1.00  0.00    -0.744 OA
ENDBRANCH  88  89
ENDBRANCH  56  81
ENDBRANCH  30  31
ENDBRANCH  23  25
ENDBRANCH  22  23
ENDBRANCH  21  22
ENDBRANCH   1  21
TORSDOF 17
ENDMDL
MODEL 2
REMARK VINA RESULT:     -11.2      6.019     11.499
REMARK SMILES O=C(C[C@H]1CSCCN1C(=O)c1ccc(Br)nc1)OCCOC(=O)c1ccc(-c2c3nc(c(-c4c(F)cc(S(=O)(=O)[O-])cc4F)c4ccc([nH]4)c(-c4c(F)cc(S(=O)(=O)[O-])cc4F)c4nc(c(-c5c(F)cc(S(=O)(=O)[O-])cc5F)c5ccc2[nH]5)C=C4)C=C3)cc1
REMARK SMILES IDX 20 1 19 2 2 3 1 4 3 5 4 6 5 7 9 8 6 9 8 10 7 11 10 12 11 13
REMARK SMILES IDX 12 14 13 15 18 16 14 17 17 18 15 19 16 20 21 21 22 22 23 23
REMARK SMILES IDX 24 24 25 25 26 26 90 27 27 28 89 29 28 30 29 31 30 32 83 33
REMARK SMILES IDX 31 34 88 35 82 36 84 37 32 38 87 39 81 40 80 41 33 43 67 44
REMARK SMILES IDX 46 45 66 46 47 47 50 48 65 49 85 50 48 51 49 52 64 54 86 55
REMARK SMILES IDX 51 56 34 57 35 58 44 59 36 60 37 61 43 62 45 63 38 64 39 65
REMARK SMILES IDX 40 66 41 67 42 68 68 69 69 70 78 71 70 72 71 73 77 74 79 75
REMARK SMILES IDX 72 76 73 77 74 78 75 79 76 80 52 81 53 82 62 83 54 84 55 85
REMARK SMILES IDX 61 86 63 87 56 88 57 89 58 90 59 91 60 92
REMARK H PARENT 84 42 50 53
REMARK Flexibility Score: inf
ROOT
ATOM      1  C   UNL A   1      38.063  21.559  25.377  1.00  0.00     0.274 C 
ENDROOT
BRANCH   1   2
ATOM      2  O   UNL A   1      36.976  22.204  26.053  1.00  0.00    -0.462 OA
BRANCH   2   3
ATOM      3  C   UNL A   1      35.687  21.954  25.737  1.00  0.00     0.308 C 
ATOM      4  O   UNL A   1      34.941  21.471  26.584  1.00  0.00    -0.252 OA
BRANCH   3   5
ATOM      5  C   UNL A   1      35.167  22.321  24.350  1.00  0.00     0.148 C 
BRANCH   5   6
ATOM      6  C   UNL A   1      33.828  23.039  24.221  1.00  0.00     0.106 C 
ATOM      7  C   UNL A   1      34.028  24.434  23.548  1.00  0.00     0.095 C 
ATOM      8  N   UNL A   1      32.571  22.300  23.743  1.00  0.00    -0.333 N 
ATOM      9  S   UNL A   1      32.589  25.543  23.579  1.00  0.00    -0.158 SA
ATOM     10  C   UNL A   1      31.370  23.135  23.938  1.00  0.00     0.131 C 
ATOM     11  C   UNL A   1      31.360  24.340  23.007  1.00  0.00     0.091 C 
BRANCH   8  12
ATOM     12  C   UNL A   1      32.253  21.097  23.070  1.00  0.00     0.255 C 
ATOM     13  O   UNL A   1      31.834  21.125  21.903  1.00  0.00    -0.269 OA
BRANCH  12  14
ATOM     14  C   UNL A   1      32.300  19.716  23.572  1.00  0.00     0.058 A 
ATOM     15  C   UNL A   1      32.605  18.608  22.787  1.00  0.00     0.018 A 
ATOM     16  C   UNL A   1      32.429  19.538  24.948  1.00  0.00     0.126 A 
ATOM     17  C   UNL A   1      32.786  17.350  23.401  1.00  0.00     0.037 A 
ATOM     18  N   UNL A   1      32.565  18.339  25.573  1.00  0.00    -0.249 NA
ATOM     19  C   UNL A   1      32.691  17.256  24.782  1.00  0.00     0.106 A 
ATOM     20  Br  UNL A   1      32.645  15.549  25.602  1.00  0.00    -0.029 Br
ENDBRANCH  12  14
ENDBRANCH   8  12
ENDBRANCH   5   6
ENDBRANCH   3   5
ENDBRANCH   2   3
ENDBRANCH   1   2
BRANCH   1  21
ATOM     21  C   UNL A   1      39.383  21.787  26.116  1.00  0.00     0.275 C 
BRANCH  21  22
ATOM     22  O   UNL A   1      39.957  20.517  26.500  1.00  0.00    -0.458 OA
BRANCH  22  23
ATOM     23  C   UNL A   1      41.238  20.287  26.111  1.00  0.00     0.338 C 
ATOM     24  O   UNL A   1      41.620  19.290  25.517  1.00  0.00    -0.246 OA
BRANCH  23  25
ATOM     25  C   UNL A   1      42.140  21.439  26.420  1.00  0.00     0.060 A 
ATOM     26  C   UNL A   1      42.536  21.635  27.741  1.00  0.00     0.016 A 
ATOM     27  C   UNL A   1      42.591  22.347  25.459  1.00  0.00     0.016 A 
ATOM     28  C   UNL A   1      43.253  22.782  28.099  1.00  0.00     0.010 A 
ATOM     29  C   UNL A   1      43.313  23.489  25.794  1.00  0.00     0.010 A 
ATOM     30  C   UNL A   1      43.585  23.743  27.134  1.00  0.00    -0.014 A 
BRANCH  30  31
ATOM     31  C   UNL A   1      44.092  25.067  27.542  1.00  0.00     0.031 A 
ATOM     32  C   UNL A   1      45.552  25.370  27.353  1.00  0.00     0.074 A 
ATOM     33  C   UNL A   1      43.265  25.963  28.104  1.00  0.00     0.049 A 
ATOM     34  N   UNL A   1      46.171  26.518  27.402  1.00  0.00    -0.248 NA
ATOM     35  C   UNL A   1      46.436  24.220  27.095  1.00  0.00     0.031 C 
ATOM     36  C   UNL A   1      41.868  25.713  28.459  1.00  0.00     0.029 A 
ATOM     37  N   UNL A   1      43.482  27.262  28.473  1.00  0.00    -0.354 N 
ATOM     38  C   UNL A   1      47.508  26.238  27.136  1.00  0.00     0.074 A 
ATOM     39  C   UNL A   1      47.624  24.803  27.007  1.00  0.00     0.031 C 
ATOM     40  C   UNL A   1      41.344  26.837  28.979  1.00  0.00     0.029 A 
ATOM     41  C   UNL A   1      42.358  27.886  28.957  1.00  0.00     0.049 A 
ATOM     42  H   UNL A   1      44.358  27.706  28.400  1.00  0.00     0.167 HD
ATOM     43  C   UNL A   1      48.532  27.113  26.986  1.00  0.00     0.037 A 
ATOM     44  C   UNL A   1      42.166  29.178  29.290  1.00  0.00     0.037 A 
ATOM     45  C   UNL A   1      48.373  28.536  27.159  1.00  0.00     0.049 A 
ATOM     46  C   UNL A   1      43.290  30.150  29.048  1.00  0.00     0.074 A 
ATOM     47  C   UNL A   1      49.298  29.544  26.957  1.00  0.00     0.029 A 
ATOM     48  N   UNL A   1      47.206  29.147  27.599  1.00  0.00    -0.354 N 
ATOM     49  N   UNL A   1      44.509  29.913  28.621  1.00  0.00    -0.248 NA
ATOM     50  C   UNL A   1      42.999  31.569  29.283  1.00  0.00     0.031 C 
ATOM     51  C   UNL A   1      48.705  30.757  27.327  1.00  0.00     0.029 A 
ATOM     52  C   UNL A   1      47.391  30.513  27.699  1.00  0.00     0.049 A 
ATOM     53  H   UNL A   1      46.367  28.674  27.810  1.00  0.00     0.167 HD
ATOM     54  C   UNL A   1      45.121  31.156  28.499  1.00  0.00     0.074 A 
ATOM     55  C   UNL A   1      44.127  32.141  28.887  1.00  0.00     0.031 C 
ATOM     56  C   UNL A   1      46.380  31.463  28.098  1.00  0.00     0.037 A 
BRANCH  43  57
ATOM     57  C   UNL A   1      49.886  26.567  26.608  1.00  0.00     0.058 A 
ATOM     58  C   UNL A   1      50.779  26.075  27.577  1.00  0.00     0.135 A 
ATOM     59  C   UNL A   1      50.285  26.487  25.264  1.00  0.00     0.135 A 
ATOM     60  F   UNL A   1      50.462  26.133  28.880  1.00  0.00    -0.206 F 
ATOM     61  C   UNL A   1      52.023  25.555  27.230  1.00  0.00     0.059 A 
ATOM     62  C   UNL A   1      51.512  25.942  24.891  1.00  0.00     0.059 A 
ATOM     63  F   UNL A   1      49.477  26.940  24.291  1.00  0.00    -0.206 F 
ATOM     64  C   UNL A   1      52.381  25.490  25.883  1.00  0.00     0.060 A 
BRANCH  64  65
ATOM     65  S   UNL A   1      53.992  24.799  25.452  1.00  0.00     0.124 S 
ATOM     66  O   UNL A   1      53.638  23.424  25.113  1.00  0.00    -0.237 OA
ATOM     67  O   UNL A   1      54.404  25.640  24.334  1.00  0.00    -0.237 OA
ATOM     68  O   UNL A   1      54.771  24.960  26.676  1.00  0.00    -0.744 OA
ENDBRANCH  64  65
ENDBRANCH  43  57
BRANCH  44  69
ATOM     69  C   UNL A   1      40.828  29.624  29.760  1.00  0.00     0.058 A 
ATOM     70  C   UNL A   1      39.766  29.793  28.859  1.00  0.00     0.135 A 
ATOM     71  C   UNL A   1      40.569  29.843  31.121  1.00  0.00     0.135 A 
ATOM     72  F   UNL A   1      39.959  29.588  27.548  1.00  0.00    -0.206 F 
ATOM     73  C   UNL A   1      38.499  30.179  29.286  1.00  0.00     0.059 A 
ATOM     74  C   UNL A   1      39.306  30.208  31.577  1.00  0.00     0.059 A 
ATOM     75  F   UNL A   1      41.544  29.668  32.027  1.00  0.00    -0.206 F 
ATOM     76  C   UNL A   1      38.278  30.382  30.650  1.00  0.00     0.060 A 
BRANCH  76  77
ATOM     77  S   UNL A   1      36.617  30.831  31.198  1.00  0.00     0.124 S 
ATOM     78  O   UNL A   1      35.891  30.869  29.934  1.00  0.00    -0.237 OA
ATOM     79  O   UNL A   1      36.283  29.728  32.094  1.00  0.00    -0.237 OA
ATOM     80  O   UNL A   1      36.815  32.121  31.852  1.00  0.00    -0.744 OA
ENDBRANCH  76  77
ENDBRANCH  44  69
BRANCH  56  81
ATOM     81  C   UNL A   1      46.737  32.923  28.032  1.00  0.00     0.058 A 
ATOM     82  C   UNL A   1      47.405  33.569  29.084  1.00  0.00     0.135 A 
ATOM     83  C   UNL A   1      46.426  33.676  26.889  1.00  0.00     0.135 A 
ATOM     84  F   UNL A   1      47.726  32.893  30.199  1.00  0.00    -0.206 F 
ATOM     85  C   UNL A   1      47.712  34.923  29.023  1.00  0.00     0.059 A 
ATOM     86  C   UNL A   1      46.752  35.024  26.794  1.00  0.00     0.059 A 
ATOM     87  F   UNL A   1      45.802  33.102  25.848  1.00  0.00    -0.206 F 
ATOM     88  C   UNL A   1      47.377  35.644  27.875  1.00  0.00     0.060 A 
BRANCH  88  89
ATOM     89  S   UNL A   1      47.778  37.402  27.809  1.00  0.00     0.124 S 
ATOM     90  O   UNL A   1      46.504  37.977  27.387  1.00  0.00    -0.237 OA
ATOM     91  O   UNL A   1      48.175  37.683  29.185  1.00  0.00    -0.237 OA
ATOM     92  O   UNL A   1      48.854  37.468  26.826  1.00  0.00    -0.744 OA
ENDBRANCH  88  89
ENDBRANCH  56  81
ENDBRANCH  30  31
ENDBRANCH  23  25
ENDBRANCH  22  23
ENDBRANCH  21  22
ENDBRANCH   1  21
TORSDOF 17
ENDMDL
MODEL 3
REMARK VINA RESULT:     -11.1      2.315      3.294
REMARK SMILES O=C(C[C@H]1CSCCN1C(=O)c1ccc(Br)nc1)OCCOC(=O)c1ccc(-c2c3nc(c(-c4c(F)cc(S(=O)(=O)[O-])cc4F)c4ccc([nH]4)c(-c4c(F)cc(S(=O)(=O)[O-])cc4F)c4nc(c(-c5c(F)cc(S(=O)(=O)[O-])cc5F)c5ccc2[nH]5)C=C4)C=C3)cc1
REMARK SMILES IDX 20 1 19 2 2 3 1 4 3 5 4 6 5 7 9 8 6 9 8 10 7 11 10 12 11 13
REMARK SMILES IDX 12 14 13 15 18 16 14 17 17 18 15 19 16 20 21 21 22 22 23 23
REMARK SMILES IDX 24 24 25 25 26 26 90 27 27 28 89 29 28 30 29 31 30 32 83 33
REMARK SMILES IDX 31 34 88 35 82 36 84 37 32 38 87 39 81 40 80 41 33 43 67 44
REMARK SMILES IDX 46 45 66 46 47 47 50 48 65 49 85 50 48 51 49 52 64 54 86 55
REMARK SMILES IDX 51 56 34 57 35 58 44 59 36 60 37 61 43 62 45 63 38 64 39 65
REMARK SMILES IDX 40 66 41 67 42 68 68 69 69 70 78 71 70 72 71 73 77 74 79 75
REMARK SMILES IDX 72 76 73 77 74 78 75 79 76 80 52 81 53 82 62 83 54 84 55 85
REMARK SMILES IDX 61 86 63 87 56 88 57 89 58 90 59 91 60 92
REMARK H PARENT 84 42 50 53
REMARK Flexibility Score: inf
ROOT
ATOM      1  C   UNL A   1      33.979  30.575  27.224  1.00  0.00     0.274 C 
ENDROOT
BRANCH   1   2
ATOM      2  O   UNL A   1      33.333  29.314  26.998  1.00  0.00    -0.462 OA
BRANCH   2   3
ATOM      3  C   UNL A   1      33.491  28.625  25.848  1.00  0.00     0.308 C 
ATOM      4  O   UNL A   1      33.570  29.235  24.785  1.00  0.00    -0.252 OA
BRANCH   3   5
ATOM      5  C   UNL A   1      33.617  27.104  25.893  1.00  0.00     0.148 C 
BRANCH   5   6
ATOM      6  C   UNL A   1      33.428  26.302  24.609  1.00  0.00     0.106 C 
ATOM      7  C   UNL A   1      33.938  24.840  24.809  1.00  0.00     0.095 C 
ATOM      8  N   UNL A   1      32.130  26.396  23.796  1.00  0.00    -0.333 N 
ATOM      9  S   UNL A   1      34.058  23.829  23.304  1.00  0.00    -0.158 SA
ATOM     10  C   UNL A   1      32.286  25.729  22.489  1.00  0.00     0.131 C 
ATOM     11  C   UNL A   1      32.419  24.219  22.634  1.00  0.00     0.091 C 
BRANCH   8  12
ATOM     12  C   UNL A   1      30.801  26.840  23.987  1.00  0.00     0.255 C 
ATOM     13  O   UNL A   1      30.093  26.333  24.870  1.00  0.00    -0.269 OA
BRANCH  12  14
ATOM     14  C   UNL A   1      30.047  27.851  23.232  1.00  0.00     0.058 A 
ATOM     15  C   UNL A   1      28.668  28.024  23.317  1.00  0.00     0.018 A 
ATOM     16  C   UNL A   1      30.760  28.928  22.711  1.00  0.00     0.126 A 
ATOM     17  C   UNL A   1      28.066  29.129  22.679  1.00  0.00     0.037 A 
ATOM     18  N   UNL A   1      30.215  29.986  22.057  1.00  0.00    -0.249 NA
ATOM     19  C   UNL A   1      28.870  30.040  22.010  1.00  0.00     0.106 A 
ATOM     20  Br  UNL A   1      28.073  31.362  20.913  1.00  0.00    -0.029 Br
ENDBRANCH  12  14
ENDBRANCH   8  12
ENDBRANCH   5   6
ENDBRANCH   3   5
ENDBRANCH   2   3
ENDBRANCH   1   2
BRANCH   1  21
ATOM     21  C   UNL A   1      32.954  31.671  27.523  1.00  0.00     0.275 C 
BRANCH  21  22
ATOM     22  O   UNL A   1      33.555  32.971  27.321  1.00  0.00    -0.458 OA
BRANCH  22  23
ATOM     23  C   UNL A   1      33.527  33.823  28.379  1.00  0.00     0.338 C 
ATOM     24  O   UNL A   1      32.639  34.632  28.602  1.00  0.00    -0.246 OA
BRANCH  23  25
ATOM     25  C   UNL A   1      34.681  33.612  29.306  1.00  0.00     0.060 A 
ATOM     26  C   UNL A   1      35.912  34.171  28.972  1.00  0.00     0.016 A 
ATOM     27  C   UNL A   1      34.600  32.864  30.483  1.00  0.00     0.016 A 
ATOM     28  C   UNL A   1      37.050  33.875  29.729  1.00  0.00     0.010 A 
ATOM     29  C   UNL A   1      35.719  32.565  31.256  1.00  0.00     0.010 A 
ATOM     30  C   UNL A   1      36.965  33.017  30.834  1.00  0.00    -0.014 A 
BRANCH  30  31
ATOM     31  C   UNL A   1      38.189  32.487  31.465  1.00  0.00     0.031 A 
ATOM     32  C   UNL A   1      38.637  33.070  32.776  1.00  0.00     0.074 A 
ATOM     33  C   UNL A   1      38.903  31.527  30.853  1.00  0.00     0.049 A 
ATOM     34  N   UNL A   1      39.516  32.616  33.626  1.00  0.00    -0.248 NA
ATOM     35  C   UNL A   1      38.025  34.351  33.171  1.00  0.00     0.031 C 
ATOM     36  C   UNL A   1      38.631  30.998  29.517  1.00  0.00     0.029 A 
ATOM     37  N   UNL A   1      40.000  30.830  31.278  1.00  0.00    -0.354 N 
ATOM     38  C   UNL A   1      39.532  33.527  34.677  1.00  0.00     0.074 A 
ATOM     39  C   UNL A   1      38.634  34.602  34.321  1.00  0.00     0.031 C 
ATOM     40  C   UNL A   1      39.531  30.038  29.238  1.00  0.00     0.029 A 
ATOM     41  C   UNL A   1      40.412  29.867  30.390  1.00  0.00     0.049 A 
ATOM     42  H   UNL A   1      40.451  31.002  32.137  1.00  0.00     0.167 HD
ATOM     43  C   UNL A   1      40.217  33.446  35.844  1.00  0.00     0.037 A 
ATOM     44  C   UNL A   1      41.361  28.920  30.524  1.00  0.00     0.037 A 
ATOM     45  C   UNL A   1      41.129  32.369  36.139  1.00  0.00     0.049 A 
ATOM     46  C   UNL A   1      42.061  28.796  31.851  1.00  0.00     0.074 A 
ATOM     47  C   UNL A   1      41.824  32.115  37.308  1.00  0.00     0.029 A 
ATOM     48  N   UNL A   1      41.487  31.375  35.237  1.00  0.00    -0.354 N 
ATOM     49  N   UNL A   1      41.944  29.553  32.920  1.00  0.00    -0.248 NA
ATOM     50  C   UNL A   1      42.981  27.665  32.012  1.00  0.00     0.031 C 
ATOM     51  C   UNL A   1      42.641  30.999  37.092  1.00  0.00     0.029 A 
ATOM     52  C   UNL A   1      42.409  30.520  35.811  1.00  0.00     0.049 A 
ATOM     53  H   UNL A   1      41.135  31.292  34.321  1.00  0.00     0.167 HD
ATOM     54  C   UNL A   1      42.747  28.967  33.892  1.00  0.00     0.074 A 
ATOM     55  C   UNL A   1      43.332  27.786  33.284  1.00  0.00     0.031 C 
ATOM     56  C   UNL A   1      42.977  29.357  35.172  1.00  0.00     0.037 A 
BRANCH  43  57
ATOM     57  C   UNL A   1      39.998  34.524  36.876  1.00  0.00     0.058 A 
ATOM     58  C   UNL A   1      39.016  34.399  37.874  1.00  0.00     0.135 A 
ATOM     59  C   UNL A   1      40.803  35.674  36.904  1.00  0.00     0.135 A 
ATOM     60  F   UNL A   1      38.206  33.329  37.896  1.00  0.00    -0.206 F 
ATOM     61  C   UNL A   1      38.821  35.384  38.839  1.00  0.00     0.059 A 
ATOM     62  C   UNL A   1      40.648  36.658  37.878  1.00  0.00     0.059 A 
ATOM     63  F   UNL A   1      41.759  35.853  35.977  1.00  0.00    -0.206 F 
ATOM     64  C   UNL A   1      39.644  36.511  38.835  1.00  0.00     0.060 A 
BRANCH  64  65
ATOM     65  S   UNL A   1      39.387  37.770  40.103  1.00  0.00     0.124 S 
ATOM     66  O   UNL A   1      38.194  38.447  39.603  1.00  0.00    -0.237 OA
ATOM     67  O   UNL A   1      39.202  36.968  41.307  1.00  0.00    -0.237 OA
ATOM     68  O   UNL A   1      40.617  38.555  40.058  1.00  0.00    -0.744 OA
ENDBRANCH  64  65
ENDBRANCH  43  57
BRANCH  44  69
ATOM     69  C   UNL A   1      41.597  27.954  29.418  1.00  0.00     0.058 A 
ATOM     70  C   UNL A   1      42.746  28.040  28.618  1.00  0.00     0.135 A 
ATOM     71  C   UNL A   1      40.708  26.897  29.172  1.00  0.00     0.135 A 
ATOM     72  F   UNL A   1      43.631  29.028  28.819  1.00  0.00    -0.206 F 
ATOM     73  C   UNL A   1      42.999  27.126  27.601  1.00  0.00     0.059 A 
ATOM     74  C   UNL A   1      40.949  25.957  28.175  1.00  0.00     0.059 A 
ATOM     75  F   UNL A   1      39.609  26.754  29.927  1.00  0.00    -0.206 F 
ATOM     76  C   UNL A   1      42.094  26.084  27.388  1.00  0.00     0.060 A 
BRANCH  76  77
ATOM     77  S   UNL A   1      42.459  24.872  26.100  1.00  0.00     0.124 S 
ATOM     78  O   UNL A   1      43.810  24.458  26.461  1.00  0.00    -0.237 OA
ATOM     79  O   UNL A   1      41.409  23.880  26.307  1.00  0.00    -0.237 OA
ATOM     80  O   UNL A   1      42.345  25.647  24.867  1.00  0.00    -0.744 OA
ENDBRANCH  76  77
ENDBRANCH  44  69
BRANCH  56  81
ATOM     81  C   UNL A   1      43.876  28.481  36.000  1.00  0.00     0.058 A 
ATOM     82  C   UNL A   1      45.262  28.693  36.063  1.00  0.00     0.135 A 
ATOM     83  C   UNL A   1      43.336  27.429  36.758  1.00  0.00     0.135 A 
ATOM     84  F   UNL A   1      45.828  29.684  35.357  1.00  0.00    -0.206 F 
ATOM     85  C   UNL A   1      46.087  27.864  36.815  1.00  0.00     0.059 A 
ATOM     86  C   UNL A   1      44.138  26.609  37.542  1.00  0.00     0.059 A 
ATOM     87  F   UNL A   1      42.014  27.194  36.746  1.00  0.00    -0.206 F 
ATOM     88  C   UNL A   1      45.516  26.821  37.547  1.00  0.00     0.060 A 
BRANCH  88  89
ATOM     89  S   UNL A   1      46.598  25.751  38.516  1.00  0.00     0.124 S 
ATOM     90  O   UNL A   1      45.754  25.446  39.668  1.00  0.00    -0.237 OA
ATOM     91  O   UNL A   1      46.843  24.642  37.599  1.00  0.00    -0.237 OA
ATOM     92  O   UNL A   1      47.755  26.596  38.791  1.00  0.00    -0.744 OA
ENDBRANCH  88  89
ENDBRANCH  56  81
ENDBRANCH  30  31
ENDBRANCH  23  25
ENDBRANCH  22  23
ENDBRANCH  21  22
ENDBRANCH   1  21
TORSDOF 17
ENDMDL
