MODEL 1
REMARK VINA RESULT:     -12.1      0.000      0.000
REMARK SMILES O=C(Cn1c(SCCc2ccccc2)nc2ccccc21)OCCOC(=O)c1ccc(-c2c3nc(c(-c4c(F)cc(S(=O)(=O)[O-])cc4F)c4ccc([nH]4)c(-c4c(F)cc(S(=O)(=O)[O-])cc4F)c4nc(c(-c5c(F)cc(S(=O)(=O)[O-])cc5F)c5ccc2[nH]5)C=C4)C=C3)cc1
REMARK SMILES IDX 23 1 22 2 2 3 1 4 3 5 4 6 5 7 21 8 15 9 16 10 20 11 17 12
REMARK SMILES IDX 19 13 18 14 6 15 7 16 8 17 9 18 10 19 14 20 11 21 13 22
REMARK SMILES IDX 12 23 24 24 25 25 26 26 27 27 28 28 29 29 93 30 30 31 92 32
REMARK SMILES IDX 31 33 32 34 33 35 86 36 34 37 91 38 85 39 87 40 35 41 90 42
REMARK SMILES IDX 84 43 83 44 36 46 70 47 49 48 69 49 50 50 53 51 68 52 88 53
REMARK SMILES IDX 51 54 52 55 67 57 89 58 54 59 37 60 38 61 47 62 39 63 40 64
REMARK SMILES IDX 46 65 48 66 41 67 42 68 43 69 44 70 45 71 71 72 72 73 81 74
REMARK SMILES IDX 73 75 74 76 80 77 82 78 75 79 76 80 77 81 78 82 79 83 55 84
REMARK SMILES IDX 56 85 65 86 57 87 58 88 64 89 66 90 59 91 60 92 61 93 62 94
REMARK SMILES IDX 63 95
REMARK H PARENT 87 45 53 56
REMARK Flexibility Score: inf
ROOT
ATOM      1  C   UNL A   1      38.447  22.123  26.037  1.00  0.00     0.274 C 
ENDROOT
BRANCH   1   2
ATOM      2  O   UNL A   1      38.021  21.581  24.773  1.00  0.00    -0.461 OA
BRANCH   2   3
ATOM      3  C   UNL A   1      36.715  21.552  24.398  1.00  0.00     0.326 C 
ATOM      4  O   UNL A   1      36.330  22.331  23.535  1.00  0.00    -0.250 OA
BRANCH   3   5
ATOM      5  C   UNL A   1      35.797  20.737  25.242  1.00  0.00     0.247 C 
BRANCH   5   6
ATOM      6  N   UNL A   1      34.455  20.305  24.886  1.00  0.00    -0.308 N 
ATOM      7  C   UNL A   1      33.270  20.829  25.354  1.00  0.00     0.169 A 
ATOM      8  C   UNL A   1      34.197  18.948  24.635  1.00  0.00     0.069 A 
ATOM      9  N   UNL A   1      32.280  19.976  25.274  1.00  0.00    -0.222 NA
ATOM     10  C   UNL A   1      32.848  18.783  24.944  1.00  0.00     0.090 A 
ATOM     11  C   UNL A   1      35.028  17.855  24.335  1.00  0.00     0.028 A 
ATOM     12  C   UNL A   1      32.290  17.494  24.962  1.00  0.00     0.030 A 
ATOM     13  C   UNL A   1      34.466  16.573  24.409  1.00  0.00     0.002 A 
ATOM     14  C   UNL A   1      33.119  16.393  24.717  1.00  0.00     0.002 A 
BRANCH   7  15
ATOM     15  S   UNL A   1      33.061  22.413  25.974  1.00  0.00    -0.088 SA
BRANCH  15  16
ATOM     16  C   UNL A   1      33.168  23.547  24.568  1.00  0.00     0.083 C 
BRANCH  16  17
ATOM     17  C   UNL A   1      33.788  24.956  24.547  1.00  0.00     0.047 C 
BRANCH  17  18
ATOM     18  C   UNL A   1      33.207  26.237  25.096  1.00  0.00    -0.047 A 
ATOM     19  C   UNL A   1      33.716  26.921  26.189  1.00  0.00     0.004 A 
ATOM     20  C   UNL A   1      31.991  26.708  24.566  1.00  0.00     0.004 A 
ATOM     21  C   UNL A   1      33.035  28.045  26.687  1.00  0.00     0.000 A 
ATOM     22  C   UNL A   1      31.311  27.820  25.039  1.00  0.00     0.000 A 
ATOM     23  C   UNL A   1      31.843  28.498  26.111  1.00  0.00     0.000 A 
ENDBRANCH  17  18
ENDBRANCH  16  17
ENDBRANCH  15  16
ENDBRANCH   7  15
ENDBRANCH   5   6
ENDBRANCH   3   5
ENDBRANCH   2   3
ENDBRANCH   1   2
BRANCH   1  24
ATOM     24  C   UNL A   1      39.670  21.389  26.660  1.00  0.00     0.275 C 
BRANCH  24  25
ATOM     25  O   UNL A   1      40.355  20.416  25.818  1.00  0.00    -0.458 OA
BRANCH  25  26
ATOM     26  C   UNL A   1      41.740  20.405  25.938  1.00  0.00     0.338 C 
ATOM     27  O   UNL A   1      42.444  19.440  25.767  1.00  0.00    -0.246 OA
BRANCH  26  28
ATOM     28  C   UNL A   1      42.282  21.765  26.315  1.00  0.00     0.060 A 
ATOM     29  C   UNL A   1      42.716  22.027  27.610  1.00  0.00     0.016 A 
ATOM     30  C   UNL A   1      42.286  22.828  25.404  1.00  0.00     0.016 A 
ATOM     31  C   UNL A   1      42.840  23.369  28.042  1.00  0.00     0.010 A 
ATOM     32  C   UNL A   1      42.469  24.173  25.834  1.00  0.00     0.010 A 
ATOM     33  C   UNL A   1      42.605  24.485  27.190  1.00  0.00    -0.014 A 
BRANCH  33  34
ATOM     34  C   UNL A   1      42.472  25.882  27.806  1.00  0.00     0.031 A 
ATOM     35  C   UNL A   1      43.712  26.700  27.622  1.00  0.00     0.074 A 
ATOM     36  C   UNL A   1      41.454  26.484  28.510  1.00  0.00     0.049 A 
ATOM     37  N   UNL A   1      44.510  27.166  28.532  1.00  0.00    -0.248 NA
ATOM     38  C   UNL A   1      44.208  26.874  26.245  1.00  0.00     0.031 C 
ATOM     39  C   UNL A   1      40.106  25.956  28.774  1.00  0.00     0.029 A 
ATOM     40  N   UNL A   1      41.381  27.725  29.163  1.00  0.00    -0.354 N 
ATOM     41  C   UNL A   1      45.482  27.876  27.839  1.00  0.00     0.074 A 
ATOM     42  C   UNL A   1      45.360  27.509  26.452  1.00  0.00     0.031 C 
ATOM     43  C   UNL A   1      39.339  26.876  29.386  1.00  0.00     0.029 A 
ATOM     44  C   UNL A   1      40.086  28.095  29.564  1.00  0.00     0.049 A 
ATOM     45  H   UNL A   1      42.173  28.288  29.326  1.00  0.00     0.167 HD
ATOM     46  C   UNL A   1      46.085  28.965  28.384  1.00  0.00     0.037 A 
ATOM     47  C   UNL A   1      39.558  29.261  30.038  1.00  0.00     0.037 A 
ATOM     48  C   UNL A   1      46.036  28.970  29.815  1.00  0.00     0.049 A 
ATOM     49  C   UNL A   1      40.630  30.029  30.694  1.00  0.00     0.074 A 
ATOM     50  C   UNL A   1      46.708  28.358  30.850  1.00  0.00     0.029 A 
ATOM     51  N   UNL A   1      44.900  29.519  30.336  1.00  0.00    -0.354 N 
ATOM     52  N   UNL A   1      41.152  29.701  31.843  1.00  0.00    -0.248 NA
ATOM     53  C   UNL A   1      41.357  31.036  29.931  1.00  0.00     0.031 C 
ATOM     54  C   UNL A   1      45.883  28.486  32.004  1.00  0.00     0.029 A 
ATOM     55  C   UNL A   1      44.738  29.194  31.654  1.00  0.00     0.049 A 
ATOM     56  H   UNL A   1      44.274  30.080  29.824  1.00  0.00     0.167 HD
ATOM     57  C   UNL A   1      42.461  30.116  31.739  1.00  0.00     0.074 A 
ATOM     58  C   UNL A   1      42.493  31.055  30.626  1.00  0.00     0.031 C 
ATOM     59  C   UNL A   1      43.465  29.397  32.307  1.00  0.00     0.037 A 
BRANCH  46  60
ATOM     60  C   UNL A   1      46.240  30.244  27.589  1.00  0.00     0.058 A 
ATOM     61  C   UNL A   1      47.498  30.852  27.432  1.00  0.00     0.135 A 
ATOM     62  C   UNL A   1      45.130  31.033  27.201  1.00  0.00     0.135 A 
ATOM     63  F   UNL A   1      48.614  30.225  27.841  1.00  0.00    -0.206 F 
ATOM     64  C   UNL A   1      47.641  32.140  26.903  1.00  0.00     0.059 A 
ATOM     65  C   UNL A   1      45.250  32.283  26.615  1.00  0.00     0.059 A 
ATOM     66  F   UNL A   1      43.870  30.665  27.467  1.00  0.00    -0.206 F 
ATOM     67  C   UNL A   1      46.509  32.841  26.486  1.00  0.00     0.060 A 
BRANCH  67  68
ATOM     68  S   UNL A   1      46.671  34.503  25.812  1.00  0.00     0.124 S 
ATOM     69  O   UNL A   1      46.340  35.324  26.970  1.00  0.00    -0.237 OA
ATOM     70  O   UNL A   1      48.068  34.521  25.389  1.00  0.00    -0.237 OA
ATOM     71  O   UNL A   1      45.696  34.520  24.725  1.00  0.00    -0.744 OA
ENDBRANCH  67  68
ENDBRANCH  46  60
BRANCH  47  72
ATOM     72  C   UNL A   1      38.179  29.835  29.824  1.00  0.00     0.058 A 
ATOM     73  C   UNL A   1      37.387  30.300  30.897  1.00  0.00     0.135 A 
ATOM     74  C   UNL A   1      37.720  30.211  28.542  1.00  0.00     0.135 A 
ATOM     75  F   UNL A   1      37.702  29.982  32.163  1.00  0.00    -0.206 F 
ATOM     76  C   UNL A   1      36.301  31.174  30.716  1.00  0.00     0.059 A 
ATOM     77  C   UNL A   1      36.633  31.061  28.337  1.00  0.00     0.059 A 
ATOM     78  F   UNL A   1      38.368  29.844  27.429  1.00  0.00    -0.206 F 
ATOM     79  C   UNL A   1      35.961  31.585  29.430  1.00  0.00     0.060 A 
BRANCH  79  80
ATOM     80  S   UNL A   1      34.776  32.932  29.190  1.00  0.00     0.124 S 
ATOM     81  O   UNL A   1      35.644  34.047  28.828  1.00  0.00    -0.237 OA
ATOM     82  O   UNL A   1      33.929  32.410  28.123  1.00  0.00    -0.237 OA
ATOM     83  O   UNL A   1      34.125  33.047  30.493  1.00  0.00    -0.744 OA
ENDBRANCH  79  80
ENDBRANCH  47  72
BRANCH  59  84
ATOM     84  C   UNL A   1      43.208  28.703  33.605  1.00  0.00     0.058 A 
ATOM     85  C   UNL A   1      43.035  29.321  34.853  1.00  0.00     0.135 A 
ATOM     86  C   UNL A   1      43.025  27.311  33.538  1.00  0.00     0.135 A 
ATOM     87  F   UNL A   1      43.150  30.652  34.981  1.00  0.00    -0.206 F 
ATOM     88  C   UNL A   1      42.689  28.578  35.988  1.00  0.00     0.059 A 
ATOM     89  C   UNL A   1      42.662  26.559  34.645  1.00  0.00     0.059 A 
ATOM     90  F   UNL A   1      43.154  26.672  32.364  1.00  0.00    -0.206 F 
ATOM     91  C   UNL A   1      42.496  27.198  35.870  1.00  0.00     0.060 A 
BRANCH  91  92
ATOM     92  S   UNL A   1      41.978  26.231  37.306  1.00  0.00     0.124 S 
ATOM     93  O   UNL A   1      43.019  26.540  38.281  1.00  0.00    -0.237 OA
ATOM     94  O   UNL A   1      40.651  26.767  37.587  1.00  0.00    -0.237 OA
ATOM     95  O   UNL A   1      41.985  24.855  36.811  1.00  0.00    -0.744 OA
ENDBRANCH  91  92
ENDBRANCH  59  84
ENDBRANCH  33  34
ENDBRANCH  26  28
ENDBRANCH  25  26
ENDBRANCH  24  25
ENDBRANCH   1  24
TORSDOF 19
ENDMDL
MODEL 2
REMARK VINA RESULT:     -12.0      2.900      9.262
REMARK SMILES O=C(Cn1c(SCCc2ccccc2)nc2ccccc21)OCCOC(=O)c1ccc(-c2c3nc(c(-c4c(F)cc(S(=O)(=O)[O-])cc4F)c4ccc([nH]4)c(-c4c(F)cc(S(=O)(=O)[O-])cc4F)c4nc(c(-c5c(F)cc(S(=O)(=O)[O-])cc5F)c5ccc2[nH]5)C=C4)C=C3)cc1
REMARK SMILES IDX 23 1 22 2 2 3 1 4 3 5 4 6 5 7 21 8 15 9 16 10 20 11 17 12
REMARK SMILES IDX 19 13 18 14 6 15 7 16 8 17 9 18 10 19 14 20 11 21 13 22
REMARK SMILES IDX 12 23 24 24 25 25 26 26 27 27 28 28 29 29 93 30 30 31 92 32
REMARK SMILES IDX 31 33 32 34 33 35 86 36 34 37 91 38 85 39 87 40 35 41 90 42
REMARK SMILES IDX 84 43 83 44 36 46 70 47 49 48 69 49 50 50 53 51 68 52 88 53
REMARK SMILES IDX 51 54 52 55 67 57 89 58 54 59 37 60 38 61 47 62 39 63 40 64
REMARK SMILES IDX 46 65 48 66 41 67 42 68 43 69 44 70 45 71 71 72 72 73 81 74
REMARK SMILES IDX 73 75 74 76 80 77 82 78 75 79 76 80 77 81 78 82 79 83 55 84
REMARK SMILES IDX 56 85 65 86 57 87 58 88 64 89 66 90 59 91 60 92 61 93 62 94
REMARK SMILES IDX 63 95
REMARK H PARENT 87 45 53 56
REMARK Flexibility Score: inf
ROOT
ATOM      1  C   UNL A   1      31.849  29.539  26.313  1.00  0.00     0.274 C 
ENDROOT
BRANCH   1   2
ATOM      2  O   UNL A   1      32.049  28.312  27.040  1.00  0.00    -0.461 OA
BRANCH   2   3
ATOM      3  C   UNL A   1      32.329  27.137  26.418  1.00  0.00     0.326 C 
ATOM      4  O   UNL A   1      31.550  26.201  26.543  1.00  0.00    -0.250 OA
BRANCH   3   5
ATOM      5  C   UNL A   1      33.690  27.003  25.828  1.00  0.00     0.247 C 
BRANCH   5   6
ATOM      6  N   UNL A   1      34.027  26.335  24.580  1.00  0.00    -0.308 N 
ATOM      7  C   UNL A   1      33.505  26.607  23.334  1.00  0.00     0.169 A 
ATOM      8  C   UNL A   1      34.327  24.965  24.575  1.00  0.00     0.069 A 
ATOM      9  N   UNL A   1      33.592  25.585  22.522  1.00  0.00    -0.222 NA
ATOM     10  C   UNL A   1      33.988  24.534  23.294  1.00  0.00     0.090 A 
ATOM     11  C   UNL A   1      34.695  24.061  25.587  1.00  0.00     0.028 A 
ATOM     12  C   UNL A   1      34.008  23.162  22.991  1.00  0.00     0.030 A 
ATOM     13  C   UNL A   1      34.660  22.694  25.282  1.00  0.00     0.002 A 
ATOM     14  C   UNL A   1      34.322  22.249  24.005  1.00  0.00     0.002 A 
BRANCH   7  15
ATOM     15  S   UNL A   1      32.813  28.099  22.851  1.00  0.00    -0.088 SA
BRANCH  15  16
ATOM     16  C   UNL A   1      31.023  27.847  22.768  1.00  0.00     0.083 C 
BRANCH  16  17
ATOM     17  C   UNL A   1      29.926  28.707  23.420  1.00  0.00     0.047 C 
BRANCH  17  18
ATOM     18  C   UNL A   1      29.370  30.027  22.942  1.00  0.00    -0.047 A 
ATOM     19  C   UNL A   1      29.108  31.109  23.767  1.00  0.00     0.004 A 
ATOM     20  C   UNL A   1      28.955  30.140  21.602  1.00  0.00     0.004 A 
ATOM     21  C   UNL A   1      28.488  32.255  23.239  1.00  0.00     0.000 A 
ATOM     22  C   UNL A   1      28.350  31.264  21.062  1.00  0.00     0.000 A 
ATOM     23  C   UNL A   1      28.117  32.336  21.893  1.00  0.00     0.000 A 
ENDBRANCH  17  18
ENDBRANCH  16  17
ENDBRANCH  15  16
ENDBRANCH   7  15
ENDBRANCH   5   6
ENDBRANCH   3   5
ENDBRANCH   2   3
ENDBRANCH   1   2
BRANCH   1  24
ATOM     24  C   UNL A   1      32.422  30.798  27.025  1.00  0.00     0.275 C 
BRANCH  24  25
ATOM     25  O   UNL A   1      33.864  30.998  26.955  1.00  0.00    -0.458 OA
BRANCH  25  26
ATOM     26  C   UNL A   1      34.380  31.896  27.883  1.00  0.00     0.338 C 
ATOM     27  O   UNL A   1      33.964  33.012  28.073  1.00  0.00    -0.246 OA
BRANCH  26  28
ATOM     28  C   UNL A   1      35.546  31.309  28.644  1.00  0.00     0.060 A 
ATOM     29  C   UNL A   1      36.612  32.108  29.045  1.00  0.00     0.016 A 
ATOM     30  C   UNL A   1      35.636  29.935  28.898  1.00  0.00     0.016 A 
ATOM     31  C   UNL A   1      37.843  31.500  29.390  1.00  0.00     0.010 A 
ATOM     32  C   UNL A   1      36.862  29.334  29.302  1.00  0.00     0.010 A 
ATOM     33  C   UNL A   1      38.033  30.089  29.415  1.00  0.00    -0.014 A 
BRANCH  33  34
ATOM     34  C   UNL A   1      39.456  29.528  29.508  1.00  0.00     0.031 A 
ATOM     35  C   UNL A   1      39.974  29.534  30.913  1.00  0.00     0.074 A 
ATOM     36  C   UNL A   1      40.328  29.066  28.549  1.00  0.00     0.049 A 
ATOM     37  N   UNL A   1      40.980  30.195  31.396  1.00  0.00    -0.248 NA
ATOM     38  C   UNL A   1      39.163  28.846  31.934  1.00  0.00     0.031 C 
ATOM     39  C   UNL A   1      40.068  28.874  27.113  1.00  0.00     0.029 A 
ATOM     40  N   UNL A   1      41.668  28.654  28.629  1.00  0.00    -0.354 N 
ATOM     41  C   UNL A   1      41.053  29.826  32.733  1.00  0.00     0.074 A 
ATOM     42  C   UNL A   1      39.818  29.158  33.052  1.00  0.00     0.031 C 
ATOM     43  C   UNL A   1      41.116  28.286  26.507  1.00  0.00     0.029 A 
ATOM     44  C   UNL A   1      42.149  28.015  27.475  1.00  0.00     0.049 A 
ATOM     45  H   UNL A   1      42.223  28.801  29.430  1.00  0.00     0.167 HD
ATOM     46  C   UNL A   1      42.241  29.783  33.390  1.00  0.00     0.037 A 
ATOM     47  C   UNL A   1      43.289  27.311  27.208  1.00  0.00     0.037 A 
ATOM     48  C   UNL A   1      43.239  30.617  32.791  1.00  0.00     0.049 A 
ATOM     49  C   UNL A   1      44.347  27.770  28.124  1.00  0.00     0.074 A 
ATOM     50  C   UNL A   1      43.554  31.958  32.770  1.00  0.00     0.029 A 
ATOM     51  N   UNL A   1      43.939  30.019  31.784  1.00  0.00    -0.354 N 
ATOM     52  N   UNL A   1      44.938  28.928  28.021  1.00  0.00    -0.248 NA
ATOM     53  C   UNL A   1      44.572  27.052  29.373  1.00  0.00     0.031 C 
ATOM     54  C   UNL A   1      44.409  32.159  31.649  1.00  0.00     0.029 A 
ATOM     55  C   UNL A   1      44.617  30.933  31.025  1.00  0.00     0.049 A 
ATOM     56  H   UNL A   1      43.955  29.048  31.624  1.00  0.00     0.167 HD
ATOM     57  C   UNL A   1      45.226  29.267  29.323  1.00  0.00     0.074 A 
ATOM     58  C   UNL A   1      45.125  28.031  30.088  1.00  0.00     0.031 C 
ATOM     59  C   UNL A   1      45.155  30.560  29.737  1.00  0.00     0.037 A 
BRANCH  46  60
ATOM     60  C   UNL A   1      42.612  28.590  34.246  1.00  0.00     0.058 A 
ATOM     61  C   UNL A   1      42.951  28.747  35.601  1.00  0.00     0.135 A 
ATOM     62  C   UNL A   1      42.899  27.321  33.688  1.00  0.00     0.135 A 
ATOM     63  F   UNL A   1      42.795  29.934  36.210  1.00  0.00    -0.206 F 
ATOM     64  C   UNL A   1      43.513  27.708  36.351  1.00  0.00     0.059 A 
ATOM     65  C   UNL A   1      43.393  26.257  34.427  1.00  0.00     0.059 A 
ATOM     66  F   UNL A   1      42.807  27.085  32.373  1.00  0.00    -0.206 F 
ATOM     67  C   UNL A   1      43.717  26.462  35.756  1.00  0.00     0.060 A 
BRANCH  67  68
ATOM     68  S   UNL A   1      44.446  25.115  36.703  1.00  0.00     0.124 S 
ATOM     69  O   UNL A   1      44.071  23.956  35.903  1.00  0.00    -0.237 OA
ATOM     70  O   UNL A   1      45.861  25.472  36.693  1.00  0.00    -0.237 OA
ATOM     71  O   UNL A   1      43.790  25.226  38.002  1.00  0.00    -0.744 OA
ENDBRANCH  67  68
ENDBRANCH  46  60
BRANCH  47  72
ATOM     72  C   UNL A   1      43.484  26.133  26.287  1.00  0.00     0.058 A 
ATOM     73  C   UNL A   1      44.647  25.983  25.499  1.00  0.00     0.135 A 
ATOM     74  C   UNL A   1      42.673  24.979  26.371  1.00  0.00     0.135 A 
ATOM     75  F   UNL A   1      45.482  27.018  25.315  1.00  0.00    -0.206 F 
ATOM     76  C   UNL A   1      45.036  24.751  24.946  1.00  0.00     0.059 A 
ATOM     77  C   UNL A   1      43.028  23.751  25.814  1.00  0.00     0.059 A 
ATOM     78  F   UNL A   1      41.538  24.970  27.083  1.00  0.00    -0.206 F 
ATOM     79  C   UNL A   1      44.238  23.628  25.151  1.00  0.00     0.060 A 
BRANCH  79  80
ATOM     80  S   UNL A   1      44.858  21.983  24.717  1.00  0.00     0.124 S 
ATOM     81  O   UNL A   1      44.023  21.112  25.536  1.00  0.00    -0.237 OA
ATOM     82  O   UNL A   1      44.616  21.932  23.279  1.00  0.00    -0.237 OA
ATOM     83  O   UNL A   1      46.266  22.039  25.103  1.00  0.00    -0.744 OA
ENDBRANCH  79  80
ENDBRANCH  47  72
BRANCH  59  84
ATOM     84  C   UNL A   1      45.550  31.643  28.786  1.00  0.00     0.058 A 
ATOM     85  C   UNL A   1      46.856  31.946  28.375  1.00  0.00     0.135 A 
ATOM     86  C   UNL A   1      44.497  32.347  28.177  1.00  0.00     0.135 A 
ATOM     87  F   UNL A   1      47.907  31.281  28.881  1.00  0.00    -0.206 F 
ATOM     88  C   UNL A   1      47.101  32.912  27.392  1.00  0.00     0.059 A 
ATOM     89  C   UNL A   1      44.715  33.293  27.188  1.00  0.00     0.059 A 
ATOM     90  F   UNL A   1      43.224  32.079  28.515  1.00  0.00    -0.206 F 
ATOM     91  C   UNL A   1      46.021  33.574  26.798  1.00  0.00     0.060 A 
BRANCH  91  92
ATOM     92  S   UNL A   1      46.309  34.772  25.477  1.00  0.00     0.124 S 
ATOM     93  O   UNL A   1      45.894  36.026  26.097  1.00  0.00    -0.237 OA
ATOM     94  O   UNL A   1      47.737  34.622  25.220  1.00  0.00    -0.237 OA
ATOM     95  O   UNL A   1      45.445  34.302  24.395  1.00  0.00    -0.744 OA
ENDBRANCH  91  92
ENDBRANCH  59  84
ENDBRANCH  33  34
ENDBRANCH  26  28
ENDBRANCH  25  26
ENDBRANCH  24  25
ENDBRANCH   1  24
TORSDOF 19
ENDMDL
MODEL 3
REMARK VINA RESULT:     -11.9      2.863      9.366
REMARK SMILES O=C(Cn1c(SCCc2ccccc2)nc2ccccc21)OCCOC(=O)c1ccc(-c2c3nc(c(-c4c(F)cc(S(=O)(=O)[O-])cc4F)c4ccc([nH]4)c(-c4c(F)cc(S(=O)(=O)[O-])cc4F)c4nc(c(-c5c(F)cc(S(=O)(=O)[O-])cc5F)c5ccc2[nH]5)C=C4)C=C3)cc1
REMARK SMILES IDX 23 1 22 2 2 3 1 4 3 5 4 6 5 7 21 8 15 9 16 10 20 11 17 12
REMARK SMILES IDX 19 13 18 14 6 15 7 16 8 17 9 18 10 19 14 20 11 21 13 22
REMARK SMILES IDX 12 23 24 24 25 25 26 26 27 27 28 28 29 29 93 30 30 31 92 32
REMARK SMILES IDX 31 33 32 34 33 35 86 36 34 37 91 38 85 39 87 40 35 41 90 42
REMARK SMILES IDX 84 43 83 44 36 46 70 47 49 48 69 49 50 50 53 51 68 52 88 53
REMARK SMILES IDX 51 54 52 55 67 57 89 58 54 59 37 60 38 61 47 62 39 63 40 64
REMARK SMILES IDX 46 65 48 66 41 67 42 68 43 69 44 70 45 71 71 72 72 73 81 74
REMARK SMILES IDX 73 75 74 76 80 77 82 78 75 79 76 80 77 81 78 82 79 83 55 84
REMARK SMILES IDX 56 85 65 86 57 87 58 88 64 89 66 90 59 91 60 92 61 93 62 94
REMARK SMILES IDX 63 95
REMARK H PARENT 87 45 53 56
REMARK Flexibility Score: inf
ROOT
ATOM      1  C   UNL A   1      31.855  30.127  25.894  1.00  0.00     0.274 C 
ENDROOT
BRANCH   1   2
ATOM      2  O   UNL A   1      31.943  28.833  26.520  1.00  0.00    -0.461 OA
BRANCH   2   3
ATOM      3  C   UNL A   1      32.831  27.888  26.114  1.00  0.00     0.326 C 
ATOM      4  O   UNL A   1      33.999  28.211  25.936  1.00  0.00    -0.250 OA
BRANCH   3   5
ATOM      5  C   UNL A   1      32.262  26.582  25.681  1.00  0.00     0.247 C 
BRANCH   5   6
ATOM      6  N   UNL A   1      32.541  25.891  24.431  1.00  0.00    -0.308 N 
ATOM      7  C   UNL A   1      31.986  26.163  23.199  1.00  0.00     0.169 A 
ATOM      8  C   UNL A   1      32.805  24.513  24.433  1.00  0.00     0.069 A 
ATOM      9  N   UNL A   1      32.021  25.129  22.397  1.00  0.00    -0.222 NA
ATOM     10  C   UNL A   1      32.414  24.077  23.169  1.00  0.00     0.090 A 
ATOM     11  C   UNL A   1      33.182  23.612  25.443  1.00  0.00     0.028 A 
ATOM     12  C   UNL A   1      32.389  22.702  22.881  1.00  0.00     0.030 A 
ATOM     13  C   UNL A   1      33.102  22.243  25.156  1.00  0.00     0.002 A 
ATOM     14  C   UNL A   1      32.711  21.792  23.896  1.00  0.00     0.002 A 
BRANCH   7  15
ATOM     15  S   UNL A   1      31.318  27.667  22.720  1.00  0.00    -0.088 SA
BRANCH  15  16
ATOM     16  C   UNL A   1      29.661  27.761  23.443  1.00  0.00     0.083 C 
BRANCH  16  17
ATOM     17  C   UNL A   1      28.440  28.512  22.887  1.00  0.00     0.047 C 
BRANCH  17  18
ATOM     18  C   UNL A   1      28.329  29.975  22.530  1.00  0.00    -0.047 A 
ATOM     19  C   UNL A   1      28.046  30.450  21.259  1.00  0.00     0.004 A 
ATOM     20  C   UNL A   1      28.667  30.935  23.502  1.00  0.00     0.004 A 
ATOM     21  C   UNL A   1      28.074  31.833  21.010  1.00  0.00     0.000 A 
ATOM     22  C   UNL A   1      28.692  32.302  23.277  1.00  0.00     0.000 A 
ATOM     23  C   UNL A   1      28.387  32.756  22.013  1.00  0.00     0.000 A 
ENDBRANCH  17  18
ENDBRANCH  16  17
ENDBRANCH  15  16
ENDBRANCH   7  15
ENDBRANCH   5   6
ENDBRANCH   3   5
ENDBRANCH   2   3
ENDBRANCH   1   2
BRANCH   1  24
ATOM     24  C   UNL A   1      32.150  31.316  26.853  1.00  0.00     0.275 C 
BRANCH  24  25
ATOM     25  O   UNL A   1      33.128  31.086  27.909  1.00  0.00    -0.458 OA
BRANCH  25  26
ATOM     26  C   UNL A   1      33.959  32.165  28.187  1.00  0.00     0.338 C 
ATOM     27  O   UNL A   1      33.582  33.268  28.498  1.00  0.00    -0.246 OA
BRANCH  26  28
ATOM     28  C   UNL A   1      35.419  31.800  28.055  1.00  0.00     0.060 A 
ATOM     29  C   UNL A   1      35.810  30.652  27.372  1.00  0.00     0.016 A 
ATOM     30  C   UNL A   1      36.420  32.551  28.684  1.00  0.00     0.016 A 
ATOM     31  C   UNL A   1      37.104  30.121  27.591  1.00  0.00     0.010 A 
ATOM     32  C   UNL A   1      37.738  32.037  28.851  1.00  0.00     0.010 A 
ATOM     33  C   UNL A   1      38.067  30.745  28.434  1.00  0.00    -0.014 A 
BRANCH  33  34
ATOM     34  C   UNL A   1      39.318  29.961  28.845  1.00  0.00     0.031 A 
ATOM     35  C   UNL A   1      39.605  30.081  30.309  1.00  0.00     0.074 A 
ATOM     36  C   UNL A   1      40.218  29.216  28.116  1.00  0.00     0.049 A 
ATOM     37  N   UNL A   1      40.635  30.617  30.885  1.00  0.00    -0.248 NA
ATOM     38  C   UNL A   1      38.525  29.705  31.241  1.00  0.00     0.031 C 
ATOM     39  C   UNL A   1      40.149  28.864  26.689  1.00  0.00     0.029 A 
ATOM     40  N   UNL A   1      41.420  28.590  28.482  1.00  0.00    -0.354 N 
ATOM     41  C   UNL A   1      40.427  30.442  32.247  1.00  0.00     0.074 A 
ATOM     42  C   UNL A   1      39.050  30.056  32.414  1.00  0.00     0.031 C 
ATOM     43  C   UNL A   1      41.139  28.018  26.352  1.00  0.00     0.029 A 
ATOM     44  C   UNL A   1      41.937  27.712  27.514  1.00  0.00     0.049 A 
ATOM     45  H   UNL A   1      41.863  28.752  29.347  1.00  0.00     0.167 HD
ATOM     46  C   UNL A   1      41.467  30.286  33.107  1.00  0.00     0.037 A 
ATOM     47  C   UNL A   1      42.940  26.787  27.538  1.00  0.00     0.037 A 
ATOM     48  C   UNL A   1      42.691  30.833  32.604  1.00  0.00     0.049 A 
ATOM     49  C   UNL A   1      43.915  27.180  28.570  1.00  0.00     0.074 A 
ATOM     50  C   UNL A   1      43.266  32.080  32.486  1.00  0.00     0.029 A 
ATOM     51  N   UNL A   1      43.405  29.979  31.814  1.00  0.00    -0.354 N 
ATOM     52  N   UNL A   1      44.733  28.188  28.442  1.00  0.00    -0.248 NA
ATOM     53  C   UNL A   1      43.797  26.625  29.913  1.00  0.00     0.031 C 
ATOM     54  C   UNL A   1      44.306  31.959  31.521  1.00  0.00     0.029 A 
ATOM     55  C   UNL A   1      44.360  30.637  31.090  1.00  0.00     0.049 A 
ATOM     56  H   UNL A   1      43.251  29.008  31.772  1.00  0.00     0.167 HD
ATOM     57  C   UNL A   1      44.879  28.658  29.727  1.00  0.00     0.074 A 
ATOM     58  C   UNL A   1      44.417  27.585  30.598  1.00  0.00     0.031 C 
ATOM     59  C   UNL A   1      45.004  29.990  29.970  1.00  0.00     0.037 A 
BRANCH  46  60
ATOM     60  C   UNL A   1      41.456  29.185  34.146  1.00  0.00     0.058 A 
ATOM     61  C   UNL A   1      41.757  29.456  35.493  1.00  0.00     0.135 A 
ATOM     62  C   UNL A   1      41.415  27.814  33.795  1.00  0.00     0.135 A 
ATOM     63  F   UNL A   1      41.899  30.722  35.918  1.00  0.00    -0.206 F 
ATOM     64  C   UNL A   1      41.977  28.435  36.425  1.00  0.00     0.059 A 
ATOM     65  C   UNL A   1      41.564  26.787  34.713  1.00  0.00     0.059 A 
ATOM     66  F   UNL A   1      41.328  27.410  32.521  1.00  0.00    -0.206 F 
ATOM     67  C   UNL A   1      41.864  27.103  36.025  1.00  0.00     0.060 A 
BRANCH  67  68
ATOM     68  S   UNL A   1      42.152  25.776  37.207  1.00  0.00     0.124 S 
ATOM     69  O   UNL A   1      43.006  26.435  38.188  1.00  0.00    -0.237 OA
ATOM     70  O   UNL A   1      40.795  25.462  37.644  1.00  0.00    -0.237 OA
ATOM     71  O   UNL A   1      42.795  24.742  36.401  1.00  0.00    -0.744 OA
ENDBRANCH  67  68
ENDBRANCH  46  60
BRANCH  47  72
ATOM     72  C   UNL A   1      43.036  25.470  26.808  1.00  0.00     0.058 A 
ATOM     73  C   UNL A   1      43.590  25.372  25.512  1.00  0.00     0.135 A 
ATOM     74  C   UNL A   1      42.857  24.236  27.472  1.00  0.00     0.135 A 
ATOM     75  F   UNL A   1      43.779  26.472  24.767  1.00  0.00    -0.206 F 
ATOM     76  C   UNL A   1      44.046  24.157  24.972  1.00  0.00     0.059 A 
ATOM     77  C   UNL A   1      43.283  23.016  26.947  1.00  0.00     0.059 A 
ATOM     78  F   UNL A   1      42.342  24.172  28.707  1.00  0.00    -0.206 F 
ATOM     79  C   UNL A   1      43.929  22.989  25.721  1.00  0.00     0.060 A 
BRANCH  79  80
ATOM     80  S   UNL A   1      44.773  21.478  25.187  1.00  0.00     0.124 S 
ATOM     81  O   UNL A   1      43.914  20.435  25.735  1.00  0.00    -0.237 OA
ATOM     82  O   UNL A   1      44.762  21.618  23.735  1.00  0.00    -0.237 OA
ATOM     83  O   UNL A   1      46.091  21.590  25.808  1.00  0.00    -0.744 OA
ENDBRANCH  79  80
ENDBRANCH  47  72
BRANCH  59  84
ATOM     84  C   UNL A   1      45.748  30.834  28.987  1.00  0.00     0.058 A 
ATOM     85  C   UNL A   1      45.194  31.504  27.886  1.00  0.00     0.135 A 
ATOM     86  C   UNL A   1      47.110  31.049  29.260  1.00  0.00     0.135 A 
ATOM     87  F   UNL A   1      43.889  31.380  27.593  1.00  0.00    -0.206 F 
ATOM     88  C   UNL A   1      45.968  32.359  27.093  1.00  0.00     0.059 A 
ATOM     89  C   UNL A   1      47.890  31.907  28.501  1.00  0.00     0.059 A 
ATOM     90  F   UNL A   1      47.686  30.451  30.317  1.00  0.00    -0.206 F 
ATOM     91  C   UNL A   1      47.314  32.560  27.415  1.00  0.00     0.060 A 
BRANCH  91  92
ATOM     92  S   UNL A   1      48.313  33.714  26.448  1.00  0.00     0.124 S 
ATOM     93  O   UNL A   1      49.417  32.871  26.002  1.00  0.00    -0.237 OA
ATOM     94  O   UNL A   1      47.379  34.153  25.417  1.00  0.00    -0.237 OA
ATOM     95  O   UNL A   1      48.676  34.746  27.418  1.00  0.00    -0.744 OA
ENDBRANCH  91  92
ENDBRANCH  59  84
ENDBRANCH  33  34
ENDBRANCH  26  28
ENDBRANCH  25  26
ENDBRANCH  24  25
ENDBRANCH   1  24
TORSDOF 19
ENDMDL
