MODEL 1
REMARK VINA RESULT:     -13.5      0.000      0.000
REMARK SMILES Cc1ccc2c(c1)c(-c1ccnc3c(C)cccc13)c(C)n2CC(=O)OCCOC(=O)c1ccc(-c2c3nc(c(-c4c(F)cc(S(=O)(=O)[O-])cc4F)c4ccc([nH]4)c(-c4c(F)cc(S(=O)(=O)[O-])cc4F)c4nc(c(-c5c(F)cc(S(=O)(=O)[O-])cc5F)c5ccc2[nH]5)C=C4)C=C3)cc1
REMARK SMILES IDX 28 1 27 2 26 3 24 4 25 5 23 6 22 7 1 8 2 9 3 10 7 11 4 12
REMARK SMILES IDX 6 13 5 14 8 15 20 16 21 17 9 18 10 19 19 20 11 21 13 22
REMARK SMILES IDX 18 23 12 24 14 25 17 26 15 27 16 28 29 29 30 30 31 31 32 32
REMARK SMILES IDX 33 33 97 34 34 35 96 36 35 37 36 38 37 39 90 40 38 41 95 42
REMARK SMILES IDX 89 43 91 44 39 45 94 46 88 47 87 48 40 50 74 51 53 52 73 53
REMARK SMILES IDX 54 54 57 55 72 56 92 57 55 58 56 59 71 61 93 62 58 63 41 64
REMARK SMILES IDX 42 65 51 66 43 67 44 68 50 69 52 70 45 71 46 72 47 73 48 74
REMARK SMILES IDX 49 75 75 76 76 77 85 78 77 79 78 80 84 81 86 82 79 83 80 84
REMARK SMILES IDX 81 85 82 86 83 87 59 88 60 89 69 90 61 91 62 92 68 93 70 94
REMARK SMILES IDX 63 95 64 96 65 97 66 98 67 99
REMARK H PARENT 91 49 57 60
REMARK Flexibility Score: inf
ROOT
ATOM      1  C   UNL A   1      37.983  21.431  25.389  1.00  0.00     0.275 C 
ENDROOT
BRANCH   1   2
ATOM      2  C   UNL A   1      36.457  21.526  25.269  1.00  0.00     0.274 C 
BRANCH   2   3
ATOM      3  O   UNL A   1      36.029  22.846  24.836  1.00  0.00    -0.461 OA
BRANCH   3   4
ATOM      4  C   UNL A   1      35.796  22.968  23.505  1.00  0.00     0.326 C 
ATOM      5  O   UNL A   1      36.694  23.104  22.674  1.00  0.00    -0.250 OA
BRANCH   4   6
ATOM      6  C   UNL A   1      34.357  22.975  23.060  1.00  0.00     0.244 C 
BRANCH   6   7
ATOM      7  N   UNL A   1      33.376  23.876  23.663  1.00  0.00    -0.333 N 
ATOM      8  C   UNL A   1      29.322  22.733  27.419  1.00  0.00     0.044 C 
ATOM      9  C   UNL A   1      30.436  22.992  26.454  1.00  0.00    -0.050 A 
ATOM     10  C   UNL A   1      31.342  21.972  26.168  1.00  0.00     0.005 A 
ATOM     11  C   UNL A   1      30.557  24.239  25.819  1.00  0.00     0.014 A 
ATOM     12  C   UNL A   1      32.370  22.159  25.248  1.00  0.00     0.027 A 
ATOM     13  C   UNL A   1      31.614  24.462  24.917  1.00  0.00     0.008 A 
ATOM     14  C   UNL A   1      32.479  23.410  24.621  1.00  0.00     0.049 A 
ATOM     15  C   UNL A   1      32.086  25.596  24.209  1.00  0.00     0.011 A 
ATOM     16  C   UNL A   1      33.321  25.261  23.679  1.00  0.00     0.024 A 
ATOM     17  C   UNL A   1      34.365  26.224  23.249  1.00  0.00     0.065 C 
BRANCH  15  18
ATOM     18  C   UNL A   1      31.592  26.964  24.161  1.00  0.00    -0.005 A 
ATOM     19  C   UNL A   1      30.716  27.325  23.142  1.00  0.00     0.029 A 
ATOM     20  C   UNL A   1      31.912  27.881  25.195  1.00  0.00     0.008 A 
ATOM     21  C   UNL A   1      30.204  28.602  23.168  1.00  0.00     0.112 A 
ATOM     22  C   UNL A   1      31.356  29.176  25.109  1.00  0.00     0.074 A 
ATOM     23  C   UNL A   1      32.738  27.550  26.299  1.00  0.00     0.011 A 
ATOM     24  N   UNL A   1      30.522  29.521  24.104  1.00  0.00    -0.256 NA
ATOM     25  C   UNL A   1      31.684  30.107  26.108  1.00  0.00    -0.025 A 
ATOM     26  C   UNL A   1      33.033  28.477  27.289  1.00  0.00     0.001 A 
ATOM     27  C   UNL A   1      31.181  31.527  26.052  1.00  0.00     0.047 C 
ATOM     28  C   UNL A   1      32.518  29.757  27.186  1.00  0.00     0.005 A 
ENDBRANCH  15  18
ENDBRANCH   6   7
ENDBRANCH   4   6
ENDBRANCH   3   4
ENDBRANCH   2   3
ENDBRANCH   1   2
BRANCH   1  29
ATOM     29  O   UNL A   1      38.485  22.633  25.993  1.00  0.00    -0.458 OA
BRANCH  29  30
ATOM     30  C   UNL A   1      39.530  22.469  26.844  1.00  0.00     0.338 C 
ATOM     31  O   UNL A   1      40.226  21.490  26.977  1.00  0.00    -0.246 OA
BRANCH  30  32
ATOM     32  C   UNL A   1      39.937  23.835  27.230  1.00  0.00     0.060 A 
ATOM     33  C   UNL A   1      41.066  24.160  27.958  1.00  0.00     0.016 A 
ATOM     34  C   UNL A   1      38.985  24.809  26.957  1.00  0.00     0.016 A 
ATOM     35  C   UNL A   1      41.161  25.452  28.482  1.00  0.00     0.010 A 
ATOM     36  C   UNL A   1      39.058  26.084  27.481  1.00  0.00     0.010 A 
ATOM     37  C   UNL A   1      40.121  26.388  28.302  1.00  0.00    -0.014 A 
BRANCH  37  38
ATOM     38  C   UNL A   1      40.287  27.763  28.743  1.00  0.00     0.031 A 
ATOM     39  C   UNL A   1      41.470  28.396  28.131  1.00  0.00     0.074 A 
ATOM     40  C   UNL A   1      39.485  28.530  29.508  1.00  0.00     0.049 A 
ATOM     41  N   UNL A   1      42.645  28.451  28.653  1.00  0.00    -0.248 NA
ATOM     42  C   UNL A   1      41.394  28.857  26.741  1.00  0.00     0.031 C 
ATOM     43  C   UNL A   1      38.110  28.317  29.956  1.00  0.00     0.029 A 
ATOM     44  N   UNL A   1      39.802  29.747  30.042  1.00  0.00    -0.354 N 
ATOM     45  C   UNL A   1      43.428  29.142  27.747  1.00  0.00     0.074 A 
ATOM     46  C   UNL A   1      42.662  29.216  26.526  1.00  0.00     0.031 C 
ATOM     47  C   UNL A   1      37.663  29.441  30.577  1.00  0.00     0.029 A 
ATOM     48  C   UNL A   1      38.768  30.379  30.715  1.00  0.00     0.049 A 
ATOM     49  H   UNL A   1      40.699  30.146  29.956  1.00  0.00     0.167 HD
ATOM     50  C   UNL A   1      44.565  29.767  28.149  1.00  0.00     0.037 A 
ATOM     51  C   UNL A   1      38.843  31.577  31.351  1.00  0.00     0.037 A 
ATOM     52  C   UNL A   1      44.938  29.372  29.487  1.00  0.00     0.049 A 
ATOM     53  C   UNL A   1      40.270  31.791  31.716  1.00  0.00     0.074 A 
ATOM     54  C   UNL A   1      45.259  28.171  30.092  1.00  0.00     0.029 A 
ATOM     55  N   UNL A   1      44.626  30.236  30.510  1.00  0.00    -0.354 N 
ATOM     56  N   UNL A   1      40.917  31.082  32.599  1.00  0.00    -0.248 NA
ATOM     57  C   UNL A   1      41.103  32.593  30.834  1.00  0.00     0.031 C 
ATOM     58  C   UNL A   1      44.694  28.244  31.400  1.00  0.00     0.029 A 
ATOM     59  C   UNL A   1      44.092  29.497  31.537  1.00  0.00     0.049 A 
ATOM     60  H   UNL A   1      44.761  31.211  30.507  1.00  0.00     0.167 HD
ATOM     61  C   UNL A   1      42.217  31.020  32.125  1.00  0.00     0.074 A 
ATOM     62  C   UNL A   1      42.298  32.066  31.113  1.00  0.00     0.031 C 
ATOM     63  C   UNL A   1      43.026  29.957  32.406  1.00  0.00     0.037 A 
BRANCH  50  64
ATOM     64  C   UNL A   1      45.149  30.976  27.477  1.00  0.00     0.058 A 
ATOM     65  C   UNL A   1      46.462  30.912  26.971  1.00  0.00     0.135 A 
ATOM     66  C   UNL A   1      44.576  32.264  27.547  1.00  0.00     0.135 A 
ATOM     67  F   UNL A   1      47.100  29.736  26.874  1.00  0.00    -0.206 F 
ATOM     68  C   UNL A   1      47.180  32.054  26.625  1.00  0.00     0.059 A 
ATOM     69  C   UNL A   1      45.253  33.411  27.152  1.00  0.00     0.059 A 
ATOM     70  F   UNL A   1      43.374  32.482  28.098  1.00  0.00    -0.206 F 
ATOM     71  C   UNL A   1      46.570  33.301  26.736  1.00  0.00     0.060 A 
BRANCH  71  72
ATOM     72  S   UNL A   1      47.537  34.784  26.411  1.00  0.00     0.124 S 
ATOM     73  O   UNL A   1      48.170  34.442  25.144  1.00  0.00    -0.237 OA
ATOM     74  O   UNL A   1      46.504  35.813  26.355  1.00  0.00    -0.237 OA
ATOM     75  O   UNL A   1      48.429  34.861  27.565  1.00  0.00    -0.744 OA
ENDBRANCH  71  72
ENDBRANCH  50  64
BRANCH  51  76
ATOM     76  C   UNL A   1      37.838  32.665  31.468  1.00  0.00     0.058 A 
ATOM     77  C   UNL A   1      37.275  33.263  30.323  1.00  0.00     0.135 A 
ATOM     78  C   UNL A   1      37.175  32.910  32.685  1.00  0.00     0.135 A 
ATOM     79  F   UNL A   1      37.831  33.074  29.117  1.00  0.00    -0.206 F 
ATOM     80  C   UNL A   1      36.086  33.997  30.371  1.00  0.00     0.059 A 
ATOM     81  C   UNL A   1      35.991  33.645  32.758  1.00  0.00     0.059 A 
ATOM     82  F   UNL A   1      37.609  32.354  33.828  1.00  0.00    -0.206 F 
ATOM     83  C   UNL A   1      35.434  34.160  31.592  1.00  0.00     0.060 A 
BRANCH  83  84
ATOM     84  S   UNL A   1      33.802  34.938  31.624  1.00  0.00     0.124 S 
ATOM     85  O   UNL A   1      34.138  36.336  31.874  1.00  0.00    -0.237 OA
ATOM     86  O   UNL A   1      33.290  34.634  30.292  1.00  0.00    -0.237 OA
ATOM     87  O   UNL A   1      33.121  34.254  32.721  1.00  0.00    -0.744 OA
ENDBRANCH  83  84
ENDBRANCH  51  76
BRANCH  63  88
ATOM     88  C   UNL A   1      42.649  29.057  33.557  1.00  0.00     0.058 A 
ATOM     89  C   UNL A   1      41.718  28.006  33.485  1.00  0.00     0.135 A 
ATOM     90  C   UNL A   1      43.378  29.181  34.751  1.00  0.00     0.135 A 
ATOM     91  F   UNL A   1      41.044  27.756  32.352  1.00  0.00    -0.206 F 
ATOM     92  C   UNL A   1      41.505  27.138  34.559  1.00  0.00     0.059 A 
ATOM     93  C   UNL A   1      43.205  28.308  35.822  1.00  0.00     0.059 A 
ATOM     94  F   UNL A   1      44.318  30.136  34.869  1.00  0.00    -0.206 F 
ATOM     95  C   UNL A   1      42.261  27.292  35.722  1.00  0.00     0.060 A 
BRANCH  95  96
ATOM     96  S   UNL A   1      42.060  26.100  37.065  1.00  0.00     0.124 S 
ATOM     97  O   UNL A   1      40.662  26.284  37.437  1.00  0.00    -0.237 OA
ATOM     98  O   UNL A   1      42.383  24.832  36.416  1.00  0.00    -0.237 OA
ATOM     99  O   UNL A   1      43.034  26.542  38.062  1.00  0.00    -0.744 OA
ENDBRANCH  95  96
ENDBRANCH  63  88
ENDBRANCH  37  38
ENDBRANCH  30  32
ENDBRANCH  29  30
ENDBRANCH   1  29
TORSDOF 16
ENDMDL
MODEL 2
REMARK VINA RESULT:     -12.7      2.825      9.422
REMARK SMILES Cc1ccc2c(c1)c(-c1ccnc3c(C)cccc13)c(C)n2CC(=O)OCCOC(=O)c1ccc(-c2c3nc(c(-c4c(F)cc(S(=O)(=O)[O-])cc4F)c4ccc([nH]4)c(-c4c(F)cc(S(=O)(=O)[O-])cc4F)c4nc(c(-c5c(F)cc(S(=O)(=O)[O-])cc5F)c5ccc2[nH]5)C=C4)C=C3)cc1
REMARK SMILES IDX 28 1 27 2 26 3 24 4 25 5 23 6 22 7 1 8 2 9 3 10 7 11 4 12
REMARK SMILES IDX 6 13 5 14 8 15 20 16 21 17 9 18 10 19 19 20 11 21 13 22
REMARK SMILES IDX 18 23 12 24 14 25 17 26 15 27 16 28 29 29 30 30 31 31 32 32
REMARK SMILES IDX 33 33 97 34 34 35 96 36 35 37 36 38 37 39 90 40 38 41 95 42
REMARK SMILES IDX 89 43 91 44 39 45 94 46 88 47 87 48 40 50 74 51 53 52 73 53
REMARK SMILES IDX 54 54 57 55 72 56 92 57 55 58 56 59 71 61 93 62 58 63 41 64
REMARK SMILES IDX 42 65 51 66 43 67 44 68 50 69 52 70 45 71 46 72 47 73 48 74
REMARK SMILES IDX 49 75 75 76 76 77 85 78 77 79 78 80 84 81 86 82 79 83 80 84
REMARK SMILES IDX 81 85 82 86 83 87 59 88 60 89 69 90 61 91 62 92 68 93 70 94
REMARK SMILES IDX 63 95 64 96 65 97 66 98 67 99
REMARK H PARENT 91 49 57 60
REMARK Flexibility Score: inf
ROOT
ATOM      1  C   UNL A   1      34.320  33.301  28.505  1.00  0.00     0.275 C 
ENDROOT
BRANCH   1   2
ATOM      2  C   UNL A   1      34.605  32.058  27.655  1.00  0.00     0.274 C 
BRANCH   2   3
ATOM      3  O   UNL A   1      33.528  31.085  27.740  1.00  0.00    -0.461 OA
BRANCH   3   4
ATOM      4  C   UNL A   1      33.809  29.866  27.214  1.00  0.00     0.326 C 
ATOM      5  O   UNL A   1      34.402  28.986  27.837  1.00  0.00    -0.250 OA
BRANCH   4   6
ATOM      6  C   UNL A   1      33.398  29.626  25.785  1.00  0.00     0.244 C 
BRANCH   6   7
ATOM      7  N   UNL A   1      32.582  28.472  25.410  1.00  0.00    -0.333 N 
ATOM      8  C   UNL A   1      27.619  28.336  22.727  1.00  0.00     0.044 C 
ATOM      9  C   UNL A   1      28.952  28.423  23.400  1.00  0.00    -0.050 A 
ATOM     10  C   UNL A   1      29.593  29.658  23.487  1.00  0.00     0.005 A 
ATOM     11  C   UNL A   1      29.545  27.282  23.965  1.00  0.00     0.014 A 
ATOM     12  C   UNL A   1      30.817  29.790  24.137  1.00  0.00     0.027 A 
ATOM     13  C   UNL A   1      30.801  27.386  24.591  1.00  0.00     0.008 A 
ATOM     14  C   UNL A   1      31.398  28.641  24.697  1.00  0.00     0.049 A 
ATOM     15  C   UNL A   1      31.709  26.450  25.148  1.00  0.00     0.011 A 
ATOM     16  C   UNL A   1      32.897  27.123  25.381  1.00  0.00     0.024 A 
ATOM     17  C   UNL A   1      34.230  26.489  25.537  1.00  0.00     0.065 C 
BRANCH  15  18
ATOM     18  C   UNL A   1      31.623  25.003  25.283  1.00  0.00    -0.005 A 
ATOM     19  C   UNL A   1      31.017  24.471  26.417  1.00  0.00     0.029 A 
ATOM     20  C   UNL A   1      32.051  24.155  24.230  1.00  0.00     0.008 A 
ATOM     21  C   UNL A   1      30.879  23.104  26.481  1.00  0.00     0.112 A 
ATOM     22  C   UNL A   1      31.891  22.764  24.410  1.00  0.00     0.074 A 
ATOM     23  C   UNL A   1      32.607  24.641  23.019  1.00  0.00     0.011 A 
ATOM     24  N   UNL A   1      31.318  22.258  25.524  1.00  0.00    -0.256 NA
ATOM     25  C   UNL A   1      32.335  21.907  23.390  1.00  0.00    -0.025 A 
ATOM     26  C   UNL A   1      33.019  23.779  22.012  1.00  0.00     0.001 A 
ATOM     27  C   UNL A   1      32.256  20.409  23.536  1.00  0.00     0.047 C 
ATOM     28  C   UNL A   1      32.897  22.414  22.204  1.00  0.00     0.005 A 
ENDBRANCH  15  18
ENDBRANCH   6   7
ENDBRANCH   4   6
ENDBRANCH   3   4
ENDBRANCH   2   3
ENDBRANCH   1   2
BRANCH   1  29
ATOM     29  O   UNL A   1      35.409  33.513  29.415  1.00  0.00    -0.458 OA
BRANCH  29  30
ATOM     30  C   UNL A   1      35.326  32.848  30.595  1.00  0.00     0.338 C 
ATOM     31  O   UNL A   1      34.337  32.651  31.263  1.00  0.00    -0.246 OA
BRANCH  30  32
ATOM     32  C   UNL A   1      36.554  32.031  30.670  1.00  0.00     0.060 A 
ATOM     33  C   UNL A   1      37.843  32.526  30.733  1.00  0.00     0.016 A 
ATOM     34  C   UNL A   1      36.343  30.670  30.493  1.00  0.00     0.016 A 
ATOM     35  C   UNL A   1      38.900  31.638  30.514  1.00  0.00     0.010 A 
ATOM     36  C   UNL A   1      37.375  29.784  30.260  1.00  0.00     0.010 A 
ATOM     37  C   UNL A   1      38.658  30.283  30.207  1.00  0.00    -0.014 A 
BRANCH  37  38
ATOM     38  C   UNL A   1      39.764  29.345  30.105  1.00  0.00     0.031 A 
ATOM     39  C   UNL A   1      40.280  28.960  31.433  1.00  0.00     0.074 A 
ATOM     40  C   UNL A   1      40.280  28.728  29.024  1.00  0.00     0.049 A 
ATOM     41  N   UNL A   1      41.263  29.520  32.046  1.00  0.00    -0.248 NA
ATOM     42  C   UNL A   1      39.532  27.984  32.233  1.00  0.00     0.031 C 
ATOM     43  C   UNL A   1      39.776  28.623  27.656  1.00  0.00     0.029 A 
ATOM     44  N   UNL A   1      41.444  28.013  28.983  1.00  0.00    -0.354 N 
ATOM     45  C   UNL A   1      41.404  28.833  33.238  1.00  0.00     0.074 A 
ATOM     46  C   UNL A   1      40.219  28.021  33.378  1.00  0.00     0.031 C 
ATOM     47  C   UNL A   1      40.561  27.765  26.954  1.00  0.00     0.029 A 
ATOM     48  C   UNL A   1      41.709  27.395  27.770  1.00  0.00     0.049 A 
ATOM     49  H   UNL A   1      42.050  27.942  29.756  1.00  0.00     0.167 HD
ATOM     50  C   UNL A   1      42.585  28.846  33.910  1.00  0.00     0.037 A 
ATOM     51  C   UNL A   1      42.809  26.656  27.474  1.00  0.00     0.037 A 
ATOM     52  C   UNL A   1      43.482  29.845  33.378  1.00  0.00     0.049 A 
ATOM     53  C   UNL A   1      43.897  27.101  28.386  1.00  0.00     0.074 A 
ATOM     54  C   UNL A   1      43.429  31.219  33.230  1.00  0.00     0.029 A 
ATOM     55  N   UNL A   1      44.475  29.414  32.529  1.00  0.00    -0.354 N 
ATOM     56  N   UNL A   1      44.457  28.278  28.341  1.00  0.00    -0.248 NA
ATOM     57  C   UNL A   1      44.138  26.347  29.606  1.00  0.00     0.031 C 
ATOM     58  C   UNL A   1      44.074  31.490  31.987  1.00  0.00     0.029 A 
ATOM     59  C   UNL A   1      44.517  30.275  31.460  1.00  0.00     0.049 A 
ATOM     60  H   UNL A   1      45.052  28.629  32.664  1.00  0.00     0.167 HD
ATOM     61  C   UNL A   1      44.763  28.580  29.658  1.00  0.00     0.074 A 
ATOM     62  C   UNL A   1      44.660  27.311  30.367  1.00  0.00     0.031 C 
ATOM     63  C   UNL A   1      44.809  29.872  30.098  1.00  0.00     0.037 A 
BRANCH  50  64
ATOM     64  C   UNL A   1      43.056  27.744  34.814  1.00  0.00     0.058 A 
ATOM     65  C   UNL A   1      43.307  28.031  36.170  1.00  0.00     0.135 A 
ATOM     66  C   UNL A   1      43.523  26.496  34.350  1.00  0.00     0.135 A 
ATOM     67  F   UNL A   1      42.913  29.197  36.706  1.00  0.00    -0.206 F 
ATOM     68  C   UNL A   1      44.031  27.169  36.990  1.00  0.00     0.059 A 
ATOM     69  C   UNL A   1      44.196  25.594  35.165  1.00  0.00     0.059 A 
ATOM     70  F   UNL A   1      43.440  26.136  33.063  1.00  0.00    -0.206 F 
ATOM     71  C   UNL A   1      44.486  25.959  36.470  1.00  0.00     0.060 A 
BRANCH  71  72
ATOM     72  S   UNL A   1      45.529  24.904  37.488  1.00  0.00     0.124 S 
ATOM     73  O   UNL A   1      46.851  25.453  37.210  1.00  0.00    -0.237 OA
ATOM     74  O   UNL A   1      45.000  25.153  38.825  1.00  0.00    -0.237 OA
ATOM     75  O   UNL A   1      45.274  23.568  36.958  1.00  0.00    -0.744 OA
ENDBRANCH  71  72
ENDBRANCH  50  64
BRANCH  51  76
ATOM     76  C   UNL A   1      42.947  25.436  26.635  1.00  0.00     0.058 A 
ATOM     77  C   UNL A   1      43.801  25.416  25.515  1.00  0.00     0.135 A 
ATOM     78  C   UNL A   1      42.504  24.184  27.100  1.00  0.00     0.135 A 
ATOM     79  F   UNL A   1      44.284  26.561  25.010  1.00  0.00    -0.206 F 
ATOM     80  C   UNL A   1      44.247  24.223  24.936  1.00  0.00     0.059 A 
ATOM     81  C   UNL A   1      42.930  22.981  26.534  1.00  0.00     0.059 A 
ATOM     82  F   UNL A   1      41.718  24.093  28.185  1.00  0.00    -0.206 F 
ATOM     83  C   UNL A   1      43.828  23.008  25.472  1.00  0.00     0.060 A 
BRANCH  83  84
ATOM     84  S   UNL A   1      44.556  21.472  24.853  1.00  0.00     0.124 S 
ATOM     85  O   UNL A   1      43.576  20.479  25.279  1.00  0.00    -0.237 OA
ATOM     86  O   UNL A   1      44.626  21.723  23.417  1.00  0.00    -0.237 OA
ATOM     87  O   UNL A   1      45.846  21.408  25.535  1.00  0.00    -0.744 OA
ENDBRANCH  83  84
ENDBRANCH  51  76
BRANCH  63  88
ATOM     88  C   UNL A   1      44.933  30.972  29.073  1.00  0.00     0.058 A 
ATOM     89  C   UNL A   1      46.143  31.414  28.509  1.00  0.00     0.135 A 
ATOM     90  C   UNL A   1      43.748  31.503  28.536  1.00  0.00     0.135 A 
ATOM     91  F   UNL A   1      47.317  30.894  28.897  1.00  0.00    -0.206 F 
ATOM     92  C   UNL A   1      46.171  32.358  27.479  1.00  0.00     0.059 A 
ATOM     93  C   UNL A   1      43.752  32.420  27.488  1.00  0.00     0.059 A 
ATOM     94  F   UNL A   1      42.556  31.087  28.998  1.00  0.00    -0.206 F 
ATOM     95  C   UNL A   1      44.969  32.849  26.968  1.00  0.00     0.060 A 
BRANCH  95  96
ATOM     96  S   UNL A   1      45.008  33.984  25.563  1.00  0.00     0.124 S 
ATOM     97  O   UNL A   1      44.166  35.080  26.027  1.00  0.00    -0.237 OA
ATOM     98  O   UNL A   1      46.431  34.285  25.437  1.00  0.00    -0.237 OA
ATOM     99  O   UNL A   1      44.451  33.191  24.468  1.00  0.00    -0.744 OA
ENDBRANCH  95  96
ENDBRANCH  63  88
ENDBRANCH  37  38
ENDBRANCH  30  32
ENDBRANCH  29  30
ENDBRANCH   1  29
TORSDOF 16
ENDMDL
MODEL 3
REMARK VINA RESULT:     -12.7      2.072      3.419
REMARK SMILES Cc1ccc2c(c1)c(-c1ccnc3c(C)cccc13)c(C)n2CC(=O)OCCOC(=O)c1ccc(-c2c3nc(c(-c4c(F)cc(S(=O)(=O)[O-])cc4F)c4ccc([nH]4)c(-c4c(F)cc(S(=O)(=O)[O-])cc4F)c4nc(c(-c5c(F)cc(S(=O)(=O)[O-])cc5F)c5ccc2[nH]5)C=C4)C=C3)cc1
REMARK SMILES IDX 28 1 27 2 26 3 24 4 25 5 23 6 22 7 1 8 2 9 3 10 7 11 4 12
REMARK SMILES IDX 6 13 5 14 8 15 20 16 21 17 9 18 10 19 19 20 11 21 13 22
REMARK SMILES IDX 18 23 12 24 14 25 17 26 15 27 16 28 29 29 30 30 31 31 32 32
REMARK SMILES IDX 33 33 97 34 34 35 96 36 35 37 36 38 37 39 90 40 38 41 95 42
REMARK SMILES IDX 89 43 91 44 39 45 94 46 88 47 87 48 40 50 74 51 53 52 73 53
REMARK SMILES IDX 54 54 57 55 72 56 92 57 55 58 56 59 71 61 93 62 58 63 41 64
REMARK SMILES IDX 42 65 51 66 43 67 44 68 50 69 52 70 45 71 46 72 47 73 48 74
REMARK SMILES IDX 49 75 75 76 76 77 85 78 77 79 78 80 84 81 86 82 79 83 80 84
REMARK SMILES IDX 81 85 82 86 83 87 59 88 60 89 69 90 61 91 62 92 68 93 70 94
REMARK SMILES IDX 63 95 64 96 65 97 66 98 67 99
REMARK H PARENT 91 49 57 60
REMARK Flexibility Score: inf
ROOT
ATOM      1  C   UNL A   1      41.880  21.070  26.683  1.00  0.00     0.275 C 
ENDROOT
BRANCH   1   2
ATOM      2  C   UNL A   1      40.430  20.840  27.127  1.00  0.00     0.274 C 
BRANCH   2   3
ATOM      3  O   UNL A   1      39.518  20.798  25.996  1.00  0.00    -0.461 OA
BRANCH   3   4
ATOM      4  C   UNL A   1      38.736  21.897  25.845  1.00  0.00     0.326 C 
ATOM      5  O   UNL A   1      38.755  22.848  26.626  1.00  0.00    -0.250 OA
BRANCH   4   6
ATOM      6  C   UNL A   1      37.782  21.903  24.679  1.00  0.00     0.244 C 
BRANCH   6   7
ATOM      7  N   UNL A   1      36.340  21.756  24.873  1.00  0.00    -0.333 N 
ATOM      8  C   UNL A   1      33.171  17.092  24.671  1.00  0.00     0.044 C 
ATOM      9  C   UNL A   1      34.059  18.293  24.752  1.00  0.00    -0.050 A 
ATOM     10  C   UNL A   1      35.442  18.124  24.691  1.00  0.00     0.005 A 
ATOM     11  C   UNL A   1      33.512  19.581  24.861  1.00  0.00     0.014 A 
ATOM     12  C   UNL A   1      36.303  19.217  24.726  1.00  0.00     0.027 A 
ATOM     13  C   UNL A   1      34.366  20.697  24.940  1.00  0.00     0.008 A 
ATOM     14  C   UNL A   1      35.742  20.499  24.835  1.00  0.00     0.049 A 
ATOM     15  C   UNL A   1      34.165  22.083  25.161  1.00  0.00     0.011 A 
ATOM     16  C   UNL A   1      35.410  22.645  25.390  1.00  0.00     0.024 A 
ATOM     17  C   UNL A   1      35.660  23.934  26.081  1.00  0.00     0.065 C 
BRANCH  15  18
ATOM     18  C   UNL A   1      32.945  22.848  25.366  1.00  0.00    -0.005 A 
ATOM     19  C   UNL A   1      32.304  22.771  26.599  1.00  0.00     0.029 A 
ATOM     20  C   UNL A   1      32.477  23.740  24.367  1.00  0.00     0.008 A 
ATOM     21  C   UNL A   1      31.198  23.566  26.791  1.00  0.00     0.112 A 
ATOM     22  C   UNL A   1      31.315  24.488  24.655  1.00  0.00     0.074 A 
ATOM     23  C   UNL A   1      33.128  23.919  23.120  1.00  0.00     0.011 A 
ATOM     24  N   UNL A   1      30.691  24.390  25.849  1.00  0.00    -0.256 NA
ATOM     25  C   UNL A   1      30.820  25.355  23.667  1.00  0.00    -0.025 A 
ATOM     26  C   UNL A   1      32.638  24.798  22.164  1.00  0.00     0.001 A 
ATOM     27  C   UNL A   1      29.550  26.138  23.876  1.00  0.00     0.047 C 
ATOM     28  C   UNL A   1      31.478  25.503  22.432  1.00  0.00     0.005 A 
ENDBRANCH  15  18
ENDBRANCH   6   7
ENDBRANCH   4   6
ENDBRANCH   3   4
ENDBRANCH   2   3
ENDBRANCH   1   2
BRANCH   1  29
ATOM     29  O   UNL A   1      42.331  22.339  27.180  1.00  0.00    -0.458 OA
BRANCH  29  30
ATOM     30  C   UNL A   1      42.587  23.281  26.237  1.00  0.00     0.338 C 
ATOM     31  O   UNL A   1      42.854  23.104  25.071  1.00  0.00    -0.246 OA
BRANCH  30  32
ATOM     32  C   UNL A   1      42.034  24.538  26.780  1.00  0.00     0.060 A 
ATOM     33  C   UNL A   1      41.317  25.475  26.061  1.00  0.00     0.016 A 
ATOM     34  C   UNL A   1      42.440  24.822  28.078  1.00  0.00     0.016 A 
ATOM     35  C   UNL A   1      41.111  26.730  26.640  1.00  0.00     0.010 A 
ATOM     36  C   UNL A   1      42.257  26.062  28.656  1.00  0.00     0.010 A 
ATOM     37  C   UNL A   1      41.645  27.043  27.908  1.00  0.00    -0.014 A 
BRANCH  37  38
ATOM     38  C   UNL A   1      41.317  28.305  28.551  1.00  0.00     0.031 A 
ATOM     39  C   UNL A   1      42.382  29.308  28.363  1.00  0.00     0.074 A 
ATOM     40  C   UNL A   1      40.184  28.694  29.167  1.00  0.00     0.049 A 
ATOM     41  N   UNL A   1      43.348  29.539  29.182  1.00  0.00    -0.248 NA
ATOM     42  C   UNL A   1      42.491  30.000  27.074  1.00  0.00     0.031 C 
ATOM     43  C   UNL A   1      38.859  28.078  29.202  1.00  0.00     0.029 A 
ATOM     44  N   UNL A   1      40.022  29.824  29.919  1.00  0.00    -0.354 N 
ATOM     45  C   UNL A   1      44.089  30.559  28.614  1.00  0.00     0.074 A 
ATOM     46  C   UNL A   1      43.624  30.685  27.254  1.00  0.00     0.031 C 
ATOM     47  C   UNL A   1      37.990  28.919  29.821  1.00  0.00     0.029 A 
ATOM     48  C   UNL A   1      38.729  30.048  30.368  1.00  0.00     0.049 A 
ATOM     49  H   UNL A   1      40.767  30.434  30.127  1.00  0.00     0.167 HD
ATOM     50  C   UNL A   1      44.887  31.346  29.382  1.00  0.00     0.037 A 
ATOM     51  C   UNL A   1      38.324  31.081  31.151  1.00  0.00     0.037 A 
ATOM     52  C   UNL A   1      45.047  30.797  30.708  1.00  0.00     0.049 A 
ATOM     53  C   UNL A   1      39.515  31.554  31.907  1.00  0.00     0.074 A 
ATOM     54  C   UNL A   1      45.548  29.613  31.216  1.00  0.00     0.029 A 
ATOM     55  N   UNL A   1      44.286  31.346  31.714  1.00  0.00    -0.354 N 
ATOM     56  N   UNL A   1      40.121  30.861  32.830  1.00  0.00    -0.248 NA
ATOM     57  C   UNL A   1      40.266  32.687  31.390  1.00  0.00     0.031 C 
ATOM     58  C   UNL A   1      44.708  29.293  32.325  1.00  0.00     0.029 A 
ATOM     59  C   UNL A   1      43.765  30.315  32.456  1.00  0.00     0.049 A 
ATOM     60  H   UNL A   1      44.141  32.306  31.873  1.00  0.00     0.167 HD
ATOM     61  C   UNL A   1      41.459  31.204  32.716  1.00  0.00     0.074 A 
ATOM     62  C   UNL A   1      41.467  32.416  31.906  1.00  0.00     0.031 C 
ATOM     63  C   UNL A   1      42.448  30.330  33.063  1.00  0.00     0.037 A 
BRANCH  50  64
ATOM     64  C   UNL A   1      45.244  32.767  29.052  1.00  0.00     0.058 A 
ATOM     65  C   UNL A   1      44.228  33.741  29.030  1.00  0.00     0.135 A 
ATOM     66  C   UNL A   1      46.484  33.155  28.501  1.00  0.00     0.135 A 
ATOM     67  F   UNL A   1      43.008  33.468  29.519  1.00  0.00    -0.206 F 
ATOM     68  C   UNL A   1      44.409  34.990  28.439  1.00  0.00     0.059 A 
ATOM     69  C   UNL A   1      46.705  34.414  27.959  1.00  0.00     0.059 A 
ATOM     70  F   UNL A   1      47.505  32.298  28.367  1.00  0.00    -0.206 F 
ATOM     71  C   UNL A   1      45.649  35.308  27.891  1.00  0.00     0.060 A 
BRANCH  71  72
ATOM     72  S   UNL A   1      45.846  36.869  27.016  1.00  0.00     0.124 S 
ATOM     73  O   UNL A   1      46.549  37.669  28.011  1.00  0.00    -0.237 OA
ATOM     74  O   UNL A   1      46.627  36.466  25.851  1.00  0.00    -0.237 OA
ATOM     75  O   UNL A   1      44.471  37.271  26.734  1.00  0.00    -0.744 OA
ENDBRANCH  71  72
ENDBRANCH  50  64
BRANCH  51  76
ATOM     76  C   UNL A   1      37.054  31.855  31.135  1.00  0.00     0.058 A 
ATOM     77  C   UNL A   1      36.193  31.862  32.250  1.00  0.00     0.135 A 
ATOM     78  C   UNL A   1      36.825  32.849  30.167  1.00  0.00     0.135 A 
ATOM     79  F   UNL A   1      36.345  30.959  33.231  1.00  0.00    -0.206 F 
ATOM     80  C   UNL A   1      35.211  32.842  32.430  1.00  0.00     0.059 A 
ATOM     81  C   UNL A   1      35.846  33.833  30.321  1.00  0.00     0.059 A 
ATOM     82  F   UNL A   1      37.614  32.952  29.086  1.00  0.00    -0.206 F 
ATOM     83  C   UNL A   1      35.064  33.842  31.471  1.00  0.00     0.060 A 
BRANCH  83  84
ATOM     84  S   UNL A   1      33.933  35.217  31.796  1.00  0.00     0.124 S 
ATOM     85  O   UNL A   1      32.828  34.546  32.471  1.00  0.00    -0.237 OA
ATOM     86  O   UNL A   1      34.749  36.095  32.629  1.00  0.00    -0.237 OA
ATOM     87  O   UNL A   1      33.631  35.730  30.462  1.00  0.00    -0.744 OA
ENDBRANCH  83  84
ENDBRANCH  51  76
BRANCH  63  88
ATOM     88  C   UNL A   1      42.091  29.159  33.945  1.00  0.00     0.058 A 
ATOM     89  C   UNL A   1      41.750  27.876  33.481  1.00  0.00     0.135 A 
ATOM     90  C   UNL A   1      42.244  29.315  35.333  1.00  0.00     0.135 A 
ATOM     91  F   UNL A   1      41.673  27.615  32.168  1.00  0.00    -0.206 F 
ATOM     92  C   UNL A   1      41.546  26.808  34.359  1.00  0.00     0.059 A 
ATOM     93  C   UNL A   1      42.077  28.257  36.223  1.00  0.00     0.059 A 
ATOM     94  F   UNL A   1      42.615  30.504  35.839  1.00  0.00    -0.206 F 
ATOM     95  C   UNL A   1      41.720  27.006  35.729  1.00  0.00     0.060 A 
BRANCH  95  96
ATOM     96  S   UNL A   1      41.564  25.597  36.849  1.00  0.00     0.124 S 
ATOM     97  O   UNL A   1      41.309  24.495  35.927  1.00  0.00    -0.237 OA
ATOM     98  O   UNL A   1      42.861  25.577  37.518  1.00  0.00    -0.237 OA
ATOM     99  O   UNL A   1      40.438  25.964  37.705  1.00  0.00    -0.744 OA
ENDBRANCH  95  96
ENDBRANCH  63  88
ENDBRANCH  37  38
ENDBRANCH  30  32
ENDBRANCH  29  30
ENDBRANCH   1  29
TORSDOF 16
ENDMDL
