MODEL 1
REMARK VINA RESULT:     -11.6      0.000      0.000
REMARK SMILES CS(=O)(=O)c1ccc(/C=C(/C(=O)OCCOC(=O)c2ccc(-c3c4nc(c(-c5c(F)cc(S(=O)(=O)[O-])cc5F)c5ccc([nH]5)c(-c5c(F)cc(S(=O)(=O)[O-])cc5F)c5nc(c(-c6c(F)cc(S(=O)(=O)[O-])cc6F)c6ccc3[nH]6)C=C5)C=C4)cc2)c2ccccc2)cc1
REMARK SMILES IDX 15 1 14 2 13 3 11 4 12 5 10 6 9 7 8 8 5 9 6 10 92 11 7 12
REMARK SMILES IDX 91 13 2 14 1 15 3 16 4 17 85 18 86 19 90 20 87 21 89 22
REMARK SMILES IDX 88 23 16 24 17 25 18 26 19 27 20 28 84 29 21 30 83 31 22 32
REMARK SMILES IDX 23 33 24 34 77 35 25 36 82 37 76 38 78 39 26 40 81 41 75 42
REMARK SMILES IDX 74 43 27 45 61 46 40 47 60 48 41 49 44 50 59 51 79 52 42 53
REMARK SMILES IDX 43 54 58 56 80 57 45 58 28 59 29 60 38 61 30 62 31 63 37 64
REMARK SMILES IDX 39 65 32 66 33 67 34 68 35 69 36 70 62 71 63 72 72 73 64 74
REMARK SMILES IDX 65 75 71 76 73 77 66 78 67 79 68 80 69 81 70 82 46 83 47 84
REMARK SMILES IDX 56 85 48 86 49 87 55 88 57 89 50 90 51 91 52 92 53 93 54 94
REMARK H PARENT 78 44 44 55
REMARK Flexibility Score: inf
ROOT
ATOM      1  C   UNL A   1      36.039  23.014  24.872  1.00  0.00     0.275 C 
ENDROOT
BRANCH   1   2
ATOM      2  C   UNL A   1      35.150  22.970  26.113  1.00  0.00     0.275 C 
BRANCH   2   3
ATOM      3  O   UNL A   1      34.369  24.178  26.228  1.00  0.00    -0.458 OA
BRANCH   3   4
ATOM      4  C   UNL A   1      33.063  24.057  25.873  1.00  0.00     0.338 C 
ATOM      5  O   UNL A   1      32.380  23.053  26.016  1.00  0.00    -0.246 OA
BRANCH   4   6
ATOM      6  C   UNL A   1      32.519  25.323  25.295  1.00  0.00     0.067 C 
ATOM      7  C   UNL A   1      31.728  25.242  24.199  1.00  0.00     0.024 C 
BRANCH   7   8
ATOM      8  C   UNL A   1      30.851  26.289  23.618  1.00  0.00    -0.025 A 
ATOM      9  C   UNL A   1      29.136  28.387  22.870  1.00  0.00     0.067 A 
ATOM     10  C   UNL A   1      30.459  28.397  22.448  1.00  0.00     0.021 A 
ATOM     11  C   UNL A   1      28.628  27.294  23.574  1.00  0.00     0.021 A 
ATOM     12  C   UNL A   1      31.295  27.336  22.797  1.00  0.00     0.009 A 
ATOM     13  C   UNL A   1      29.487  26.256  23.950  1.00  0.00     0.009 A 
BRANCH   9  14
ATOM     14  S   UNL A   1      28.089  29.777  22.530  1.00  0.00     0.175 S 
ATOM     15  C   UNL A   1      28.936  31.115  23.333  1.00  0.00     0.163 C 
ATOM     16  O   UNL A   1      26.835  29.553  23.217  1.00  0.00    -0.224 OA
ATOM     17  O   UNL A   1      28.122  30.027  21.098  1.00  0.00    -0.224 OA
ENDBRANCH   9  14
ENDBRANCH   7   8
BRANCH   6  18
ATOM     18  C   UNL A   1      32.724  26.571  26.053  1.00  0.00    -0.011 A 
ATOM     19  C   UNL A   1      33.879  27.335  25.823  1.00  0.00     0.009 A 
ATOM     20  C   UNL A   1      31.754  27.045  26.944  1.00  0.00     0.009 A 
ATOM     21  C   UNL A   1      34.036  28.579  26.436  1.00  0.00     0.001 A 
ATOM     22  C   UNL A   1      31.923  28.281  27.570  1.00  0.00     0.001 A 
ATOM     23  C   UNL A   1      33.056  29.052  27.308  1.00  0.00     0.000 A 
ENDBRANCH   6  18
ENDBRANCH   4   6
ENDBRANCH   3   4
ENDBRANCH   2   3
ENDBRANCH   1   2
BRANCH   1  24
ATOM     24  O   UNL A   1      37.170  23.868  25.112  1.00  0.00    -0.458 OA
BRANCH  24  25
ATOM     25  C   UNL A   1      38.266  23.262  25.625  1.00  0.00     0.338 C 
ATOM     26  O   UNL A   1      38.654  22.127  25.395  1.00  0.00    -0.246 OA
BRANCH  25  27
ATOM     27  C   UNL A   1      38.990  24.182  26.522  1.00  0.00     0.060 A 
ATOM     28  C   UNL A   1      38.764  24.142  27.893  1.00  0.00     0.016 A 
ATOM     29  C   UNL A   1      39.768  25.206  25.980  1.00  0.00     0.016 A 
ATOM     30  C   UNL A   1      39.190  25.201  28.694  1.00  0.00     0.010 A 
ATOM     31  C   UNL A   1      40.294  26.204  26.814  1.00  0.00     0.010 A 
ATOM     32  C   UNL A   1      39.958  26.256  28.178  1.00  0.00    -0.014 A 
BRANCH  32  33
ATOM     33  C   UNL A   1      40.344  27.428  29.034  1.00  0.00     0.031 A 
ATOM     34  C   UNL A   1      41.672  27.447  29.764  1.00  0.00     0.074 A 
ATOM     35  C   UNL A   1      39.535  28.503  29.153  1.00  0.00     0.049 A 
ATOM     36  N   UNL A   1      42.080  28.242  30.723  1.00  0.00    -0.248 NA
ATOM     37  C   UNL A   1      42.665  26.431  29.378  1.00  0.00     0.031 C 
ATOM     38  C   UNL A   1      38.246  28.680  28.482  1.00  0.00     0.029 A 
ATOM     39  N   UNL A   1      39.687  29.665  29.874  1.00  0.00    -0.354 N 
ATOM     40  C   UNL A   1      43.328  27.765  31.116  1.00  0.00     0.074 A 
ATOM     41  C   UNL A   1      43.621  26.622  30.278  1.00  0.00     0.031 C 
ATOM     42  C   UNL A   1      37.761  29.897  28.764  1.00  0.00     0.029 A 
ATOM     43  C   UNL A   1      38.635  30.542  29.736  1.00  0.00     0.049 A 
ATOM     44  H   UNL A   1      40.473  29.852  30.437  1.00  0.00     0.167 HD
ATOM     45  C   UNL A   1      44.149  28.232  32.089  1.00  0.00     0.037 A 
ATOM     46  C   UNL A   1      38.359  31.706  30.356  1.00  0.00     0.037 A 
ATOM     47  C   UNL A   1      43.903  29.428  32.857  1.00  0.00     0.049 A 
ATOM     48  C   UNL A   1      39.278  32.209  31.429  1.00  0.00     0.074 A 
ATOM     49  C   UNL A   1      44.690  29.992  33.848  1.00  0.00     0.029 A 
ATOM     50  N   UNL A   1      42.806  30.261  32.702  1.00  0.00    -0.354 N 
ATOM     51  N   UNL A   1      40.398  31.684  31.865  1.00  0.00    -0.248 NA
ATOM     52  C   UNL A   1      38.880  33.443  32.120  1.00  0.00     0.031 C 
ATOM     53  C   UNL A   1      44.055  31.151  34.310  1.00  0.00     0.029 A 
ATOM     54  C   UNL A   1      42.893  31.330  33.579  1.00  0.00     0.049 A 
ATOM     55  H   UNL A   1      42.073  30.115  32.061  1.00  0.00     0.167 HD
ATOM     56  C   UNL A   1      40.836  32.521  32.884  1.00  0.00     0.074 A 
ATOM     57  C   UNL A   1      39.875  33.600  32.982  1.00  0.00     0.031 C 
ATOM     58  C   UNL A   1      41.929  32.397  33.675  1.00  0.00     0.037 A 
BRANCH  45  59
ATOM     59  C   UNL A   1      45.382  27.432  32.419  1.00  0.00     0.058 A 
ATOM     60  C   UNL A   1      46.634  27.709  31.851  1.00  0.00     0.135 A 
ATOM     61  C   UNL A   1      45.311  26.397  33.368  1.00  0.00     0.135 A 
ATOM     62  F   UNL A   1      46.759  28.677  30.929  1.00  0.00    -0.206 F 
ATOM     63  C   UNL A   1      47.767  26.975  32.195  1.00  0.00     0.059 A 
ATOM     64  C   UNL A   1      46.435  25.668  33.746  1.00  0.00     0.059 A 
ATOM     65  F   UNL A   1      44.139  26.091  33.947  1.00  0.00    -0.206 F 
ATOM     66  C   UNL A   1      47.658  25.955  33.142  1.00  0.00     0.060 A 
BRANCH  66  67
ATOM     67  S   UNL A   1      49.134  25.015  33.585  1.00  0.00     0.124 S 
ATOM     68  O   UNL A   1      48.549  23.832  34.208  1.00  0.00    -0.237 OA
ATOM     69  O   UNL A   1      49.771  24.799  32.289  1.00  0.00    -0.237 OA
ATOM     70  O   UNL A   1      49.850  25.911  34.488  1.00  0.00    -0.744 OA
ENDBRANCH  66  67
ENDBRANCH  45  59
BRANCH  46  71
ATOM     71  C   UNL A   1      37.110  32.438  30.015  1.00  0.00     0.058 A 
ATOM     72  C   UNL A   1      35.889  32.106  30.618  1.00  0.00     0.135 A 
ATOM     73  C   UNL A   1      37.124  33.517  29.116  1.00  0.00     0.135 A 
ATOM     74  F   UNL A   1      35.822  31.072  31.471  1.00  0.00    -0.206 F 
ATOM     75  C   UNL A   1      34.728  32.824  30.353  1.00  0.00     0.059 A 
ATOM     76  C   UNL A   1      35.983  34.269  28.859  1.00  0.00     0.059 A 
ATOM     77  F   UNL A   1      38.271  33.880  28.519  1.00  0.00    -0.206 F 
ATOM     78  C   UNL A   1      34.789  33.912  29.479  1.00  0.00     0.060 A 
BRANCH  78  79
ATOM     79  S   UNL A   1      33.302  34.903  29.214  1.00  0.00     0.124 S 
ATOM     80  O   UNL A   1      32.579  34.093  28.241  1.00  0.00    -0.237 OA
ATOM     81  O   UNL A   1      32.724  34.960  30.553  1.00  0.00    -0.237 OA
ATOM     82  O   UNL A   1      33.832  36.170  28.717  1.00  0.00    -0.744 OA
ENDBRANCH  78  79
ENDBRANCH  46  71
BRANCH  58  83
ATOM     83  C   UNL A   1      42.155  33.467  34.704  1.00  0.00     0.058 A 
ATOM     84  C   UNL A   1      42.829  34.656  34.391  1.00  0.00     0.135 A 
ATOM     85  C   UNL A   1      41.671  33.310  36.013  1.00  0.00     0.135 A 
ATOM     86  F   UNL A   1      43.318  34.849  33.156  1.00  0.00    -0.206 F 
ATOM     87  C   UNL A   1      43.038  35.646  35.346  1.00  0.00     0.059 A 
ATOM     88  C   UNL A   1      41.851  34.296  36.979  1.00  0.00     0.059 A 
ATOM     89  F   UNL A   1      41.014  32.193  36.362  1.00  0.00    -0.206 F 
ATOM     90  C   UNL A   1      42.548  35.454  36.638  1.00  0.00     0.060 A 
BRANCH  90  91
ATOM     91  S   UNL A   1      42.812  36.750  37.868  1.00  0.00     0.124 S 
ATOM     92  O   UNL A   1      41.442  37.087  38.237  1.00  0.00    -0.237 OA
ATOM     93  O   UNL A   1      43.594  36.061  38.890  1.00  0.00    -0.237 OA
ATOM     94  O   UNL A   1      43.534  37.780  37.125  1.00  0.00    -0.744 OA
ENDBRANCH  90  91
ENDBRANCH  58  83
ENDBRANCH  32  33
ENDBRANCH  25  27
ENDBRANCH  24  25
ENDBRANCH   1  24
TORSDOF 17
ENDMDL
MODEL 2
REMARK VINA RESULT:     -11.4      4.049      9.926
REMARK SMILES CS(=O)(=O)c1ccc(/C=C(/C(=O)OCCOC(=O)c2ccc(-c3c4nc(c(-c5c(F)cc(S(=O)(=O)[O-])cc5F)c5ccc([nH]5)c(-c5c(F)cc(S(=O)(=O)[O-])cc5F)c5nc(c(-c6c(F)cc(S(=O)(=O)[O-])cc6F)c6ccc3[nH]6)C=C5)C=C4)cc2)c2ccccc2)cc1
REMARK SMILES IDX 15 1 14 2 13 3 11 4 12 5 10 6 9 7 8 8 5 9 6 10 92 11 7 12
REMARK SMILES IDX 91 13 2 14 1 15 3 16 4 17 85 18 86 19 90 20 87 21 89 22
REMARK SMILES IDX 88 23 16 24 17 25 18 26 19 27 20 28 84 29 21 30 83 31 22 32
REMARK SMILES IDX 23 33 24 34 77 35 25 36 82 37 76 38 78 39 26 40 81 41 75 42
REMARK SMILES IDX 74 43 27 45 61 46 40 47 60 48 41 49 44 50 59 51 79 52 42 53
REMARK SMILES IDX 43 54 58 56 80 57 45 58 28 59 29 60 38 61 30 62 31 63 37 64
REMARK SMILES IDX 39 65 32 66 33 67 34 68 35 69 36 70 62 71 63 72 72 73 64 74
REMARK SMILES IDX 65 75 71 76 73 77 66 78 67 79 68 80 69 81 70 82 46 83 47 84
REMARK SMILES IDX 56 85 48 86 49 87 55 88 57 89 50 90 51 91 52 92 53 93 54 94
REMARK H PARENT 78 44 44 55
REMARK Flexibility Score: inf
ROOT
ATOM      1  C   UNL A   1      32.444  28.285  26.744  1.00  0.00     0.275 C 
ENDROOT
BRANCH   1   2
ATOM      2  C   UNL A   1      32.213  26.828  26.348  1.00  0.00     0.275 C 
BRANCH   2   3
ATOM      3  O   UNL A   1      33.276  26.353  25.497  1.00  0.00    -0.458 OA
BRANCH   3   4
ATOM      4  C   UNL A   1      32.878  25.583  24.450  1.00  0.00     0.338 C 
ATOM      5  O   UNL A   1      32.307  25.990  23.448  1.00  0.00    -0.246 OA
BRANCH   4   6
ATOM      6  C   UNL A   1      33.242  24.146  24.640  1.00  0.00     0.067 C 
ATOM      7  C   UNL A   1      32.244  23.235  24.719  1.00  0.00     0.024 C 
BRANCH   7   8
ATOM      8  C   UNL A   1      32.337  21.757  24.618  1.00  0.00    -0.025 A 
ATOM      9  C   UNL A   1      32.812  19.017  24.209  1.00  0.00     0.067 A 
ATOM     10  C   UNL A   1      32.913  19.548  25.488  1.00  0.00     0.021 A 
ATOM     11  C   UNL A   1      32.378  19.811  23.146  1.00  0.00     0.021 A 
ATOM     12  C   UNL A   1      32.644  20.903  25.687  1.00  0.00     0.009 A 
ATOM     13  C   UNL A   1      32.150  21.176  23.354  1.00  0.00     0.009 A 
BRANCH   9  14
ATOM     14  S   UNL A   1      33.255  17.324  23.917  1.00  0.00     0.175 S 
ATOM     15  C   UNL A   1      34.955  17.268  24.428  1.00  0.00     0.163 C 
ATOM     16  O   UNL A   1      33.201  17.102  22.488  1.00  0.00    -0.224 OA
ATOM     17  O   UNL A   1      32.490  16.494  24.832  1.00  0.00    -0.224 OA
ENDBRANCH   9  14
ENDBRANCH   7   8
BRANCH   6  18
ATOM     18  C   UNL A   1      34.667  23.778  24.549  1.00  0.00    -0.011 A 
ATOM     19  C   UNL A   1      35.447  23.750  25.716  1.00  0.00     0.009 A 
ATOM     20  C   UNL A   1      35.237  23.386  23.332  1.00  0.00     0.009 A 
ATOM     21  C   UNL A   1      36.763  23.286  25.674  1.00  0.00     0.001 A 
ATOM     22  C   UNL A   1      36.560  22.940  23.291  1.00  0.00     0.001 A 
ATOM     23  C   UNL A   1      37.317  22.880  24.461  1.00  0.00     0.000 A 
ENDBRANCH   6  18
ENDBRANCH   4   6
ENDBRANCH   3   4
ENDBRANCH   2   3
ENDBRANCH   1   2
BRANCH   1  24
ATOM     24  O   UNL A   1      33.806  28.465  27.169  1.00  0.00    -0.458 OA
BRANCH  24  25
ATOM     25  C   UNL A   1      34.108  29.685  27.671  1.00  0.00     0.338 C 
ATOM     26  O   UNL A   1      33.339  30.617  27.852  1.00  0.00    -0.246 OA
BRANCH  25  27
ATOM     27  C   UNL A   1      35.540  29.759  28.016  1.00  0.00     0.060 A 
ATOM     28  C   UNL A   1      36.480  30.043  27.032  1.00  0.00     0.016 A 
ATOM     29  C   UNL A   1      35.966  29.373  29.288  1.00  0.00     0.016 A 
ATOM     30  C   UNL A   1      37.832  29.800  27.279  1.00  0.00     0.010 A 
ATOM     31  C   UNL A   1      37.335  29.247  29.561  1.00  0.00     0.010 A 
ATOM     32  C   UNL A   1      38.292  29.393  28.540  1.00  0.00    -0.014 A 
BRANCH  32  33
ATOM     33  C   UNL A   1      39.737  29.060  28.770  1.00  0.00     0.031 A 
ATOM     34  C   UNL A   1      40.678  30.081  29.377  1.00  0.00     0.074 A 
ATOM     35  C   UNL A   1      40.230  27.838  28.471  1.00  0.00     0.049 A 
ATOM     36  N   UNL A   1      41.988  30.071  29.435  1.00  0.00    -0.248 NA
ATOM     37  C   UNL A   1      40.071  31.277  29.984  1.00  0.00     0.031 C 
ATOM     38  C   UNL A   1      39.459  26.717  27.929  1.00  0.00     0.029 A 
ATOM     39  N   UNL A   1      41.501  27.327  28.595  1.00  0.00    -0.354 N 
ATOM     40  C   UNL A   1      42.360  31.291  29.994  1.00  0.00     0.074 A 
ATOM     41  C   UNL A   1      41.137  32.011  30.277  1.00  0.00     0.031 C 
ATOM     42  C   UNL A   1      40.249  25.638  27.835  1.00  0.00     0.029 A 
ATOM     43  C   UNL A   1      41.613  26.018  28.184  1.00  0.00     0.049 A 
ATOM     44  H   UNL A   1      42.260  27.848  28.943  1.00  0.00     0.167 HD
ATOM     45  C   UNL A   1      43.605  31.770  30.240  1.00  0.00     0.037 A 
ATOM     46  C   UNL A   1      42.688  25.219  28.041  1.00  0.00     0.037 A 
ATOM     47  C   UNL A   1      44.819  31.015  30.050  1.00  0.00     0.049 A 
ATOM     48  C   UNL A   1      44.057  25.763  28.320  1.00  0.00     0.074 A 
ATOM     49  C   UNL A   1      46.125  31.409  30.295  1.00  0.00     0.029 A 
ATOM     50  N   UNL A   1      44.880  29.706  29.599  1.00  0.00    -0.354 N 
ATOM     51  N   UNL A   1      44.397  26.957  28.741  1.00  0.00    -0.248 NA
ATOM     52  C   UNL A   1      45.192  24.864  28.070  1.00  0.00     0.031 C 
ATOM     53  C   UNL A   1      46.975  30.346  29.967  1.00  0.00     0.029 A 
ATOM     54  C   UNL A   1      46.197  29.278  29.555  1.00  0.00     0.049 A 
ATOM     55  H   UNL A   1      44.100  29.159  29.348  1.00  0.00     0.167 HD
ATOM     56  C   UNL A   1      45.785  26.955  28.802  1.00  0.00     0.074 A 
ATOM     57  C   UNL A   1      46.221  25.633  28.401  1.00  0.00     0.031 C 
ATOM     58  C   UNL A   1      46.622  27.963  29.148  1.00  0.00     0.037 A 
BRANCH  45  59
ATOM     59  C   UNL A   1      43.735  33.195  30.709  1.00  0.00     0.058 A 
ATOM     60  C   UNL A   1      43.701  33.548  32.066  1.00  0.00     0.135 A 
ATOM     61  C   UNL A   1      43.951  34.222  29.773  1.00  0.00     0.135 A 
ATOM     62  F   UNL A   1      43.484  32.611  33.003  1.00  0.00    -0.206 F 
ATOM     63  C   UNL A   1      43.855  34.870  32.478  1.00  0.00     0.059 A 
ATOM     64  C   UNL A   1      44.133  35.546  30.164  1.00  0.00     0.059 A 
ATOM     65  F   UNL A   1      43.998  33.941  28.462  1.00  0.00    -0.206 F 
ATOM     66  C   UNL A   1      44.069  35.863  31.519  1.00  0.00     0.060 A 
BRANCH  66  67
ATOM     67  S   UNL A   1      44.273  37.572  32.065  1.00  0.00     0.124 S 
ATOM     68  O   UNL A   1      45.717  37.643  32.263  1.00  0.00    -0.237 OA
ATOM     69  O   UNL A   1      43.751  38.329  30.931  1.00  0.00    -0.237 OA
ATOM     70  O   UNL A   1      43.468  37.639  33.280  1.00  0.00    -0.744 OA
ENDBRANCH  66  67
ENDBRANCH  45  59
BRANCH  46  71
ATOM     71  C   UNL A   1      42.504  23.829  27.544  1.00  0.00     0.058 A 
ATOM     72  C   UNL A   1      42.515  23.546  26.170  1.00  0.00     0.135 A 
ATOM     73  C   UNL A   1      42.366  22.752  28.433  1.00  0.00     0.135 A 
ATOM     74  F   UNL A   1      42.629  24.544  25.281  1.00  0.00    -0.206 F 
ATOM     75  C   UNL A   1      42.408  22.243  25.696  1.00  0.00     0.059 A 
ATOM     76  C   UNL A   1      42.288  21.438  27.984  1.00  0.00     0.059 A 
ATOM     77  F   UNL A   1      42.359  22.970  29.758  1.00  0.00    -0.206 F 
ATOM     78  C   UNL A   1      42.305  21.194  26.613  1.00  0.00     0.060 A 
BRANCH  78  79
ATOM     79  S   UNL A   1      42.266  19.496  25.997  1.00  0.00     0.124 S 
ATOM     80  O   UNL A   1      43.178  19.574  24.863  1.00  0.00    -0.237 OA
ATOM     81  O   UNL A   1      42.743  18.737  27.149  1.00  0.00    -0.237 OA
ATOM     82  O   UNL A   1      40.858  19.295  25.667  1.00  0.00    -0.744 OA
ENDBRANCH  78  79
ENDBRANCH  46  71
BRANCH  58  83
ATOM     83  C   UNL A   1      48.095  27.669  29.126  1.00  0.00     0.058 A 
ATOM     84  C   UNL A   1      48.874  27.911  27.984  1.00  0.00     0.135 A 
ATOM     85  C   UNL A   1      48.738  27.162  30.266  1.00  0.00     0.135 A 
ATOM     86  F   UNL A   1      48.303  28.387  26.866  1.00  0.00    -0.206 F 
ATOM     87  C   UNL A   1      50.237  27.637  27.964  1.00  0.00     0.059 A 
ATOM     88  C   UNL A   1      50.105  26.900  30.275  1.00  0.00     0.059 A 
ATOM     89  F   UNL A   1      48.039  26.920  31.386  1.00  0.00    -0.206 F 
ATOM     90  C   UNL A   1      50.843  27.129  29.114  1.00  0.00     0.060 A 
BRANCH  90  91
ATOM     91  S   UNL A   1      52.616  26.789  29.083  1.00  0.00     0.124 S 
ATOM     92  O   UNL A   1      53.172  28.138  29.079  1.00  0.00    -0.237 OA
ATOM     93  O   UNL A   1      52.813  26.025  30.311  1.00  0.00    -0.237 OA
ATOM     94  O   UNL A   1      52.795  26.033  27.847  1.00  0.00    -0.744 OA
ENDBRANCH  90  91
ENDBRANCH  58  83
ENDBRANCH  32  33
ENDBRANCH  25  27
ENDBRANCH  24  25
ENDBRANCH   1  24
TORSDOF 17
ENDMDL
MODEL 3
REMARK VINA RESULT:     -11.1      5.175     10.689
REMARK SMILES CS(=O)(=O)c1ccc(/C=C(/C(=O)OCCOC(=O)c2ccc(-c3c4nc(c(-c5c(F)cc(S(=O)(=O)[O-])cc5F)c5ccc([nH]5)c(-c5c(F)cc(S(=O)(=O)[O-])cc5F)c5nc(c(-c6c(F)cc(S(=O)(=O)[O-])cc6F)c6ccc3[nH]6)C=C5)C=C4)cc2)c2ccccc2)cc1
REMARK SMILES IDX 15 1 14 2 13 3 11 4 12 5 10 6 9 7 8 8 5 9 6 10 92 11 7 12
REMARK SMILES IDX 91 13 2 14 1 15 3 16 4 17 85 18 86 19 90 20 87 21 89 22
REMARK SMILES IDX 88 23 16 24 17 25 18 26 19 27 20 28 84 29 21 30 83 31 22 32
REMARK SMILES IDX 23 33 24 34 77 35 25 36 82 37 76 38 78 39 26 40 81 41 75 42
REMARK SMILES IDX 74 43 27 45 61 46 40 47 60 48 41 49 44 50 59 51 79 52 42 53
REMARK SMILES IDX 43 54 58 56 80 57 45 58 28 59 29 60 38 61 30 62 31 63 37 64
REMARK SMILES IDX 39 65 32 66 33 67 34 68 35 69 36 70 62 71 63 72 72 73 64 74
REMARK SMILES IDX 65 75 71 76 73 77 66 78 67 79 68 80 69 81 70 82 46 83 47 84
REMARK SMILES IDX 56 85 48 86 49 87 55 88 57 89 50 90 51 91 52 92 53 93 54 94
REMARK H PARENT 78 44 44 55
REMARK Flexibility Score: inf
ROOT
ATOM      1  C   UNL A   1      34.023  31.497  28.019  1.00  0.00     0.275 C 
ENDROOT
BRANCH   1   2
ATOM      2  C   UNL A   1      33.502  30.816  26.755  1.00  0.00     0.275 C 
BRANCH   2   3
ATOM      3  O   UNL A   1      33.603  29.381  26.867  1.00  0.00    -0.458 OA
BRANCH   3   4
ATOM      4  C   UNL A   1      32.417  28.724  26.956  1.00  0.00     0.338 C 
ATOM      5  O   UNL A   1      31.461  29.077  27.631  1.00  0.00    -0.246 OA
BRANCH   4   6
ATOM      6  C   UNL A   1      32.388  27.502  26.096  1.00  0.00     0.067 C 
ATOM      7  C   UNL A   1      33.367  26.580  26.257  1.00  0.00     0.024 C 
BRANCH   7   8
ATOM      8  C   UNL A   1      33.409  25.184  25.752  1.00  0.00    -0.025 A 
ATOM      9  C   UNL A   1      33.123  22.529  24.877  1.00  0.00     0.067 A 
ATOM     10  C   UNL A   1      33.478  23.517  23.968  1.00  0.00     0.021 A 
ATOM     11  C   UNL A   1      33.007  22.826  26.236  1.00  0.00     0.021 A 
ATOM     12  C   UNL A   1      33.649  24.827  24.418  1.00  0.00     0.009 A 
ATOM     13  C   UNL A   1      33.143  24.151  26.665  1.00  0.00     0.009 A 
BRANCH   9  14
ATOM     14  S   UNL A   1      32.794  20.882  24.308  1.00  0.00     0.175 S 
ATOM     15  C   UNL A   1      34.325  20.040  24.626  1.00  0.00     0.163 C 
ATOM     16  O   UNL A   1      32.600  20.949  22.874  1.00  0.00    -0.224 OA
ATOM     17  O   UNL A   1      31.780  20.300  25.171  1.00  0.00    -0.224 OA
ENDBRANCH   9  14
ENDBRANCH   7   8
BRANCH   6  18
ATOM     18  C   UNL A   1      31.200  27.280  25.253  1.00  0.00    -0.011 A 
ATOM     19  C   UNL A   1      31.008  28.075  24.111  1.00  0.00     0.009 A 
ATOM     20  C   UNL A   1      30.299  26.245  25.527  1.00  0.00     0.009 A 
ATOM     21  C   UNL A   1      29.960  27.803  23.230  1.00  0.00     0.001 A 
ATOM     22  C   UNL A   1      29.240  25.988  24.654  1.00  0.00     0.001 A 
ATOM     23  C   UNL A   1      29.078  26.758  23.502  1.00  0.00     0.000 A 
ENDBRANCH   6  18
ENDBRANCH   4   6
ENDBRANCH   3   4
ENDBRANCH   2   3
ENDBRANCH   1   2
BRANCH   1  24
ATOM     24  O   UNL A   1      35.459  31.431  28.054  1.00  0.00    -0.458 OA
BRANCH  24  25
ATOM     25  C   UNL A   1      36.002  31.075  29.241  1.00  0.00     0.338 C 
ATOM     26  O   UNL A   1      35.572  31.336  30.355  1.00  0.00    -0.246 OA
BRANCH  25  27
ATOM     27  C   UNL A   1      37.221  30.272  29.030  1.00  0.00     0.060 A 
ATOM     28  C   UNL A   1      37.979  29.855  30.119  1.00  0.00     0.016 A 
ATOM     29  C   UNL A   1      37.708  30.082  27.736  1.00  0.00     0.016 A 
ATOM     30  C   UNL A   1      39.276  29.386  29.917  1.00  0.00     0.010 A 
ATOM     31  C   UNL A   1      38.967  29.497  27.540  1.00  0.00     0.010 A 
ATOM     32  C   UNL A   1      39.804  29.201  28.630  1.00  0.00    -0.014 A 
BRANCH  32  33
ATOM     33  C   UNL A   1      41.228  28.770  28.428  1.00  0.00     0.031 A 
ATOM     34  C   UNL A   1      42.365  29.758  28.599  1.00  0.00     0.074 A 
ATOM     35  C   UNL A   1      41.536  27.492  28.119  1.00  0.00     0.049 A 
ATOM     36  N   UNL A   1      43.621  29.645  28.244  1.00  0.00    -0.248 NA
ATOM     37  C   UNL A   1      42.045  31.045  29.237  1.00  0.00     0.031 C 
ATOM     38  C   UNL A   1      40.576  26.396  27.967  1.00  0.00     0.029 A 
ATOM     39  N   UNL A   1      42.752  26.890  27.891  1.00  0.00    -0.354 N 
ATOM     40  C   UNL A   1      44.215  30.873  28.527  1.00  0.00     0.074 A 
ATOM     41  C   UNL A   1      43.185  31.711  29.102  1.00  0.00     0.031 C 
ATOM     42  C   UNL A   1      41.238  25.253  27.744  1.00  0.00     0.029 A 
ATOM     43  C   UNL A   1      42.659  25.547  27.606  1.00  0.00     0.049 A 
ATOM     44  H   UNL A   1      43.608  27.375  27.927  1.00  0.00     0.167 HD
ATOM     45  C   UNL A   1      45.496  31.268  28.319  1.00  0.00     0.037 A 
ATOM     46  C   UNL A   1      43.589  24.653  27.218  1.00  0.00     0.037 A 
ATOM     47  C   UNL A   1      46.545  30.403  27.838  1.00  0.00     0.049 A 
ATOM     48  C   UNL A   1      45.002  25.105  26.994  1.00  0.00     0.074 A 
ATOM     49  C   UNL A   1      47.879  30.707  27.618  1.00  0.00     0.029 A 
ATOM     50  N   UNL A   1      46.391  29.060  27.530  1.00  0.00    -0.354 N 
ATOM     51  N   UNL A   1      45.519  26.298  27.160  1.00  0.00    -0.248 NA
ATOM     52  C   UNL A   1      45.950  24.098  26.497  1.00  0.00     0.031 C 
ATOM     53  C   UNL A   1      48.524  29.555  27.153  1.00  0.00     0.029 A 
ATOM     54  C   UNL A   1      47.601  28.524  27.120  1.00  0.00     0.049 A 
ATOM     55  H   UNL A   1      45.545  28.560  27.595  1.00  0.00     0.167 HD
ATOM     56  C   UNL A   1      46.852  26.188  26.783  1.00  0.00     0.074 A 
ATOM     57  C   UNL A   1      47.068  24.806  26.406  1.00  0.00     0.031 C 
ATOM     58  C   UNL A   1      47.806  27.149  26.741  1.00  0.00     0.037 A 
BRANCH  45  59
ATOM     59  C   UNL A   1      45.842  32.712  28.571  1.00  0.00     0.058 A 
ATOM     60  C   UNL A   1      46.351  33.161  29.798  1.00  0.00     0.135 A 
ATOM     61  C   UNL A   1      45.707  33.654  27.536  1.00  0.00     0.135 A 
ATOM     62  F   UNL A   1      46.488  32.308  30.826  1.00  0.00    -0.206 F 
ATOM     63  C   UNL A   1      46.693  34.497  29.999  1.00  0.00     0.059 A 
ATOM     64  C   UNL A   1      46.067  34.988  27.706  1.00  0.00     0.059 A 
ATOM     65  F   UNL A   1      45.229  33.279  26.340  1.00  0.00    -0.206 F 
ATOM     66  C   UNL A   1      46.546  35.403  28.947  1.00  0.00     0.060 A 
BRANCH  66  67
ATOM     67  S   UNL A   1      46.999  37.130  29.215  1.00  0.00     0.124 S 
ATOM     68  O   UNL A   1      45.846  37.824  28.652  1.00  0.00    -0.237 OA
ATOM     69  O   UNL A   1      47.133  37.199  30.668  1.00  0.00    -0.237 OA
ATOM     70  O   UNL A   1      48.245  37.275  28.469  1.00  0.00    -0.744 OA
ENDBRANCH  66  67
ENDBRANCH  45  59
BRANCH  46  71
ATOM     71  C   UNL A   1      43.186  23.247  26.951  1.00  0.00     0.058 A 
ATOM     72  C   UNL A   1      43.061  22.767  25.640  1.00  0.00     0.135 A 
ATOM     73  C   UNL A   1      42.966  22.343  28.003  1.00  0.00     0.135 A 
ATOM     74  F   UNL A   1      43.245  23.597  24.602  1.00  0.00    -0.206 F 
ATOM     75  C   UNL A   1      42.746  21.438  25.379  1.00  0.00     0.059 A 
ATOM     76  C   UNL A   1      42.679  21.002  27.767  1.00  0.00     0.059 A 
ATOM     77  F   UNL A   1      43.081  22.751  29.277  1.00  0.00    -0.206 F 
ATOM     78  C   UNL A   1      42.567  20.560  26.451  1.00  0.00     0.060 A 
BRANCH  78  79
ATOM     79  S   UNL A   1      42.256  18.814  26.109  1.00  0.00     0.124 S 
ATOM     80  O   UNL A   1      43.189  18.558  25.018  1.00  0.00    -0.237 OA
ATOM     81  O   UNL A   1      42.579  18.185  27.386  1.00  0.00    -0.237 OA
ATOM     82  O   UNL A   1      40.840  18.793  25.752  1.00  0.00    -0.744 OA
ENDBRANCH  78  79
ENDBRANCH  46  71
BRANCH  58  83
ATOM     83  C   UNL A   1      49.177  26.735  26.289  1.00  0.00     0.058 A 
ATOM     84  C   UNL A   1      50.079  26.106  27.161  1.00  0.00     0.135 A 
ATOM     85  C   UNL A   1      49.584  26.948  24.962  1.00  0.00     0.135 A 
ATOM     86  F   UNL A   1      49.739  25.889  28.441  1.00  0.00    -0.206 F 
ATOM     87  C   UNL A   1      51.348  25.724  26.740  1.00  0.00     0.059 A 
ATOM     88  C   UNL A   1      50.842  26.555  24.515  1.00  0.00     0.059 A 
ATOM     89  F   UNL A   1      48.756  27.539  24.087  1.00  0.00    -0.206 F 
ATOM     90  C   UNL A   1      51.721  25.956  25.415  1.00  0.00     0.060 A 
BRANCH  90  91
ATOM     91  S   UNL A   1      53.367  25.444  24.875  1.00  0.00     0.124 S 
ATOM     92  O   UNL A   1      53.423  24.072  25.368  1.00  0.00    -0.237 OA
ATOM     93  O   UNL A   1      53.285  25.595  23.426  1.00  0.00    -0.237 OA
ATOM     94  O   UNL A   1      54.254  26.389  25.548  1.00  0.00    -0.744 OA
ENDBRANCH  90  91
ENDBRANCH  58  83
ENDBRANCH  32  33
ENDBRANCH  25  27
ENDBRANCH  24  25
ENDBRANCH   1  24
TORSDOF 17
ENDMDL
