MODEL 1
REMARK VINA RESULT:      -9.8      0.000      0.000
REMARK SMILES CCC[NH2+][C@]1(C(=O)OCCOC(=O)c2ccc(-c3c4nc(c(-c5c(F)cc(S(=O)(=O)[O-])cc5F)c5ccc([nH]5)c(-c5c(F)cc(S(=O)(=O)[O-])cc5F)c5nc(c(-c6c(F)cc(S(=O)(=O)[O-])cc6F)c6ccc3[nH]6)C=C5)C=C4)cc2)CCC[C@@H]([N@@H+](C)[C@@H](C)C2CC2)C1
REMARK SMILES IDX 9 1 8 2 6 3 7 4 5 5 80 6 91 7 81 8 83 9 82 10 4 11 3 14 2 15
REMARK SMILES IDX 1 16 84 17 85 18 86 20 87 21 88 22 89 23 90 24 10 25 11 26
REMARK SMILES IDX 12 27 13 28 14 29 15 30 79 31 16 32 78 33 17 34 18 35 19 36
REMARK SMILES IDX 72 37 20 38 77 39 71 40 73 41 21 42 76 43 70 44 69 45 22 47
REMARK SMILES IDX 56 48 35 49 55 50 36 51 39 52 54 53 74 54 37 55 38 56 53 58
REMARK SMILES IDX 75 59 40 60 23 61 24 62 33 63 25 64 26 65 32 66 34 67 27 68
REMARK SMILES IDX 28 69 29 70 30 71 31 72 57 73 58 74 67 75 59 76 60 77 66 78
REMARK SMILES IDX 68 79 61 80 62 81 63 82 64 83 65 84 41 85 42 86 51 87 43 88
REMARK SMILES IDX 44 89 50 90 52 91 45 92 46 93 47 94 48 95 49 96
REMARK H PARENT 4 12 4 13 84 19 73 46 39 57
REMARK Flexibility Score: inf
ROOT
ATOM      1  C   UNL A   1      45.502  24.461  25.197  1.00  0.00     0.274 C 
ENDROOT
BRANCH   1   2
ATOM      2  O   UNL A   1      44.075  24.306  25.021  1.00  0.00    -0.457 OA
BRANCH   2   3
ATOM      3  C   UNL A   1      43.690  23.005  24.916  1.00  0.00     0.368 C 
ATOM      4  O   UNL A   1      43.713  22.395  23.848  1.00  0.00    -0.245 OA
BRANCH   3   5
ATOM      5  C   UNL A   1      43.129  22.366  26.222  1.00  0.00     0.200 C 
ATOM      6  C   UNL A   1      43.574  23.151  27.470  1.00  0.00     0.081 C 
ATOM      7  C   UNL A   1      41.605  22.550  26.061  1.00  0.00     0.146 C 
ATOM      8  C   UNL A   1      42.771  22.763  28.718  1.00  0.00     0.013 C 
ATOM      9  C   UNL A   1      40.699  22.377  27.260  1.00  0.00     0.190 C 
ATOM     10  C   UNL A   1      41.275  23.028  28.528  1.00  0.00     0.065 C 
BRANCH   5  11
ATOM     11  N   UNL A   1      43.548  20.954  26.440  1.00  0.00    -0.332 N 
ATOM     12  H   UNL A   1      44.485  20.841  26.055  1.00  0.00     0.347 HD
ATOM     13  H   UNL A   1      43.495  20.798  27.447  1.00  0.00     0.347 HD
BRANCH  11  14
ATOM     14  C   UNL A   1      42.689  19.944  25.834  1.00  0.00     0.261 C 
BRANCH  14  15
ATOM     15  C   UNL A   1      43.478  18.736  25.320  1.00  0.00     0.058 C 
ATOM     16  C   UNL A   1      44.798  19.110  24.662  1.00  0.00     0.010 C 
ENDBRANCH  14  15
ENDBRANCH  11  14
ENDBRANCH   5  11
BRANCH   9  17
ATOM     17  N   UNL A   1      39.299  22.699  26.861  1.00  0.00    -0.332 N 
ATOM     18  C   UNL A   1      39.129  24.157  26.775  1.00  0.00     0.333 C 
ATOM     19  H   UNL A   1      38.814  22.238  27.631  1.00  0.00     0.348 HD
BRANCH  17  20
ATOM     20  C   UNL A   1      38.577  22.021  25.750  1.00  0.00     0.184 C 
ATOM     21  C   UNL A   1      38.748  20.506  25.596  1.00  0.00     0.075 C 
BRANCH  20  22
ATOM     22  C   UNL A   1      37.148  22.415  25.391  1.00  0.00     0.047 C 
ATOM     23  C   UNL A   1      36.787  23.138  24.108  1.00  0.00     0.010 C 
ATOM     24  C   UNL A   1      36.217  21.774  24.390  1.00  0.00     0.010 C 
ENDBRANCH  20  22
ENDBRANCH  17  20
ENDBRANCH   9  17
ENDBRANCH   3   5
ENDBRANCH   2   3
ENDBRANCH   1   2
BRANCH   1  25
ATOM     25  C   UNL A   1      45.987  25.884  24.901  1.00  0.00     0.275 C 
BRANCH  25  26
ATOM     26  O   UNL A   1      45.651  26.773  25.980  1.00  0.00    -0.458 OA
BRANCH  26  27
ATOM     27  C   UNL A   1      44.482  27.447  25.860  1.00  0.00     0.338 C 
ATOM     28  O   UNL A   1      43.900  27.680  24.813  1.00  0.00    -0.246 OA
BRANCH  27  29
ATOM     29  C   UNL A   1      43.935  27.823  27.196  1.00  0.00     0.060 A 
ATOM     30  C   UNL A   1      43.171  26.944  27.967  1.00  0.00     0.016 A 
ATOM     31  C   UNL A   1      44.097  29.138  27.644  1.00  0.00     0.016 A 
ATOM     32  C   UNL A   1      42.487  27.402  29.099  1.00  0.00     0.010 A 
ATOM     33  C   UNL A   1      43.510  29.557  28.845  1.00  0.00     0.010 A 
ATOM     34  C   UNL A   1      42.675  28.702  29.583  1.00  0.00    -0.014 A 
BRANCH  34  35
ATOM     35  C   UNL A   1      42.053  29.165  30.864  1.00  0.00     0.031 A 
ATOM     36  C   UNL A   1      40.751  29.933  30.856  1.00  0.00     0.074 A 
ATOM     37  C   UNL A   1      42.683  28.963  32.042  1.00  0.00     0.049 A 
ATOM     38  N   UNL A   1      40.229  30.688  31.790  1.00  0.00    -0.248 NA
ATOM     39  C   UNL A   1      39.931  29.849  29.636  1.00  0.00     0.031 C 
ATOM     40  C   UNL A   1      43.918  28.198  32.233  1.00  0.00     0.029 A 
ATOM     41  N   UNL A   1      42.384  29.414  33.309  1.00  0.00    -0.354 N 
ATOM     42  C   UNL A   1      39.062  31.220  31.248  1.00  0.00     0.074 A 
ATOM     43  C   UNL A   1      38.935  30.682  29.913  1.00  0.00     0.031 C 
ATOM     44  C   UNL A   1      44.264  28.221  33.526  1.00  0.00     0.029 A 
ATOM     45  C   UNL A   1      43.354  29.107  34.237  1.00  0.00     0.049 A 
ATOM     46  H   UNL A   1      41.560  29.905  33.528  1.00  0.00     0.167 HD
ATOM     47  C   UNL A   1      38.191  32.091  31.812  1.00  0.00     0.037 A 
ATOM     48  C   UNL A   1      43.562  29.557  35.490  1.00  0.00     0.037 A 
ATOM     49  C   UNL A   1      38.294  32.579  33.164  1.00  0.00     0.049 A 
ATOM     50  C   UNL A   1      42.634  30.585  36.064  1.00  0.00     0.074 A 
ATOM     51  C   UNL A   1      37.428  33.419  33.845  1.00  0.00     0.029 A 
ATOM     52  N   UNL A   1      39.323  32.273  34.040  1.00  0.00    -0.354 N 
ATOM     53  N   UNL A   1      41.565  31.120  35.526  1.00  0.00    -0.248 NA
ATOM     54  C   UNL A   1      42.962  31.101  37.401  1.00  0.00     0.031 C 
ATOM     55  C   UNL A   1      37.956  33.656  35.117  1.00  0.00     0.029 A 
ATOM     56  C   UNL A   1      39.132  32.935  35.242  1.00  0.00     0.049 A 
ATOM     57  H   UNL A   1      40.077  31.674  33.838  1.00  0.00     0.167 HD
ATOM     58  C   UNL A   1      41.095  32.039  36.456  1.00  0.00     0.074 A 
ATOM     59  C   UNL A   1      41.982  31.972  37.599  1.00  0.00     0.031 C 
ATOM     60  C   UNL A   1      40.029  32.868  36.366  1.00  0.00     0.037 A 
BRANCH  47  61
ATOM     61  C   UNL A   1      37.062  32.624  30.974  1.00  0.00     0.058 A 
ATOM     62  C   UNL A   1      35.757  32.122  31.074  1.00  0.00     0.135 A 
ATOM     63  C   UNL A   1      37.275  33.736  30.141  1.00  0.00     0.135 A 
ATOM     64  F   UNL A   1      35.500  31.054  31.844  1.00  0.00    -0.206 F 
ATOM     65  C   UNL A   1      34.699  32.708  30.381  1.00  0.00     0.059 A 
ATOM     66  C   UNL A   1      36.232  34.348  29.453  1.00  0.00     0.059 A 
ATOM     67  F   UNL A   1      38.507  34.253  30.010  1.00  0.00    -0.206 F 
ATOM     68  C   UNL A   1      34.946  33.826  29.580  1.00  0.00     0.060 A 
BRANCH  68  69
ATOM     69  S   UNL A   1      33.555  34.611  28.735  1.00  0.00     0.124 S 
ATOM     70  O   UNL A   1      33.126  33.550  27.830  1.00  0.00    -0.237 OA
ATOM     71  O   UNL A   1      32.647  34.910  29.836  1.00  0.00    -0.237 OA
ATOM     72  O   UNL A   1      34.159  35.775  28.093  1.00  0.00    -0.744 OA
ENDBRANCH  68  69
ENDBRANCH  47  61
BRANCH  48  73
ATOM     73  C   UNL A   1      44.775  29.125  36.234  1.00  0.00     0.058 A 
ATOM     74  C   UNL A   1      44.757  27.996  37.063  1.00  0.00     0.135 A 
ATOM     75  C   UNL A   1      45.986  29.827  36.107  1.00  0.00     0.135 A 
ATOM     76  F   UNL A   1      43.619  27.304  37.229  1.00  0.00    -0.206 F 
ATOM     77  C   UNL A   1      45.896  27.575  37.742  1.00  0.00     0.059 A 
ATOM     78  C   UNL A   1      47.145  29.408  36.750  1.00  0.00     0.059 A 
ATOM     79  F   UNL A   1      46.058  30.910  35.318  1.00  0.00    -0.206 F 
ATOM     80  C   UNL A   1      47.088  28.286  37.575  1.00  0.00     0.060 A 
BRANCH  80  81
ATOM     81  S   UNL A   1      48.582  27.703  38.402  1.00  0.00     0.124 S 
ATOM     82  O   UNL A   1      49.151  26.821  37.391  1.00  0.00    -0.237 OA
ATOM     83  O   UNL A   1      49.310  28.945  38.647  1.00  0.00    -0.237 OA
ATOM     84  O   UNL A   1      48.064  27.046  39.599  1.00  0.00    -0.744 OA
ENDBRANCH  80  81
ENDBRANCH  48  73
BRANCH  60  85
ATOM     85  C   UNL A   1      39.757  33.762  37.538  1.00  0.00     0.058 A 
ATOM     86  C   UNL A   1      38.909  33.359  38.581  1.00  0.00     0.135 A 
ATOM     87  C   UNL A   1      40.372  35.019  37.636  1.00  0.00     0.135 A 
ATOM     88  F   UNL A   1      38.289  32.170  38.525  1.00  0.00    -0.206 F 
ATOM     89  C   UNL A   1      38.667  34.180  39.676  1.00  0.00     0.059 A 
ATOM     90  C   UNL A   1      40.160  35.850  38.731  1.00  0.00     0.059 A 
ATOM     91  F   UNL A   1      41.195  35.447  36.665  1.00  0.00    -0.206 F 
ATOM     92  C   UNL A   1      39.296  35.426  39.741  1.00  0.00     0.060 A 
BRANCH  92  93
ATOM     93  S   UNL A   1      38.995  36.476  41.178  1.00  0.00     0.124 S 
ATOM     94  O   UNL A   1      40.298  36.458  41.833  1.00  0.00    -0.237 OA
ATOM     95  O   UNL A   1      38.609  37.743  40.566  1.00  0.00    -0.237 OA
ATOM     96  O   UNL A   1      37.925  35.779  41.888  1.00  0.00    -0.744 OA
ENDBRANCH  92  93
ENDBRANCH  60  85
ENDBRANCH  34  35
ENDBRANCH  27  29
ENDBRANCH  26  27
ENDBRANCH  25  26
ENDBRANCH   1  25
TORSDOF 20
ENDMDL
MODEL 2
REMARK VINA RESULT:      -9.5      9.089     16.332
REMARK SMILES CCC[NH2+][C@]1(C(=O)OCCOC(=O)c2ccc(-c3c4nc(c(-c5c(F)cc(S(=O)(=O)[O-])cc5F)c5ccc([nH]5)c(-c5c(F)cc(S(=O)(=O)[O-])cc5F)c5nc(c(-c6c(F)cc(S(=O)(=O)[O-])cc6F)c6ccc3[nH]6)C=C5)C=C4)cc2)CCC[C@@H]([N@@H+](C)[C@@H](C)C2CC2)C1
REMARK SMILES IDX 9 1 8 2 6 3 7 4 5 5 80 6 91 7 81 8 83 9 82 10 4 11 3 14 2 15
REMARK SMILES IDX 1 16 84 17 85 18 86 20 87 21 88 22 89 23 90 24 10 25 11 26
REMARK SMILES IDX 12 27 13 28 14 29 15 30 79 31 16 32 78 33 17 34 18 35 19 36
REMARK SMILES IDX 72 37 20 38 77 39 71 40 73 41 21 42 76 43 70 44 69 45 22 47
REMARK SMILES IDX 56 48 35 49 55 50 36 51 39 52 54 53 74 54 37 55 38 56 53 58
REMARK SMILES IDX 75 59 40 60 23 61 24 62 33 63 25 64 26 65 32 66 34 67 27 68
REMARK SMILES IDX 28 69 29 70 30 71 31 72 57 73 58 74 67 75 59 76 60 77 66 78
REMARK SMILES IDX 68 79 61 80 62 81 63 82 64 83 65 84 41 85 42 86 51 87 43 88
REMARK SMILES IDX 44 89 50 90 52 91 45 92 46 93 47 94 48 95 49 96
REMARK H PARENT 4 12 4 13 84 19 73 46 39 57
REMARK Flexibility Score: inf
ROOT
ATOM      1  C   UNL A   1      46.639  39.939  25.128  1.00  0.00     0.274 C 
ENDROOT
BRANCH   1   2
ATOM      2  O   UNL A   1      46.812  40.739  23.935  1.00  0.00    -0.457 OA
BRANCH   2   3
ATOM      3  C   UNL A   1      45.899  41.742  23.830  1.00  0.00     0.368 C 
ATOM      4  O   UNL A   1      44.830  41.727  24.440  1.00  0.00    -0.245 OA
BRANCH   3   5
ATOM      5  C   UNL A   1      46.254  42.868  22.812  1.00  0.00     0.200 C 
ATOM      6  C   UNL A   1      47.547  42.542  22.042  1.00  0.00     0.081 C 
ATOM      7  C   UNL A   1      45.077  42.806  21.816  1.00  0.00     0.146 C 
ATOM      8  C   UNL A   1      47.734  43.440  20.813  1.00  0.00     0.013 C 
ATOM      9  C   UNL A   1      45.193  43.500  20.476  1.00  0.00     0.190 C 
ATOM     10  C   UNL A   1      46.571  43.291  19.827  1.00  0.00     0.065 C 
BRANCH   5  11
ATOM     11  N   UNL A   1      46.456  44.208  23.429  1.00  0.00    -0.332 N 
ATOM     12  H   UNL A   1      46.780  44.843  22.700  1.00  0.00     0.347 HD
ATOM     13  H   UNL A   1      45.557  44.469  23.833  1.00  0.00     0.347 HD
BRANCH  11  14
ATOM     14  C   UNL A   1      47.415  44.255  24.525  1.00  0.00     0.261 C 
BRANCH  14  15
ATOM     15  C   UNL A   1      46.793  44.771  25.826  1.00  0.00     0.058 C 
ATOM     16  C   UNL A   1      47.806  45.384  26.781  1.00  0.00     0.010 C 
ENDBRANCH  14  15
ENDBRANCH  11  14
ENDBRANCH   5  11
BRANCH   9  17
ATOM     17  N   UNL A   1      43.971  43.212  19.673  1.00  0.00    -0.332 N 
ATOM     18  C   UNL A   1      42.966  42.549  20.518  1.00  0.00     0.333 C 
ATOM     19  H   UNL A   1      44.399  42.632  18.951  1.00  0.00     0.348 HD
BRANCH  17  20
ATOM     20  C   UNL A   1      43.324  44.197  18.766  1.00  0.00     0.184 C 
ATOM     21  C   UNL A   1      44.164  44.795  17.632  1.00  0.00     0.075 C 
BRANCH  20  22
ATOM     22  C   UNL A   1      41.888  43.997  18.289  1.00  0.00     0.047 C 
ATOM     23  C   UNL A   1      40.781  44.997  18.559  1.00  0.00     0.010 C 
ATOM     24  C   UNL A   1      41.174  44.671  17.142  1.00  0.00     0.010 C 
ENDBRANCH  20  22
ENDBRANCH  17  20
ENDBRANCH   9  17
ENDBRANCH   3   5
ENDBRANCH   2   3
ENDBRANCH   1   2
BRANCH   1  25
ATOM     25  C   UNL A   1      47.464  38.649  25.104  1.00  0.00     0.275 C 
BRANCH  25  26
ATOM     26  O   UNL A   1      46.806  37.608  25.847  1.00  0.00    -0.458 OA
BRANCH  26  27
ATOM     27  C   UNL A   1      47.469  37.131  26.928  1.00  0.00     0.338 C 
ATOM     28  O   UNL A   1      48.142  37.795  27.699  1.00  0.00    -0.246 OA
BRANCH  27  29
ATOM     29  C   UNL A   1      47.220  35.672  27.115  1.00  0.00     0.060 A 
ATOM     30  C   UNL A   1      46.757  34.854  26.082  1.00  0.00     0.016 A 
ATOM     31  C   UNL A   1      47.348  35.126  28.395  1.00  0.00     0.016 A 
ATOM     32  C   UNL A   1      46.319  33.552  26.349  1.00  0.00     0.010 A 
ATOM     33  C   UNL A   1      47.023  33.783  28.631  1.00  0.00     0.010 A 
ATOM     34  C   UNL A   1      46.481  32.978  27.616  1.00  0.00    -0.014 A 
BRANCH  34  35
ATOM     35  C   UNL A   1      46.138  31.545  27.884  1.00  0.00     0.031 A 
ATOM     36  C   UNL A   1      47.127  30.444  27.574  1.00  0.00     0.074 A 
ATOM     37  C   UNL A   1      44.912  31.209  28.343  1.00  0.00     0.049 A 
ATOM     38  N   UNL A   1      46.917  29.161  27.423  1.00  0.00    -0.248 NA
ATOM     39  C   UNL A   1      48.535  30.838  27.403  1.00  0.00     0.031 C 
ATOM     40  C   UNL A   1      43.860  32.148  28.740  1.00  0.00     0.029 A 
ATOM     41  N   UNL A   1      44.329  29.975  28.525  1.00  0.00    -0.354 N 
ATOM     42  C   UNL A   1      48.146  28.608  27.074  1.00  0.00     0.074 A 
ATOM     43  C   UNL A   1      49.106  29.689  27.061  1.00  0.00     0.031 C 
ATOM     44  C   UNL A   1      42.774  31.466  29.126  1.00  0.00     0.029 A 
ATOM     45  C   UNL A   1      43.002  30.049  28.883  1.00  0.00     0.049 A 
ATOM     46  H   UNL A   1      44.813  29.126  28.412  1.00  0.00     0.167 HD
ATOM     47  C   UNL A   1      48.436  27.319  26.775  1.00  0.00     0.037 A 
ATOM     48  C   UNL A   1      42.035  29.112  28.917  1.00  0.00     0.037 A 
ATOM     49  C   UNL A   1      47.487  26.237  26.844  1.00  0.00     0.049 A 
ATOM     50  C   UNL A   1      42.357  27.708  28.501  1.00  0.00     0.074 A 
ATOM     51  C   UNL A   1      47.701  24.887  26.617  1.00  0.00     0.029 A 
ATOM     52  N   UNL A   1      46.146  26.380  27.164  1.00  0.00    -0.354 N 
ATOM     53  N   UNL A   1      43.508  27.207  28.123  1.00  0.00    -0.248 NA
ATOM     54  C   UNL A   1      41.242  26.751  28.477  1.00  0.00     0.031 C 
ATOM     55  C   UNL A   1      46.480  24.220  26.756  1.00  0.00     0.029 A 
ATOM     56  C   UNL A   1      45.514  25.149  27.106  1.00  0.00     0.049 A 
ATOM     57  H   UNL A   1      45.709  27.229  27.398  1.00  0.00     0.167 HD
ATOM     58  C   UNL A   1      43.255  25.877  27.812  1.00  0.00     0.074 A 
ATOM     59  C   UNL A   1      41.848  25.645  28.066  1.00  0.00     0.031 C 
ATOM     60  C   UNL A   1      44.111  24.935  27.350  1.00  0.00     0.037 A 
BRANCH  47  61
ATOM     61  C   UNL A   1      49.824  26.985  26.299  1.00  0.00     0.058 A 
ATOM     62  C   UNL A   1      50.836  26.575  27.178  1.00  0.00     0.135 A 
ATOM     63  C   UNL A   1      50.103  26.967  24.922  1.00  0.00     0.135 A 
ATOM     64  F   UNL A   1      50.626  26.586  28.503  1.00  0.00    -0.206 F 
ATOM     65  C   UNL A   1      52.077  26.152  26.708  1.00  0.00     0.059 A 
ATOM     66  C   UNL A   1      51.330  26.532  24.428  1.00  0.00     0.059 A 
ATOM     67  F   UNL A   1      49.168  27.351  24.039  1.00  0.00    -0.206 F 
ATOM     68  C   UNL A   1      52.312  26.126  25.330  1.00  0.00     0.060 A 
BRANCH  68  69
ATOM     69  S   UNL A   1      53.905  25.520  24.732  1.00  0.00     0.124 S 
ATOM     70  O   UNL A   1      54.000  26.180  23.434  1.00  0.00    -0.237 OA
ATOM     71  O   UNL A   1      54.828  26.000  25.755  1.00  0.00    -0.237 OA
ATOM     72  O   UNL A   1      53.724  24.073  24.687  1.00  0.00    -0.744 OA
ENDBRANCH  68  69
ENDBRANCH  47  61
BRANCH  48  73
ATOM     73  C   UNL A   1      40.639  29.508  29.245  1.00  0.00     0.058 A 
ATOM     74  C   UNL A   1      39.673  29.667  28.242  1.00  0.00     0.135 A 
ATOM     75  C   UNL A   1      40.242  29.713  30.577  1.00  0.00     0.135 A 
ATOM     76  F   UNL A   1      40.009  29.498  26.954  1.00  0.00    -0.206 F 
ATOM     77  C   UNL A   1      38.361  30.015  28.547  1.00  0.00     0.059 A 
ATOM     78  C   UNL A   1      38.930  30.032  30.909  1.00  0.00     0.059 A 
ATOM     79  F   UNL A   1      41.128  29.566  31.574  1.00  0.00    -0.206 F 
ATOM     80  C   UNL A   1      37.998  30.190  29.885  1.00  0.00     0.060 A 
BRANCH  80  81
ATOM     81  S   UNL A   1      36.281  30.576  30.286  1.00  0.00     0.124 S 
ATOM     82  O   UNL A   1      36.172  30.051  31.642  1.00  0.00    -0.237 OA
ATOM     83  O   UNL A   1      36.250  32.031  30.162  1.00  0.00    -0.237 OA
ATOM     84  O   UNL A   1      35.530  29.854  29.264  1.00  0.00    -0.744 OA
ENDBRANCH  80  81
ENDBRANCH  48  73
BRANCH  60  85
ATOM     85  C   UNL A   1      43.552  23.567  27.100  1.00  0.00     0.058 A 
ATOM     86  C   UNL A   1      43.378  22.648  28.145  1.00  0.00     0.135 A 
ATOM     87  C   UNL A   1      43.159  23.181  25.810  1.00  0.00     0.135 A 
ATOM     88  F   UNL A   1      43.751  22.969  29.395  1.00  0.00    -0.206 F 
ATOM     89  C   UNL A   1      42.847  21.384  27.918  1.00  0.00     0.059 A 
ATOM     90  C   UNL A   1      42.608  21.929  25.561  1.00  0.00     0.059 A 
ATOM     91  F   UNL A   1      43.303  24.028  24.777  1.00  0.00    -0.206 F 
ATOM     92  C   UNL A   1      42.466  21.033  26.621  1.00  0.00     0.060 A 
BRANCH  92  93
ATOM     93  S   UNL A   1      41.755  19.398  26.338  1.00  0.00     0.124 S 
ATOM     94  O   UNL A   1      42.025  18.737  27.609  1.00  0.00    -0.237 OA
ATOM     95  O   UNL A   1      40.354  19.706  26.068  1.00  0.00    -0.237 OA
ATOM     96  O   UNL A   1      42.510  18.894  25.194  1.00  0.00    -0.744 OA
ENDBRANCH  92  93
ENDBRANCH  60  85
ENDBRANCH  34  35
ENDBRANCH  27  29
ENDBRANCH  26  27
ENDBRANCH  25  26
ENDBRANCH   1  25
TORSDOF 20
ENDMDL
MODEL 3
REMARK VINA RESULT:      -9.1      8.553     15.921
REMARK SMILES CCC[NH2+][C@]1(C(=O)OCCOC(=O)c2ccc(-c3c4nc(c(-c5c(F)cc(S(=O)(=O)[O-])cc5F)c5ccc([nH]5)c(-c5c(F)cc(S(=O)(=O)[O-])cc5F)c5nc(c(-c6c(F)cc(S(=O)(=O)[O-])cc6F)c6ccc3[nH]6)C=C5)C=C4)cc2)CCC[C@@H]([N@@H+](C)[C@@H](C)C2CC2)C1
REMARK SMILES IDX 9 1 8 2 6 3 7 4 5 5 80 6 91 7 81 8 83 9 82 10 4 11 3 14 2 15
REMARK SMILES IDX 1 16 84 17 85 18 86 20 87 21 88 22 89 23 90 24 10 25 11 26
REMARK SMILES IDX 12 27 13 28 14 29 15 30 79 31 16 32 78 33 17 34 18 35 19 36
REMARK SMILES IDX 72 37 20 38 77 39 71 40 73 41 21 42 76 43 70 44 69 45 22 47
REMARK SMILES IDX 56 48 35 49 55 50 36 51 39 52 54 53 74 54 37 55 38 56 53 58
REMARK SMILES IDX 75 59 40 60 23 61 24 62 33 63 25 64 26 65 32 66 34 67 27 68
REMARK SMILES IDX 28 69 29 70 30 71 31 72 57 73 58 74 67 75 59 76 60 77 66 78
REMARK SMILES IDX 68 79 61 80 62 81 63 82 64 83 65 84 41 85 42 86 51 87 43 88
REMARK SMILES IDX 44 89 50 90 52 91 45 92 46 93 47 94 48 95 49 96
REMARK H PARENT 4 12 4 13 84 19 73 46 39 57
REMARK Flexibility Score: inf
ROOT
ATOM      1  C   UNL A   1      46.892  40.220  26.801  1.00  0.00     0.274 C 
ENDROOT
BRANCH   1   2
ATOM      2  O   UNL A   1      47.037  41.406  25.984  1.00  0.00    -0.457 OA
BRANCH   2   3
ATOM      3  C   UNL A   1      46.241  41.392  24.881  1.00  0.00     0.368 C 
ATOM      4  O   UNL A   1      46.337  40.529  24.010  1.00  0.00    -0.245 OA
BRANCH   3   5
ATOM      5  C   UNL A   1      45.263  42.598  24.746  1.00  0.00     0.200 C 
ATOM      6  C   UNL A   1      45.927  43.914  25.193  1.00  0.00     0.081 C 
ATOM      7  C   UNL A   1      45.029  42.675  23.222  1.00  0.00     0.146 C 
ATOM      8  C   UNL A   1      45.127  45.146  24.754  1.00  0.00     0.013 C 
ATOM      9  C   UNL A   1      44.410  43.918  22.622  1.00  0.00     0.190 C 
ATOM     10  C   UNL A   1      44.981  45.209  23.231  1.00  0.00     0.065 C 
BRANCH   5  11
ATOM     11  N   UNL A   1      44.013  42.463  25.544  1.00  0.00    -0.332 N 
ATOM     12  H   UNL A   1      44.209  42.784  26.492  1.00  0.00     0.347 HD
ATOM     13  H   UNL A   1      43.309  43.019  25.059  1.00  0.00     0.347 HD
BRANCH  11  14
ATOM     14  C   UNL A   1      43.467  41.115  25.631  1.00  0.00     0.261 C 
BRANCH  14  15
ATOM     15  C   UNL A   1      41.941  41.091  25.503  1.00  0.00     0.058 C 
ATOM     16  C   UNL A   1      41.235  40.626  26.768  1.00  0.00     0.010 C 
ENDBRANCH  14  15
ENDBRANCH  11  14
ENDBRANCH   5  11
BRANCH   9  17
ATOM     17  N   UNL A   1      44.380  43.777  21.138  1.00  0.00    -0.332 N 
ATOM     18  C   UNL A   1      45.655  43.215  20.666  1.00  0.00     0.333 C 
ATOM     19  H   UNL A   1      44.207  44.753  20.898  1.00  0.00     0.348 HD
BRANCH  17  20
ATOM     20  C   UNL A   1      43.239  43.192  20.384  1.00  0.00     0.184 C 
ATOM     21  C   UNL A   1      41.955  42.866  21.154  1.00  0.00     0.075 C 
BRANCH  20  22
ATOM     22  C   UNL A   1      42.885  43.694  18.987  1.00  0.00     0.047 C 
ATOM     23  C   UNL A   1      42.942  45.157  18.595  1.00  0.00     0.010 C 
ATOM     24  C   UNL A   1      43.813  44.153  17.888  1.00  0.00     0.010 C 
ENDBRANCH  20  22
ENDBRANCH  17  20
ENDBRANCH   9  17
ENDBRANCH   3   5
ENDBRANCH   2   3
ENDBRANCH   1   2
BRANCH   1  25
ATOM     25  C   UNL A   1      47.667  39.019  26.250  1.00  0.00     0.275 C 
BRANCH  25  26
ATOM     26  O   UNL A   1      47.157  37.789  26.793  1.00  0.00    -0.458 OA
BRANCH  26  27
ATOM     27  C   UNL A   1      47.899  37.209  27.766  1.00  0.00     0.338 C 
ATOM     28  O   UNL A   1      48.674  37.789  28.510  1.00  0.00    -0.246 OA
BRANCH  27  29
ATOM     29  C   UNL A   1      47.605  35.751  27.876  1.00  0.00     0.060 A 
ATOM     30  C   UNL A   1      47.070  35.014  26.817  1.00  0.00     0.016 A 
ATOM     31  C   UNL A   1      47.764  35.124  29.115  1.00  0.00     0.016 A 
ATOM     32  C   UNL A   1      46.595  33.714  27.023  1.00  0.00     0.010 A 
ATOM     33  C   UNL A   1      47.399  33.780  29.283  1.00  0.00     0.010 A 
ATOM     34  C   UNL A   1      46.787  33.058  28.245  1.00  0.00    -0.014 A 
BRANCH  34  35
ATOM     35  C   UNL A   1      46.402  31.624  28.441  1.00  0.00     0.031 A 
ATOM     36  C   UNL A   1      47.335  30.511  28.021  1.00  0.00     0.074 A 
ATOM     37  C   UNL A   1      45.185  31.304  28.933  1.00  0.00     0.049 A 
ATOM     38  N   UNL A   1      47.071  29.248  27.803  1.00  0.00    -0.248 NA
ATOM     39  C   UNL A   1      48.749  30.866  27.812  1.00  0.00     0.031 C 
ATOM     40  C   UNL A   1      44.186  32.252  29.433  1.00  0.00     0.029 A 
ATOM     41  N   UNL A   1      44.564  30.082  29.066  1.00  0.00    -0.354 N 
ATOM     42  C   UNL A   1      48.262  28.675  27.367  1.00  0.00     0.074 A 
ATOM     43  C   UNL A   1      49.261  29.720  27.377  1.00  0.00     0.031 C 
ATOM     44  C   UNL A   1      43.093  31.586  29.825  1.00  0.00     0.029 A 
ATOM     45  C   UNL A   1      43.257  30.180  29.486  1.00  0.00     0.049 A 
ATOM     46  H   UNL A   1      45.011  29.225  28.880  1.00  0.00     0.167 HD
ATOM     47  C   UNL A   1      48.491  27.397  26.978  1.00  0.00     0.037 A 
ATOM     48  C   UNL A   1      42.257  29.276  29.507  1.00  0.00     0.037 A 
ATOM     49  C   UNL A   1      47.506  26.347  27.024  1.00  0.00     0.049 A 
ATOM     50  C   UNL A   1      42.509  27.891  28.993  1.00  0.00     0.074 A 
ATOM     51  C   UNL A   1      47.659  25.007  26.707  1.00  0.00     0.029 A 
ATOM     52  N   UNL A   1      46.186  26.516  27.411  1.00  0.00    -0.354 N 
ATOM     53  N   UNL A   1      43.623  27.374  28.535  1.00  0.00    -0.248 NA
ATOM     54  C   UNL A   1      41.359  26.976  28.961  1.00  0.00     0.031 C 
ATOM     55  C   UNL A   1      46.421  24.376  26.859  1.00  0.00     0.029 A 
ATOM     56  C   UNL A   1      45.506  25.314  27.307  1.00  0.00     0.049 A 
ATOM     57  H   UNL A   1      45.791  27.365  27.715  1.00  0.00     0.167 HD
ATOM     58  C   UNL A   1      43.308  26.076  28.155  1.00  0.00     0.074 A 
ATOM     59  C   UNL A   1      41.905  25.878  28.457  1.00  0.00     0.031 C 
ATOM     60  C   UNL A   1      44.108  25.135  27.600  1.00  0.00     0.037 A 
BRANCH  47  61
ATOM     61  C   UNL A   1      49.844  27.046  26.421  1.00  0.00     0.058 A 
ATOM     62  C   UNL A   1      50.868  26.524  27.224  1.00  0.00     0.135 A 
ATOM     63  C   UNL A   1      50.071  27.127  25.037  1.00  0.00     0.135 A 
ATOM     64  F   UNL A   1      50.708  26.438  28.553  1.00  0.00    -0.206 F 
ATOM     65  C   UNL A   1      52.072  26.090  26.672  1.00  0.00     0.059 A 
ATOM     66  C   UNL A   1      51.258  26.683  24.462  1.00  0.00     0.059 A 
ATOM     67  F   UNL A   1      49.123  27.620  24.225  1.00  0.00    -0.206 F 
ATOM     68  C   UNL A   1      52.254  26.165  25.288  1.00  0.00     0.060 A 
BRANCH  68  69
ATOM     69  S   UNL A   1      53.795  25.543  24.580  1.00  0.00     0.124 S 
ATOM     70  O   UNL A   1      53.710  26.041  23.211  1.00  0.00    -0.237 OA
ATOM     71  O   UNL A   1      54.805  26.176  25.422  1.00  0.00    -0.237 OA
ATOM     72  O   UNL A   1      53.679  24.096  24.728  1.00  0.00    -0.744 OA
ENDBRANCH  68  69
ENDBRANCH  47  61
BRANCH  48  73
ATOM     73  C   UNL A   1      40.892  29.700  29.920  1.00  0.00     0.058 A 
ATOM     74  C   UNL A   1      40.556  29.857  31.271  1.00  0.00     0.135 A 
ATOM     75  C   UNL A   1      39.904  29.979  28.960  1.00  0.00     0.135 A 
ATOM     76  F   UNL A   1      41.461  29.585  32.223  1.00  0.00    -0.206 F 
ATOM     77  C   UNL A   1      39.287  30.275  31.658  1.00  0.00     0.059 A 
ATOM     78  C   UNL A   1      38.640  30.427  29.322  1.00  0.00     0.059 A 
ATOM     79  F   UNL A   1      40.179  29.852  27.653  1.00  0.00    -0.206 F 
ATOM     80  C   UNL A   1      38.337  30.563  30.676  1.00  0.00     0.060 A 
BRANCH  80  81
ATOM     81  S   UNL A   1      36.712  31.170  31.176  1.00  0.00     0.124 S 
ATOM     82  O   UNL A   1      37.069  32.193  32.150  1.00  0.00    -0.237 OA
ATOM     83  O   UNL A   1      36.158  31.656  29.915  1.00  0.00    -0.237 OA
ATOM     84  O   UNL A   1      36.064  29.978  31.715  1.00  0.00    -0.744 OA
ENDBRANCH  80  81
ENDBRANCH  48  73
BRANCH  60  85
ATOM     85  C   UNL A   1      43.488  23.805  27.292  1.00  0.00     0.058 A 
ATOM     86  C   UNL A   1      43.157  23.442  25.978  1.00  0.00     0.135 A 
ATOM     87  C   UNL A   1      43.250  22.875  28.315  1.00  0.00     0.135 A 
ATOM     88  F   UNL A   1      43.355  24.305  24.969  1.00  0.00    -0.206 F 
ATOM     89  C   UNL A   1      42.594  22.204  25.689  1.00  0.00     0.059 A 
ATOM     90  C   UNL A   1      42.706  21.623  28.047  1.00  0.00     0.059 A 
ATOM     91  F   UNL A   1      43.554  23.176  29.588  1.00  0.00    -0.206 F 
ATOM     92  C   UNL A   1      42.371  21.301  26.731  1.00  0.00     0.060 A 
BRANCH  92  93
ATOM     93  S   UNL A   1      41.662  19.687  26.344  1.00  0.00     0.124 S 
ATOM     94  O   UNL A   1      40.252  20.018  26.179  1.00  0.00    -0.237 OA
ATOM     95  O   UNL A   1      42.374  19.315  25.125  1.00  0.00    -0.237 OA
ATOM     96  O   UNL A   1      41.987  18.884  27.520  1.00  0.00    -0.744 OA
ENDBRANCH  92  93
ENDBRANCH  60  85
ENDBRANCH  34  35
ENDBRANCH  27  29
ENDBRANCH  26  27
ENDBRANCH  25  26
ENDBRANCH   1  25
TORSDOF 20
ENDMDL
