MODEL 1
REMARK VINA RESULT:      -9.9      0.000      0.000
REMARK SMILES CCCOc1ccc(N[C@H](C)[C@H](C)C(=O)OCCOC(=O)c2ccc(-c3c4nc(c(-c5c(F)cc(S(=O)(=O)[O-])cc5F)c5ccc([nH]5)c(-c5c(F)cc(S(=O)(=O)[O-])cc5F)c5nc(c(-c6c(F)cc(S(=O)(=O)[O-])cc6F)c6ccc3[nH]6)C=C5)C=C4)cc2)cc1
REMARK SMILES IDX 16 1 14 2 15 3 12 4 13 5 10 6 11 7 9 8 8 10 5 11 6 12 89 13
REMARK SMILES IDX 7 14 88 15 4 16 3 17 2 18 1 19 17 20 18 21 19 22 20 23 21 24
REMARK SMILES IDX 22 25 23 26 87 27 24 28 86 29 25 30 26 31 27 32 80 33 28 34
REMARK SMILES IDX 85 35 79 36 81 37 29 38 84 39 78 40 77 41 30 43 64 44 43 45
REMARK SMILES IDX 63 46 44 47 47 48 62 49 82 50 45 51 46 52 61 54 83 55 48 56
REMARK SMILES IDX 31 57 32 58 41 59 33 60 34 61 40 62 42 63 35 64 36 65 37 66
REMARK SMILES IDX 38 67 39 68 65 69 66 70 75 71 67 72 68 73 74 74 76 75 69 76
REMARK SMILES IDX 70 77 71 78 72 79 73 80 49 81 50 82 59 83 51 84 52 85 58 86
REMARK SMILES IDX 60 87 53 88 54 89 55 90 56 91 57 92
REMARK H PARENT 9 9 81 42 47 53
REMARK Flexibility Score: inf
ROOT
ATOM      1  O   UNL A   1      42.797  22.313  24.934  1.00  0.00    -0.462 OA
ENDROOT
BRANCH   1   2
ATOM      2  C   UNL A   1      43.111  21.203  25.652  1.00  0.00     0.310 C 
ATOM      3  O   UNL A   1      44.255  20.851  25.911  1.00  0.00    -0.252 OA
BRANCH   2   4
ATOM      4  C   UNL A   1      41.891  20.397  26.076  1.00  0.00     0.118 C 
ATOM      5  C   UNL A   1      42.289  19.036  26.652  1.00  0.00     0.022 C 
BRANCH   4   6
ATOM      6  C   UNL A   1      41.006  21.270  26.986  1.00  0.00     0.090 C 
ATOM      7  C   UNL A   1      41.847  21.972  28.072  1.00  0.00     0.031 C 
BRANCH   6   8
ATOM      8  N   UNL A   1      40.369  22.348  26.237  1.00  0.00    -0.382 N 
ATOM      9  H   UNL A   1      40.961  23.041  25.868  1.00  0.00     0.160 HD
BRANCH   8  10
ATOM     10  C   UNL A   1      39.020  22.491  25.992  1.00  0.00     0.034 A 
ATOM     11  C   UNL A   1      36.312  22.963  25.432  1.00  0.00     0.119 A 
ATOM     12  C   UNL A   1      36.852  21.704  25.206  1.00  0.00     0.048 A 
ATOM     13  C   UNL A   1      37.073  23.956  26.033  1.00  0.00     0.048 A 
ATOM     14  C   UNL A   1      38.197  21.470  25.506  1.00  0.00     0.029 A 
ATOM     15  C   UNL A   1      38.424  23.726  26.282  1.00  0.00     0.029 A 
BRANCH  11  16
ATOM     16  O   UNL A   1      35.014  23.229  25.097  1.00  0.00    -0.494 OA
BRANCH  16  17
ATOM     17  C   UNL A   1      34.574  22.367  24.031  1.00  0.00     0.229 C 
BRANCH  17  18
ATOM     18  C   UNL A   1      33.753  23.136  22.990  1.00  0.00     0.038 C 
ATOM     19  C   UNL A   1      33.955  24.645  23.076  1.00  0.00     0.007 C 
ENDBRANCH  17  18
ENDBRANCH  16  17
ENDBRANCH  11  16
ENDBRANCH   8  10
ENDBRANCH   6   8
ENDBRANCH   4   6
ENDBRANCH   2   4
ENDBRANCH   1   2
BRANCH   1  20
ATOM     20  C   UNL A   1      43.900  23.184  24.607  1.00  0.00     0.274 C 
BRANCH  20  21
ATOM     21  C   UNL A   1      43.778  24.559  25.275  1.00  0.00     0.275 C 
BRANCH  21  22
ATOM     22  O   UNL A   1      42.667  24.621  26.187  1.00  0.00    -0.458 OA
BRANCH  22  23
ATOM     23  C   UNL A   1      41.860  25.695  26.037  1.00  0.00     0.338 C 
ATOM     24  O   UNL A   1      41.193  25.982  25.050  1.00  0.00    -0.246 OA
BRANCH  23  25
ATOM     25  C   UNL A   1      41.765  26.436  27.302  1.00  0.00     0.060 A 
ATOM     26  C   UNL A   1      40.775  26.059  28.214  1.00  0.00     0.016 A 
ATOM     27  C   UNL A   1      42.578  27.542  27.559  1.00  0.00     0.016 A 
ATOM     28  C   UNL A   1      40.594  26.773  29.392  1.00  0.00     0.010 A 
ATOM     29  C   UNL A   1      42.388  28.268  28.740  1.00  0.00     0.010 A 
ATOM     30  C   UNL A   1      41.390  27.893  29.658  1.00  0.00    -0.014 A 
BRANCH  30  31
ATOM     31  C   UNL A   1      41.127  28.708  30.865  1.00  0.00     0.031 A 
ATOM     32  C   UNL A   1      40.020  29.722  30.845  1.00  0.00     0.074 A 
ATOM     33  C   UNL A   1      41.863  28.523  31.976  1.00  0.00     0.049 A 
ATOM     34  N   UNL A   1      39.699  30.613  31.746  1.00  0.00    -0.248 NA
ATOM     35  C   UNL A   1      39.160  29.734  29.651  1.00  0.00     0.031 C 
ATOM     36  C   UNL A   1      42.920  27.524  32.131  1.00  0.00     0.029 A 
ATOM     37  N   UNL A   1      41.837  29.173  33.183  1.00  0.00    -0.354 N 
ATOM     38  C   UNL A   1      38.618  31.310  31.221  1.00  0.00     0.074 A 
ATOM     39  C   UNL A   1      38.341  30.741  29.918  1.00  0.00     0.031 C 
ATOM     40  C   UNL A   1      43.451  27.635  33.360  1.00  0.00     0.029 A 
ATOM     41  C   UNL A   1      42.804  28.743  34.059  1.00  0.00     0.049 A 
ATOM     42  H   UNL A   1      41.188  29.881  33.401  1.00  0.00     0.167 HD
ATOM     43  C   UNL A   1      37.926  32.332  31.775  1.00  0.00     0.037 A 
ATOM     44  C   UNL A   1      43.152  29.213  35.273  1.00  0.00     0.037 A 
ATOM     45  C   UNL A   1      38.202  32.879  33.078  1.00  0.00     0.049 A 
ATOM     46  C   UNL A   1      42.406  30.388  35.845  1.00  0.00     0.074 A 
ATOM     47  C   UNL A   1      37.558  33.915  33.732  1.00  0.00     0.029 A 
ATOM     48  N   UNL A   1      39.205  32.433  33.926  1.00  0.00    -0.354 N 
ATOM     49  N   UNL A   1      41.403  31.057  35.328  1.00  0.00    -0.248 NA
ATOM     50  C   UNL A   1      42.843  30.879  37.158  1.00  0.00     0.031 C 
ATOM     51  C   UNL A   1      38.194  34.116  34.962  1.00  0.00     0.029 A 
ATOM     52  C   UNL A   1      39.209  33.181  35.091  1.00  0.00     0.049 A 
ATOM     53  H   UNL A   1      39.823  31.692  33.729  1.00  0.00     0.167 HD
ATOM     54  C   UNL A   1      41.078  32.036  36.258  1.00  0.00     0.074 A 
ATOM     55  C   UNL A   1      41.984  31.867  37.377  1.00  0.00     0.031 C 
ATOM     56  C   UNL A   1      40.117  32.990  36.195  1.00  0.00     0.037 A 
BRANCH  43  57
ATOM     57  C   UNL A   1      36.826  32.949  30.958  1.00  0.00     0.058 A 
ATOM     58  C   UNL A   1      37.095  33.817  29.889  1.00  0.00     0.135 A 
ATOM     59  C   UNL A   1      35.483  32.649  31.239  1.00  0.00     0.135 A 
ATOM     60  F   UNL A   1      38.359  34.151  29.591  1.00  0.00    -0.206 F 
ATOM     61  C   UNL A   1      36.068  34.386  29.141  1.00  0.00     0.059 A 
ATOM     62  C   UNL A   1      34.442  33.189  30.490  1.00  0.00     0.059 A 
ATOM     63  F   UNL A   1      35.172  31.826  32.253  1.00  0.00    -0.206 F 
ATOM     64  C   UNL A   1      34.744  34.069  29.452  1.00  0.00     0.060 A 
BRANCH  64  65
ATOM     65  S   UNL A   1      33.421  34.816  28.478  1.00  0.00     0.124 S 
ATOM     66  O   UNL A   1      34.162  35.788  27.679  1.00  0.00    -0.237 OA
ATOM     67  O   UNL A   1      32.884  33.673  27.746  1.00  0.00    -0.237 OA
ATOM     68  O   UNL A   1      32.533  35.383  29.489  1.00  0.00    -0.744 OA
ENDBRANCH  64  65
ENDBRANCH  43  57
BRANCH  44  69
ATOM     69  C   UNL A   1      44.284  28.592  36.010  1.00  0.00     0.058 A 
ATOM     70  C   UNL A   1      45.593  29.071  35.867  1.00  0.00     0.135 A 
ATOM     71  C   UNL A   1      44.072  27.518  36.889  1.00  0.00     0.135 A 
ATOM     72  F   UNL A   1      45.846  30.090  35.030  1.00  0.00    -0.206 F 
ATOM     73  C   UNL A   1      46.655  28.504  36.562  1.00  0.00     0.059 A 
ATOM     74  C   UNL A   1      45.115  26.949  37.612  1.00  0.00     0.059 A 
ATOM     75  F   UNL A   1      42.835  27.029  37.069  1.00  0.00    -0.206 F 
ATOM     76  C   UNL A   1      46.406  27.444  37.435  1.00  0.00     0.060 A 
BRANCH  76  77
ATOM     77  S   UNL A   1      47.781  26.750  38.378  1.00  0.00     0.124 S 
ATOM     78  O   UNL A   1      48.894  27.576  37.926  1.00  0.00    -0.237 OA
ATOM     79  O   UNL A   1      47.349  26.961  39.756  1.00  0.00    -0.237 OA
ATOM     80  O   UNL A   1      47.812  25.356  37.948  1.00  0.00    -0.744 OA
ENDBRANCH  76  77
ENDBRANCH  44  69
BRANCH  56  81
ATOM     81  C   UNL A   1      39.974  33.907  37.377  1.00  0.00     0.058 A 
ATOM     82  C   UNL A   1      40.614  35.153  37.420  1.00  0.00     0.135 A 
ATOM     83  C   UNL A   1      39.137  33.556  38.449  1.00  0.00     0.135 A 
ATOM     84  F   UNL A   1      41.429  35.529  36.422  1.00  0.00    -0.206 F 
ATOM     85  C   UNL A   1      40.441  36.020  38.495  1.00  0.00     0.059 A 
ATOM     86  C   UNL A   1      38.933  34.416  39.523  1.00  0.00     0.059 A 
ATOM     87  F   UNL A   1      38.496  32.376  38.450  1.00  0.00    -0.206 F 
ATOM     88  C   UNL A   1      39.597  35.643  39.541  1.00  0.00     0.060 A 
BRANCH  88  89
ATOM     89  S   UNL A   1      39.341  36.793  40.909  1.00  0.00     0.124 S 
ATOM     90  O   UNL A   1      38.644  37.889  40.244  1.00  0.00    -0.237 OA
ATOM     91  O   UNL A   1      38.540  36.004  41.839  1.00  0.00    -0.237 OA
ATOM     92  O   UNL A   1      40.698  37.092  41.358  1.00  0.00    -0.744 OA
ENDBRANCH  88  89
ENDBRANCH  56  81
ENDBRANCH  30  31
ENDBRANCH  23  25
ENDBRANCH  22  23
ENDBRANCH  21  22
ENDBRANCH  20  21
ENDBRANCH   1  20
TORSDOF 20
ENDMDL
MODEL 2
REMARK VINA RESULT:      -9.6      2.086      4.165
REMARK SMILES CCCOc1ccc(N[C@H](C)[C@H](C)C(=O)OCCOC(=O)c2ccc(-c3c4nc(c(-c5c(F)cc(S(=O)(=O)[O-])cc5F)c5ccc([nH]5)c(-c5c(F)cc(S(=O)(=O)[O-])cc5F)c5nc(c(-c6c(F)cc(S(=O)(=O)[O-])cc6F)c6ccc3[nH]6)C=C5)C=C4)cc2)cc1
REMARK SMILES IDX 16 1 14 2 15 3 12 4 13 5 10 6 11 7 9 8 8 10 5 11 6 12 89 13
REMARK SMILES IDX 7 14 88 15 4 16 3 17 2 18 1 19 17 20 18 21 19 22 20 23 21 24
REMARK SMILES IDX 22 25 23 26 87 27 24 28 86 29 25 30 26 31 27 32 80 33 28 34
REMARK SMILES IDX 85 35 79 36 81 37 29 38 84 39 78 40 77 41 30 43 64 44 43 45
REMARK SMILES IDX 63 46 44 47 47 48 62 49 82 50 45 51 46 52 61 54 83 55 48 56
REMARK SMILES IDX 31 57 32 58 41 59 33 60 34 61 40 62 42 63 35 64 36 65 37 66
REMARK SMILES IDX 38 67 39 68 65 69 66 70 75 71 67 72 68 73 74 74 76 75 69 76
REMARK SMILES IDX 70 77 71 78 72 79 73 80 49 81 50 82 59 83 51 84 52 85 58 86
REMARK SMILES IDX 60 87 53 88 54 89 55 90 56 91 57 92
REMARK H PARENT 9 9 81 42 47 53
REMARK Flexibility Score: inf
ROOT
ATOM      1  O   UNL A   1      43.666  22.239  25.850  1.00  0.00    -0.462 OA
ENDROOT
BRANCH   1   2
ATOM      2  C   UNL A   1      44.300  22.876  24.831  1.00  0.00     0.310 C 
ATOM      3  O   UNL A   1      44.223  22.541  23.655  1.00  0.00    -0.252 OA
BRANCH   2   4
ATOM      4  C   UNL A   1      45.165  24.039  25.294  1.00  0.00     0.118 C 
ATOM      5  C   UNL A   1      44.542  25.387  24.921  1.00  0.00     0.022 C 
BRANCH   4   6
ATOM      6  C   UNL A   1      45.497  23.853  26.788  1.00  0.00     0.090 C 
ATOM      7  C   UNL A   1      46.923  24.343  27.106  1.00  0.00     0.031 C 
BRANCH   6   8
ATOM      8  N   UNL A   1      44.616  24.652  27.633  1.00  0.00    -0.382 N 
ATOM      9  H   UNL A   1      43.998  25.266  27.174  1.00  0.00     0.160 HD
BRANCH   8  10
ATOM     10  C   UNL A   1      44.562  24.635  29.010  1.00  0.00     0.034 A 
ATOM     11  C   UNL A   1      44.502  24.412  31.806  1.00  0.00     0.119 A 
ATOM     12  C   UNL A   1      44.951  25.588  31.218  1.00  0.00     0.048 A 
ATOM     13  C   UNL A   1      43.982  23.391  31.024  1.00  0.00     0.048 A 
ATOM     14  C   UNL A   1      44.960  25.700  29.825  1.00  0.00     0.029 A 
ATOM     15  C   UNL A   1      44.041  23.494  29.635  1.00  0.00     0.029 A 
BRANCH  11  16
ATOM     16  O   UNL A   1      44.535  24.262  33.164  1.00  0.00    -0.494 OA
BRANCH  16  17
ATOM     17  C   UNL A   1      43.744  23.132  33.573  1.00  0.00     0.229 C 
BRANCH  17  18
ATOM     18  C   UNL A   1      43.405  23.195  35.066  1.00  0.00     0.038 C 
ATOM     19  C   UNL A   1      42.277  24.174  35.373  1.00  0.00     0.007 C 
ENDBRANCH  17  18
ENDBRANCH  16  17
ENDBRANCH  11  16
ENDBRANCH   8  10
ENDBRANCH   6   8
ENDBRANCH   4   6
ENDBRANCH   2   4
ENDBRANCH   1   2
BRANCH   1  20
ATOM     20  C   UNL A   1      42.229  22.169  25.752  1.00  0.00     0.274 C 
BRANCH  20  21
ATOM     21  C   UNL A   1      41.528  22.990  26.841  1.00  0.00     0.275 C 
BRANCH  21  22
ATOM     22  O   UNL A   1      41.723  24.404  26.663  1.00  0.00    -0.458 OA
BRANCH  22  23
ATOM     23  C   UNL A   1      40.603  25.155  26.746  1.00  0.00     0.338 C 
ATOM     24  O   UNL A   1      39.628  25.106  26.005  1.00  0.00    -0.246 OA
BRANCH  23  25
ATOM     25  C   UNL A   1      40.634  25.977  27.964  1.00  0.00     0.060 A 
ATOM     26  C   UNL A   1      39.515  25.954  28.801  1.00  0.00     0.016 A 
ATOM     27  C   UNL A   1      41.707  26.824  28.241  1.00  0.00     0.016 A 
ATOM     28  C   UNL A   1      39.461  26.769  29.927  1.00  0.00     0.010 A 
ATOM     29  C   UNL A   1      41.649  27.652  29.367  1.00  0.00     0.010 A 
ATOM     30  C   UNL A   1      40.522  27.635  30.210  1.00  0.00    -0.014 A 
BRANCH  30  31
ATOM     31  C   UNL A   1      40.418  28.571  31.353  1.00  0.00     0.031 A 
ATOM     32  C   UNL A   1      39.422  29.693  31.300  1.00  0.00     0.074 A 
ATOM     33  C   UNL A   1      41.197  28.399  32.437  1.00  0.00     0.049 A 
ATOM     34  N   UNL A   1      39.250  30.684  32.134  1.00  0.00    -0.248 NA
ATOM     35  C   UNL A   1      38.498  29.699  30.155  1.00  0.00     0.031 C 
ATOM     36  C   UNL A   1      42.152  27.308  32.625  1.00  0.00     0.029 A 
ATOM     37  N   UNL A   1      41.310  29.146  33.581  1.00  0.00    -0.354 N 
ATOM     38  C   UNL A   1      38.217  31.448  31.605  1.00  0.00     0.074 A 
ATOM     39  C   UNL A   1      37.804  30.807  30.373  1.00  0.00     0.031 C 
ATOM     40  C   UNL A   1      42.765  27.463  33.810  1.00  0.00     0.029 A 
ATOM     41  C   UNL A   1      42.279  28.687  34.441  1.00  0.00     0.049 A 
ATOM     42  H   UNL A   1      40.752  29.935  33.769  1.00  0.00     0.167 HD
ATOM     43  C   UNL A   1      37.668  32.582  32.101  1.00  0.00     0.037 A 
ATOM     44  C   UNL A   1      42.745  29.216  35.590  1.00  0.00     0.037 A 
ATOM     45  C   UNL A   1      38.077  33.201  33.335  1.00  0.00     0.049 A 
ATOM     46  C   UNL A   1      42.161  30.507  36.093  1.00  0.00     0.074 A 
ATOM     47  C   UNL A   1      37.584  34.350  33.927  1.00  0.00     0.029 A 
ATOM     48  N   UNL A   1      39.078  32.720  34.167  1.00  0.00    -0.354 N 
ATOM     49  N   UNL A   1      41.202  31.236  35.571  1.00  0.00    -0.248 NA
ATOM     50  C   UNL A   1      42.724  31.055  37.334  1.00  0.00     0.031 C 
ATOM     51  C   UNL A   1      38.310  34.582  35.101  1.00  0.00     0.029 A 
ATOM     52  C   UNL A   1      39.229  33.557  35.260  1.00  0.00     0.049 A 
ATOM     53  H   UNL A   1      39.603  31.904  34.004  1.00  0.00     0.167 HD
ATOM     54  C   UNL A   1      41.036  32.317  36.427  1.00  0.00     0.074 A 
ATOM     55  C   UNL A   1      41.986  32.144  37.508  1.00  0.00     0.031 C 
ATOM     56  C   UNL A   1      40.177  33.361  36.328  1.00  0.00     0.037 A 
BRANCH  43  57
ATOM     57  C   UNL A   1      36.591  33.244  31.290  1.00  0.00     0.058 A 
ATOM     58  C   UNL A   1      36.879  33.961  30.120  1.00  0.00     0.135 A 
ATOM     59  C   UNL A   1      35.246  33.140  31.682  1.00  0.00     0.135 A 
ATOM     60  F   UNL A   1      38.150  34.106  29.712  1.00  0.00    -0.206 F 
ATOM     61  C   UNL A   1      35.874  34.574  29.377  1.00  0.00     0.059 A 
ATOM     62  C   UNL A   1      34.223  33.726  30.943  1.00  0.00     0.059 A 
ATOM     63  F   UNL A   1      34.916  32.467  32.796  1.00  0.00    -0.206 F 
ATOM     64  C   UNL A   1      34.549  34.455  29.800  1.00  0.00     0.060 A 
BRANCH  64  65
ATOM     65  S   UNL A   1      33.254  35.258  28.833  1.00  0.00     0.124 S 
ATOM     66  O   UNL A   1      32.424  35.839  29.885  1.00  0.00    -0.237 OA
ATOM     67  O   UNL A   1      34.009  36.210  28.024  1.00  0.00    -0.237 OA
ATOM     68  O   UNL A   1      32.648  34.155  28.094  1.00  0.00    -0.744 OA
ENDBRANCH  64  65
ENDBRANCH  43  57
BRANCH  44  69
ATOM     69  C   UNL A   1      43.850  28.539  36.320  1.00  0.00     0.058 A 
ATOM     70  C   UNL A   1      45.168  29.006  36.237  1.00  0.00     0.135 A 
ATOM     71  C   UNL A   1      43.601  27.422  37.133  1.00  0.00     0.135 A 
ATOM     72  F   UNL A   1      45.456  30.066  35.464  1.00  0.00    -0.206 F 
ATOM     73  C   UNL A   1      46.205  28.387  36.926  1.00  0.00     0.059 A 
ATOM     74  C   UNL A   1      44.617  26.799  37.850  1.00  0.00     0.059 A 
ATOM     75  F   UNL A   1      42.354  26.941  37.254  1.00  0.00    -0.206 F 
ATOM     76  C   UNL A   1      45.919  27.285  37.733  1.00  0.00     0.060 A 
BRANCH  76  77
ATOM     77  S   UNL A   1      47.259  26.521  38.672  1.00  0.00     0.124 S 
ATOM     78  O   UNL A   1      47.382  25.228  38.009  1.00  0.00    -0.237 OA
ATOM     79  O   UNL A   1      48.359  27.455  38.457  1.00  0.00    -0.237 OA
ATOM     80  O   UNL A   1      46.736  26.486  40.034  1.00  0.00    -0.744 OA
ENDBRANCH  76  77
ENDBRANCH  44  69
BRANCH  56  81
ATOM     81  C   UNL A   1      40.200  34.382  37.430  1.00  0.00     0.058 A 
ATOM     82  C   UNL A   1      41.018  35.518  37.360  1.00  0.00     0.135 A 
ATOM     83  C   UNL A   1      39.349  34.249  38.539  1.00  0.00     0.135 A 
ATOM     84  F   UNL A   1      41.854  35.686  36.324  1.00  0.00    -0.206 F 
ATOM     85  C   UNL A   1      41.001  36.486  38.360  1.00  0.00     0.059 A 
ATOM     86  C   UNL A   1      39.301  35.213  39.539  1.00  0.00     0.059 A 
ATOM     87  F   UNL A   1      38.541  33.181  38.647  1.00  0.00    -0.206 F 
ATOM     88  C   UNL A   1      40.138  36.325  39.445  1.00  0.00     0.060 A 
BRANCH  88  89
ATOM     89  S   UNL A   1      40.089  37.609  40.714  1.00  0.00     0.124 S 
ATOM     90  O   UNL A   1      39.244  36.986  41.728  1.00  0.00    -0.237 OA
ATOM     91  O   UNL A   1      41.498  37.756  41.067  1.00  0.00    -0.237 OA
ATOM     92  O   UNL A   1      39.501  38.750  40.020  1.00  0.00    -0.744 OA
ENDBRANCH  88  89
ENDBRANCH  56  81
ENDBRANCH  30  31
ENDBRANCH  23  25
ENDBRANCH  22  23
ENDBRANCH  21  22
ENDBRANCH  20  21
ENDBRANCH   1  20
TORSDOF 20
ENDMDL
MODEL 3
REMARK VINA RESULT:      -9.6      5.402     10.792
REMARK SMILES CCCOc1ccc(N[C@H](C)[C@H](C)C(=O)OCCOC(=O)c2ccc(-c3c4nc(c(-c5c(F)cc(S(=O)(=O)[O-])cc5F)c5ccc([nH]5)c(-c5c(F)cc(S(=O)(=O)[O-])cc5F)c5nc(c(-c6c(F)cc(S(=O)(=O)[O-])cc6F)c6ccc3[nH]6)C=C5)C=C4)cc2)cc1
REMARK SMILES IDX 16 1 14 2 15 3 12 4 13 5 10 6 11 7 9 8 8 10 5 11 6 12 89 13
REMARK SMILES IDX 7 14 88 15 4 16 3 17 2 18 1 19 17 20 18 21 19 22 20 23 21 24
REMARK SMILES IDX 22 25 23 26 87 27 24 28 86 29 25 30 26 31 27 32 80 33 28 34
REMARK SMILES IDX 85 35 79 36 81 37 29 38 84 39 78 40 77 41 30 43 64 44 43 45
REMARK SMILES IDX 63 46 44 47 47 48 62 49 82 50 45 51 46 52 61 54 83 55 48 56
REMARK SMILES IDX 31 57 32 58 41 59 33 60 34 61 40 62 42 63 35 64 36 65 37 66
REMARK SMILES IDX 38 67 39 68 65 69 66 70 75 71 67 72 68 73 74 74 76 75 69 76
REMARK SMILES IDX 70 77 71 78 72 79 73 80 49 81 50 82 59 83 51 84 52 85 58 86
REMARK SMILES IDX 60 87 53 88 54 89 55 90 56 91 57 92
REMARK H PARENT 9 9 81 42 47 53
REMARK Flexibility Score: inf
ROOT
ATOM      1  O   UNL A   1      32.517  28.376  24.932  1.00  0.00    -0.462 OA
ENDROOT
BRANCH   1   2
ATOM      2  C   UNL A   1      31.946  28.433  23.699  1.00  0.00     0.310 C 
ATOM      3  O   UNL A   1      32.406  29.063  22.756  1.00  0.00    -0.252 OA
BRANCH   2   4
ATOM      4  C   UNL A   1      30.636  27.663  23.609  1.00  0.00     0.118 C 
ATOM      5  C   UNL A   1      29.630  28.372  22.698  1.00  0.00     0.022 C 
BRANCH   4   6
ATOM      6  C   UNL A   1      30.941  26.197  23.246  1.00  0.00     0.090 C 
ATOM      7  C   UNL A   1      31.723  26.103  21.920  1.00  0.00     0.031 C 
BRANCH   6   8
ATOM      8  N   UNL A   1      31.799  25.568  24.245  1.00  0.00    -0.382 N 
ATOM      9  H   UNL A   1      32.328  26.170  24.816  1.00  0.00     0.160 HD
BRANCH   8  10
ATOM     10  C   UNL A   1      31.942  24.216  24.469  1.00  0.00     0.034 A 
ATOM     11  C   UNL A   1      32.041  21.451  24.933  1.00  0.00     0.119 A 
ATOM     12  C   UNL A   1      32.966  22.039  24.080  1.00  0.00     0.048 A 
ATOM     13  C   UNL A   1      31.140  22.234  25.640  1.00  0.00     0.048 A 
ATOM     14  C   UNL A   1      32.924  23.420  23.868  1.00  0.00     0.029 A 
ATOM     15  C   UNL A   1      31.075  23.603  25.384  1.00  0.00     0.029 A 
BRANCH  11  16
ATOM     16  O   UNL A   1      32.031  20.096  25.113  1.00  0.00    -0.494 OA
BRANCH  16  17
ATOM     17  C   UNL A   1      33.364  19.559  25.035  1.00  0.00     0.229 C 
BRANCH  17  18
ATOM     18  C   UNL A   1      33.421  18.322  24.133  1.00  0.00     0.038 C 
ATOM     19  C   UNL A   1      32.377  18.355  23.022  1.00  0.00     0.007 C 
ENDBRANCH  17  18
ENDBRANCH  16  17
ENDBRANCH  11  16
ENDBRANCH   8  10
ENDBRANCH   6   8
ENDBRANCH   4   6
ENDBRANCH   2   4
ENDBRANCH   1   2
BRANCH   1  20
ATOM     20  C   UNL A   1      31.880  29.163  25.958  1.00  0.00     0.274 C 
BRANCH  20  21
ATOM     21  C   UNL A   1      32.382  28.810  27.363  1.00  0.00     0.275 C 
BRANCH  21  22
ATOM     22  O   UNL A   1      33.818  28.841  27.449  1.00  0.00    -0.458 OA
BRANCH  22  23
ATOM     23  C   UNL A   1      34.344  30.020  27.849  1.00  0.00     0.338 C 
ATOM     24  O   UNL A   1      33.743  31.073  28.023  1.00  0.00    -0.246 OA
BRANCH  23  25
ATOM     25  C   UNL A   1      35.761  29.848  28.198  1.00  0.00     0.060 A 
ATOM     26  C   UNL A   1      36.712  30.008  27.186  1.00  0.00     0.016 A 
ATOM     27  C   UNL A   1      36.151  29.452  29.477  1.00  0.00     0.016 A 
ATOM     28  C   UNL A   1      38.060  29.784  27.444  1.00  0.00     0.010 A 
ATOM     29  C   UNL A   1      37.506  29.216  29.735  1.00  0.00     0.010 A 
ATOM     30  C   UNL A   1      38.465  29.372  28.717  1.00  0.00    -0.014 A 
BRANCH  30  31
ATOM     31  C   UNL A   1      39.887  29.039  28.961  1.00  0.00     0.031 A 
ATOM     32  C   UNL A   1      40.806  30.087  29.519  1.00  0.00     0.074 A 
ATOM     33  C   UNL A   1      40.342  27.799  28.704  1.00  0.00     0.049 A 
ATOM     34  N   UNL A   1      42.099  30.042  29.698  1.00  0.00    -0.248 NA
ATOM     35  C   UNL A   1      40.184  31.356  29.931  1.00  0.00     0.031 C 
ATOM     36  C   UNL A   1      39.527  26.685  28.222  1.00  0.00     0.029 A 
ATOM     37  N   UNL A   1      41.604  27.272  28.807  1.00  0.00    -0.354 N 
ATOM     38  C   UNL A   1      42.454  31.281  30.218  1.00  0.00     0.074 A 
ATOM     39  C   UNL A   1      41.237  32.060  30.321  1.00  0.00     0.031 C 
ATOM     40  C   UNL A   1      40.312  25.607  28.059  1.00  0.00     0.029 A 
ATOM     41  C   UNL A   1      41.691  25.970  28.380  1.00  0.00     0.049 A 
ATOM     42  H   UNL A   1      42.374  27.779  29.153  1.00  0.00     0.167 HD
ATOM     43  C   UNL A   1      43.682  31.725  30.571  1.00  0.00     0.037 A 
ATOM     44  C   UNL A   1      42.766  25.172  28.229  1.00  0.00     0.037 A 
ATOM     45  C   UNL A   1      44.882  30.936  30.478  1.00  0.00     0.049 A 
ATOM     46  C   UNL A   1      44.129  25.706  28.574  1.00  0.00     0.074 A 
ATOM     47  C   UNL A   1      46.177  31.292  30.812  1.00  0.00     0.029 A 
ATOM     48  N   UNL A   1      44.934  29.628  30.018  1.00  0.00    -0.354 N 
ATOM     49  N   UNL A   1      44.457  26.889  29.039  1.00  0.00    -0.248 NA
ATOM     50  C   UNL A   1      45.271  24.805  28.366  1.00  0.00     0.031 C 
ATOM     51  C   UNL A   1      47.016  30.211  30.523  1.00  0.00     0.029 A 
ATOM     52  C   UNL A   1      46.240  29.167  30.044  1.00  0.00     0.049 A 
ATOM     53  H   UNL A   1      44.157  29.104  29.717  1.00  0.00     0.167 HD
ATOM     54  C   UNL A   1      45.837  26.869  29.195  1.00  0.00     0.074 A 
ATOM     55  C   UNL A   1      46.284  25.553  28.785  1.00  0.00     0.031 C 
ATOM     56  C   UNL A   1      46.661  27.850  29.637  1.00  0.00     0.037 A 
BRANCH  43  57
ATOM     57  C   UNL A   1      43.793  33.143  31.057  1.00  0.00     0.058 A 
ATOM     58  C   UNL A   1      43.746  33.464  32.421  1.00  0.00     0.135 A 
ATOM     59  C   UNL A   1      43.970  34.193  30.141  1.00  0.00     0.135 A 
ATOM     60  F   UNL A   1      43.560  32.500  33.337  1.00  0.00    -0.206 F 
ATOM     61  C   UNL A   1      43.846  34.781  32.861  1.00  0.00     0.059 A 
ATOM     62  C   UNL A   1      44.093  35.514  30.559  1.00  0.00     0.059 A 
ATOM     63  F   UNL A   1      44.018  33.939  28.823  1.00  0.00    -0.206 F 
ATOM     64  C   UNL A   1      44.015  35.800  31.922  1.00  0.00     0.060 A 
BRANCH  64  65
ATOM     65  S   UNL A   1      44.138  37.504  32.502  1.00  0.00     0.124 S 
ATOM     66  O   UNL A   1      43.822  38.248  31.286  1.00  0.00    -0.237 OA
ATOM     67  O   UNL A   1      43.126  37.553  33.554  1.00  0.00    -0.237 OA
ATOM     68  O   UNL A   1      45.519  37.609  32.961  1.00  0.00    -0.744 OA
ENDBRANCH  64  65
ENDBRANCH  43  57
BRANCH  44  69
ATOM     69  C   UNL A   1      42.597  23.794  27.695  1.00  0.00     0.058 A 
ATOM     70  C   UNL A   1      42.515  22.689  28.552  1.00  0.00     0.135 A 
ATOM     71  C   UNL A   1      42.494  23.562  26.314  1.00  0.00     0.135 A 
ATOM     72  F   UNL A   1      42.619  22.861  29.880  1.00  0.00    -0.206 F 
ATOM     73  C   UNL A   1      42.344  21.399  28.061  1.00  0.00     0.059 A 
ATOM     74  C   UNL A   1      42.301  22.284  25.801  1.00  0.00     0.059 A 
ATOM     75  F   UNL A   1      42.557  24.588  25.452  1.00  0.00    -0.206 F 
ATOM     76  C   UNL A   1      42.235  21.206  26.683  1.00  0.00     0.060 A 
BRANCH  76  77
ATOM     77  S   UNL A   1      41.955  19.536  26.056  1.00  0.00     0.124 S 
ATOM     78  O   UNL A   1      40.542  19.590  25.698  1.00  0.00    -0.237 OA
ATOM     79  O   UNL A   1      42.894  19.462  24.942  1.00  0.00    -0.237 OA
ATOM     80  O   UNL A   1      42.286  18.690  27.199  1.00  0.00    -0.744 OA
ENDBRANCH  76  77
ENDBRANCH  44  69
BRANCH  56  81
ATOM     81  C   UNL A   1      48.127  27.531  29.729  1.00  0.00     0.058 A 
ATOM     82  C   UNL A   1      49.020  27.886  28.708  1.00  0.00     0.135 A 
ATOM     83  C   UNL A   1      48.649  26.919  30.880  1.00  0.00     0.135 A 
ATOM     84  F   UNL A   1      48.568  28.465  27.585  1.00  0.00    -0.206 F 
ATOM     85  C   UNL A   1      50.384  27.632  28.818  1.00  0.00     0.059 A 
ATOM     86  C   UNL A   1      50.011  26.676  31.020  1.00  0.00     0.059 A 
ATOM     87  F   UNL A   1      47.834  26.569  31.889  1.00  0.00    -0.206 F 
ATOM     88  C   UNL A   1      50.870  27.029  29.980  1.00  0.00     0.060 A 
BRANCH  88  89
ATOM     89  S   UNL A   1      52.647  26.746  30.133  1.00  0.00     0.124 S 
ATOM     90  O   UNL A   1      52.696  25.779  31.226  1.00  0.00    -0.237 OA
ATOM     91  O   UNL A   1      52.999  26.230  28.814  1.00  0.00    -0.237 OA
ATOM     92  O   UNL A   1      53.175  28.071  30.443  1.00  0.00    -0.744 OA
ENDBRANCH  88  89
ENDBRANCH  56  81
ENDBRANCH  30  31
ENDBRANCH  23  25
ENDBRANCH  22  23
ENDBRANCH  21  22
ENDBRANCH  20  21
ENDBRANCH   1  20
TORSDOF 20
ENDMDL
