MODEL 1
REMARK VINA RESULT:      -9.9      0.000      0.000
REMARK SMILES CC(=O)Oc1ccccc1SCCCCCC(=O)OCCOC(=O)c1ccc(-c2c3nc(c(-c4c(F)cc(S(=O)(=O)[O-])cc4F)c4ccc([nH]4)c(-c4c(F)cc(S(=O)(=O)[O-])cc4F)c4nc(c(-c5c(F)cc(S(=O)(=O)[O-])cc5F)c5ccc2[nH]5)C=C4)C=C3)cc1
REMARK SMILES IDX 17 1 18 2 16 3 15 4 14 5 13 6 12 7 11 8 10 9 5 10 6 11 7 12
REMARK SMILES IDX 9 13 8 14 4 15 2 16 1 17 3 18 19 19 20 20 21 21 22 22 23 23
REMARK SMILES IDX 24 24 25 25 26 26 90 27 27 28 89 29 28 30 29 31 30 32 83 33
REMARK SMILES IDX 31 34 88 35 82 36 84 37 32 38 87 39 81 40 80 41 33 43 67 44
REMARK SMILES IDX 46 45 66 46 47 47 50 48 65 49 85 50 48 51 49 52 64 54 86 55
REMARK SMILES IDX 51 56 34 57 35 58 44 59 36 60 37 61 43 62 45 63 38 64 39 65
REMARK SMILES IDX 40 66 41 67 42 68 68 69 69 70 78 71 70 72 71 73 77 74 79 75
REMARK SMILES IDX 72 76 73 77 74 78 75 79 76 80 52 81 53 82 62 83 54 84 55 85
REMARK SMILES IDX 61 86 63 87 56 88 57 89 58 90 59 91 60 92
REMARK H PARENT 84 42 50 53
REMARK Flexibility Score: inf
ROOT
ATOM      1  C   UNL A   1      36.342  21.053  24.936  1.00  0.00     0.305 C 
ATOM      2  O   UNL A   1      36.394  19.830  24.990  1.00  0.00    -0.252 OA
ENDROOT
BRANCH   1   3
ATOM      3  C   UNL A   1      35.098  21.843  25.207  1.00  0.00     0.123 C 
BRANCH   3   4
ATOM      4  C   UNL A   1      34.542  22.626  24.000  1.00  0.00     0.012 C 
BRANCH   4   5
ATOM      5  C   UNL A   1      33.020  22.585  23.739  1.00  0.00     0.001 C 
BRANCH   5   6
ATOM      6  C   UNL A   1      32.022  23.495  24.475  1.00  0.00     0.011 C 
BRANCH   6   7
ATOM      7  C   UNL A   1      31.735  24.987  24.180  1.00  0.00     0.075 C 
BRANCH   7   8
ATOM      8  S   UNL A   1      30.779  26.212  25.168  1.00  0.00    -0.122 SA
BRANCH   8   9
ATOM      9  C   UNL A   1      31.881  27.541  25.590  1.00  0.00     0.050 A 
ATOM     10  C   UNL A   1      31.721  28.918  25.365  1.00  0.00     0.144 A 
ATOM     11  C   UNL A   1      32.661  29.833  25.866  1.00  0.00     0.048 A 
ATOM     12  C   UNL A   1      33.823  29.378  26.495  1.00  0.00     0.004 A 
ATOM     13  C   UNL A   1      33.114  27.109  26.119  1.00  0.00     0.019 A 
ATOM     14  C   UNL A   1      34.079  28.014  26.563  1.00  0.00     0.001 A 
BRANCH  10  15
ATOM     15  O   UNL A   1      30.766  29.448  24.462  1.00  0.00    -0.426 OA
BRANCH  15  16
ATOM     16  C   UNL A   1      30.936  29.059  23.159  1.00  0.00     0.308 C 
ATOM     17  C   UNL A   1      29.705  28.573  22.487  1.00  0.00     0.139 C 
ATOM     18  O   UNL A   1      31.979  29.097  22.546  1.00  0.00    -0.252 OA
ENDBRANCH  15  16
ENDBRANCH  10  15
ENDBRANCH   8   9
ENDBRANCH   7   8
ENDBRANCH   6   7
ENDBRANCH   5   6
ENDBRANCH   4   5
ENDBRANCH   3   4
ENDBRANCH   1   3
BRANCH   1  19
ATOM     19  O   UNL A   1      37.388  21.872  24.668  1.00  0.00    -0.462 OA
BRANCH  19  20
ATOM     20  C   UNL A   1      37.758  22.724  25.759  1.00  0.00     0.274 C 
BRANCH  20  21
ATOM     21  C   UNL A   1      39.162  22.331  26.233  1.00  0.00     0.275 C 
BRANCH  21  22
ATOM     22  O   UNL A   1      39.594  23.231  27.275  1.00  0.00    -0.458 OA
BRANCH  22  23
ATOM     23  C   UNL A   1      40.657  24.018  26.984  1.00  0.00     0.338 C 
ATOM     24  O   UNL A   1      41.525  23.804  26.155  1.00  0.00    -0.246 OA
BRANCH  23  25
ATOM     25  C   UNL A   1      40.665  25.193  27.876  1.00  0.00     0.060 A 
ATOM     26  C   UNL A   1      39.562  25.502  28.674  1.00  0.00     0.016 A 
ATOM     27  C   UNL A   1      41.779  26.034  27.867  1.00  0.00     0.016 A 
ATOM     28  C   UNL A   1      39.562  26.665  29.445  1.00  0.00     0.010 A 
ATOM     29  C   UNL A   1      41.813  27.146  28.713  1.00  0.00     0.010 A 
ATOM     30  C   UNL A   1      40.706  27.474  29.514  1.00  0.00    -0.014 A 
BRANCH  30  31
ATOM     31  C   UNL A   1      40.792  28.609  30.476  1.00  0.00     0.031 A 
ATOM     32  C   UNL A   1      41.765  28.573  31.620  1.00  0.00     0.074 A 
ATOM     33  C   UNL A   1      39.925  29.637  30.360  1.00  0.00     0.049 A 
ATOM     34  N   UNL A   1      41.831  29.340  32.678  1.00  0.00    -0.248 NA
ATOM     35  C   UNL A   1      42.792  27.520  31.578  1.00  0.00     0.031 C 
ATOM     36  C   UNL A   1      38.941  29.794  29.284  1.00  0.00     0.029 A 
ATOM     37  N   UNL A   1      39.706  30.727  31.166  1.00  0.00    -0.354 N 
ATOM     38  C   UNL A   1      42.873  28.838  33.450  1.00  0.00     0.074 A 
ATOM     39  C   UNL A   1      43.404  27.692  32.742  1.00  0.00     0.031 C 
ATOM     40  C   UNL A   1      38.227  30.907  29.496  1.00  0.00     0.029 A 
ATOM     41  C   UNL A   1      38.631  31.490  30.768  1.00  0.00     0.049 A 
ATOM     42  H   UNL A   1      40.261  30.942  31.950  1.00  0.00     0.167 HD
ATOM     43  C   UNL A   1      43.334  29.291  34.644  1.00  0.00     0.037 A 
ATOM     44  C   UNL A   1      37.987  32.500  31.384  1.00  0.00     0.037 A 
ATOM     45  C   UNL A   1      42.790  30.441  35.324  1.00  0.00     0.049 A 
ATOM     46  C   UNL A   1      38.472  32.952  32.730  1.00  0.00     0.074 A 
ATOM     47  C   UNL A   1      43.207  31.015  36.513  1.00  0.00     0.029 A 
ATOM     48  N   UNL A   1      41.701  31.183  34.884  1.00  0.00    -0.354 N 
ATOM     49  N   UNL A   1      39.472  32.485  33.440  1.00  0.00    -0.248 NA
ATOM     50  C   UNL A   1      37.742  34.055  33.366  1.00  0.00     0.031 C 
ATOM     51  C   UNL A   1      42.329  32.060  36.825  1.00  0.00     0.029 A 
ATOM     52  C   UNL A   1      41.404  32.181  35.799  1.00  0.00     0.049 A 
ATOM     53  H   UNL A   1      41.212  31.022  34.045  1.00  0.00     0.167 HD
ATOM     54  C   UNL A   1      39.493  33.237  34.607  1.00  0.00     0.074 A 
ATOM     55  C   UNL A   1      38.421  34.208  34.495  1.00  0.00     0.031 C 
ATOM     56  C   UNL A   1      40.321  33.130  35.676  1.00  0.00     0.037 A 
BRANCH  43  57
ATOM     57  C   UNL A   1      44.437  28.509  35.311  1.00  0.00     0.058 A 
ATOM     58  C   UNL A   1      44.178  27.446  36.192  1.00  0.00     0.135 A 
ATOM     59  C   UNL A   1      45.782  28.832  35.064  1.00  0.00     0.135 A 
ATOM     60  F   UNL A   1      42.914  27.094  36.475  1.00  0.00    -0.206 F 
ATOM     61  C   UNL A   1      45.207  26.771  36.845  1.00  0.00     0.059 A 
ATOM     62  C   UNL A   1      46.829  28.149  35.679  1.00  0.00     0.059 A 
ATOM     63  F   UNL A   1      46.095  29.831  34.225  1.00  0.00    -0.206 F 
ATOM     64  C   UNL A   1      46.530  27.137  36.588  1.00  0.00     0.060 A 
BRANCH  64  65
ATOM     65  S   UNL A   1      47.849  26.282  37.477  1.00  0.00     0.124 S 
ATOM     66  O   UNL A   1      47.085  25.379  38.333  1.00  0.00    -0.237 OA
ATOM     67  O   UNL A   1      48.595  25.648  36.396  1.00  0.00    -0.237 OA
ATOM     68  O   UNL A   1      48.548  27.360  38.170  1.00  0.00    -0.744 OA
ENDBRANCH  64  65
ENDBRANCH  43  57
BRANCH  44  69
ATOM     69  C   UNL A   1      36.782  33.091  30.743  1.00  0.00     0.058 A 
ATOM     70  C   UNL A   1      35.495  32.817  31.222  1.00  0.00     0.135 A 
ATOM     71  C   UNL A   1      36.904  34.014  29.689  1.00  0.00     0.135 A 
ATOM     72  F   UNL A   1      35.324  31.935  32.219  1.00  0.00    -0.206 F 
ATOM     73  C   UNL A   1      34.371  33.445  30.690  1.00  0.00     0.059 A 
ATOM     74  C   UNL A   1      35.800  34.676  29.162  1.00  0.00     0.059 A 
ATOM     75  F   UNL A   1      38.117  34.323  29.202  1.00  0.00    -0.206 F 
ATOM     76  C   UNL A   1      34.537  34.384  29.670  1.00  0.00     0.060 A 
BRANCH  76  77
ATOM     77  S   UNL A   1      33.081  35.260  29.056  1.00  0.00     0.124 S 
ATOM     78  O   UNL A   1      32.576  34.328  28.055  1.00  0.00    -0.237 OA
ATOM     79  O   UNL A   1      32.275  35.397  30.266  1.00  0.00    -0.237 OA
ATOM     80  O   UNL A   1      33.632  36.508  28.536  1.00  0.00    -0.744 OA
ENDBRANCH  76  77
ENDBRANCH  44  69
BRANCH  56  81
ATOM     81  C   UNL A   1      40.105  34.091  36.813  1.00  0.00     0.058 A 
ATOM     82  C   UNL A   1      40.734  35.345  36.843  1.00  0.00     0.135 A 
ATOM     83  C   UNL A   1      39.204  33.782  37.845  1.00  0.00     0.135 A 
ATOM     84  F   UNL A   1      41.615  35.682  35.888  1.00  0.00    -0.206 F 
ATOM     85  C   UNL A   1      40.483  36.258  37.861  1.00  0.00     0.059 A 
ATOM     86  C   UNL A   1      38.916  34.691  38.856  1.00  0.00     0.059 A 
ATOM     87  F   UNL A   1      38.574  32.597  37.860  1.00  0.00    -0.206 F 
ATOM     88  C   UNL A   1      39.563  35.926  38.859  1.00  0.00     0.060 A 
BRANCH  88  89
ATOM     89  S   UNL A   1      39.200  37.147  40.137  1.00  0.00     0.124 S 
ATOM     90  O   UNL A   1      38.418  36.361  41.084  1.00  0.00    -0.237 OA
ATOM     91  O   UNL A   1      40.535  37.534  40.583  1.00  0.00    -0.237 OA
ATOM     92  O   UNL A   1      38.462  38.182  39.419  1.00  0.00    -0.744 OA
ENDBRANCH  88  89
ENDBRANCH  56  81
ENDBRANCH  30  31
ENDBRANCH  23  25
ENDBRANCH  22  23
ENDBRANCH  21  22
ENDBRANCH  20  21
ENDBRANCH  19  20
ENDBRANCH   1  19
TORSDOF 22
ENDMDL
MODEL 2
REMARK VINA RESULT:      -9.7      6.221     10.754
REMARK SMILES CC(=O)Oc1ccccc1SCCCCCC(=O)OCCOC(=O)c1ccc(-c2c3nc(c(-c4c(F)cc(S(=O)(=O)[O-])cc4F)c4ccc([nH]4)c(-c4c(F)cc(S(=O)(=O)[O-])cc4F)c4nc(c(-c5c(F)cc(S(=O)(=O)[O-])cc5F)c5ccc2[nH]5)C=C4)C=C3)cc1
REMARK SMILES IDX 17 1 18 2 16 3 15 4 14 5 13 6 12 7 11 8 10 9 5 10 6 11 7 12
REMARK SMILES IDX 9 13 8 14 4 15 2 16 1 17 3 18 19 19 20 20 21 21 22 22 23 23
REMARK SMILES IDX 24 24 25 25 26 26 90 27 27 28 89 29 28 30 29 31 30 32 83 33
REMARK SMILES IDX 31 34 88 35 82 36 84 37 32 38 87 39 81 40 80 41 33 43 67 44
REMARK SMILES IDX 46 45 66 46 47 47 50 48 65 49 85 50 48 51 49 52 64 54 86 55
REMARK SMILES IDX 51 56 34 57 35 58 44 59 36 60 37 61 43 62 45 63 38 64 39 65
REMARK SMILES IDX 40 66 41 67 42 68 68 69 69 70 78 71 70 72 71 73 77 74 79 75
REMARK SMILES IDX 72 76 73 77 74 78 75 79 76 80 52 81 53 82 62 83 54 84 55 85
REMARK SMILES IDX 61 86 63 87 56 88 57 89 58 90 59 91 60 92
REMARK H PARENT 84 42 50 53
REMARK Flexibility Score: inf
ROOT
ATOM      1  C   UNL A   1      37.420  22.371  25.381  1.00  0.00     0.305 C 
ATOM      2  O   UNL A   1      37.376  23.505  25.843  1.00  0.00    -0.252 OA
ENDROOT
BRANCH   1   3
ATOM      3  C   UNL A   1      36.495  21.875  24.311  1.00  0.00     0.123 C 
BRANCH   3   4
ATOM      4  C   UNL A   1      36.129  22.910  23.228  1.00  0.00     0.012 C 
BRANCH   4   5
ATOM      5  C   UNL A   1      34.652  23.344  23.099  1.00  0.00     0.001 C 
BRANCH   5   6
ATOM      6  C   UNL A   1      34.036  24.470  23.948  1.00  0.00     0.011 C 
BRANCH   6   7
ATOM      7  C   UNL A   1      32.699  25.205  23.684  1.00  0.00     0.075 C 
BRANCH   7   8
ATOM      8  S   UNL A   1      31.383  25.700  24.872  1.00  0.00    -0.122 SA
BRANCH   8   9
ATOM      9  C   UNL A   1      30.832  27.328  24.419  1.00  0.00     0.050 A 
ATOM     10  C   UNL A   1      31.269  28.569  24.910  1.00  0.00     0.144 A 
ATOM     11  C   UNL A   1      30.784  29.763  24.352  1.00  0.00     0.048 A 
ATOM     12  C   UNL A   1      29.779  29.731  23.381  1.00  0.00     0.004 A 
ATOM     13  C   UNL A   1      29.739  27.330  23.531  1.00  0.00     0.019 A 
ATOM     14  C   UNL A   1      29.211  28.516  23.019  1.00  0.00     0.001 A 
BRANCH  10  15
ATOM     15  O   UNL A   1      32.023  28.708  26.101  1.00  0.00    -0.426 OA
BRANCH  15  16
ATOM     16  C   UNL A   1      33.381  28.692  25.922  1.00  0.00     0.308 C 
ATOM     17  C   UNL A   1      34.171  29.150  27.092  1.00  0.00     0.139 C 
ATOM     18  O   UNL A   1      33.952  28.329  24.917  1.00  0.00    -0.252 OA
ENDBRANCH  15  16
ENDBRANCH  10  15
ENDBRANCH   8   9
ENDBRANCH   7   8
ENDBRANCH   6   7
ENDBRANCH   5   6
ENDBRANCH   4   5
ENDBRANCH   3   4
ENDBRANCH   1   3
BRANCH   1  19
ATOM     19  O   UNL A   1      38.317  21.417  25.726  1.00  0.00    -0.462 OA
BRANCH  19  20
ATOM     20  C   UNL A   1      38.118  20.160  25.067  1.00  0.00     0.274 C 
BRANCH  20  21
ATOM     21  C   UNL A   1      39.253  19.211  25.467  1.00  0.00     0.275 C 
BRANCH  21  22
ATOM     22  O   UNL A   1      40.076  19.835  26.475  1.00  0.00    -0.458 OA
BRANCH  22  23
ATOM     23  C   UNL A   1      41.405  19.878  26.220  1.00  0.00     0.338 C 
ATOM     24  O   UNL A   1      42.093  18.989  25.746  1.00  0.00    -0.246 OA
BRANCH  23  25
ATOM     25  C   UNL A   1      41.955  21.175  26.658  1.00  0.00     0.060 A 
ATOM     26  C   UNL A   1      42.311  21.396  27.990  1.00  0.00     0.016 A 
ATOM     27  C   UNL A   1      42.061  22.208  25.726  1.00  0.00     0.016 A 
ATOM     28  C   UNL A   1      42.750  22.657  28.395  1.00  0.00     0.010 A 
ATOM     29  C   UNL A   1      42.591  23.441  26.116  1.00  0.00     0.010 A 
ATOM     30  C   UNL A   1      42.944  23.680  27.456  1.00  0.00    -0.014 A 
BRANCH  30  31
ATOM     31  C   UNL A   1      43.590  24.967  27.838  1.00  0.00     0.031 A 
ATOM     32  C   UNL A   1      42.766  26.121  28.337  1.00  0.00     0.074 A 
ATOM     33  C   UNL A   1      44.918  25.118  27.650  1.00  0.00     0.049 A 
ATOM     34  N   UNL A   1      43.105  27.374  28.497  1.00  0.00    -0.248 NA
ATOM     35  C   UNL A   1      41.367  25.828  28.686  1.00  0.00     0.031 C 
ATOM     36  C   UNL A   1      45.829  24.068  27.184  1.00  0.00     0.029 A 
ATOM     37  N   UNL A   1      45.731  26.216  27.796  1.00  0.00    -0.354 N 
ATOM     38  C   UNL A   1      41.954  28.030  28.920  1.00  0.00     0.074 A 
ATOM     39  C   UNL A   1      40.904  27.035  28.981  1.00  0.00     0.031 C 
ATOM     40  C   UNL A   1      47.067  24.569  27.082  1.00  0.00     0.029 A 
ATOM     41  C   UNL A   1      47.023  25.994  27.378  1.00  0.00     0.049 A 
ATOM     42  H   UNL A   1      45.420  27.075  28.163  1.00  0.00     0.167 HD
ATOM     43  C   UNL A   1      41.793  29.344  29.219  1.00  0.00     0.037 A 
ATOM     44  C   UNL A   1      48.046  26.847  27.180  1.00  0.00     0.037 A 
ATOM     45  C   UNL A   1      42.859  30.313  29.157  1.00  0.00     0.049 A 
ATOM     46  C   UNL A   1      47.837  28.307  27.460  1.00  0.00     0.074 A 
ATOM     47  C   UNL A   1      42.821  31.658  29.481  1.00  0.00     0.029 A 
ATOM     48  N   UNL A   1      44.153  30.044  28.727  1.00  0.00    -0.354 N 
ATOM     49  N   UNL A   1      46.751  28.911  27.881  1.00  0.00    -0.248 NA
ATOM     50  C   UNL A   1      48.977  29.200  27.230  1.00  0.00     0.031 C 
ATOM     51  C   UNL A   1      44.070  32.215  29.182  1.00  0.00     0.029 A 
ATOM     52  C   UNL A   1      44.908  31.206  28.734  1.00  0.00     0.049 A 
ATOM     53  H   UNL A   1      44.484  29.157  28.456  1.00  0.00     0.167 HD
ATOM     54  C   UNL A   1      47.077  30.259  27.968  1.00  0.00     0.074 A 
ATOM     55  C   UNL A   1      48.470  30.375  27.581  1.00  0.00     0.031 C 
ATOM     56  C   UNL A   1      46.292  31.304  28.331  1.00  0.00     0.037 A 
BRANCH  43  57
ATOM     57  C   UNL A   1      40.407  29.814  29.583  1.00  0.00     0.058 A 
ATOM     58  C   UNL A   1      39.384  29.947  28.630  1.00  0.00     0.135 A 
ATOM     59  C   UNL A   1      40.097  30.141  30.914  1.00  0.00     0.135 A 
ATOM     60  F   UNL A   1      39.620  29.658  27.340  1.00  0.00    -0.206 F 
ATOM     61  C   UNL A   1      38.126  30.438  28.971  1.00  0.00     0.059 A 
ATOM     62  C   UNL A   1      38.836  30.602  31.285  1.00  0.00     0.059 A 
ATOM     63  F   UNL A   1      41.029  30.027  31.873  1.00  0.00    -0.206 F 
ATOM     64  C   UNL A   1      37.865  30.772  30.302  1.00  0.00     0.060 A 
BRANCH  64  65
ATOM     65  S   UNL A   1      36.244  31.449  30.719  1.00  0.00     0.124 S 
ATOM     66  O   UNL A   1      35.804  30.527  31.763  1.00  0.00    -0.237 OA
ATOM     67  O   UNL A   1      36.574  32.798  31.165  1.00  0.00    -0.237 OA
ATOM     68  O   UNL A   1      35.506  31.369  29.462  1.00  0.00    -0.744 OA
ENDBRANCH  64  65
ENDBRANCH  43  57
BRANCH  44  69
ATOM     69  C   UNL A   1      49.329  26.328  26.631  1.00  0.00     0.058 A 
ATOM     70  C   UNL A   1      49.658  26.486  25.279  1.00  0.00     0.135 A 
ATOM     71  C   UNL A   1      50.289  25.740  27.473  1.00  0.00     0.135 A 
ATOM     72  F   UNL A   1      48.771  27.032  24.432  1.00  0.00    -0.206 F 
ATOM     73  C   UNL A   1      50.897  26.092  24.781  1.00  0.00     0.059 A 
ATOM     74  C   UNL A   1      51.545  25.366  27.005  1.00  0.00     0.059 A 
ATOM     75  F   UNL A   1      50.029  25.578  28.780  1.00  0.00    -0.206 F 
ATOM     76  C   UNL A   1      51.839  25.547  25.655  1.00  0.00     0.060 A 
BRANCH  76  77
ATOM     77  S   UNL A   1      53.476  25.129  25.015  1.00  0.00     0.124 S 
ATOM     78  O   UNL A   1      54.341  25.916  25.885  1.00  0.00    -0.237 OA
ATOM     79  O   UNL A   1      53.519  23.683  25.209  1.00  0.00    -0.237 OA
ATOM     80  O   UNL A   1      53.415  25.565  23.623  1.00  0.00    -0.744 OA
ENDBRANCH  76  77
ENDBRANCH  44  69
BRANCH  56  81
ATOM     81  C   UNL A   1      46.923  32.669  28.331  1.00  0.00     0.058 A 
ATOM     82  C   UNL A   1      46.809  33.530  27.228  1.00  0.00     0.135 A 
ATOM     83  C   UNL A   1      47.585  33.148  29.472  1.00  0.00     0.135 A 
ATOM     84  F   UNL A   1      46.199  33.115  26.106  1.00  0.00    -0.206 F 
ATOM     85  C   UNL A   1      47.337  34.816  27.254  1.00  0.00     0.059 A 
ATOM     86  C   UNL A   1      48.094  34.441  29.531  1.00  0.00     0.059 A 
ATOM     87  F   UNL A   1      47.718  32.366  30.555  1.00  0.00    -0.206 F 
ATOM     88  C   UNL A   1      47.969  35.267  28.415  1.00  0.00     0.060 A 
BRANCH  88  89
ATOM     89  S   UNL A   1      48.591  36.960  28.456  1.00  0.00     0.124 S 
ATOM     90  O   UNL A   1      48.725  37.192  29.889  1.00  0.00    -0.237 OA
ATOM     91  O   UNL A   1      49.842  36.848  27.712  1.00  0.00    -0.237 OA
ATOM     92  O   UNL A   1      47.541  37.725  27.791  1.00  0.00    -0.744 OA
ENDBRANCH  88  89
ENDBRANCH  56  81
ENDBRANCH  30  31
ENDBRANCH  23  25
ENDBRANCH  22  23
ENDBRANCH  21  22
ENDBRANCH  20  21
ENDBRANCH  19  20
ENDBRANCH   1  19
TORSDOF 22
ENDMDL
MODEL 3
REMARK VINA RESULT:      -9.6      6.453     11.061
REMARK SMILES CC(=O)Oc1ccccc1SCCCCCC(=O)OCCOC(=O)c1ccc(-c2c3nc(c(-c4c(F)cc(S(=O)(=O)[O-])cc4F)c4ccc([nH]4)c(-c4c(F)cc(S(=O)(=O)[O-])cc4F)c4nc(c(-c5c(F)cc(S(=O)(=O)[O-])cc5F)c5ccc2[nH]5)C=C4)C=C3)cc1
REMARK SMILES IDX 17 1 18 2 16 3 15 4 14 5 13 6 12 7 11 8 10 9 5 10 6 11 7 12
REMARK SMILES IDX 9 13 8 14 4 15 2 16 1 17 3 18 19 19 20 20 21 21 22 22 23 23
REMARK SMILES IDX 24 24 25 25 26 26 90 27 27 28 89 29 28 30 29 31 30 32 83 33
REMARK SMILES IDX 31 34 88 35 82 36 84 37 32 38 87 39 81 40 80 41 33 43 67 44
REMARK SMILES IDX 46 45 66 46 47 47 50 48 65 49 85 50 48 51 49 52 64 54 86 55
REMARK SMILES IDX 51 56 34 57 35 58 44 59 36 60 37 61 43 62 45 63 38 64 39 65
REMARK SMILES IDX 40 66 41 67 42 68 68 69 69 70 78 71 70 72 71 73 77 74 79 75
REMARK SMILES IDX 72 76 73 77 74 78 75 79 76 80 52 81 53 82 62 83 54 84 55 85
REMARK SMILES IDX 61 86 63 87 56 88 57 89 58 90 59 91 60 92
REMARK H PARENT 84 42 50 53
REMARK Flexibility Score: inf
ROOT
ATOM      1  C   UNL A   1      36.315  22.037  24.825  1.00  0.00     0.305 C 
ATOM      2  O   UNL A   1      35.611  21.039  24.915  1.00  0.00    -0.252 OA
ENDROOT
BRANCH   1   3
ATOM      3  C   UNL A   1      35.803  23.377  24.391  1.00  0.00     0.123 C 
BRANCH   3   4
ATOM      4  C   UNL A   1      34.803  24.042  25.358  1.00  0.00     0.012 C 
BRANCH   4   5
ATOM      5  C   UNL A   1      34.292  25.460  25.021  1.00  0.00     0.001 C 
BRANCH   5   6
ATOM      6  C   UNL A   1      33.536  26.338  26.034  1.00  0.00     0.011 C 
BRANCH   6   7
ATOM      7  C   UNL A   1      32.016  26.634  26.052  1.00  0.00     0.075 C 
BRANCH   7   8
ATOM      8  S   UNL A   1      30.597  25.468  25.924  1.00  0.00    -0.122 SA
BRANCH   8   9
ATOM      9  C   UNL A   1      31.171  24.009  25.089  1.00  0.00     0.050 A 
ATOM     10  C   UNL A   1      31.348  23.800  23.711  1.00  0.00     0.144 A 
ATOM     11  C   UNL A   1      31.913  22.603  23.242  1.00  0.00     0.048 A 
ATOM     12  C   UNL A   1      32.201  21.563  24.130  1.00  0.00     0.004 A 
ATOM     13  C   UNL A   1      31.358  22.903  25.942  1.00  0.00     0.019 A 
ATOM     14  C   UNL A   1      31.863  21.690  25.472  1.00  0.00     0.001 A 
BRANCH  10  15
ATOM     15  O   UNL A   1      30.786  24.645  22.722  1.00  0.00    -0.426 OA
BRANCH  15  16
ATOM     16  C   UNL A   1      31.562  25.721  22.383  1.00  0.00     0.308 C 
ATOM     17  C   UNL A   1      32.775  25.393  21.592  1.00  0.00     0.139 C 
ATOM     18  O   UNL A   1      31.323  26.874  22.666  1.00  0.00    -0.252 OA
ENDBRANCH  15  16
ENDBRANCH  10  15
ENDBRANCH   8   9
ENDBRANCH   7   8
ENDBRANCH   6   7
ENDBRANCH   5   6
ENDBRANCH   4   5
ENDBRANCH   3   4
ENDBRANCH   1   3
BRANCH   1  19
ATOM     19  O   UNL A   1      37.633  22.099  25.135  1.00  0.00    -0.462 OA
BRANCH  19  20
ATOM     20  C   UNL A   1      38.198  20.846  25.541  1.00  0.00     0.274 C 
BRANCH  20  21
ATOM     21  C   UNL A   1      39.626  21.092  26.039  1.00  0.00     0.275 C 
BRANCH  21  22
ATOM     22  O   UNL A   1      40.281  19.829  26.282  1.00  0.00    -0.458 OA
BRANCH  22  23
ATOM     23  C   UNL A   1      41.600  19.771  25.979  1.00  0.00     0.338 C 
ATOM     24  O   UNL A   1      42.206  18.820  25.514  1.00  0.00    -0.246 OA
BRANCH  23  25
ATOM     25  C   UNL A   1      42.253  21.040  26.351  1.00  0.00     0.060 A 
ATOM     26  C   UNL A   1      42.656  21.957  25.379  1.00  0.00     0.016 A 
ATOM     27  C   UNL A   1      42.518  21.288  27.699  1.00  0.00     0.016 A 
ATOM     28  C   UNL A   1      43.346  23.111  25.751  1.00  0.00     0.010 A 
ATOM     29  C   UNL A   1      43.125  22.490  28.075  1.00  0.00     0.010 A 
ATOM     30  C   UNL A   1      43.544  23.417  27.105  1.00  0.00    -0.014 A 
BRANCH  30  31
ATOM     31  C   UNL A   1      44.107  24.731  27.526  1.00  0.00     0.031 A 
ATOM     32  C   UNL A   1      43.205  25.834  28.007  1.00  0.00     0.074 A 
ATOM     33  C   UNL A   1      45.431  24.954  27.390  1.00  0.00     0.049 A 
ATOM     34  N   UNL A   1      43.470  27.100  28.194  1.00  0.00    -0.248 NA
ATOM     35  C   UNL A   1      41.812  25.463  28.300  1.00  0.00     0.031 C 
ATOM     36  C   UNL A   1      46.413  23.961  26.946  1.00  0.00     0.029 A 
ATOM     37  N   UNL A   1      46.178  26.091  27.578  1.00  0.00    -0.354 N 
ATOM     38  C   UNL A   1      42.271  27.690  28.581  1.00  0.00     0.074 A 
ATOM     39  C   UNL A   1      41.274  26.640  28.592  1.00  0.00     0.031 C 
ATOM     40  C   UNL A   1      47.625  24.527  26.896  1.00  0.00     0.029 A 
ATOM     41  C   UNL A   1      47.495  25.944  27.206  1.00  0.00     0.049 A 
ATOM     42  H   UNL A   1      45.809  26.928  27.943  1.00  0.00     0.167 HD
ATOM     43  C   UNL A   1      42.030  28.989  28.889  1.00  0.00     0.037 A 
ATOM     44  C   UNL A   1      48.478  26.852  27.056  1.00  0.00     0.037 A 
ATOM     45  C   UNL A   1      43.045  30.014  28.877  1.00  0.00     0.049 A 
ATOM     46  C   UNL A   1      48.181  28.295  27.345  1.00  0.00     0.074 A 
ATOM     47  C   UNL A   1      42.924  31.351  29.214  1.00  0.00     0.029 A 
ATOM     48  N   UNL A   1      44.366  29.819  28.493  1.00  0.00    -0.354 N 
ATOM     49  N   UNL A   1      47.050  28.836  27.731  1.00  0.00    -0.248 NA
ATOM     50  C   UNL A   1      49.280  29.250  27.167  1.00  0.00     0.031 C 
ATOM     51  C   UNL A   1      44.151  31.977  28.969  1.00  0.00     0.029 A 
ATOM     52  C   UNL A   1      45.058  31.019  28.541  1.00  0.00     0.049 A 
ATOM     53  H   UNL A   1      44.753  28.954  28.225  1.00  0.00     0.167 HD
ATOM     54  C   UNL A   1      47.301  30.197  27.846  1.00  0.00     0.074 A 
ATOM     55  C   UNL A   1      48.699  30.391  27.512  1.00  0.00     0.031 C 
ATOM     56  C   UNL A   1      46.449  31.195  28.191  1.00  0.00     0.037 A 
BRANCH  43  57
ATOM     57  C   UNL A   1      40.609  29.381  29.205  1.00  0.00     0.058 A 
ATOM     58  C   UNL A   1      39.638  29.562  28.206  1.00  0.00     0.135 A 
ATOM     59  C   UNL A   1      40.210  29.582  30.538  1.00  0.00     0.135 A 
ATOM     60  F   UNL A   1      39.959  29.392  26.913  1.00  0.00    -0.206 F 
ATOM     61  C   UNL A   1      38.345  29.980  28.510  1.00  0.00     0.059 A 
ATOM     62  C   UNL A   1      38.914  29.968  30.869  1.00  0.00     0.059 A 
ATOM     63  F   UNL A   1      41.089  29.417  31.539  1.00  0.00    -0.206 F 
ATOM     64  C   UNL A   1      37.995  30.189  29.846  1.00  0.00     0.060 A 
BRANCH  64  65
ATOM     65  S   UNL A   1      36.328  30.775  30.220  1.00  0.00     0.124 S 
ATOM     66  O   UNL A   1      36.056  30.091  31.481  1.00  0.00    -0.237 OA
ATOM     67  O   UNL A   1      36.517  32.219  30.311  1.00  0.00    -0.237 OA
ATOM     68  O   UNL A   1      35.541  30.319  29.078  1.00  0.00    -0.744 OA
ENDBRANCH  64  65
ENDBRANCH  43  57
BRANCH  44  69
ATOM     69  C   UNL A   1      49.805  26.409  26.550  1.00  0.00     0.058 A 
ATOM     70  C   UNL A   1      50.096  26.403  25.179  1.00  0.00     0.135 A 
ATOM     71  C   UNL A   1      50.839  26.065  27.438  1.00  0.00     0.135 A 
ATOM     72  F   UNL A   1      49.140  26.713  24.290  1.00  0.00    -0.206 F 
ATOM     73  C   UNL A   1      51.366  26.085  24.706  1.00  0.00     0.059 A 
ATOM     74  C   UNL A   1      52.124  25.773  26.992  1.00  0.00     0.059 A 
ATOM     75  F   UNL A   1      50.617  26.069  28.763  1.00  0.00    -0.206 F 
ATOM     76  C   UNL A   1      52.377  25.785  25.622  1.00  0.00     0.060 A 
BRANCH  76  77
ATOM     77  S   UNL A   1      54.043  25.469  25.000  1.00  0.00     0.124 S 
ATOM     78  O   UNL A   1      54.092  24.012  25.016  1.00  0.00    -0.237 OA
ATOM     79  O   UNL A   1      53.999  26.092  23.680  1.00  0.00    -0.237 OA
ATOM     80  O   UNL A   1      54.900  26.140  25.972  1.00  0.00    -0.744 OA
ENDBRANCH  76  77
ENDBRANCH  44  69
BRANCH  56  81
ATOM     81  C   UNL A   1      47.005  32.592  28.230  1.00  0.00     0.058 A 
ATOM     82  C   UNL A   1      47.690  33.077  29.354  1.00  0.00     0.135 A 
ATOM     83  C   UNL A   1      46.915  33.426  27.104  1.00  0.00     0.135 A 
ATOM     84  F   UNL A   1      47.792  32.325  30.461  1.00  0.00    -0.206 F 
ATOM     85  C   UNL A   1      48.260  34.345  29.364  1.00  0.00     0.059 A 
ATOM     86  C   UNL A   1      47.503  34.686  27.081  1.00  0.00     0.059 A 
ATOM     87  F   UNL A   1      46.273  33.008  26.002  1.00  0.00    -0.206 F 
ATOM     88  C   UNL A   1      48.171  35.139  28.218  1.00  0.00     0.060 A 
BRANCH  88  89
ATOM     89  S   UNL A   1      48.972  36.756  28.225  1.00  0.00     0.124 S 
ATOM     90  O   UNL A   1      47.951  37.589  28.850  1.00  0.00    -0.237 OA
ATOM     91  O   UNL A   1      50.166  36.506  29.027  1.00  0.00    -0.237 OA
ATOM     92  O   UNL A   1      49.219  37.020  26.811  1.00  0.00    -0.744 OA
ENDBRANCH  88  89
ENDBRANCH  56  81
ENDBRANCH  30  31
ENDBRANCH  23  25
ENDBRANCH  22  23
ENDBRANCH  21  22
ENDBRANCH  20  21
ENDBRANCH  19  20
ENDBRANCH   1  19
TORSDOF 22
ENDMDL
