MODEL 1
REMARK VINA RESULT:     -13.4      0.000      0.000
REMARK SMILES Cc1cccc(OC2(C(=O)OCCOC(=O)c3ccc(-c4c5nc(c(-c6c(F)cc(S(=O)(=O)[O-])cc6F)c6ccc([nH]6)c(-c6c(F)cc(S(=O)(=O)[O-])cc6F)c6nc(c(-c7c(F)cc(S(=O)(=O)[O-])cc7F)c7ccc4[nH]7)C=C6)C=C5)cc3)CCN(C(=O)c3cnc[nH]c3=O)CC2)c1
REMARK SMILES IDX 13 1 12 2 11 3 9 4 10 5 8 6 83 7 96 8 84 9 95 10 85 11 86 12
REMARK SMILES IDX 87 13 7 14 6 15 1 16 2 17 3 18 97 19 4 20 5 21 88 22 89 23
REMARK SMILES IDX 93 24 90 25 92 26 94 27 91 28 14 30 15 31 16 32 17 33 18 34
REMARK SMILES IDX 82 35 19 36 81 37 20 38 21 39 22 40 75 41 23 42 80 43 74 44
REMARK SMILES IDX 76 45 24 46 79 47 73 48 72 49 25 51 59 52 38 53 58 54 39 55
REMARK SMILES IDX 42 56 57 57 77 58 40 59 41 60 56 62 78 63 43 64 26 65 27 66
REMARK SMILES IDX 36 67 28 68 29 69 35 70 37 71 30 72 31 73 32 74 33 75 34 76
REMARK SMILES IDX 60 77 61 78 70 79 62 80 63 81 69 82 71 83 64 84 65 85 66 86
REMARK SMILES IDX 67 87 68 88 44 89 45 90 54 91 46 92 47 93 53 94 55 95 48 96
REMARK SMILES IDX 49 97 50 98 51 99 52 100
REMARK H PARENT 92 29 76 50 42 61
REMARK Flexibility Score: inf
ROOT
ATOM      1  C   UNL A   1      33.649  30.484  27.142  1.00  0.00     0.275 C 
ENDROOT
BRANCH   1   2
ATOM      2  C   UNL A   1      33.165  29.024  27.302  1.00  0.00     0.274 C 
BRANCH   2   3
ATOM      3  O   UNL A   1      31.908  28.927  26.644  1.00  0.00    -0.459 OA
BRANCH   3   4
ATOM      4  C   UNL A   1      31.412  27.740  26.194  1.00  0.00     0.350 C 
ATOM      5  O   UNL A   1      31.135  26.783  26.899  1.00  0.00    -0.247 OA
BRANCH   4   6
ATOM      6  C   UNL A   1      31.593  27.749  24.661  1.00  0.00     0.209 C 
ATOM      7  C   UNL A   1      30.418  26.779  24.309  1.00  0.00     0.082 C 
ATOM      8  C   UNL A   1      31.438  29.167  24.093  1.00  0.00     0.082 C 
ATOM      9  C   UNL A   1      29.753  26.979  22.976  1.00  0.00     0.124 C 
ATOM     10  C   UNL A   1      30.960  29.066  22.653  1.00  0.00     0.124 C 
ATOM     11  N   UNL A   1      29.668  28.388  22.689  1.00  0.00    -0.338 N 
ATOM     12  C   UNL A   1      28.485  29.075  22.923  1.00  0.00     0.261 C 
ATOM     13  O   UNL A   1      27.563  28.663  23.619  1.00  0.00    -0.269 OA
BRANCH   6  14
ATOM     14  O   UNL A   1      32.965  27.428  24.417  1.00  0.00    -0.475 OA
BRANCH  14  15
ATOM     15  C   UNL A   1      33.558  26.224  24.226  1.00  0.00     0.121 A 
ATOM     16  C   UNL A   1      33.301  23.178  22.006  1.00  0.00     0.044 C 
ATOM     17  C   UNL A   1      33.726  24.057  23.142  1.00  0.00    -0.047 A 
ATOM     18  C   UNL A   1      34.306  23.512  24.288  1.00  0.00     0.003 A 
ATOM     19  C   UNL A   1      33.393  25.419  23.112  1.00  0.00     0.050 A 
ATOM     20  C   UNL A   1      34.547  24.325  25.390  1.00  0.00     0.004 A 
ATOM     21  C   UNL A   1      34.168  25.671  25.359  1.00  0.00     0.046 A 
ENDBRANCH  14  15
ENDBRANCH   6  14
BRANCH  12  22
ATOM     22  C   UNL A   1      28.400  30.359  22.211  1.00  0.00     0.123 A 
ATOM     23  C   UNL A   1      27.992  30.429  20.937  1.00  0.00     0.132 A 
ATOM     24  C   UNL A   1      28.634  31.626  22.927  1.00  0.00     0.263 A 
ATOM     25  N   UNL A   1      27.752  31.604  20.260  1.00  0.00    -0.246 NA
ATOM     26  N   UNL A   1      28.299  32.749  22.231  1.00  0.00    -0.312 N 
ATOM     27  O   UNL A   1      29.084  31.694  24.065  1.00  0.00    -0.269 OA
ATOM     28  C   UNL A   1      27.892  32.695  20.932  1.00  0.00     0.199 A 
ATOM     29  H   UNL A   1      28.354  33.623  22.680  1.00  0.00     0.171 HD
ENDBRANCH  12  22
ENDBRANCH   4   6
ENDBRANCH   3   4
ENDBRANCH   2   3
ENDBRANCH   1   2
BRANCH   1  30
ATOM     30  O   UNL A   1      34.066  31.246  28.310  1.00  0.00    -0.458 OA
BRANCH  30  31
ATOM     31  C   UNL A   1      35.139  32.098  28.198  1.00  0.00     0.338 C 
ATOM     32  O   UNL A   1      35.047  33.202  27.722  1.00  0.00    -0.246 OA
BRANCH  31  33
ATOM     33  C   UNL A   1      36.258  31.527  29.022  1.00  0.00     0.060 A 
ATOM     34  C   UNL A   1      36.176  30.220  29.533  1.00  0.00     0.016 A 
ATOM     35  C   UNL A   1      37.494  32.127  28.821  1.00  0.00     0.016 A 
ATOM     36  C   UNL A   1      37.332  29.443  29.644  1.00  0.00     0.010 A 
ATOM     37  C   UNL A   1      38.583  31.313  28.706  1.00  0.00     0.010 A 
ATOM     38  C   UNL A   1      38.519  29.988  29.158  1.00  0.00    -0.014 A 
BRANCH  38  39
ATOM     39  C   UNL A   1      39.848  29.454  29.398  1.00  0.00     0.031 A 
ATOM     40  C   UNL A   1      40.224  28.106  28.904  1.00  0.00     0.074 A 
ATOM     41  C   UNL A   1      40.618  30.420  29.958  1.00  0.00     0.049 A 
ATOM     42  N   UNL A   1      40.803  27.184  29.603  1.00  0.00    -0.248 NA
ATOM     43  C   UNL A   1      39.898  27.640  27.545  1.00  0.00     0.031 C 
ATOM     44  C   UNL A   1      42.043  30.551  30.156  1.00  0.00     0.029 A 
ATOM     45  N   UNL A   1      40.165  31.625  30.523  1.00  0.00    -0.354 N 
ATOM     46  C   UNL A   1      41.286  26.266  28.678  1.00  0.00     0.074 A 
ATOM     47  C   UNL A   1      40.475  26.429  27.501  1.00  0.00     0.031 C 
ATOM     48  C   UNL A   1      42.256  31.488  31.109  1.00  0.00     0.029 A 
ATOM     49  C   UNL A   1      40.954  31.925  31.607  1.00  0.00     0.049 A 
ATOM     50  H   UNL A   1      39.407  32.162  30.197  1.00  0.00     0.167 HD
ATOM     51  C   UNL A   1      42.571  25.804  28.778  1.00  0.00     0.037 A 
ATOM     52  C   UNL A   1      40.454  31.770  32.870  1.00  0.00     0.037 A 
ATOM     53  C   UNL A   1      43.255  26.588  29.795  1.00  0.00     0.049 A 
ATOM     54  C   UNL A   1      41.177  30.615  33.512  1.00  0.00     0.074 A 
ATOM     55  C   UNL A   1      44.031  27.728  29.661  1.00  0.00     0.029 A 
ATOM     56  N   UNL A   1      42.870  26.517  31.124  1.00  0.00    -0.354 N 
ATOM     57  N   UNL A   1      41.521  29.522  32.880  1.00  0.00    -0.248 NA
ATOM     58  C   UNL A   1      41.725  30.700  34.860  1.00  0.00     0.031 C 
ATOM     59  C   UNL A   1      44.119  28.344  30.927  1.00  0.00     0.029 A 
ATOM     60  C   UNL A   1      43.334  27.623  31.809  1.00  0.00     0.049 A 
ATOM     61  H   UNL A   1      42.343  25.786  31.521  1.00  0.00     0.167 HD
ATOM     62  C   UNL A   1      42.420  28.837  33.657  1.00  0.00     0.074 A 
ATOM     63  C   UNL A   1      42.490  29.599  34.894  1.00  0.00     0.031 C 
ATOM     64  C   UNL A   1      43.128  27.748  33.234  1.00  0.00     0.037 A 
BRANCH  51  65
ATOM     65  C   UNL A   1      43.333  25.014  27.723  1.00  0.00     0.058 A 
ATOM     66  C   UNL A   1      43.875  25.657  26.583  1.00  0.00     0.135 A 
ATOM     67  C   UNL A   1      43.616  23.635  27.807  1.00  0.00     0.135 A 
ATOM     68  F   UNL A   1      43.758  26.976  26.389  1.00  0.00    -0.206 F 
ATOM     69  C   UNL A   1      44.572  24.989  25.580  1.00  0.00     0.059 A 
ATOM     70  C   UNL A   1      44.312  22.937  26.802  1.00  0.00     0.059 A 
ATOM     71  F   UNL A   1      43.249  22.926  28.885  1.00  0.00    -0.206 F 
ATOM     72  C   UNL A   1      44.781  23.624  25.687  1.00  0.00     0.060 A 
BRANCH  72  73
ATOM     73  S   UNL A   1      45.692  22.809  24.359  1.00  0.00     0.124 S 
ATOM     74  O   UNL A   1      44.616  22.375  23.471  1.00  0.00    -0.237 OA
ATOM     75  O   UNL A   1      46.531  23.890  23.852  1.00  0.00    -0.237 OA
ATOM     76  O   UNL A   1      46.403  21.733  25.042  1.00  0.00    -0.744 OA
ENDBRANCH  72  73
ENDBRANCH  51  65
BRANCH  52  77
ATOM     77  C   UNL A   1      39.002  32.121  33.039  1.00  0.00     0.058 A 
ATOM     78  C   UNL A   1      38.664  33.494  33.062  1.00  0.00     0.135 A 
ATOM     79  C   UNL A   1      37.935  31.221  32.897  1.00  0.00     0.135 A 
ATOM     80  F   UNL A   1      39.628  34.417  33.219  1.00  0.00    -0.206 F 
ATOM     81  C   UNL A   1      37.373  33.957  32.818  1.00  0.00     0.059 A 
ATOM     82  C   UNL A   1      36.619  31.665  32.671  1.00  0.00     0.059 A 
ATOM     83  F   UNL A   1      38.157  29.900  32.884  1.00  0.00    -0.206 F 
ATOM     84  C   UNL A   1      36.360  33.037  32.591  1.00  0.00     0.060 A 
BRANCH  84  85
ATOM     85  S   UNL A   1      34.764  33.666  32.005  1.00  0.00     0.124 S 
ATOM     86  O   UNL A   1      34.057  32.437  31.666  1.00  0.00    -0.237 OA
ATOM     87  O   UNL A   1      34.272  34.378  33.182  1.00  0.00    -0.237 OA
ATOM     88  O   UNL A   1      35.150  34.499  30.876  1.00  0.00    -0.744 OA
ENDBRANCH  84  85
ENDBRANCH  52  77
BRANCH  64  89
ATOM     89  C   UNL A   1      43.844  26.777  34.133  1.00  0.00     0.058 A 
ATOM     90  C   UNL A   1      45.218  26.853  34.393  1.00  0.00     0.135 A 
ATOM     91  C   UNL A   1      43.124  25.822  34.897  1.00  0.00     0.135 A 
ATOM     92  F   UNL A   1      45.986  27.812  33.855  1.00  0.00    -0.206 F 
ATOM     93  C   UNL A   1      45.858  25.971  35.254  1.00  0.00     0.059 A 
ATOM     94  C   UNL A   1      43.731  24.989  35.826  1.00  0.00     0.059 A 
ATOM     95  F   UNL A   1      41.795  25.671  34.790  1.00  0.00    -0.206 F 
ATOM     96  C   UNL A   1      45.106  25.040  35.961  1.00  0.00     0.060 A 
BRANCH  96  97
ATOM     97  S   UNL A   1      45.941  23.912  37.079  1.00  0.00     0.124 S 
ATOM     98  O   UNL A   1      47.334  24.304  36.888  1.00  0.00    -0.237 OA
ATOM     99  O   UNL A   1      45.357  24.259  38.372  1.00  0.00    -0.237 OA
ATOM    100  O   UNL A   1      45.576  22.595  36.568  1.00  0.00    -0.744 OA
ENDBRANCH  96  97
ENDBRANCH  64  89
ENDBRANCH  38  39
ENDBRANCH  31  33
ENDBRANCH  30  31
ENDBRANCH   1  30
TORSDOF 17
ENDMDL
MODEL 2
REMARK VINA RESULT:     -13.3      4.026     10.198
REMARK SMILES Cc1cccc(OC2(C(=O)OCCOC(=O)c3ccc(-c4c5nc(c(-c6c(F)cc(S(=O)(=O)[O-])cc6F)c6ccc([nH]6)c(-c6c(F)cc(S(=O)(=O)[O-])cc6F)c6nc(c(-c7c(F)cc(S(=O)(=O)[O-])cc7F)c7ccc4[nH]7)C=C6)C=C5)cc3)CCN(C(=O)c3cnc[nH]c3=O)CC2)c1
REMARK SMILES IDX 13 1 12 2 11 3 9 4 10 5 8 6 83 7 96 8 84 9 95 10 85 11 86 12
REMARK SMILES IDX 87 13 7 14 6 15 1 16 2 17 3 18 97 19 4 20 5 21 88 22 89 23
REMARK SMILES IDX 93 24 90 25 92 26 94 27 91 28 14 30 15 31 16 32 17 33 18 34
REMARK SMILES IDX 82 35 19 36 81 37 20 38 21 39 22 40 75 41 23 42 80 43 74 44
REMARK SMILES IDX 76 45 24 46 79 47 73 48 72 49 25 51 59 52 38 53 58 54 39 55
REMARK SMILES IDX 42 56 57 57 77 58 40 59 41 60 56 62 78 63 43 64 26 65 27 66
REMARK SMILES IDX 36 67 28 68 29 69 35 70 37 71 30 72 31 73 32 74 33 75 34 76
REMARK SMILES IDX 60 77 61 78 70 79 62 80 63 81 69 82 71 83 64 84 65 85 66 86
REMARK SMILES IDX 67 87 68 88 44 89 45 90 54 91 46 92 47 93 53 94 55 95 48 96
REMARK SMILES IDX 49 97 50 98 51 99 52 100
REMARK H PARENT 92 29 76 50 42 61
REMARK Flexibility Score: inf
ROOT
ATOM      1  C   UNL A   1      38.021  23.884  26.172  1.00  0.00     0.275 C 
ENDROOT
BRANCH   1   2
ATOM      2  C   UNL A   1      37.205  22.645  25.736  1.00  0.00     0.274 C 
BRANCH   2   3
ATOM      3  O   UNL A   1      35.904  23.103  25.390  1.00  0.00    -0.459 OA
BRANCH   3   4
ATOM      4  C   UNL A   1      34.821  22.889  26.189  1.00  0.00     0.350 C 
ATOM      5  O   UNL A   1      34.865  22.689  27.392  1.00  0.00    -0.247 OA
BRANCH   4   6
ATOM      6  C   UNL A   1      33.630  22.628  25.243  1.00  0.00     0.209 C 
ATOM      7  C   UNL A   1      32.534  22.430  26.340  1.00  0.00     0.082 C 
ATOM      8  C   UNL A   1      33.388  23.825  24.312  1.00  0.00     0.082 C 
ATOM      9  C   UNL A   1      31.129  22.812  25.969  1.00  0.00     0.124 C 
ATOM     10  C   UNL A   1      31.921  23.845  23.914  1.00  0.00     0.124 C 
ATOM     11  N   UNL A   1      31.155  23.995  25.146  1.00  0.00    -0.338 N 
ATOM     12  C   UNL A   1      30.909  25.239  25.711  1.00  0.00     0.261 C 
ATOM     13  O   UNL A   1      30.940  25.480  26.912  1.00  0.00    -0.269 OA
BRANCH   6  14
ATOM     14  O   UNL A   1      34.042  21.582  24.358  1.00  0.00    -0.475 OA
BRANCH  14  15
ATOM     15  C   UNL A   1      33.616  20.298  24.268  1.00  0.00     0.121 A 
ATOM     16  C   UNL A   1      34.916  16.772  24.649  1.00  0.00     0.044 C 
ATOM     17  C   UNL A   1      33.994  17.899  24.300  1.00  0.00    -0.047 A 
ATOM     18  C   UNL A   1      32.932  17.704  23.416  1.00  0.00     0.003 A 
ATOM     19  C   UNL A   1      34.299  19.194  24.745  1.00  0.00     0.050 A 
ATOM     20  C   UNL A   1      32.187  18.797  22.984  1.00  0.00     0.004 A 
ATOM     21  C   UNL A   1      32.534  20.086  23.405  1.00  0.00     0.046 A 
ENDBRANCH  14  15
ENDBRANCH   6  14
BRANCH  12  22
ATOM     22  C   UNL A   1      30.553  26.271  24.725  1.00  0.00     0.123 A 
ATOM     23  C   UNL A   1      29.324  26.341  24.196  1.00  0.00     0.132 A 
ATOM     24  C   UNL A   1      31.505  27.346  24.392  1.00  0.00     0.263 A 
ATOM     25  N   UNL A   1      28.884  27.362  23.383  1.00  0.00    -0.246 NA
ATOM     26  N   UNL A   1      30.984  28.366  23.655  1.00  0.00    -0.312 N 
ATOM     27  O   UNL A   1      32.678  27.353  24.747  1.00  0.00    -0.269 OA
ATOM     28  C   UNL A   1      29.711  28.327  23.170  1.00  0.00     0.199 A 
ATOM     29  H   UNL A   1      31.543  29.155  23.467  1.00  0.00     0.171 HD
ENDBRANCH  12  22
ENDBRANCH   4   6
ENDBRANCH   3   4
ENDBRANCH   2   3
ENDBRANCH   1   2
BRANCH   1  30
ATOM     30  O   UNL A   1      39.178  23.727  27.040  1.00  0.00    -0.458 OA
BRANCH  30  31
ATOM     31  C   UNL A   1      40.144  24.706  27.043  1.00  0.00     0.338 C 
ATOM     32  O   UNL A   1      41.163  24.617  26.405  1.00  0.00    -0.246 OA
BRANCH  31  33
ATOM     33  C   UNL A   1      39.549  25.925  27.688  1.00  0.00     0.060 A 
ATOM     34  C   UNL A   1      39.184  25.911  29.046  1.00  0.00     0.016 A 
ATOM     35  C   UNL A   1      39.845  27.123  27.052  1.00  0.00     0.016 A 
ATOM     36  C   UNL A   1      39.320  27.069  29.814  1.00  0.00     0.010 A 
ATOM     37  C   UNL A   1      40.199  28.185  27.833  1.00  0.00     0.010 A 
ATOM     38  C   UNL A   1      39.897  28.181  29.201  1.00  0.00    -0.014 A 
BRANCH  38  39
ATOM     39  C   UNL A   1      39.901  29.529  29.741  1.00  0.00     0.031 A 
ATOM     40  C   UNL A   1      38.745  30.435  29.528  1.00  0.00     0.074 A 
ATOM     41  C   UNL A   1      40.997  29.688  30.526  1.00  0.00     0.049 A 
ATOM     42  N   UNL A   1      38.814  31.658  29.117  1.00  0.00    -0.248 NA
ATOM     43  C   UNL A   1      37.350  29.992  29.700  1.00  0.00     0.031 C 
ATOM     44  C   UNL A   1      41.370  30.684  31.503  1.00  0.00     0.029 A 
ATOM     45  N   UNL A   1      42.118  28.841  30.574  1.00  0.00    -0.354 N 
ATOM     46  C   UNL A   1      37.577  32.220  29.412  1.00  0.00     0.074 A 
ATOM     47  C   UNL A   1      36.654  31.119  29.488  1.00  0.00     0.031 C 
ATOM     48  C   UNL A   1      42.708  30.611  31.694  1.00  0.00     0.029 A 
ATOM     49  C   UNL A   1      43.239  29.610  30.772  1.00  0.00     0.049 A 
ATOM     50  H   UNL A   1      42.102  27.861  30.480  1.00  0.00     0.167 HD
ATOM     51  C   UNL A   1      37.508  33.442  30.025  1.00  0.00     0.037 A 
ATOM     52  C   UNL A   1      44.109  29.815  29.737  1.00  0.00     0.037 A 
ATOM     53  C   UNL A   1      38.853  33.818  30.436  1.00  0.00     0.049 A 
ATOM     54  C   UNL A   1      44.009  31.262  29.331  1.00  0.00     0.074 A 
ATOM     55  C   UNL A   1      39.495  33.621  31.648  1.00  0.00     0.029 A 
ATOM     56  N   UNL A   1      39.837  34.076  29.495  1.00  0.00    -0.354 N 
ATOM     57  N   UNL A   1      42.890  31.938  29.297  1.00  0.00    -0.248 NA
ATOM     58  C   UNL A   1      45.191  32.088  29.120  1.00  0.00     0.031 C 
ATOM     59  C   UNL A   1      40.882  33.771  31.432  1.00  0.00     0.029 A 
ATOM     60  C   UNL A   1      41.084  33.979  30.079  1.00  0.00     0.049 A 
ATOM     61  H   UNL A   1      39.670  34.295  28.550  1.00  0.00     0.167 HD
ATOM     62  C   UNL A   1      43.193  33.272  29.198  1.00  0.00     0.074 A 
ATOM     63  C   UNL A   1      44.641  33.310  29.061  1.00  0.00     0.031 C 
ATOM     64  C   UNL A   1      42.279  34.279  29.323  1.00  0.00     0.037 A 
BRANCH  51  65
ATOM     65  C   UNL A   1      36.271  34.074  30.646  1.00  0.00     0.058 A 
ATOM     66  C   UNL A   1      35.233  34.593  29.834  1.00  0.00     0.135 A 
ATOM     67  C   UNL A   1      36.019  34.144  32.032  1.00  0.00     0.135 A 
ATOM     68  F   UNL A   1      35.283  34.539  28.497  1.00  0.00    -0.206 F 
ATOM     69  C   UNL A   1      34.082  35.191  30.341  1.00  0.00     0.059 A 
ATOM     70  C   UNL A   1      34.867  34.752  32.568  1.00  0.00     0.059 A 
ATOM     71  F   UNL A   1      36.874  33.598  32.911  1.00  0.00    -0.206 F 
ATOM     72  C   UNL A   1      33.906  35.279  31.711  1.00  0.00     0.060 A 
BRANCH  72  73
ATOM     73  S   UNL A   1      32.396  36.062  32.315  1.00  0.00     0.124 S 
ATOM     74  O   UNL A   1      31.587  34.908  32.699  1.00  0.00    -0.237 OA
ATOM     75  O   UNL A   1      32.893  36.879  33.417  1.00  0.00    -0.237 OA
ATOM     76  O   UNL A   1      31.908  36.803  31.156  1.00  0.00    -0.744 OA
ENDBRANCH  72  73
ENDBRANCH  51  65
BRANCH  52  77
ATOM     77  C   UNL A   1      44.312  28.640  28.821  1.00  0.00     0.058 A 
ATOM     78  C   UNL A   1      43.776  28.734  27.516  1.00  0.00     0.135 A 
ATOM     79  C   UNL A   1      45.215  27.589  29.048  1.00  0.00     0.135 A 
ATOM     80  F   UNL A   1      42.887  29.698  27.226  1.00  0.00    -0.206 F 
ATOM     81  C   UNL A   1      44.208  27.930  26.464  1.00  0.00     0.059 A 
ATOM     82  C   UNL A   1      45.650  26.751  28.005  1.00  0.00     0.059 A 
ATOM     83  F   UNL A   1      45.760  27.411  30.259  1.00  0.00    -0.206 F 
ATOM     84  C   UNL A   1      45.171  26.960  26.708  1.00  0.00     0.060 A 
BRANCH  84  85
ATOM     85  S   UNL A   1      45.911  26.127  25.279  1.00  0.00     0.124 S 
ATOM     86  O   UNL A   1      47.073  25.476  25.873  1.00  0.00    -0.237 OA
ATOM     87  O   UNL A   1      44.832  25.238  24.858  1.00  0.00    -0.237 OA
ATOM     88  O   UNL A   1      46.205  27.237  24.385  1.00  0.00    -0.744 OA
ENDBRANCH  84  85
ENDBRANCH  52  77
BRANCH  64  89
ATOM     89  C   UNL A   1      42.492  35.703  28.886  1.00  0.00     0.058 A 
ATOM     90  C   UNL A   1      43.220  36.630  29.643  1.00  0.00     0.135 A 
ATOM     91  C   UNL A   1      42.098  36.137  27.593  1.00  0.00     0.135 A 
ATOM     92  F   UNL A   1      43.783  36.297  30.814  1.00  0.00    -0.206 F 
ATOM     93  C   UNL A   1      43.439  37.930  29.209  1.00  0.00     0.059 A 
ATOM     94  C   UNL A   1      42.382  37.405  27.106  1.00  0.00     0.059 A 
ATOM     95  F   UNL A   1      41.437  35.341  26.739  1.00  0.00    -0.206 F 
ATOM     96  C   UNL A   1      43.011  38.309  27.942  1.00  0.00     0.060 A 
BRANCH  96  97
ATOM     97  S   UNL A   1      43.309  39.989  27.387  1.00  0.00     0.124 S 
ATOM     98  O   UNL A   1      44.203  39.760  26.256  1.00  0.00    -0.237 OA
ATOM     99  O   UNL A   1      41.966  40.452  27.047  1.00  0.00    -0.237 OA
ATOM    100  O   UNL A   1      43.909  40.630  28.551  1.00  0.00    -0.744 OA
ENDBRANCH  96  97
ENDBRANCH  64  89
ENDBRANCH  38  39
ENDBRANCH  31  33
ENDBRANCH  30  31
ENDBRANCH   1  30
TORSDOF 17
ENDMDL
MODEL 3
REMARK VINA RESULT:     -13.2      2.557      4.869
REMARK SMILES Cc1cccc(OC2(C(=O)OCCOC(=O)c3ccc(-c4c5nc(c(-c6c(F)cc(S(=O)(=O)[O-])cc6F)c6ccc([nH]6)c(-c6c(F)cc(S(=O)(=O)[O-])cc6F)c6nc(c(-c7c(F)cc(S(=O)(=O)[O-])cc7F)c7ccc4[nH]7)C=C6)C=C5)cc3)CCN(C(=O)c3cnc[nH]c3=O)CC2)c1
REMARK SMILES IDX 13 1 12 2 11 3 9 4 10 5 8 6 83 7 96 8 84 9 95 10 85 11 86 12
REMARK SMILES IDX 87 13 7 14 6 15 1 16 2 17 3 18 97 19 4 20 5 21 88 22 89 23
REMARK SMILES IDX 93 24 90 25 92 26 94 27 91 28 14 30 15 31 16 32 17 33 18 34
REMARK SMILES IDX 82 35 19 36 81 37 20 38 21 39 22 40 75 41 23 42 80 43 74 44
REMARK SMILES IDX 76 45 24 46 79 47 73 48 72 49 25 51 59 52 38 53 58 54 39 55
REMARK SMILES IDX 42 56 57 57 77 58 40 59 41 60 56 62 78 63 43 64 26 65 27 66
REMARK SMILES IDX 36 67 28 68 29 69 35 70 37 71 30 72 31 73 32 74 33 75 34 76
REMARK SMILES IDX 60 77 61 78 70 79 62 80 63 81 69 82 71 83 64 84 65 85 66 86
REMARK SMILES IDX 67 87 68 88 44 89 45 90 54 91 46 92 47 93 53 94 55 95 48 96
REMARK SMILES IDX 49 97 50 98 51 99 52 100
REMARK H PARENT 92 29 76 50 42 61
REMARK Flexibility Score: inf
ROOT
ATOM      1  C   UNL A   1      34.514  29.552  26.948  1.00  0.00     0.275 C 
ENDROOT
BRANCH   1   2
ATOM      2  C   UNL A   1      33.767  28.292  26.453  1.00  0.00     0.274 C 
BRANCH   2   3
ATOM      3  O   UNL A   1      33.123  28.640  25.232  1.00  0.00    -0.459 OA
BRANCH   3   4
ATOM      4  C   UNL A   1      33.337  27.951  24.076  1.00  0.00     0.350 C 
ATOM      5  O   UNL A   1      34.202  28.208  23.255  1.00  0.00    -0.247 OA
BRANCH   4   6
ATOM      6  C   UNL A   1      32.101  27.048  23.877  1.00  0.00     0.209 C 
ATOM      7  C   UNL A   1      32.294  26.768  22.351  1.00  0.00     0.082 C 
ATOM      8  C   UNL A   1      32.179  25.799  24.768  1.00  0.00     0.082 C 
ATOM      9  C   UNL A   1      31.780  25.453  21.835  1.00  0.00     0.124 C 
ATOM     10  C   UNL A   1      31.387  24.680  24.108  1.00  0.00     0.124 C 
ATOM     11  N   UNL A   1      32.019  24.426  22.817  1.00  0.00    -0.338 N 
ATOM     12  C   UNL A   1      33.114  23.583  22.689  1.00  0.00     0.261 C 
ATOM     13  O   UNL A   1      34.077  23.795  21.961  1.00  0.00    -0.269 OA
BRANCH   6  14
ATOM     14  O   UNL A   1      30.984  27.773  24.400  1.00  0.00    -0.475 OA
BRANCH  14  15
ATOM     15  C   UNL A   1      30.007  28.453  23.752  1.00  0.00     0.121 A 
ATOM     16  C   UNL A   1      28.636  31.959  23.422  1.00  0.00     0.044 C 
ATOM     17  C   UNL A   1      28.733  30.470  23.291  1.00  0.00    -0.047 A 
ATOM     18  C   UNL A   1      27.608  29.706  22.978  1.00  0.00     0.003 A 
ATOM     19  C   UNL A   1      29.933  29.831  23.638  1.00  0.00     0.050 A 
ATOM     20  C   UNL A   1      27.687  28.318  23.017  1.00  0.00     0.004 A 
ATOM     21  C   UNL A   1      28.879  27.698  23.408  1.00  0.00     0.046 A 
ENDBRANCH  14  15
ENDBRANCH   6  14
BRANCH  12  22
ATOM     22  C   UNL A   1      33.005  22.353  23.488  1.00  0.00     0.123 A 
ATOM     23  C   UNL A   1      32.286  21.304  23.066  1.00  0.00     0.132 A 
ATOM     24  C   UNL A   1      33.800  22.189  24.718  1.00  0.00     0.263 A 
ATOM     25  N   UNL A   1      32.260  20.077  23.690  1.00  0.00    -0.246 NA
ATOM     26  N   UNL A   1      33.798  20.930  25.240  1.00  0.00    -0.312 N 
ATOM     27  O   UNL A   1      34.433  23.095  25.248  1.00  0.00    -0.269 OA
ATOM     28  C   UNL A   1      33.022  19.938  24.720  1.00  0.00     0.199 A 
ATOM     29  H   UNL A   1      34.373  20.733  26.014  1.00  0.00     0.171 HD
ENDBRANCH  12  22
ENDBRANCH   4   6
ENDBRANCH   3   4
ENDBRANCH   2   3
ENDBRANCH   1   2
BRANCH   1  30
ATOM     30  O   UNL A   1      35.613  29.423  27.893  1.00  0.00    -0.458 OA
BRANCH  30  31
ATOM     31  C   UNL A   1      36.508  30.460  28.014  1.00  0.00     0.338 C 
ATOM     32  O   UNL A   1      36.203  31.610  27.818  1.00  0.00    -0.246 OA
BRANCH  31  33
ATOM     33  C   UNL A   1      37.733  29.922  28.697  1.00  0.00     0.060 A 
ATOM     34  C   UNL A   1      37.627  28.900  29.657  1.00  0.00     0.016 A 
ATOM     35  C   UNL A   1      38.919  30.113  28.001  1.00  0.00     0.016 A 
ATOM     36  C   UNL A   1      38.638  27.943  29.765  1.00  0.00     0.010 A 
ATOM     37  C   UNL A   1      39.792  29.068  27.937  1.00  0.00     0.010 A 
ATOM     38  C   UNL A   1      39.683  28.005  28.845  1.00  0.00    -0.014 A 
BRANCH  38  39
ATOM     39  C   UNL A   1      40.931  27.269  28.940  1.00  0.00     0.031 A 
ATOM     40  C   UNL A   1      41.019  25.862  28.477  1.00  0.00     0.074 A 
ATOM     41  C   UNL A   1      41.913  28.115  29.342  1.00  0.00     0.049 A 
ATOM     42  N   UNL A   1      41.534  24.882  29.144  1.00  0.00    -0.248 NA
ATOM     43  C   UNL A   1      40.441  25.412  27.199  1.00  0.00     0.031 C 
ATOM     44  C   UNL A   1      43.355  28.016  29.347  1.00  0.00     0.029 A 
ATOM     45  N   UNL A   1      41.737  29.396  29.894  1.00  0.00    -0.354 N 
ATOM     46  C   UNL A   1      41.736  23.867  28.216  1.00  0.00     0.074 A 
ATOM     47  C   UNL A   1      40.808  24.122  27.147  1.00  0.00     0.031 C 
ATOM     48  C   UNL A   1      43.841  28.937  30.211  1.00  0.00     0.029 A 
ATOM     49  C   UNL A   1      42.705  29.598  30.849  1.00  0.00     0.049 A 
ATOM     50  H   UNL A   1      41.036  30.039  29.640  1.00  0.00     0.167 HD
ATOM     51  C   UNL A   1      42.933  23.205  28.174  1.00  0.00     0.037 A 
ATOM     52  C   UNL A   1      42.363  29.569  32.173  1.00  0.00     0.037 A 
ATOM     53  C   UNL A   1      43.865  23.899  29.050  1.00  0.00     0.049 A 
ATOM     54  C   UNL A   1      42.976  28.333  32.778  1.00  0.00     0.074 A 
ATOM     55  C   UNL A   1      44.786  24.891  28.754  1.00  0.00     0.029 A 
ATOM     56  N   UNL A   1      43.658  23.937  30.420  1.00  0.00    -0.354 N 
ATOM     57  N   UNL A   1      43.054  27.179  32.167  1.00  0.00    -0.248 NA
ATOM     58  C   UNL A   1      43.709  28.372  34.037  1.00  0.00     0.031 C 
ATOM     59  C   UNL A   1      45.142  25.527  29.962  1.00  0.00     0.029 A 
ATOM     60  C   UNL A   1      44.380  24.973  30.977  1.00  0.00     0.049 A 
ATOM     61  H   UNL A   1      43.082  23.315  30.921  1.00  0.00     0.167 HD
ATOM     62  C   UNL A   1      43.931  26.382  32.859  1.00  0.00     0.074 A 
ATOM     63  C   UNL A   1      44.289  27.162  34.032  1.00  0.00     0.031 C 
ATOM     64  C   UNL A   1      44.394  25.178  32.408  1.00  0.00     0.037 A 
BRANCH  51  65
ATOM     65  C   UNL A   1      43.410  22.266  27.075  1.00  0.00     0.058 A 
ATOM     66  C   UNL A   1      42.970  20.921  27.025  1.00  0.00     0.135 A 
ATOM     67  C   UNL A   1      44.250  22.646  26.008  1.00  0.00     0.135 A 
ATOM     68  F   UNL A   1      42.113  20.421  27.923  1.00  0.00    -0.206 F 
ATOM     69  C   UNL A   1      43.377  20.012  26.052  1.00  0.00     0.059 A 
ATOM     70  C   UNL A   1      44.682  21.744  25.017  1.00  0.00     0.059 A 
ATOM     71  F   UNL A   1      44.657  23.919  25.878  1.00  0.00    -0.206 F 
ATOM     72  C   UNL A   1      44.243  20.424  25.053  1.00  0.00     0.060 A 
BRANCH  72  73
ATOM     73  S   UNL A   1      44.737  19.206  23.816  1.00  0.00     0.124 S 
ATOM     74  O   UNL A   1      46.131  18.956  24.173  1.00  0.00    -0.237 OA
ATOM     75  O   UNL A   1      43.813  18.107  24.079  1.00  0.00    -0.237 OA
ATOM     76  O   UNL A   1      44.536  19.903  22.550  1.00  0.00    -0.744 OA
ENDBRANCH  72  73
ENDBRANCH  51  65
BRANCH  52  77
ATOM     77  C   UNL A   1      41.022  30.159  32.509  1.00  0.00     0.058 A 
ATOM     78  C   UNL A   1      40.855  31.548  32.308  1.00  0.00     0.135 A 
ATOM     79  C   UNL A   1      39.851  29.418  32.735  1.00  0.00     0.135 A 
ATOM     80  F   UNL A   1      41.930  32.329  32.110  1.00  0.00    -0.206 F 
ATOM     81  C   UNL A   1      39.603  32.149  32.197  1.00  0.00     0.059 A 
ATOM     82  C   UNL A   1      38.577  30.007  32.648  1.00  0.00     0.059 A 
ATOM     83  F   UNL A   1      39.914  28.097  32.953  1.00  0.00    -0.206 F 
ATOM     84  C   UNL A   1      38.466  31.365  32.336  1.00  0.00     0.060 A 
BRANCH  84  85
ATOM     85  S   UNL A   1      36.870  32.112  31.911  1.00  0.00     0.124 S 
ATOM     86  O   UNL A   1      36.020  30.939  31.737  1.00  0.00    -0.237 OA
ATOM     87  O   UNL A   1      36.595  32.925  33.093  1.00  0.00    -0.237 OA
ATOM     88  O   UNL A   1      37.180  32.847  30.693  1.00  0.00    -0.744 OA
ENDBRANCH  84  85
ENDBRANCH  52  77
BRANCH  64  89
ATOM     89  C   UNL A   1      45.063  24.133  33.258  1.00  0.00     0.058 A 
ATOM     90  C   UNL A   1      46.366  24.274  33.752  1.00  0.00     0.135 A 
ATOM     91  C   UNL A   1      44.340  23.012  33.742  1.00  0.00     0.135 A 
ATOM     92  F   UNL A   1      47.102  25.367  33.497  1.00  0.00    -0.206 F 
ATOM     93  C   UNL A   1      46.957  23.317  34.565  1.00  0.00     0.059 A 
ATOM     94  C   UNL A   1      44.883  22.089  34.624  1.00  0.00     0.059 A 
ATOM     95  F   UNL A   1      43.066  22.775  33.394  1.00  0.00    -0.206 F 
ATOM     96  C   UNL A   1      46.209  22.226  34.992  1.00  0.00     0.060 A 
BRANCH  96  97
ATOM     97  S   UNL A   1      46.979  21.001  36.052  1.00  0.00     0.124 S 
ATOM     98  O   UNL A   1      46.037  20.959  37.166  1.00  0.00    -0.237 OA
ATOM     99  O   UNL A   1      47.003  19.815  35.199  1.00  0.00    -0.237 OA
ATOM    100  O   UNL A   1      48.286  21.578  36.345  1.00  0.00    -0.744 OA
ENDBRANCH  96  97
ENDBRANCH  64  89
ENDBRANCH  38  39
ENDBRANCH  31  33
ENDBRANCH  30  31
ENDBRANCH   1  30
TORSDOF 17
ENDMDL
