MODEL 1
REMARK VINA RESULT:     -11.7      0.000      0.000
REMARK SMILES C[N@@H+]1CCN(C(=O)c2cc(-n3cccn3)ccc2Cl)C[C@H]1C(=O)OCCOC(=O)c1ccc(-c2c3nc(c(-c4c(F)cc(S(=O)(=O)[O-])cc4F)c4ccc([nH]4)c(-c4c(F)cc(S(=O)(=O)[O-])cc4F)c4nc(c(-c5c(F)cc(S(=O)(=O)[O-])cc5F)c5ccc2[nH]5)C=C4)C=C3)cc1
REMARK SMILES IDX 25 1 24 2 22 3 23 4 21 5 1 6 2 7 3 8 4 10 20 11 5 12 6 13
REMARK SMILES IDX 7 14 8 15 9 16 18 17 10 18 17 19 19 20 16 21 11 22 12 23
REMARK SMILES IDX 15 24 13 25 14 26 26 27 27 28 28 29 29 30 30 31 31 32 95 33
REMARK SMILES IDX 32 34 94 35 33 36 34 37 35 38 88 39 36 40 93 41 87 42 89 43
REMARK SMILES IDX 37 44 92 45 86 46 85 47 38 49 72 50 51 51 71 52 52 53 55 54
REMARK SMILES IDX 70 55 90 56 53 57 54 58 69 60 91 61 56 62 39 63 40 64 49 65
REMARK SMILES IDX 41 66 42 67 48 68 50 69 43 70 44 71 45 72 46 73 47 74 73 75
REMARK SMILES IDX 74 76 83 77 75 78 76 79 82 80 84 81 77 82 78 83 79 84 80 85
REMARK SMILES IDX 81 86 57 87 58 88 67 89 59 90 60 91 66 92 68 93 61 94 62 95
REMARK SMILES IDX 63 96 64 97 65 98
REMARK H PARENT 2 9 89 48 55 59
REMARK Flexibility Score: inf
ROOT
ATOM      1  C   UNL A   1      32.122  30.253  26.736  1.00  0.00     0.274 C 
ENDROOT
BRANCH   1   2
ATOM      2  O   UNL A   1      32.000  29.497  25.509  1.00  0.00    -0.458 OA
BRANCH   2   3
ATOM      3  C   UNL A   1      31.837  28.158  25.669  1.00  0.00     0.366 C 
ATOM      4  O   UNL A   1      31.955  27.587  26.755  1.00  0.00    -0.245 OA
BRANCH   3   5
ATOM      5  C   UNL A   1      31.671  27.343  24.397  1.00  0.00     0.314 C 
ATOM      6  C   UNL A   1      29.827  28.574  23.297  1.00  0.00     0.333 C 
ATOM      7  N   UNL A   1      31.162  27.993  23.144  1.00  0.00    -0.323 N 
ATOM      8  C   UNL A   1      31.088  26.936  22.096  1.00  0.00     0.284 C 
ATOM      9  H   UNL A   1      31.797  28.754  22.904  1.00  0.00     0.348 HD
ATOM     10  C   UNL A   1      32.456  26.291  21.817  1.00  0.00     0.181 C 
ATOM     11  C   UNL A   1      33.086  26.785  24.143  1.00  0.00     0.197 C 
ATOM     12  N   UNL A   1      33.093  25.817  23.045  1.00  0.00    -0.326 N 
BRANCH  12  13
ATOM     13  C   UNL A   1      33.722  24.586  23.062  1.00  0.00     0.255 C 
ATOM     14  O   UNL A   1      34.025  23.952  22.054  1.00  0.00    -0.269 OA
BRANCH  13  15
ATOM     15  C   UNL A   1      34.098  23.996  24.358  1.00  0.00     0.060 A 
ATOM     16  C   UNL A   1      35.462  23.970  24.678  1.00  0.00     0.043 A 
ATOM     17  C   UNL A   1      33.159  23.385  25.196  1.00  0.00     0.053 A 
ATOM     18  C   UNL A   1      35.892  23.286  25.821  1.00  0.00     0.065 A 
ATOM     19  C   UNL A   1      33.590  22.756  26.367  1.00  0.00     0.023 A 
ATOM     20  Cl  UNL A   1      31.471  23.356  24.840  1.00  0.00    -0.083 Cl
ATOM     21  C   UNL A   1      34.954  22.686  26.672  1.00  0.00     0.030 A 
BRANCH  18  22
ATOM     22  N   UNL A   1      37.282  23.175  26.081  1.00  0.00    -0.241 N 
ATOM     23  C   UNL A   1      38.127  24.160  26.548  1.00  0.00     0.115 A 
ATOM     24  N   UNL A   1      37.939  22.000  25.914  1.00  0.00    -0.177 NA
ATOM     25  C   UNL A   1      39.377  23.600  26.659  1.00  0.00     0.042 A 
ATOM     26  C   UNL A   1      39.207  22.278  26.224  1.00  0.00     0.135 A 
ENDBRANCH  18  22
ENDBRANCH  13  15
ENDBRANCH  12  13
ENDBRANCH   3   5
ENDBRANCH   2   3
ENDBRANCH   1   2
BRANCH   1  27
ATOM     27  C   UNL A   1      33.419  31.058  26.873  1.00  0.00     0.275 C 
BRANCH  27  28
ATOM     28  O   UNL A   1      33.880  31.124  28.226  1.00  0.00    -0.458 OA
BRANCH  28  29
ATOM     29  C   UNL A   1      35.204  31.380  28.286  1.00  0.00     0.338 C 
ATOM     30  O   UNL A   1      35.800  32.247  27.673  1.00  0.00    -0.246 OA
BRANCH  29  31
ATOM     31  C   UNL A   1      35.944  30.394  29.069  1.00  0.00     0.060 A 
ATOM     32  C   UNL A   1      36.537  30.892  30.238  1.00  0.00     0.016 A 
ATOM     33  C   UNL A   1      36.485  29.337  28.340  1.00  0.00     0.016 A 
ATOM     34  C   UNL A   1      37.836  30.532  30.515  1.00  0.00     0.010 A 
ATOM     35  C   UNL A   1      37.784  28.983  28.617  1.00  0.00     0.010 A 
ATOM     36  C   UNL A   1      38.471  29.663  29.632  1.00  0.00    -0.014 A 
BRANCH  36  37
ATOM     37  C   UNL A   1      39.909  29.507  29.745  1.00  0.00     0.031 A 
ATOM     38  C   UNL A   1      40.417  29.382  31.133  1.00  0.00     0.074 A 
ATOM     39  C   UNL A   1      40.645  29.269  28.641  1.00  0.00     0.049 A 
ATOM     40  N   UNL A   1      41.376  30.021  31.718  1.00  0.00    -0.248 NA
ATOM     41  C   UNL A   1      39.671  28.473  32.021  1.00  0.00     0.031 C 
ATOM     42  C   UNL A   1      40.150  29.031  27.277  1.00  0.00     0.029 A 
ATOM     43  N   UNL A   1      41.971  28.998  28.535  1.00  0.00    -0.354 N 
ATOM     44  C   UNL A   1      41.466  29.468  32.994  1.00  0.00     0.074 A 
ATOM     45  C   UNL A   1      40.293  28.657  33.180  1.00  0.00     0.031 C 
ATOM     46  C   UNL A   1      41.108  28.387  26.574  1.00  0.00     0.029 A 
ATOM     47  C   UNL A   1      42.294  28.261  27.406  1.00  0.00     0.049 A 
ATOM     48  H   UNL A   1      42.638  29.296  29.195  1.00  0.00     0.167 HD
ATOM     49  C   UNL A   1      42.596  29.529  33.749  1.00  0.00     0.037 A 
ATOM     50  C   UNL A   1      43.389  27.474  27.254  1.00  0.00     0.037 A 
ATOM     51  C   UNL A   1      43.500  30.545  33.289  1.00  0.00     0.049 A 
ATOM     52  C   UNL A   1      44.372  27.867  28.303  1.00  0.00     0.074 A 
ATOM     53  C   UNL A   1      43.416  31.915  33.142  1.00  0.00     0.029 A 
ATOM     54  N   UNL A   1      44.605  30.159  32.568  1.00  0.00    -0.354 N 
ATOM     55  N   UNL A   1      44.978  29.024  28.361  1.00  0.00    -0.248 NA
ATOM     56  C   UNL A   1      44.359  27.116  29.552  1.00  0.00     0.031 C 
ATOM     57  C   UNL A   1      44.175  32.212  31.975  1.00  0.00     0.029 A 
ATOM     58  C   UNL A   1      44.692  31.009  31.495  1.00  0.00     0.049 A 
ATOM     59  H   UNL A   1      45.216  29.417  32.782  1.00  0.00     0.167 HD
ATOM     60  C   UNL A   1      45.072  29.320  29.716  1.00  0.00     0.074 A 
ATOM     61  C   UNL A   1      44.758  28.069  30.400  1.00  0.00     0.031 C 
ATOM     62  C   UNL A   1      45.119  30.608  30.170  1.00  0.00     0.037 A 
BRANCH  49  63
ATOM     63  C   UNL A   1      42.995  28.452  34.724  1.00  0.00     0.058 A 
ATOM     64  C   UNL A   1      43.220  28.776  36.074  1.00  0.00     0.135 A 
ATOM     65  C   UNL A   1      43.408  27.159  34.326  1.00  0.00     0.135 A 
ATOM     66  F   UNL A   1      42.887  29.987  36.550  1.00  0.00    -0.206 F 
ATOM     67  C   UNL A   1      43.857  27.899  36.953  1.00  0.00     0.059 A 
ATOM     68  C   UNL A   1      43.980  26.246  35.200  1.00  0.00     0.059 A 
ATOM     69  F   UNL A   1      43.366  26.758  33.048  1.00  0.00    -0.206 F 
ATOM     70  C   UNL A   1      44.248  26.642  36.498  1.00  0.00     0.060 A 
BRANCH  70  71
ATOM     71  S   UNL A   1      45.191  25.555  37.581  1.00  0.00     0.124 S 
ATOM     72  O   UNL A   1      45.242  26.346  38.804  1.00  0.00    -0.237 OA
ATOM     73  O   UNL A   1      44.355  24.360  37.623  1.00  0.00    -0.237 OA
ATOM     74  O   UNL A   1      46.459  25.399  36.874  1.00  0.00    -0.744 OA
ENDBRANCH  70  71
ENDBRANCH  49  63
BRANCH  50  75
ATOM     75  C   UNL A   1      43.437  26.165  26.544  1.00  0.00     0.058 A 
ATOM     76  C   UNL A   1      44.259  25.971  25.422  1.00  0.00     0.135 A 
ATOM     77  C   UNL A   1      42.847  25.001  27.084  1.00  0.00     0.135 A 
ATOM     78  F   UNL A   1      44.900  27.011  24.869  1.00  0.00    -0.206 F 
ATOM     79  C   UNL A   1      44.490  24.701  24.876  1.00  0.00     0.059 A 
ATOM     80  C   UNL A   1      43.041  23.732  26.546  1.00  0.00     0.059 A 
ATOM     81  F   UNL A   1      42.130  25.043  28.217  1.00  0.00    -0.206 F 
ATOM     82  C   UNL A   1      43.880  23.586  25.450  1.00  0.00     0.060 A 
BRANCH  82  83
ATOM     83  S   UNL A   1      44.270  21.931  24.834  1.00  0.00     0.124 S 
ATOM     84  O   UNL A   1      43.115  21.162  25.285  1.00  0.00    -0.237 OA
ATOM     85  O   UNL A   1      44.368  22.155  23.396  1.00  0.00    -0.237 OA
ATOM     86  O   UNL A   1      45.530  21.609  25.498  1.00  0.00    -0.744 OA
ENDBRANCH  82  83
ENDBRANCH  50  75
BRANCH  62  87
ATOM     87  C   UNL A   1      45.333  31.720  29.175  1.00  0.00     0.058 A 
ATOM     88  C   UNL A   1      46.603  32.125  28.726  1.00  0.00     0.135 A 
ATOM     89  C   UNL A   1      44.221  32.252  28.505  1.00  0.00     0.135 A 
ATOM     90  F   UNL A   1      47.717  31.580  29.230  1.00  0.00    -0.206 F 
ATOM     91  C   UNL A   1      46.759  33.039  27.685  1.00  0.00     0.059 A 
ATOM     92  C   UNL A   1      44.354  33.141  27.441  1.00  0.00     0.059 A 
ATOM     93  F   UNL A   1      42.981  31.853  28.840  1.00  0.00    -0.206 F 
ATOM     94  C   UNL A   1      45.629  33.537  27.041  1.00  0.00     0.060 A 
BRANCH  94  95
ATOM     95  S   UNL A   1      45.844  34.622  25.613  1.00  0.00     0.124 S 
ATOM     96  O   UNL A   1      44.925  34.039  24.643  1.00  0.00    -0.237 OA
ATOM     97  O   UNL A   1      45.463  35.928  26.144  1.00  0.00    -0.237 OA
ATOM     98  O   UNL A   1      47.263  34.483  25.291  1.00  0.00    -0.744 OA
ENDBRANCH  94  95
ENDBRANCH  62  87
ENDBRANCH  36  37
ENDBRANCH  29  31
ENDBRANCH  28  29
ENDBRANCH  27  28
ENDBRANCH   1  27
TORSDOF 17
ENDMDL
MODEL 2
REMARK VINA RESULT:     -11.1      4.656     10.368
REMARK SMILES C[N@@H+]1CCN(C(=O)c2cc(-n3cccn3)ccc2Cl)C[C@H]1C(=O)OCCOC(=O)c1ccc(-c2c3nc(c(-c4c(F)cc(S(=O)(=O)[O-])cc4F)c4ccc([nH]4)c(-c4c(F)cc(S(=O)(=O)[O-])cc4F)c4nc(c(-c5c(F)cc(S(=O)(=O)[O-])cc5F)c5ccc2[nH]5)C=C4)C=C3)cc1
REMARK SMILES IDX 25 1 24 2 22 3 23 4 21 5 1 6 2 7 3 8 4 10 20 11 5 12 6 13
REMARK SMILES IDX 7 14 8 15 9 16 18 17 10 18 17 19 19 20 16 21 11 22 12 23
REMARK SMILES IDX 15 24 13 25 14 26 26 27 27 28 28 29 29 30 30 31 31 32 95 33
REMARK SMILES IDX 32 34 94 35 33 36 34 37 35 38 88 39 36 40 93 41 87 42 89 43
REMARK SMILES IDX 37 44 92 45 86 46 85 47 38 49 72 50 51 51 71 52 52 53 55 54
REMARK SMILES IDX 70 55 90 56 53 57 54 58 69 60 91 61 56 62 39 63 40 64 49 65
REMARK SMILES IDX 41 66 42 67 48 68 50 69 43 70 44 71 45 72 46 73 47 74 73 75
REMARK SMILES IDX 74 76 83 77 75 78 76 79 82 80 84 81 77 82 78 83 79 84 80 85
REMARK SMILES IDX 81 86 57 87 58 88 67 89 59 90 60 91 66 92 68 93 61 94 62 95
REMARK SMILES IDX 63 96 64 97 65 98
REMARK H PARENT 2 9 89 48 55 59
REMARK Flexibility Score: inf
ROOT
ATOM      1  C   UNL A   1      33.002  35.054  28.912  1.00  0.00     0.274 C 
ENDROOT
BRANCH   1   2
ATOM      2  O   UNL A   1      33.807  33.853  28.875  1.00  0.00    -0.458 OA
BRANCH   2   3
ATOM      3  C   UNL A   1      33.386  32.902  28.002  1.00  0.00     0.366 C 
ATOM      4  O   UNL A   1      32.378  33.023  27.302  1.00  0.00    -0.245 OA
BRANCH   3   5
ATOM      5  C   UNL A   1      34.122  31.572  28.046  1.00  0.00     0.314 C 
ATOM      6  C   UNL A   1      32.359  30.042  27.225  1.00  0.00     0.333 C 
ATOM      7  N   UNL A   1      33.753  30.473  27.095  1.00  0.00    -0.323 N 
ATOM      8  C   UNL A   1      34.626  29.306  27.406  1.00  0.00     0.284 C 
ATOM      9  H   UNL A   1      33.873  30.823  26.145  1.00  0.00     0.348 HD
ATOM     10  C   UNL A   1      36.121  29.636  27.249  1.00  0.00     0.181 C 
ATOM     11  C   UNL A   1      35.594  31.971  27.817  1.00  0.00     0.197 C 
ATOM     12  N   UNL A   1      36.494  30.833  28.004  1.00  0.00    -0.326 N 
BRANCH  12  13
ATOM     13  C   UNL A   1      37.671  30.847  28.728  1.00  0.00     0.255 C 
ATOM     14  O   UNL A   1      38.180  31.862  29.199  1.00  0.00    -0.269 OA
BRANCH  13  15
ATOM     15  C   UNL A   1      38.357  29.572  28.999  1.00  0.00     0.060 A 
ATOM     16  C   UNL A   1      39.223  29.088  28.010  1.00  0.00     0.043 A 
ATOM     17  C   UNL A   1      38.085  28.811  30.141  1.00  0.00     0.053 A 
ATOM     18  C   UNL A   1      39.782  27.812  28.143  1.00  0.00     0.065 A 
ATOM     19  C   UNL A   1      38.693  27.562  30.296  1.00  0.00     0.023 A 
ATOM     20  Cl  UNL A   1      37.003  29.337  31.378  1.00  0.00    -0.083 Cl
ATOM     21  C   UNL A   1      39.524  27.051  29.292  1.00  0.00     0.030 A 
BRANCH  18  22
ATOM     22  N   UNL A   1      40.573  27.287  27.089  1.00  0.00    -0.241 N 
ATOM     23  C   UNL A   1      41.593  27.923  26.413  1.00  0.00     0.115 A 
ATOM     24  N   UNL A   1      40.405  26.016  26.648  1.00  0.00    -0.177 NA
ATOM     25  C   UNL A   1      42.078  27.031  25.486  1.00  0.00     0.042 A 
ATOM     26  C   UNL A   1      41.287  25.886  25.655  1.00  0.00     0.135 A 
ENDBRANCH  18  22
ENDBRANCH  13  15
ENDBRANCH  12  13
ENDBRANCH   3   5
ENDBRANCH   2   3
ENDBRANCH   1   2
BRANCH   1  27
ATOM     27  C   UNL A   1      33.282  35.983  30.099  1.00  0.00     0.275 C 
BRANCH  27  28
ATOM     28  O   UNL A   1      34.120  35.370  31.085  1.00  0.00    -0.458 OA
BRANCH  28  29
ATOM     29  C   UNL A   1      33.395  34.881  32.114  1.00  0.00     0.338 C 
ATOM     30  O   UNL A   1      32.317  35.297  32.499  1.00  0.00    -0.246 OA
BRANCH  29  31
ATOM     31  C   UNL A   1      34.100  33.852  32.873  1.00  0.00     0.060 A 
ATOM     32  C   UNL A   1      34.695  34.297  34.063  1.00  0.00     0.016 A 
ATOM     33  C   UNL A   1      34.620  32.804  32.117  1.00  0.00     0.016 A 
ATOM     34  C   UNL A   1      35.981  33.894  34.340  1.00  0.00     0.010 A 
ATOM     35  C   UNL A   1      35.905  32.405  32.395  1.00  0.00     0.010 A 
ATOM     36  C   UNL A   1      36.600  33.034  33.437  1.00  0.00    -0.014 A 
BRANCH  36  37
ATOM     37  C   UNL A   1      38.032  32.836  33.559  1.00  0.00     0.031 A 
ATOM     38  C   UNL A   1      38.831  33.337  32.414  1.00  0.00     0.074 A 
ATOM     39  C   UNL A   1      38.556  32.438  34.736  1.00  0.00     0.049 A 
ATOM     40  N   UNL A   1      39.746  32.738  31.725  1.00  0.00    -0.248 NA
ATOM     41  C   UNL A   1      38.478  34.675  31.908  1.00  0.00     0.031 C 
ATOM     42  C   UNL A   1      37.846  32.266  36.011  1.00  0.00     0.029 A 
ATOM     43  N   UNL A   1      39.858  32.290  35.089  1.00  0.00    -0.354 N 
ATOM     44  C   UNL A   1      40.205  33.686  30.813  1.00  0.00     0.074 A 
ATOM     45  C   UNL A   1      39.279  34.785  30.854  1.00  0.00     0.031 C 
ATOM     46  C   UNL A   1      38.745  32.321  37.019  1.00  0.00     0.029 A 
ATOM     47  C   UNL A   1      40.078  32.433  36.451  1.00  0.00     0.049 A 
ATOM     48  H   UNL A   1      40.576  32.099  34.443  1.00  0.00     0.167 HD
ATOM     49  C   UNL A   1      41.432  33.620  30.231  1.00  0.00     0.037 A 
ATOM     50  C   UNL A   1      41.250  32.788  37.036  1.00  0.00     0.037 A 
ATOM     51  C   UNL A   1      42.005  32.306  30.323  1.00  0.00     0.049 A 
ATOM     52  C   UNL A   1      42.333  32.575  36.033  1.00  0.00     0.074 A 
ATOM     53  C   UNL A   1      41.625  31.056  29.876  1.00  0.00     0.029 A 
ATOM     54  N   UNL A   1      42.990  32.086  31.255  1.00  0.00    -0.354 N 
ATOM     55  N   UNL A   1      42.698  31.410  35.567  1.00  0.00    -0.248 NA
ATOM     56  C   UNL A   1      42.726  33.716  35.216  1.00  0.00     0.031 C 
ATOM     57  C   UNL A   1      42.052  30.152  30.890  1.00  0.00     0.029 A 
ATOM     58  C   UNL A   1      42.685  30.904  31.881  1.00  0.00     0.049 A 
ATOM     59  H   UNL A   1      43.766  32.665  31.438  1.00  0.00     0.167 HD
ATOM     60  C   UNL A   1      43.011  31.633  34.231  1.00  0.00     0.074 A 
ATOM     61  C   UNL A   1      43.097  33.085  34.099  1.00  0.00     0.031 C 
ATOM     62  C   UNL A   1      42.898  30.648  33.290  1.00  0.00     0.037 A 
BRANCH  49  63
ATOM     63  C   UNL A   1      42.228  34.839  29.842  1.00  0.00     0.058 A 
ATOM     64  C   UNL A   1      43.074  35.453  30.783  1.00  0.00     0.135 A 
ATOM     65  C   UNL A   1      41.996  35.571  28.654  1.00  0.00     0.135 A 
ATOM     66  F   UNL A   1      43.342  34.854  31.955  1.00  0.00    -0.206 F 
ATOM     67  C   UNL A   1      43.609  36.726  30.581  1.00  0.00     0.059 A 
ATOM     68  C   UNL A   1      42.573  36.808  28.404  1.00  0.00     0.059 A 
ATOM     69  F   UNL A   1      41.120  35.165  27.726  1.00  0.00    -0.206 F 
ATOM     70  C   UNL A   1      43.337  37.400  29.394  1.00  0.00     0.060 A 
BRANCH  70  71
ATOM     71  S   UNL A   1      43.907  39.095  29.179  1.00  0.00     0.124 S 
ATOM     72  O   UNL A   1      43.233  39.467  27.941  1.00  0.00    -0.237 OA
ATOM     73  O   UNL A   1      43.419  39.741  30.393  1.00  0.00    -0.237 OA
ATOM     74  O   UNL A   1      45.357  38.951  29.093  1.00  0.00    -0.744 OA
ENDBRANCH  70  71
ENDBRANCH  49  63
BRANCH  50  75
ATOM     75  C   UNL A   1      41.406  33.669  38.226  1.00  0.00     0.058 A 
ATOM     76  C   UNL A   1      42.129  33.253  39.356  1.00  0.00     0.135 A 
ATOM     77  C   UNL A   1      41.040  35.034  38.197  1.00  0.00     0.135 A 
ATOM     78  F   UNL A   1      42.561  31.987  39.449  1.00  0.00    -0.206 F 
ATOM     79  C   UNL A   1      42.476  34.136  40.388  1.00  0.00     0.059 A 
ATOM     80  C   UNL A   1      41.351  35.924  39.221  1.00  0.00     0.059 A 
ATOM     81  F   UNL A   1      40.442  35.573  37.125  1.00  0.00    -0.206 F 
ATOM     82  C   UNL A   1      42.086  35.473  40.307  1.00  0.00     0.060 A 
BRANCH  82  83
ATOM     83  S   UNL A   1      42.636  36.647  41.568  1.00  0.00     0.124 S 
ATOM     84  O   UNL A   1      43.876  36.033  42.031  1.00  0.00    -0.237 OA
ATOM     85  O   UNL A   1      42.780  37.878  40.799  1.00  0.00    -0.237 OA
ATOM     86  O   UNL A   1      41.541  36.645  42.535  1.00  0.00    -0.744 OA
ENDBRANCH  82  83
ENDBRANCH  50  75
BRANCH  62  87
ATOM     87  C   UNL A   1      42.680  29.230  33.749  1.00  0.00     0.058 A 
ATOM     88  C   UNL A   1      43.721  28.375  34.153  1.00  0.00     0.135 A 
ATOM     89  C   UNL A   1      41.368  28.789  33.983  1.00  0.00     0.135 A 
ATOM     90  F   UNL A   1      45.000  28.765  34.073  1.00  0.00    -0.206 F 
ATOM     91  C   UNL A   1      43.473  27.130  34.728  1.00  0.00     0.059 A 
ATOM     92  C   UNL A   1      41.096  27.563  34.587  1.00  0.00     0.059 A 
ATOM     93  F   UNL A   1      40.328  29.587  33.685  1.00  0.00    -0.206 F 
ATOM     94  C   UNL A   1      42.156  26.734  34.950  1.00  0.00     0.060 A 
BRANCH  94  95
ATOM     95  S   UNL A   1      41.846  25.176  35.810  1.00  0.00     0.124 S 
ATOM     96  O   UNL A   1      42.292  24.191  34.831  1.00  0.00    -0.237 OA
ATOM     97  O   UNL A   1      42.674  25.301  37.007  1.00  0.00    -0.237 OA
ATOM     98  O   UNL A   1      40.406  25.204  36.057  1.00  0.00    -0.744 OA
ENDBRANCH  94  95
ENDBRANCH  62  87
ENDBRANCH  36  37
ENDBRANCH  29  31
ENDBRANCH  28  29
ENDBRANCH  27  28
ENDBRANCH   1  27
TORSDOF 17
ENDMDL
MODEL 3
REMARK VINA RESULT:     -11.1      3.501      7.964
REMARK SMILES C[N@@H+]1CCN(C(=O)c2cc(-n3cccn3)ccc2Cl)C[C@H]1C(=O)OCCOC(=O)c1ccc(-c2c3nc(c(-c4c(F)cc(S(=O)(=O)[O-])cc4F)c4ccc([nH]4)c(-c4c(F)cc(S(=O)(=O)[O-])cc4F)c4nc(c(-c5c(F)cc(S(=O)(=O)[O-])cc5F)c5ccc2[nH]5)C=C4)C=C3)cc1
REMARK SMILES IDX 25 1 24 2 22 3 23 4 21 5 1 6 2 7 3 8 4 10 20 11 5 12 6 13
REMARK SMILES IDX 7 14 8 15 9 16 18 17 10 18 17 19 19 20 16 21 11 22 12 23
REMARK SMILES IDX 15 24 13 25 14 26 26 27 27 28 28 29 29 30 30 31 31 32 95 33
REMARK SMILES IDX 32 34 94 35 33 36 34 37 35 38 88 39 36 40 93 41 87 42 89 43
REMARK SMILES IDX 37 44 92 45 86 46 85 47 38 49 72 50 51 51 71 52 52 53 55 54
REMARK SMILES IDX 70 55 90 56 53 57 54 58 69 60 91 61 56 62 39 63 40 64 49 65
REMARK SMILES IDX 41 66 42 67 48 68 50 69 43 70 44 71 45 72 46 73 47 74 73 75
REMARK SMILES IDX 74 76 83 77 75 78 76 79 82 80 84 81 77 82 78 83 79 84 80 85
REMARK SMILES IDX 81 86 57 87 58 88 67 89 59 90 60 91 66 92 68 93 61 94 62 95
REMARK SMILES IDX 63 96 64 97 65 98
REMARK H PARENT 2 9 89 48 55 59
REMARK Flexibility Score: inf
ROOT
ATOM      1  C   UNL A   1      32.375  29.474  24.950  1.00  0.00     0.274 C 
ENDROOT
BRANCH   1   2
ATOM      2  O   UNL A   1      33.405  28.734  24.256  1.00  0.00    -0.458 OA
BRANCH   2   3
ATOM      3  C   UNL A   1      32.954  27.789  23.392  1.00  0.00     0.366 C 
ATOM      4  O   UNL A   1      33.137  27.843  22.173  1.00  0.00    -0.245 OA
BRANCH   3   5
ATOM      5  C   UNL A   1      32.040  26.723  23.975  1.00  0.00     0.314 C 
ATOM      6  C   UNL A   1      29.844  27.485  23.124  1.00  0.00     0.333 C 
ATOM      7  N   UNL A   1      30.766  26.356  23.274  1.00  0.00    -0.323 N 
ATOM      8  C   UNL A   1      30.089  25.316  24.100  1.00  0.00     0.284 C 
ATOM      9  H   UNL A   1      31.003  26.033  22.336  1.00  0.00     0.348 HD
ATOM     10  C   UNL A   1      30.955  24.057  24.278  1.00  0.00     0.181 C 
ATOM     11  C   UNL A   1      32.949  25.481  24.062  1.00  0.00     0.197 C 
ATOM     12  N   UNL A   1      32.292  24.383  24.773  1.00  0.00    -0.326 N 
BRANCH  12  13
ATOM     13  C   UNL A   1      32.866  23.607  25.763  1.00  0.00     0.255 C 
ATOM     14  O   UNL A   1      32.603  23.707  26.958  1.00  0.00    -0.269 OA
BRANCH  13  15
ATOM     15  C   UNL A   1      33.830  22.561  25.379  1.00  0.00     0.060 A 
ATOM     16  C   UNL A   1      33.323  21.273  25.161  1.00  0.00     0.043 A 
ATOM     17  C   UNL A   1      35.208  22.801  25.333  1.00  0.00     0.053 A 
ATOM     18  C   UNL A   1      34.206  20.209  24.946  1.00  0.00     0.065 A 
ATOM     19  C   UNL A   1      36.080  21.745  25.058  1.00  0.00     0.023 A 
ATOM     20  Cl  UNL A   1      35.893  24.357  25.623  1.00  0.00    -0.083 Cl
ATOM     21  C   UNL A   1      35.587  20.447  24.884  1.00  0.00     0.030 A 
BRANCH  18  22
ATOM     22  N   UNL A   1      33.692  18.892  24.832  1.00  0.00    -0.241 N 
ATOM     23  C   UNL A   1      34.301  17.805  24.241  1.00  0.00     0.115 A 
ATOM     24  N   UNL A   1      32.488  18.558  25.359  1.00  0.00    -0.177 NA
ATOM     25  C   UNL A   1      33.441  16.741  24.374  1.00  0.00     0.042 A 
ATOM     26  C   UNL A   1      32.329  17.272  25.041  1.00  0.00     0.135 A 
ENDBRANCH  18  22
ENDBRANCH  13  15
ENDBRANCH  12  13
ENDBRANCH   3   5
ENDBRANCH   2   3
ENDBRANCH   1   2
BRANCH   1  27
ATOM     27  C   UNL A   1      32.459  29.420  26.480  1.00  0.00     0.275 C 
BRANCH  27  28
ATOM     28  O   UNL A   1      33.317  30.433  27.015  1.00  0.00    -0.458 OA
BRANCH  28  29
ATOM     29  C   UNL A   1      34.516  29.926  27.373  1.00  0.00     0.338 C 
ATOM     30  O   UNL A   1      34.995  28.871  26.998  1.00  0.00    -0.246 OA
BRANCH  29  31
ATOM     31  C   UNL A   1      35.178  30.702  28.418  1.00  0.00     0.060 A 
ATOM     32  C   UNL A   1      35.859  31.842  27.967  1.00  0.00     0.016 A 
ATOM     33  C   UNL A   1      35.584  29.975  29.535  1.00  0.00     0.016 A 
ATOM     34  C   UNL A   1      37.123  32.083  28.453  1.00  0.00     0.010 A 
ATOM     35  C   UNL A   1      36.849  30.215  30.016  1.00  0.00     0.010 A 
ATOM     36  C   UNL A   1      37.636  31.196  29.396  1.00  0.00    -0.014 A 
BRANCH  36  37
ATOM     37  C   UNL A   1      39.054  31.264  29.696  1.00  0.00     0.031 A 
ATOM     38  C   UNL A   1      39.850  30.111  29.212  1.00  0.00     0.074 A 
ATOM     39  C   UNL A   1      39.583  32.410  30.168  1.00  0.00     0.049 A 
ATOM     40  N   UNL A   1      40.700  29.374  29.849  1.00  0.00    -0.248 NA
ATOM     41  C   UNL A   1      39.576  29.659  27.836  1.00  0.00     0.031 C 
ATOM     42  C   UNL A   1      38.902  33.702  30.334  1.00  0.00     0.029 A 
ATOM     43  N   UNL A   1      40.882  32.717  30.416  1.00  0.00    -0.354 N 
ATOM     44  C   UNL A   1      41.196  28.478  28.904  1.00  0.00     0.074 A 
ATOM     45  C   UNL A   1      40.350  28.583  27.746  1.00  0.00     0.031 C 
ATOM     46  C   UNL A   1      39.833  34.681  30.375  1.00  0.00     0.029 A 
ATOM     47  C   UNL A   1      41.153  34.075  30.335  1.00  0.00     0.049 A 
ATOM     48  H   UNL A   1      41.565  32.042  30.634  1.00  0.00     0.167 HD
ATOM     49  C   UNL A   1      42.398  27.854  29.034  1.00  0.00     0.037 A 
ATOM     50  C   UNL A   1      42.364  34.632  30.081  1.00  0.00     0.037 A 
ATOM     51  C   UNL A   1      42.880  27.886  30.386  1.00  0.00     0.049 A 
ATOM     52  C   UNL A   1      43.399  33.588  30.333  1.00  0.00     0.074 A 
ATOM     53  C   UNL A   1      42.401  27.413  31.592  1.00  0.00     0.029 A 
ATOM     54  N   UNL A   1      43.876  28.779  30.704  1.00  0.00    -0.354 N 
ATOM     55  N   UNL A   1      43.668  33.074  31.504  1.00  0.00    -0.248 NA
ATOM     56  C   UNL A   1      43.845  32.796  29.195  1.00  0.00     0.031 C 
ATOM     57  C   UNL A   1      42.795  28.383  32.556  1.00  0.00     0.029 A 
ATOM     58  C   UNL A   1      43.508  29.376  31.884  1.00  0.00     0.049 A 
ATOM     59  H   UNL A   1      44.695  28.955  30.187  1.00  0.00     0.167 HD
ATOM     60  C   UNL A   1      43.955  31.736  31.258  1.00  0.00     0.074 A 
ATOM     61  C   UNL A   1      44.137  31.648  29.812  1.00  0.00     0.031 C 
ATOM     62  C   UNL A   1      43.746  30.769  32.200  1.00  0.00     0.037 A 
BRANCH  49  63
ATOM     63  C   UNL A   1      43.264  27.479  27.860  1.00  0.00     0.058 A 
ATOM     64  C   UNL A   1      43.646  26.138  27.670  1.00  0.00     0.135 A 
ATOM     65  C   UNL A   1      43.937  28.429  27.057  1.00  0.00     0.135 A 
ATOM     66  F   UNL A   1      43.086  25.159  28.399  1.00  0.00    -0.206 F 
ATOM     67  C   UNL A   1      44.662  25.773  26.786  1.00  0.00     0.059 A 
ATOM     68  C   UNL A   1      44.901  28.081  26.122  1.00  0.00     0.059 A 
ATOM     69  F   UNL A   1      43.763  29.747  27.214  1.00  0.00    -0.206 F 
ATOM     70  C   UNL A   1      45.294  26.757  26.029  1.00  0.00     0.060 A 
BRANCH  70  71
ATOM     71  S   UNL A   1      46.695  26.319  24.986  1.00  0.00     0.124 S 
ATOM     72  O   UNL A   1      47.801  26.448  25.926  1.00  0.00    -0.237 OA
ATOM     73  O   UNL A   1      46.359  24.960  24.574  1.00  0.00    -0.237 OA
ATOM     74  O   UNL A   1      46.646  27.318  23.924  1.00  0.00    -0.744 OA
ENDBRANCH  70  71
ENDBRANCH  49  63
BRANCH  50  75
ATOM     75  C   UNL A   1      42.616  35.844  29.253  1.00  0.00     0.058 A 
ATOM     76  C   UNL A   1      41.995  36.021  28.006  1.00  0.00     0.135 A 
ATOM     77  C   UNL A   1      43.300  36.969  29.766  1.00  0.00     0.135 A 
ATOM     78  F   UNL A   1      41.283  35.024  27.462  1.00  0.00    -0.206 F 
ATOM     79  C   UNL A   1      42.041  37.240  27.315  1.00  0.00     0.059 A 
ATOM     80  C   UNL A   1      43.381  38.182  29.088  1.00  0.00     0.059 A 
ATOM     81  F   UNL A   1      43.841  36.957  30.993  1.00  0.00    -0.206 F 
ATOM     82  C   UNL A   1      42.733  38.317  27.869  1.00  0.00     0.060 A 
BRANCH  82  83
ATOM     83  S   UNL A   1      42.692  39.928  27.048  1.00  0.00     0.124 S 
ATOM     84  O   UNL A   1      41.411  39.878  26.351  1.00  0.00    -0.237 OA
ATOM     85  O   UNL A   1      42.770  40.849  28.177  1.00  0.00    -0.237 OA
ATOM     86  O   UNL A   1      43.872  39.901  26.188  1.00  0.00    -0.744 OA
ENDBRANCH  82  83
ENDBRANCH  50  75
BRANCH  62  87
ATOM     87  C   UNL A   1      43.443  31.190  33.616  1.00  0.00     0.058 A 
ATOM     88  C   UNL A   1      44.435  31.510  34.560  1.00  0.00     0.135 A 
ATOM     89  C   UNL A   1      42.114  31.476  33.967  1.00  0.00     0.135 A 
ATOM     90  F   UNL A   1      45.734  31.378  34.262  1.00  0.00    -0.206 F 
ATOM     91  C   UNL A   1      44.122  32.054  35.804  1.00  0.00     0.059 A 
ATOM     92  C   UNL A   1      41.781  32.050  35.192  1.00  0.00     0.059 A 
ATOM     93  F   UNL A   1      41.124  31.259  33.084  1.00  0.00    -0.206 F 
ATOM     94  C   UNL A   1      42.791  32.330  36.110  1.00  0.00     0.060 A 
BRANCH  94  95
ATOM     95  S   UNL A   1      42.407  33.151  37.672  1.00  0.00     0.124 S 
ATOM     96  O   UNL A   1      41.678  32.113  38.392  1.00  0.00    -0.237 OA
ATOM     97  O   UNL A   1      43.730  33.478  38.196  1.00  0.00    -0.237 OA
ATOM     98  O   UNL A   1      41.609  34.305  37.263  1.00  0.00    -0.744 OA
ENDBRANCH  94  95
ENDBRANCH  62  87
ENDBRANCH  36  37
ENDBRANCH  29  31
ENDBRANCH  28  29
ENDBRANCH  27  28
ENDBRANCH   1  27
TORSDOF 17
ENDMDL
