MODEL 1
REMARK VINA RESULT:     -11.3      0.000      0.000
REMARK SMILES CC(=O)OCC1=C(C(=O)OCCOC(=O)c2ccc(-c3c4nc(c(-c5c(F)cc(S(=O)(=O)[O-])cc5F)c5ccc([nH]5)c(-c5c(F)cc(S(=O)(=O)[O-])cc5F)c5nc(c(-c6c(F)cc(S(=O)(=O)[O-])cc6F)c6ccc3[nH]6)C=C5)C=C4)cc2)N2C(=O)[C@H](NC(=O)c3c(C)nn(C(F)F)c3C)[C@@H]2SC1
REMARK SMILES IDX 11 1 10 2 8 3 9 4 7 5 6 6 101 7 82 8 100 9 83 10 99 11 84 12
REMARK SMILES IDX 85 13 5 14 4 15 2 16 1 17 3 18 86 19 87 20 88 22 89 23 90 24
REMARK SMILES IDX 97 25 91 26 92 27 93 28 98 29 94 30 95 31 96 32 12 33 13 34
REMARK SMILES IDX 14 35 15 36 16 37 17 38 81 39 18 40 80 41 19 42 20 43 21 44
REMARK SMILES IDX 74 45 22 46 79 47 73 48 75 49 23 50 78 51 72 52 71 53 24 55
REMARK SMILES IDX 58 56 37 57 57 58 38 59 41 60 56 61 76 62 39 63 40 64 55 66
REMARK SMILES IDX 77 67 42 68 25 69 26 70 35 71 27 72 28 73 34 74 36 75 29 76
REMARK SMILES IDX 30 77 31 78 32 79 33 80 59 81 60 82 69 83 61 84 62 85 68 86
REMARK SMILES IDX 70 87 63 88 64 89 65 90 66 91 67 92 43 93 44 94 53 95 45 96
REMARK SMILES IDX 46 97 52 98 54 99 47 100 48 101 49 102 50 103 51 104
REMARK H PARENT 86 21 75 54 41 65
REMARK Flexibility Score: inf
ROOT
ATOM      1  C   UNL A   1      36.225  21.472  25.145  1.00  0.00     0.275 C 
ENDROOT
BRANCH   1   2
ATOM      2  O   UNL A   1      35.562  21.898  26.357  1.00  0.00    -0.457 OA
BRANCH   2   3
ATOM      3  C   UNL A   1      34.254  21.556  26.501  1.00  0.00     0.355 C 
ATOM      4  O   UNL A   1      33.727  21.197  27.538  1.00  0.00    -0.244 OA
BRANCH   3   5
ATOM      5  C   UNL A   1      33.530  21.737  25.190  1.00  0.00     0.134 C 
ATOM      6  C   UNL A   1      33.124  20.685  24.430  1.00  0.00     0.008 C 
ATOM      7  C   UNL A   1      32.265  20.840  23.182  1.00  0.00     0.108 C 
ATOM      8  N   UNL A   1      33.209  23.007  24.805  1.00  0.00    -0.289 N 
ATOM      9  S   UNL A   1      31.449  22.444  22.967  1.00  0.00    -0.129 SA
ATOM     10  C   UNL A   1      33.082  24.242  25.337  1.00  0.00     0.253 C 
ATOM     11  C   UNL A   1      32.921  23.371  23.436  1.00  0.00     0.181 C 
ATOM     12  O   UNL A   1      33.205  24.674  26.455  1.00  0.00    -0.272 OA
ATOM     13  C   UNL A   1      32.749  24.836  23.924  1.00  0.00     0.206 C 
BRANCH   6  14
ATOM     14  C   UNL A   1      33.370  19.230  24.802  1.00  0.00     0.267 C 
BRANCH  14  15
ATOM     15  O   UNL A   1      33.472  18.420  23.614  1.00  0.00    -0.461 OA
BRANCH  15  16
ATOM     16  C   UNL A   1      33.514  17.073  23.801  1.00  0.00     0.302 C 
ATOM     17  C   UNL A   1      32.891  16.698  25.110  1.00  0.00     0.139 C 
ATOM     18  O   UNL A   1      34.019  16.265  23.036  1.00  0.00    -0.253 OA
ENDBRANCH  15  16
ENDBRANCH  14  15
ENDBRANCH   6  14
BRANCH  13  19
ATOM     19  N   UNL A   1      31.427  25.483  23.782  1.00  0.00    -0.337 N 
ATOM     20  C   UNL A   1      31.039  26.736  24.201  1.00  0.00     0.255 C 
ATOM     21  H   UNL A   1      30.735  24.949  23.329  1.00  0.00     0.164 HD
ATOM     22  O   UNL A   1      29.844  27.020  24.175  1.00  0.00    -0.269 OA
BRANCH  20  23
ATOM     23  C   UNL A   1      32.047  27.680  24.658  1.00  0.00     0.083 A 
ATOM     24  C   UNL A   1      33.089  28.261  23.884  1.00  0.00     0.073 A 
ATOM     25  C   UNL A   1      32.297  28.115  25.958  1.00  0.00     0.054 A 
ATOM     26  C   UNL A   1      33.395  28.101  22.438  1.00  0.00     0.069 C 
ATOM     27  N   UNL A   1      33.875  29.049  24.622  1.00  0.00    -0.172 NA
ATOM     28  N   UNL A   1      33.387  28.963  25.874  1.00  0.00    -0.208 N 
ATOM     29  C   UNL A   1      31.661  27.758  27.249  1.00  0.00     0.067 C 
BRANCH  28  30
ATOM     30  C   UNL A   1      34.039  29.704  26.959  1.00  0.00     0.465 C 
ATOM     31  F   UNL A   1      33.170  30.495  27.640  1.00  0.00    -0.184 F 
ATOM     32  F   UNL A   1      34.651  28.880  27.846  1.00  0.00    -0.184 F 
ENDBRANCH  28  30
ENDBRANCH  20  23
ENDBRANCH  13  19
ENDBRANCH   3   5
ENDBRANCH   2   3
ENDBRANCH   1   2
BRANCH   1  33
ATOM     33  C   UNL A   1      36.858  22.677  24.441  1.00  0.00     0.275 C 
BRANCH  33  34
ATOM     34  O   UNL A   1      37.462  23.554  25.410  1.00  0.00    -0.458 OA
BRANCH  34  35
ATOM     35  C   UNL A   1      38.649  23.131  25.902  1.00  0.00     0.338 C 
ATOM     36  O   UNL A   1      39.251  22.107  25.623  1.00  0.00    -0.246 OA
BRANCH  35  37
ATOM     37  C   UNL A   1      39.257  24.227  26.667  1.00  0.00     0.060 A 
ATOM     38  C   UNL A   1      38.906  24.303  28.009  1.00  0.00     0.016 A 
ATOM     39  C   UNL A   1      40.077  25.196  26.098  1.00  0.00     0.016 A 
ATOM     40  C   UNL A   1      39.332  25.368  28.791  1.00  0.00     0.010 A 
ATOM     41  C   UNL A   1      40.536  26.255  26.898  1.00  0.00     0.010 A 
ATOM     42  C   UNL A   1      40.151  26.361  28.250  1.00  0.00    -0.014 A 
BRANCH  42  43
ATOM     43  C   UNL A   1      40.546  27.519  29.097  1.00  0.00     0.031 A 
ATOM     44  C   UNL A   1      41.862  27.496  29.829  1.00  0.00     0.074 A 
ATOM     45  C   UNL A   1      39.768  28.621  29.162  1.00  0.00     0.049 A 
ATOM     46  N   UNL A   1      42.321  28.317  30.737  1.00  0.00    -0.248 NA
ATOM     47  C   UNL A   1      42.781  26.398  29.491  1.00  0.00     0.031 C 
ATOM     48  C   UNL A   1      38.521  28.824  28.421  1.00  0.00     0.029 A 
ATOM     49  N   UNL A   1      39.914  29.780  29.884  1.00  0.00    -0.354 N 
ATOM     50  C   UNL A   1      43.570  27.824  31.098  1.00  0.00     0.074 A 
ATOM     51  C   UNL A   1      43.787  26.620  30.326  1.00  0.00     0.031 C 
ATOM     52  C   UNL A   1      38.022  30.033  28.721  1.00  0.00     0.029 A 
ATOM     53  C   UNL A   1      38.863  30.655  29.739  1.00  0.00     0.049 A 
ATOM     54  H   UNL A   1      40.697  29.968  30.451  1.00  0.00     0.167 HD
ATOM     55  C   UNL A   1      44.449  28.326  31.998  1.00  0.00     0.037 A 
ATOM     56  C   UNL A   1      38.574  31.800  30.389  1.00  0.00     0.037 A 
ATOM     57  C   UNL A   1      44.233  29.541  32.741  1.00  0.00     0.049 A 
ATOM     58  C   UNL A   1      39.510  32.284  31.464  1.00  0.00     0.074 A 
ATOM     59  C   UNL A   1      45.046  30.122  33.700  1.00  0.00     0.029 A 
ATOM     60  N   UNL A   1      43.129  30.371  32.601  1.00  0.00    -0.354 N 
ATOM     61  N   UNL A   1      40.649  31.767  31.859  1.00  0.00    -0.248 NA
ATOM     62  C   UNL A   1      39.113  33.493  32.198  1.00  0.00     0.031 C 
ATOM     63  C   UNL A   1      44.406  31.271  34.179  1.00  0.00     0.029 A 
ATOM     64  C   UNL A   1      43.223  31.438  33.479  1.00  0.00     0.049 A 
ATOM     65  H   UNL A   1      42.389  30.222  31.969  1.00  0.00     0.167 HD
ATOM     66  C   UNL A   1      41.117  32.601  32.868  1.00  0.00     0.074 A 
ATOM     67  C   UNL A   1      40.143  33.662  33.017  1.00  0.00     0.031 C 
ATOM     68  C   UNL A   1      42.250  32.496  33.606  1.00  0.00     0.037 A 
BRANCH  55  69
ATOM     69  C   UNL A   1      45.695  27.530  32.280  1.00  0.00     0.058 A 
ATOM     70  C   UNL A   1      45.720  26.468  33.195  1.00  0.00     0.135 A 
ATOM     71  C   UNL A   1      46.887  27.829  31.596  1.00  0.00     0.135 A 
ATOM     72  F   UNL A   1      44.618  26.144  33.889  1.00  0.00    -0.206 F 
ATOM     73  C   UNL A   1      46.887  25.752  33.449  1.00  0.00     0.059 A 
ATOM     74  C   UNL A   1      48.058  27.107  31.812  1.00  0.00     0.059 A 
ATOM     75  F   UNL A   1      46.923  28.834  30.708  1.00  0.00    -0.206 F 
ATOM     76  C   UNL A   1      48.053  26.082  32.755  1.00  0.00     0.060 A 
BRANCH  76  77
ATOM     77  S   UNL A   1      49.561  25.156  33.110  1.00  0.00     0.124 S 
ATOM     78  O   UNL A   1      50.349  26.150  33.835  1.00  0.00    -0.237 OA
ATOM     79  O   UNL A   1      49.065  24.040  33.907  1.00  0.00    -0.237 OA
ATOM     80  O   UNL A   1      50.065  24.804  31.786  1.00  0.00    -0.744 OA
ENDBRANCH  76  77
ENDBRANCH  55  69
BRANCH  56  81
ATOM     81  C   UNL A   1      37.311  32.530  30.091  1.00  0.00     0.058 A 
ATOM     82  C   UNL A   1      36.103  32.179  30.711  1.00  0.00     0.135 A 
ATOM     83  C   UNL A   1      37.286  33.592  29.171  1.00  0.00     0.135 A 
ATOM     84  F   UNL A   1      36.069  31.163  31.587  1.00  0.00    -0.206 F 
ATOM     85  C   UNL A   1      34.915  32.846  30.423  1.00  0.00     0.059 A 
ATOM     86  C   UNL A   1      36.118  34.294  28.891  1.00  0.00     0.059 A 
ATOM     87  F   UNL A   1      38.414  33.972  28.551  1.00  0.00    -0.206 F 
ATOM     88  C   UNL A   1      34.933  33.905  29.513  1.00  0.00     0.060 A 
BRANCH  88  89
ATOM     89  S   UNL A   1      33.393  34.785  29.170  1.00  0.00     0.124 S 
ATOM     90  O   UNL A   1      32.760  33.902  28.198  1.00  0.00    -0.237 OA
ATOM     91  O   UNL A   1      32.769  34.837  30.489  1.00  0.00    -0.237 OA
ATOM     92  O   UNL A   1      33.850  36.071  28.651  1.00  0.00    -0.744 OA
ENDBRANCH  88  89
ENDBRANCH  56  81
BRANCH  68  93
ATOM     93  C   UNL A   1      42.523  33.575  34.618  1.00  0.00     0.058 A 
ATOM     94  C   UNL A   1      43.279  34.713  34.301  1.00  0.00     0.135 A 
ATOM     95  C   UNL A   1      41.963  33.497  35.904  1.00  0.00     0.135 A 
ATOM     96  F   UNL A   1      43.843  34.834  33.088  1.00  0.00    -0.206 F 
ATOM     97  C   UNL A   1      43.484  35.731  35.228  1.00  0.00     0.059 A 
ATOM     98  C   UNL A   1      42.132  34.515  36.837  1.00  0.00     0.059 A 
ATOM     99  F   UNL A   1      41.225  32.433  36.258  1.00  0.00    -0.206 F 
ATOM    100  C   UNL A   1      42.901  35.625  36.492  1.00  0.00     0.060 A 
BRANCH 100 101
ATOM    101  S   UNL A   1      43.132  36.977  37.667  1.00  0.00     0.124 S 
ATOM    102  O   UNL A   1      41.773  37.173  38.162  1.00  0.00    -0.237 OA
ATOM    103  O   UNL A   1      44.076  36.404  38.620  1.00  0.00    -0.237 OA
ATOM    104  O   UNL A   1      43.661  38.059  36.842  1.00  0.00    -0.744 OA
ENDBRANCH 100 101
ENDBRANCH  68  93
ENDBRANCH  42  43
ENDBRANCH  35  37
ENDBRANCH  34  35
ENDBRANCH  33  34
ENDBRANCH   1  33
TORSDOF 20
ENDMDL
MODEL 2
REMARK VINA RESULT:     -10.8      3.284      8.230
REMARK SMILES CC(=O)OCC1=C(C(=O)OCCOC(=O)c2ccc(-c3c4nc(c(-c5c(F)cc(S(=O)(=O)[O-])cc5F)c5ccc([nH]5)c(-c5c(F)cc(S(=O)(=O)[O-])cc5F)c5nc(c(-c6c(F)cc(S(=O)(=O)[O-])cc6F)c6ccc3[nH]6)C=C5)C=C4)cc2)N2C(=O)[C@H](NC(=O)c3c(C)nn(C(F)F)c3C)[C@@H]2SC1
REMARK SMILES IDX 11 1 10 2 8 3 9 4 7 5 6 6 101 7 82 8 100 9 83 10 99 11 84 12
REMARK SMILES IDX 85 13 5 14 4 15 2 16 1 17 3 18 86 19 87 20 88 22 89 23 90 24
REMARK SMILES IDX 97 25 91 26 92 27 93 28 98 29 94 30 95 31 96 32 12 33 13 34
REMARK SMILES IDX 14 35 15 36 16 37 17 38 81 39 18 40 80 41 19 42 20 43 21 44
REMARK SMILES IDX 74 45 22 46 79 47 73 48 75 49 23 50 78 51 72 52 71 53 24 55
REMARK SMILES IDX 58 56 37 57 57 58 38 59 41 60 56 61 76 62 39 63 40 64 55 66
REMARK SMILES IDX 77 67 42 68 25 69 26 70 35 71 27 72 28 73 34 74 36 75 29 76
REMARK SMILES IDX 30 77 31 78 32 79 33 80 59 81 60 82 69 83 61 84 62 85 68 86
REMARK SMILES IDX 70 87 63 88 64 89 65 90 66 91 67 92 43 93 44 94 53 95 45 96
REMARK SMILES IDX 46 97 52 98 54 99 47 100 48 101 49 102 50 103 51 104
REMARK H PARENT 86 21 75 54 41 65
REMARK Flexibility Score: inf
ROOT
ATOM      1  C   UNL A   1      36.259  21.206  25.367  1.00  0.00     0.275 C 
ENDROOT
BRANCH   1   2
ATOM      2  O   UNL A   1      35.530  21.725  26.502  1.00  0.00    -0.457 OA
BRANCH   2   3
ATOM      3  C   UNL A   1      34.200  21.453  26.562  1.00  0.00     0.355 C 
ATOM      4  O   UNL A   1      33.572  21.213  27.577  1.00  0.00    -0.244 OA
BRANCH   3   5
ATOM      5  C   UNL A   1      33.596  21.539  25.182  1.00  0.00     0.134 C 
ATOM      6  C   UNL A   1      33.276  20.436  24.455  1.00  0.00     0.008 C 
ATOM      7  C   UNL A   1      32.533  20.499  23.127  1.00  0.00     0.108 C 
ATOM      8  N   UNL A   1      33.294  22.777  24.692  1.00  0.00    -0.289 N 
ATOM      9  S   UNL A   1      31.718  22.070  22.741  1.00  0.00    -0.129 SA
ATOM     10  C   UNL A   1      33.101  24.039  25.133  1.00  0.00     0.253 C 
ATOM     11  C   UNL A   1      33.127  23.053  23.283  1.00  0.00     0.181 C 
ATOM     12  O   UNL A   1      33.115  24.540  26.229  1.00  0.00    -0.272 OA
ATOM     13  C   UNL A   1      32.890  24.541  23.662  1.00  0.00     0.206 C 
BRANCH   6  14
ATOM     14  C   UNL A   1      33.508  19.011  24.937  1.00  0.00     0.267 C 
BRANCH  14  15
ATOM     15  O   UNL A   1      32.685  18.092  24.192  1.00  0.00    -0.461 OA
BRANCH  15  16
ATOM     16  C   UNL A   1      33.278  16.933  23.794  1.00  0.00     0.302 C 
ATOM     17  C   UNL A   1      33.118  15.869  24.835  1.00  0.00     0.139 C 
ATOM     18  O   UNL A   1      33.893  16.772  22.751  1.00  0.00    -0.253 OA
ENDBRANCH  15  16
ENDBRANCH  14  15
ENDBRANCH   6  14
BRANCH  13  19
ATOM     19  N   UNL A   1      31.577  25.152  23.361  1.00  0.00    -0.337 N 
ATOM     20  C   UNL A   1      31.118  26.403  23.706  1.00  0.00     0.255 C 
ATOM     21  H   UNL A   1      30.952  24.591  22.849  1.00  0.00     0.164 HD
ATOM     22  O   UNL A   1      29.927  26.657  23.544  1.00  0.00    -0.269 OA
BRANCH  20  23
ATOM     23  C   UNL A   1      32.048  27.382  24.248  1.00  0.00     0.083 A 
ATOM     24  C   UNL A   1      33.147  27.984  23.574  1.00  0.00     0.073 A 
ATOM     25  C   UNL A   1      32.155  27.839  25.559  1.00  0.00     0.054 A 
ATOM     26  C   UNL A   1      33.600  27.815  22.168  1.00  0.00     0.069 C 
ATOM     27  N   UNL A   1      33.833  28.802  24.375  1.00  0.00    -0.172 NA
ATOM     28  N   UNL A   1      33.224  28.717  25.573  1.00  0.00    -0.208 N 
ATOM     29  C   UNL A   1      31.402  27.479  26.786  1.00  0.00     0.067 C 
BRANCH  28  30
ATOM     30  C   UNL A   1      33.743  29.490  26.707  1.00  0.00     0.465 C 
ATOM     31  F   UNL A   1      32.773  30.206  27.331  1.00  0.00    -0.184 F 
ATOM     32  F   UNL A   1      34.351  28.701  27.629  1.00  0.00    -0.184 F 
ENDBRANCH  28  30
ENDBRANCH  20  23
ENDBRANCH  13  19
ENDBRANCH   3   5
ENDBRANCH   2   3
ENDBRANCH   1   2
BRANCH   1  33
ATOM     33  C   UNL A   1      37.153  22.298  24.771  1.00  0.00     0.275 C 
BRANCH  33  34
ATOM     34  O   UNL A   1      37.533  23.237  25.795  1.00  0.00    -0.458 OA
BRANCH  34  35
ATOM     35  C   UNL A   1      38.703  22.962  26.418  1.00  0.00     0.338 C 
ATOM     36  O   UNL A   1      39.340  21.922  26.384  1.00  0.00    -0.246 OA
BRANCH  35  37
ATOM     37  C   UNL A   1      39.247  24.210  26.967  1.00  0.00     0.060 A 
ATOM     38  C   UNL A   1      39.817  25.083  26.049  1.00  0.00     0.016 A 
ATOM     39  C   UNL A   1      39.279  24.500  28.327  1.00  0.00     0.016 A 
ATOM     40  C   UNL A   1      40.464  26.235  26.477  1.00  0.00     0.010 A 
ATOM     41  C   UNL A   1      39.903  25.682  28.757  1.00  0.00     0.010 A 
ATOM     42  C   UNL A   1      40.519  26.553  27.836  1.00  0.00    -0.014 A 
BRANCH  42  43
ATOM     43  C   UNL A   1      41.266  27.765  28.269  1.00  0.00     0.031 A 
ATOM     44  C   UNL A   1      40.526  28.913  28.903  1.00  0.00     0.074 A 
ATOM     45  C   UNL A   1      42.611  27.817  28.163  1.00  0.00     0.049 A 
ATOM     46  N   UNL A   1      40.953  30.111  29.201  1.00  0.00    -0.248 NA
ATOM     47  C   UNL A   1      39.115  28.674  29.246  1.00  0.00     0.031 C 
ATOM     48  C   UNL A   1      43.467  26.737  27.668  1.00  0.00     0.029 A 
ATOM     49  N   UNL A   1      43.495  28.822  28.469  1.00  0.00    -0.354 N 
ATOM     50  C   UNL A   1      39.861  30.780  29.742  1.00  0.00     0.074 A 
ATOM     51  C   UNL A   1      38.746  29.859  29.712  1.00  0.00     0.031 C 
ATOM     52  C   UNL A   1      44.748  27.133  27.710  1.00  0.00     0.029 A 
ATOM     53  C   UNL A   1      44.800  28.524  28.151  1.00  0.00     0.049 A 
ATOM     54  H   UNL A   1      43.222  29.676  28.877  1.00  0.00     0.167 HD
ATOM     55  C   UNL A   1      39.794  32.049  30.211  1.00  0.00     0.037 A 
ATOM     56  C   UNL A   1      45.906  29.294  28.157  1.00  0.00     0.037 A 
ATOM     57  C   UNL A   1      40.919  32.948  30.261  1.00  0.00     0.049 A 
ATOM     58  C   UNL A   1      45.790  30.734  28.578  1.00  0.00     0.074 A 
ATOM     59  C   UNL A   1      40.953  34.264  30.689  1.00  0.00     0.029 A 
ATOM     60  N   UNL A   1      42.213  32.621  29.881  1.00  0.00    -0.354 N 
ATOM     61  N   UNL A   1      44.735  31.384  29.010  1.00  0.00    -0.248 NA
ATOM     62  C   UNL A   1      47.006  31.554  28.493  1.00  0.00     0.031 C 
ATOM     63  C   UNL A   1      42.253  34.749  30.514  1.00  0.00     0.029 A 
ATOM     64  C   UNL A   1      43.044  33.719  30.031  1.00  0.00     0.049 A 
ATOM     65  H   UNL A   1      42.498  31.737  29.553  1.00  0.00     0.167 HD
ATOM     66  C   UNL A   1      45.166  32.679  29.272  1.00  0.00     0.074 A 
ATOM     67  C   UNL A   1      46.580  32.720  28.960  1.00  0.00     0.031 C 
ATOM     68  C   UNL A   1      44.455  33.740  29.728  1.00  0.00     0.037 A 
BRANCH  55  69
ATOM     69  C   UNL A   1      38.449  32.565  30.648  1.00  0.00     0.058 A 
ATOM     70  C   UNL A   1      37.999  32.467  31.972  1.00  0.00     0.135 A 
ATOM     71  C   UNL A   1      37.602  33.192  29.717  1.00  0.00     0.135 A 
ATOM     72  F   UNL A   1      38.755  31.867  32.905  1.00  0.00    -0.206 F 
ATOM     73  C   UNL A   1      36.745  32.941  32.353  1.00  0.00     0.059 A 
ATOM     74  C   UNL A   1      36.358  33.699  30.080  1.00  0.00     0.059 A 
ATOM     75  F   UNL A   1      37.981  33.315  28.435  1.00  0.00    -0.206 F 
ATOM     76  C   UNL A   1      35.930  33.553  31.398  1.00  0.00     0.060 A 
BRANCH  76  77
ATOM     77  S   UNL A   1      34.301  34.144  31.903  1.00  0.00     0.124 S 
ATOM     78  O   UNL A   1      34.649  35.329  32.681  1.00  0.00    -0.237 OA
ATOM     79  O   UNL A   1      33.648  34.398  30.623  1.00  0.00    -0.237 OA
ATOM     80  O   UNL A   1      33.756  33.028  32.671  1.00  0.00    -0.744 OA
ENDBRANCH  76  77
ENDBRANCH  55  69
BRANCH  56  81
ATOM     81  C   UNL A   1      47.205  28.739  27.684  1.00  0.00     0.058 A 
ATOM     82  C   UNL A   1      48.147  28.221  28.584  1.00  0.00     0.135 A 
ATOM     83  C   UNL A   1      47.532  28.721  26.317  1.00  0.00     0.135 A 
ATOM     84  F   UNL A   1      47.891  28.228  29.901  1.00  0.00    -0.206 F 
ATOM     85  C   UNL A   1      49.370  27.717  28.150  1.00  0.00     0.059 A 
ATOM     86  C   UNL A   1      48.734  28.194  25.857  1.00  0.00     0.059 A 
ATOM     87  F   UNL A   1      46.665  29.201  25.411  1.00  0.00    -0.206 F 
ATOM     88  C   UNL A   1      49.653  27.705  26.782  1.00  0.00     0.060 A 
BRANCH  88  89
ATOM     89  S   UNL A   1      51.229  27.019  26.225  1.00  0.00     0.124 S 
ATOM     90  O   UNL A   1      52.125  27.432  27.298  1.00  0.00    -0.237 OA
ATOM     91  O   UNL A   1      50.934  25.591  26.154  1.00  0.00    -0.237 OA
ATOM     92  O   UNL A   1      51.443  27.672  24.937  1.00  0.00    -0.744 OA
ENDBRANCH  88  89
ENDBRANCH  56  81
BRANCH  68  93
ATOM     93  C   UNL A   1      45.196  35.028  29.956  1.00  0.00     0.058 A 
ATOM     94  C   UNL A   1      45.819  35.317  31.179  1.00  0.00     0.135 A 
ATOM     95  C   UNL A   1      45.339  35.957  28.911  1.00  0.00     0.135 A 
ATOM     96  F   UNL A   1      45.708  34.468  32.213  1.00  0.00    -0.206 F 
ATOM     97  C   UNL A   1      46.547  36.490  31.365  1.00  0.00     0.059 A 
ATOM     98  C   UNL A   1      46.085  37.121  29.066  1.00  0.00     0.059 A 
ATOM     99  F   UNL A   1      44.769  35.726  27.718  1.00  0.00    -0.206 F 
ATOM    100  C   UNL A   1      46.679  37.383  30.299  1.00  0.00     0.060 A 
BRANCH 100 101
ATOM    101  S   UNL A   1      47.669  38.874  30.538  1.00  0.00     0.124 S 
ATOM    102  O   UNL A   1      47.252  39.690  29.402  1.00  0.00    -0.237 OA
ATOM    103  O   UNL A   1      47.224  39.338  31.848  1.00  0.00    -0.237 OA
ATOM    104  O   UNL A   1      49.043  38.383  30.487  1.00  0.00    -0.744 OA
ENDBRANCH 100 101
ENDBRANCH  68  93
ENDBRANCH  42  43
ENDBRANCH  35  37
ENDBRANCH  34  35
ENDBRANCH  33  34
ENDBRANCH   1  33
TORSDOF 20
ENDMDL
MODEL 3
REMARK VINA RESULT:     -10.3      6.094     13.007
REMARK SMILES CC(=O)OCC1=C(C(=O)OCCOC(=O)c2ccc(-c3c4nc(c(-c5c(F)cc(S(=O)(=O)[O-])cc5F)c5ccc([nH]5)c(-c5c(F)cc(S(=O)(=O)[O-])cc5F)c5nc(c(-c6c(F)cc(S(=O)(=O)[O-])cc6F)c6ccc3[nH]6)C=C5)C=C4)cc2)N2C(=O)[C@H](NC(=O)c3c(C)nn(C(F)F)c3C)[C@@H]2SC1
REMARK SMILES IDX 11 1 10 2 8 3 9 4 7 5 6 6 101 7 82 8 100 9 83 10 99 11 84 12
REMARK SMILES IDX 85 13 5 14 4 15 2 16 1 17 3 18 86 19 87 20 88 22 89 23 90 24
REMARK SMILES IDX 97 25 91 26 92 27 93 28 98 29 94 30 95 31 96 32 12 33 13 34
REMARK SMILES IDX 14 35 15 36 16 37 17 38 81 39 18 40 80 41 19 42 20 43 21 44
REMARK SMILES IDX 74 45 22 46 79 47 73 48 75 49 23 50 78 51 72 52 71 53 24 55
REMARK SMILES IDX 58 56 37 57 57 58 38 59 41 60 56 61 76 62 39 63 40 64 55 66
REMARK SMILES IDX 77 67 42 68 25 69 26 70 35 71 27 72 28 73 34 74 36 75 29 76
REMARK SMILES IDX 30 77 31 78 32 79 33 80 59 81 60 82 69 83 61 84 62 85 68 86
REMARK SMILES IDX 70 87 63 88 64 89 65 90 66 91 67 92 43 93 44 94 53 95 45 96
REMARK SMILES IDX 46 97 52 98 54 99 47 100 48 101 49 102 50 103 51 104
REMARK H PARENT 86 21 75 54 41 65
REMARK Flexibility Score: inf
ROOT
ATOM      1  C   UNL A   1      36.572  31.598  32.961  1.00  0.00     0.275 C 
ENDROOT
BRANCH   1   2
ATOM      2  O   UNL A   1      38.009  31.608  32.804  1.00  0.00    -0.457 OA
BRANCH   2   3
ATOM      3  C   UNL A   1      38.742  32.111  33.833  1.00  0.00     0.355 C 
ATOM      4  O   UNL A   1      38.298  32.731  34.781  1.00  0.00    -0.244 OA
BRANCH   3   5
ATOM      5  C   UNL A   1      40.194  31.743  33.655  1.00  0.00     0.134 C 
ATOM      6  C   UNL A   1      41.061  32.515  32.948  1.00  0.00     0.008 C 
ATOM      7  C   UNL A   1      42.558  32.240  32.880  1.00  0.00     0.108 C 
ATOM      8  N   UNL A   1      40.656  30.631  34.298  1.00  0.00    -0.289 N 
ATOM      9  S   UNL A   1      43.216  31.084  34.111  1.00  0.00    -0.129 SA
ATOM     10  C   UNL A   1      40.310  29.812  35.315  1.00  0.00     0.253 C 
ATOM     11  C   UNL A   1      41.853  29.925  33.901  1.00  0.00     0.181 C 
ATOM     12  O   UNL A   1      39.385  29.804  36.088  1.00  0.00    -0.272 OA
ATOM     13  C   UNL A   1      41.563  28.910  35.040  1.00  0.00     0.206 C 
BRANCH   6  14
ATOM     14  C   UNL A   1      40.665  33.808  32.250  1.00  0.00     0.267 C 
BRANCH  14  15
ATOM     15  O   UNL A   1      40.859  33.688  30.827  1.00  0.00    -0.461 OA
BRANCH  15  16
ATOM     16  C   UNL A   1      39.825  34.089  30.038  1.00  0.00     0.302 C 
ATOM     17  C   UNL A   1      38.882  32.954  29.781  1.00  0.00     0.139 C 
ATOM     18  O   UNL A   1      39.684  35.206  29.564  1.00  0.00    -0.253 OA
ENDBRANCH  15  16
ENDBRANCH  14  15
ENDBRANCH   6  14
BRANCH  13  19
ATOM     19  N   UNL A   1      42.535  28.785  36.148  1.00  0.00    -0.337 N 
ATOM     20  C   UNL A   1      43.184  27.655  36.592  1.00  0.00     0.255 C 
ATOM     21  H   UNL A   1      42.745  29.617  36.629  1.00  0.00     0.164 HD
ATOM     22  O   UNL A   1      43.800  27.710  37.653  1.00  0.00    -0.269 OA
BRANCH  20  23
ATOM     23  C   UNL A   1      43.123  26.437  35.797  1.00  0.00     0.083 A 
ATOM     24  C   UNL A   1      42.210  25.358  35.952  1.00  0.00     0.073 A 
ATOM     25  C   UNL A   1      44.010  26.002  34.815  1.00  0.00     0.054 A 
ATOM     26  C   UNL A   1      41.081  25.205  36.907  1.00  0.00     0.069 C 
ATOM     27  N   UNL A   1      42.460  24.368  35.091  1.00  0.00    -0.172 NA
ATOM     28  N   UNL A   1      43.545  24.767  34.400  1.00  0.00    -0.208 N 
ATOM     29  C   UNL A   1      45.264  26.599  34.294  1.00  0.00     0.067 C 
BRANCH  28  30
ATOM     30  C   UNL A   1      44.108  23.891  33.366  1.00  0.00     0.465 C 
ATOM     31  F   UNL A   1      43.426  22.723  33.250  1.00  0.00    -0.184 F 
ATOM     32  F   UNL A   1      44.139  24.490  32.149  1.00  0.00    -0.184 F 
ENDBRANCH  28  30
ENDBRANCH  20  23
ENDBRANCH  13  19
ENDBRANCH   3   5
ENDBRANCH   2   3
ENDBRANCH   1   2
BRANCH   1  33
ATOM     33  C   UNL A   1      35.892  31.617  31.588  1.00  0.00     0.275 C 
BRANCH  33  34
ATOM     34  O   UNL A   1      35.974  30.315  30.979  1.00  0.00    -0.458 OA
BRANCH  34  35
ATOM     35  C   UNL A   1      36.073  30.321  29.629  1.00  0.00     0.338 C 
ATOM     36  O   UNL A   1      35.320  30.849  28.828  1.00  0.00    -0.246 OA
BRANCH  35  37
ATOM     37  C   UNL A   1      37.390  29.790  29.253  1.00  0.00     0.060 A 
ATOM     38  C   UNL A   1      38.168  29.296  30.293  1.00  0.00     0.016 A 
ATOM     39  C   UNL A   1      37.894  29.837  27.958  1.00  0.00     0.016 A 
ATOM     40  C   UNL A   1      39.473  28.881  30.062  1.00  0.00     0.010 A 
ATOM     41  C   UNL A   1      39.201  29.384  27.718  1.00  0.00     0.010 A 
ATOM     42  C   UNL A   1      40.011  28.919  28.774  1.00  0.00    -0.014 A 
BRANCH  42  43
ATOM     43  C   UNL A   1      41.429  28.519  28.567  1.00  0.00     0.031 A 
ATOM     44  C   UNL A   1      42.524  29.541  28.714  1.00  0.00     0.074 A 
ATOM     45  C   UNL A   1      41.751  27.231  28.315  1.00  0.00     0.049 A 
ATOM     46  N   UNL A   1      43.795  29.445  28.423  1.00  0.00    -0.248 NA
ATOM     47  C   UNL A   1      42.131  30.848  29.265  1.00  0.00     0.031 C 
ATOM     48  C   UNL A   1      40.803  26.116  28.251  1.00  0.00     0.029 A 
ATOM     49  N   UNL A   1      42.967  26.643  28.069  1.00  0.00    -0.354 N 
ATOM     50  C   UNL A   1      44.349  30.683  28.729  1.00  0.00     0.074 A 
ATOM     51  C   UNL A   1      43.272  31.520  29.210  1.00  0.00     0.031 C 
ATOM     52  C   UNL A   1      41.472  24.982  27.991  1.00  0.00     0.029 A 
ATOM     53  C   UNL A   1      42.882  25.300  27.783  1.00  0.00     0.049 A 
ATOM     54  H   UNL A   1      43.820  27.135  28.095  1.00  0.00     0.167 HD
ATOM     55  C   UNL A   1      45.638  31.084  28.611  1.00  0.00     0.037 A 
ATOM     56  C   UNL A   1      43.816  24.432  27.347  1.00  0.00     0.037 A 
ATOM     57  C   UNL A   1      46.707  30.232  28.156  1.00  0.00     0.049 A 
ATOM     58  C   UNL A   1      45.219  24.924  27.117  1.00  0.00     0.074 A 
ATOM     59  C   UNL A   1      48.042  30.548  27.971  1.00  0.00     0.029 A 
ATOM     60  N   UNL A   1      46.567  28.890  27.828  1.00  0.00    -0.354 N 
ATOM     61  N   UNL A   1      45.718  26.119  27.329  1.00  0.00    -0.248 NA
ATOM     62  C   UNL A   1      46.182  23.961  26.567  1.00  0.00     0.031 C 
ATOM     63  C   UNL A   1      48.696  29.414  27.476  1.00  0.00     0.029 A 
ATOM     64  C   UNL A   1      47.782  28.375  27.408  1.00  0.00     0.049 A 
ATOM     65  H   UNL A   1      45.726  28.381  27.886  1.00  0.00     0.167 HD
ATOM     66  C   UNL A   1      47.057  26.043  26.965  1.00  0.00     0.074 A 
ATOM     67  C   UNL A   1      47.294  24.683  26.527  1.00  0.00     0.031 C 
ATOM     68  C   UNL A   1      48.005  27.013  26.988  1.00  0.00     0.037 A 
BRANCH  55  69
ATOM     69  C   UNL A   1      45.954  32.524  28.914  1.00  0.00     0.058 A 
ATOM     70  C   UNL A   1      46.357  32.955  30.186  1.00  0.00     0.135 A 
ATOM     71  C   UNL A   1      45.870  33.490  27.895  1.00  0.00     0.135 A 
ATOM     72  F   UNL A   1      46.443  32.084  31.203  1.00  0.00    -0.206 F 
ATOM     73  C   UNL A   1      46.634  34.295  30.448  1.00  0.00     0.059 A 
ATOM     74  C   UNL A   1      46.170  34.830  28.126  1.00  0.00     0.059 A 
ATOM     75  F   UNL A   1      45.490  33.136  26.657  1.00  0.00    -0.206 F 
ATOM     76  C   UNL A   1      46.534  35.226  29.411  1.00  0.00     0.060 A 
BRANCH  76  77
ATOM     77  S   UNL A   1      46.876  36.961  29.772  1.00  0.00     0.124 S 
ATOM     78  O   UNL A   1      48.067  36.855  30.610  1.00  0.00    -0.237 OA
ATOM     79  O   UNL A   1      47.089  37.522  28.442  1.00  0.00    -0.237 OA
ATOM     80  O   UNL A   1      45.668  37.413  30.455  1.00  0.00    -0.744 OA
ENDBRANCH  76  77
ENDBRANCH  55  69
BRANCH  56  81
ATOM     81  C   UNL A   1      43.439  23.026  27.033  1.00  0.00     0.058 A 
ATOM     82  C   UNL A   1      43.334  22.577  25.709  1.00  0.00     0.135 A 
ATOM     83  C   UNL A   1      43.169  22.101  28.057  1.00  0.00     0.135 A 
ATOM     84  F   UNL A   1      43.567  23.423  24.694  1.00  0.00    -0.206 F 
ATOM     85  C   UNL A   1      42.965  21.269  25.409  1.00  0.00     0.059 A 
ATOM     86  C   UNL A   1      42.830  20.780  27.782  1.00  0.00     0.059 A 
ATOM     87  F   UNL A   1      43.258  22.475  29.343  1.00  0.00    -0.206 F 
ATOM     88  C   UNL A   1      42.717  20.376  26.454  1.00  0.00     0.060 A 
BRANCH  88  89
ATOM     89  S   UNL A   1      42.271  18.671  26.056  1.00  0.00     0.124 S 
ATOM     90  O   UNL A   1      40.869  18.815  25.679  1.00  0.00    -0.237 OA
ATOM     91  O   UNL A   1      43.195  18.358  24.970  1.00  0.00    -0.237 OA
ATOM     92  O   UNL A   1      42.518  17.958  27.306  1.00  0.00    -0.744 OA
ENDBRANCH  88  89
ENDBRANCH  56  81
BRANCH  68  93
ATOM     93  C   UNL A   1      49.398  26.635  26.564  1.00  0.00     0.058 A 
ATOM     94  C   UNL A   1      50.327  26.100  27.468  1.00  0.00     0.135 A 
ATOM     95  C   UNL A   1      49.784  26.749  25.217  1.00  0.00     0.135 A 
ATOM     96  F   UNL A   1      50.013  25.977  28.768  1.00  0.00    -0.206 F 
ATOM     97  C   UNL A   1      51.597  25.705  27.057  1.00  0.00     0.059 A 
ATOM     98  C   UNL A   1      51.037  26.334  24.779  1.00  0.00     0.059 A 
ATOM     99  F   UNL A   1      48.930  27.247  24.309  1.00  0.00    -0.206 F 
ATOM    100  C   UNL A   1      51.940  25.821  25.708  1.00  0.00     0.060 A 
BRANCH 100 101
ATOM    101  S   UNL A   1      53.572  25.256  25.180  1.00  0.00     0.124 S 
ATOM    102  O   UNL A   1      53.628  25.757  23.810  1.00  0.00    -0.237 OA
ATOM    103  O   UNL A   1      54.456  25.919  26.133  1.00  0.00    -0.237 OA
ATOM    104  O   UNL A   1      53.491  23.805  25.314  1.00  0.00    -0.744 OA
ENDBRANCH 100 101
ENDBRANCH  68  93
ENDBRANCH  42  43
ENDBRANCH  35  37
ENDBRANCH  34  35
ENDBRANCH  33  34
ENDBRANCH   1  33
TORSDOF 20
ENDMDL
