MODEL 1
REMARK VINA RESULT:     -10.7      0.000      0.000
REMARK SMILES O=C(OCCOC(=O)[C@@H]1CN(c2ncnc3c2CCC3)CCO1)c1ccc(-c2c3nc(c(-c4c(F)cc(S(=O)(=O)[O-])cc4F)c4ccc([nH]4)c(-c4c(F)cc(S(=O)(=O)[O-])cc4F)c4nc(c(-c5c(F)cc(S(=O)(=O)[O-])cc5F)c5ccc2[nH]5)C=C4)C=C3)cc1
REMARK SMILES IDX 4 1 3 2 2 3 1 4 24 5 25 6 89 7 26 8 88 9 27 10 28 11 29 12
REMARK SMILES IDX 82 13 30 14 87 15 81 16 83 17 31 18 86 19 80 20 79 21 32 23
REMARK SMILES IDX 66 24 45 25 65 26 46 27 49 28 64 29 84 30 47 31 48 32 63 34
REMARK SMILES IDX 85 35 50 36 33 37 34 38 43 39 35 40 36 41 42 42 44 43 37 44
REMARK SMILES IDX 38 45 39 46 40 47 41 48 67 49 68 50 77 51 69 52 70 53 76 54
REMARK SMILES IDX 78 55 71 56 72 57 73 58 74 59 75 60 51 61 52 62 61 63 53 64
REMARK SMILES IDX 54 65 60 66 62 67 55 68 56 69 57 70 58 71 59 72 5 73 6 74
REMARK SMILES IDX 7 75 8 76 9 77 10 78 23 79 11 80 22 81 21 82 12 83 13 84
REMARK SMILES IDX 17 85 14 86 16 87 18 88 15 89 20 90 19 91
REMARK H PARENT 83 22 49 33
REMARK Flexibility Score: inf
ROOT
ATOM      1  C   UNL A   1      45.091  24.408  25.748  1.00  0.00     0.275 C 
ENDROOT
BRANCH   1   2
ATOM      2  O   UNL A   1      43.735  24.371  26.208  1.00  0.00    -0.458 OA
BRANCH   2   3
ATOM      3  C   UNL A   1      42.776  25.323  26.105  1.00  0.00     0.338 C 
ATOM      4  O   UNL A   1      42.349  25.588  24.981  1.00  0.00    -0.246 OA
BRANCH   3   5
ATOM      5  C   UNL A   1      42.280  26.151  27.261  1.00  0.00     0.060 A 
ATOM      6  C   UNL A   1      41.218  25.860  28.125  1.00  0.00     0.016 A 
ATOM      7  C   UNL A   1      42.999  27.329  27.510  1.00  0.00     0.016 A 
ATOM      8  C   UNL A   1      40.942  26.649  29.252  1.00  0.00     0.010 A 
ATOM      9  C   UNL A   1      42.750  28.103  28.647  1.00  0.00     0.010 A 
ATOM     10  C   UNL A   1      41.716  27.769  29.537  1.00  0.00    -0.014 A 
BRANCH  10  11
ATOM     11  C   UNL A   1      41.332  28.721  30.615  1.00  0.00     0.031 A 
ATOM     12  C   UNL A   1      42.062  28.570  31.924  1.00  0.00     0.074 A 
ATOM     13  C   UNL A   1      40.405  29.693  30.451  1.00  0.00     0.049 A 
ATOM     14  N   UNL A   1      41.871  29.190  33.054  1.00  0.00    -0.248 NA
ATOM     15  C   UNL A   1      43.157  27.578  31.964  1.00  0.00     0.031 C 
ATOM     16  C   UNL A   1      39.699  30.002  29.205  1.00  0.00     0.029 A 
ATOM     17  N   UNL A   1      39.878  30.602  31.344  1.00  0.00    -0.354 N 
ATOM     18  C   UNL A   1      42.853  28.703  33.906  1.00  0.00     0.074 A 
ATOM     19  C   UNL A   1      43.521  27.618  33.234  1.00  0.00     0.031 C 
ATOM     20  C   UNL A   1      38.812  30.992  29.426  1.00  0.00     0.029 A 
ATOM     21  C   UNL A   1      38.845  31.369  30.832  1.00  0.00     0.049 A 
ATOM     22  H   UNL A   1      40.208  30.697  32.266  1.00  0.00     0.167 HD
ATOM     23  C   UNL A   1      43.250  29.198  35.097  1.00  0.00     0.037 A 
ATOM     24  C   UNL A   1      38.015  32.241  31.448  1.00  0.00     0.037 A 
ATOM     25  C   UNL A   1      42.628  30.325  35.722  1.00  0.00     0.049 A 
ATOM     26  C   UNL A   1      38.317  32.594  32.876  1.00  0.00     0.074 A 
ATOM     27  C   UNL A   1      42.999  30.982  36.877  1.00  0.00     0.029 A 
ATOM     28  N   UNL A   1      41.500  30.962  35.229  1.00  0.00    -0.354 N 
ATOM     29  N   UNL A   1      39.259  32.122  33.654  1.00  0.00    -0.248 NA
ATOM     30  C   UNL A   1      37.497  33.652  33.484  1.00  0.00     0.031 C 
ATOM     31  C   UNL A   1      42.062  31.989  37.113  1.00  0.00     0.029 A 
ATOM     32  C   UNL A   1      41.135  31.983  36.081  1.00  0.00     0.049 A 
ATOM     33  H   UNL A   1      41.031  30.722  34.398  1.00  0.00     0.167 HD
ATOM     34  C   UNL A   1      39.183  32.866  34.821  1.00  0.00     0.074 A 
ATOM     35  C   UNL A   1      38.071  33.780  34.670  1.00  0.00     0.031 C 
ATOM     36  C   UNL A   1      39.996  32.839  35.901  1.00  0.00     0.037 A 
BRANCH  23  37
ATOM     37  C   UNL A   1      44.456  28.578  35.735  1.00  0.00     0.058 A 
ATOM     38  C   UNL A   1      45.751  29.022  35.417  1.00  0.00     0.135 A 
ATOM     39  C   UNL A   1      44.323  27.552  36.679  1.00  0.00     0.135 A 
ATOM     40  F   UNL A   1      45.932  29.984  34.496  1.00  0.00    -0.206 F 
ATOM     41  C   UNL A   1      46.876  28.455  36.000  1.00  0.00     0.059 A 
ATOM     42  C   UNL A   1      45.436  26.988  37.297  1.00  0.00     0.059 A 
ATOM     43  F   UNL A   1      43.108  27.084  37.004  1.00  0.00    -0.206 F 
ATOM     44  C   UNL A   1      46.707  27.443  36.944  1.00  0.00     0.060 A 
BRANCH  44  45
ATOM     45  S   UNL A   1      48.179  26.743  37.718  1.00  0.00     0.124 S 
ATOM     46  O   UNL A   1      49.231  27.586  37.156  1.00  0.00    -0.237 OA
ATOM     47  O   UNL A   1      47.901  26.944  39.139  1.00  0.00    -0.237 OA
ATOM     48  O   UNL A   1      48.176  25.360  37.269  1.00  0.00    -0.744 OA
ENDBRANCH  44  45
ENDBRANCH  23  37
BRANCH  24  49
ATOM     49  C   UNL A   1      36.812  32.845  30.794  1.00  0.00     0.058 A 
ATOM     50  C   UNL A   1      35.508  32.389  31.019  1.00  0.00     0.135 A 
ATOM     51  C   UNL A   1      36.970  33.887  29.860  1.00  0.00     0.135 A 
ATOM     52  F   UNL A   1      35.294  31.348  31.837  1.00  0.00    -0.206 F 
ATOM     53  C   UNL A   1      34.402  32.997  30.418  1.00  0.00     0.059 A 
ATOM     54  C   UNL A   1      35.885  34.515  29.250  1.00  0.00     0.059 A 
ATOM     55  F   UNL A   1      38.201  34.332  29.560  1.00  0.00    -0.206 F 
ATOM     56  C   UNL A   1      34.599  34.081  29.560  1.00  0.00     0.060 A 
BRANCH  56  57
ATOM     57  S   UNL A   1      33.191  35.039  28.952  1.00  0.00     0.124 S 
ATOM     58  O   UNL A   1      32.444  35.288  30.179  1.00  0.00    -0.237 OA
ATOM     59  O   UNL A   1      33.824  36.206  28.344  1.00  0.00    -0.237 OA
ATOM     60  O   UNL A   1      32.577  34.109  28.007  1.00  0.00    -0.744 OA
ENDBRANCH  56  57
ENDBRANCH  24  49
BRANCH  36  61
ATOM     61  C   UNL A   1      39.716  33.835  36.977  1.00  0.00     0.058 A 
ATOM     62  C   UNL A   1      38.877  33.525  38.054  1.00  0.00     0.135 A 
ATOM     63  C   UNL A   1      40.356  35.085  36.958  1.00  0.00     0.135 A 
ATOM     64  F   UNL A   1      38.227  32.352  38.090  1.00  0.00    -0.206 F 
ATOM     65  C   UNL A   1      38.684  34.426  39.090  1.00  0.00     0.059 A 
ATOM     66  C   UNL A   1      40.202  35.986  37.998  1.00  0.00     0.059 A 
ATOM     67  F   UNL A   1      41.163  35.417  35.936  1.00  0.00    -0.206 F 
ATOM     68  C   UNL A   1      39.364  35.647  39.060  1.00  0.00     0.060 A 
BRANCH  68  69
ATOM     69  S   UNL A   1      39.169  36.767  40.457  1.00  0.00     0.124 S 
ATOM     70  O   UNL A   1      38.539  37.919  39.823  1.00  0.00    -0.237 OA
ATOM     71  O   UNL A   1      38.322  35.992  41.356  1.00  0.00    -0.237 OA
ATOM     72  O   UNL A   1      40.539  36.975  40.919  1.00  0.00    -0.744 OA
ENDBRANCH  68  69
ENDBRANCH  36  61
ENDBRANCH  10  11
ENDBRANCH   3   5
ENDBRANCH   2   3
ENDBRANCH   1   2
BRANCH   1  73
ATOM     73  C   UNL A   1      45.573  23.102  25.110  1.00  0.00     0.274 C 
BRANCH  73  74
ATOM     74  O   UNL A   1      44.496  22.225  24.737  1.00  0.00    -0.460 OA
BRANCH  74  75
ATOM     75  C   UNL A   1      44.730  20.881  24.844  1.00  0.00     0.337 C 
ATOM     76  O   UNL A   1      45.803  20.348  24.583  1.00  0.00    -0.249 OA
BRANCH  75  77
ATOM     77  C   UNL A   1      43.492  20.110  25.317  1.00  0.00     0.247 C 
ATOM     78  C   UNL A   1      42.537  21.085  26.015  1.00  0.00     0.162 C 
ATOM     79  O   UNL A   1      43.859  19.012  26.167  1.00  0.00    -0.363 OA
ATOM     80  N   UNL A   1      41.433  20.383  26.658  1.00  0.00    -0.351 N 
ATOM     81  C   UNL A   1      42.701  18.304  26.646  1.00  0.00     0.183 C 
ATOM     82  C   UNL A   1      41.773  19.214  27.458  1.00  0.00     0.146 C 
BRANCH  80  83
ATOM     83  C   UNL A   1      40.163  20.442  26.136  1.00  0.00     0.135 A 
ATOM     84  N   UNL A   1      39.644  19.403  25.466  1.00  0.00    -0.219 NA
ATOM     85  C   UNL A   1      39.449  21.603  26.276  1.00  0.00     0.016 A 
ATOM     86  C   UNL A   1      38.396  19.578  24.971  1.00  0.00     0.224 A 
ATOM     87  C   UNL A   1      38.217  21.696  25.681  1.00  0.00     0.049 A 
ATOM     88  C   UNL A   1      39.872  22.861  26.924  1.00  0.00     0.042 C 
ATOM     89  N   UNL A   1      37.636  20.686  25.032  1.00  0.00    -0.241 NA
ATOM     90  C   UNL A   1      37.655  23.079  25.804  1.00  0.00     0.057 C 
ATOM     91  C   UNL A   1      38.811  23.845  26.457  1.00  0.00     0.011 C 
ENDBRANCH  80  83
ENDBRANCH  75  77
ENDBRANCH  74  75
ENDBRANCH  73  74
ENDBRANCH   1  73
TORSDOF 15
ENDMDL
MODEL 2
REMARK VINA RESULT:     -10.7      3.408     12.210
REMARK SMILES O=C(OCCOC(=O)[C@@H]1CN(c2ncnc3c2CCC3)CCO1)c1ccc(-c2c3nc(c(-c4c(F)cc(S(=O)(=O)[O-])cc4F)c4ccc([nH]4)c(-c4c(F)cc(S(=O)(=O)[O-])cc4F)c4nc(c(-c5c(F)cc(S(=O)(=O)[O-])cc5F)c5ccc2[nH]5)C=C4)C=C3)cc1
REMARK SMILES IDX 4 1 3 2 2 3 1 4 24 5 25 6 89 7 26 8 88 9 27 10 28 11 29 12
REMARK SMILES IDX 82 13 30 14 87 15 81 16 83 17 31 18 86 19 80 20 79 21 32 23
REMARK SMILES IDX 66 24 45 25 65 26 46 27 49 28 64 29 84 30 47 31 48 32 63 34
REMARK SMILES IDX 85 35 50 36 33 37 34 38 43 39 35 40 36 41 42 42 44 43 37 44
REMARK SMILES IDX 38 45 39 46 40 47 41 48 67 49 68 50 77 51 69 52 70 53 76 54
REMARK SMILES IDX 78 55 71 56 72 57 73 58 74 59 75 60 51 61 52 62 61 63 53 64
REMARK SMILES IDX 54 65 60 66 62 67 55 68 56 69 57 70 58 71 59 72 5 73 6 74
REMARK SMILES IDX 7 75 8 76 9 77 10 78 23 79 11 80 22 81 21 82 12 83 13 84
REMARK SMILES IDX 17 85 14 86 16 87 18 88 15 89 20 90 19 91
REMARK H PARENT 83 22 49 33
REMARK Flexibility Score: inf
ROOT
ATOM      1  C   UNL A   1      34.222  33.555  27.986  1.00  0.00     0.275 C 
ENDROOT
BRANCH   1   2
ATOM      2  O   UNL A   1      33.895  32.182  28.225  1.00  0.00    -0.458 OA
BRANCH   2   3
ATOM      3  C   UNL A   1      34.539  31.067  27.803  1.00  0.00     0.338 C 
ATOM      4  O   UNL A   1      34.031  30.425  26.883  1.00  0.00    -0.246 OA
BRANCH   3   5
ATOM      5  C   UNL A   1      35.773  30.506  28.457  1.00  0.00     0.060 A 
ATOM      6  C   UNL A   1      35.851  29.779  29.651  1.00  0.00     0.016 A 
ATOM      7  C   UNL A   1      36.972  30.711  27.758  1.00  0.00     0.016 A 
ATOM      8  C   UNL A   1      37.049  29.192  30.084  1.00  0.00     0.010 A 
ATOM      9  C   UNL A   1      38.162  30.103  28.167  1.00  0.00     0.010 A 
ATOM     10  C   UNL A   1      38.214  29.331  29.338  1.00  0.00    -0.014 A 
BRANCH  10  11
ATOM     11  C   UNL A   1      39.530  28.876  29.867  1.00  0.00     0.031 A 
ATOM     12  C   UNL A   1      40.078  29.652  31.036  1.00  0.00     0.074 A 
ATOM     13  C   UNL A   1      40.203  27.815  29.367  1.00  0.00     0.049 A 
ATOM     14  N   UNL A   1      41.231  29.542  31.635  1.00  0.00    -0.248 NA
ATOM     15  C   UNL A   1      39.207  30.701  31.607  1.00  0.00     0.031 C 
ATOM     16  C   UNL A   1      39.734  26.927  28.301  1.00  0.00     0.029 A 
ATOM     17  N   UNL A   1      41.446  27.303  29.677  1.00  0.00    -0.354 N 
ATOM     18  C   UNL A   1      41.190  30.461  32.674  1.00  0.00     0.074 A 
ATOM     19  C   UNL A   1      39.988  31.242  32.525  1.00  0.00     0.031 C 
ATOM     20  C   UNL A   1      40.687  26.015  28.024  1.00  0.00     0.029 A 
ATOM     21  C   UNL A   1      41.856  26.268  28.854  1.00  0.00     0.049 A 
ATOM     22  H   UNL A   1      41.994  27.645  30.419  1.00  0.00     0.167 HD
ATOM     23  C   UNL A   1      42.017  30.564  33.735  1.00  0.00     0.037 A 
ATOM     24  C   UNL A   1      43.048  25.635  28.772  1.00  0.00     0.037 A 
ATOM     25  C   UNL A   1      43.167  29.732  33.913  1.00  0.00     0.049 A 
ATOM     26  C   UNL A   1      44.074  25.953  29.823  1.00  0.00     0.074 A 
ATOM     27  C   UNL A   1      44.027  29.671  34.990  1.00  0.00     0.029 A 
ATOM     28  N   UNL A   1      43.610  28.810  32.978  1.00  0.00    -0.354 N 
ATOM     29  N   UNL A   1      44.003  26.822  30.800  1.00  0.00    -0.248 NA
ATOM     30  C   UNL A   1      45.306  25.150  29.809  1.00  0.00     0.031 C 
ATOM     31  C   UNL A   1      45.025  28.744  34.685  1.00  0.00     0.029 A 
ATOM     32  C   UNL A   1      44.760  28.201  33.438  1.00  0.00     0.049 A 
ATOM     33  H   UNL A   1      43.172  28.618  32.118  1.00  0.00     0.167 HD
ATOM     34  C   UNL A   1      45.152  26.631  31.551  1.00  0.00     0.074 A 
ATOM     35  C   UNL A   1      45.927  25.604  30.887  1.00  0.00     0.031 C 
ATOM     36  C   UNL A   1      45.512  27.210  32.718  1.00  0.00     0.037 A 
BRANCH  23  37
ATOM     37  C   UNL A   1      41.646  31.541  34.808  1.00  0.00     0.058 A 
ATOM     38  C   UNL A   1      40.779  31.175  35.852  1.00  0.00     0.135 A 
ATOM     39  C   UNL A   1      42.167  32.842  34.809  1.00  0.00     0.135 A 
ATOM     40  F   UNL A   1      40.229  29.950  35.879  1.00  0.00    -0.206 F 
ATOM     41  C   UNL A   1      40.426  32.072  36.850  1.00  0.00     0.059 A 
ATOM     42  C   UNL A   1      41.850  33.748  35.816  1.00  0.00     0.059 A 
ATOM     43  F   UNL A   1      42.987  33.242  33.825  1.00  0.00    -0.206 F 
ATOM     44  C   UNL A   1      40.973  33.355  36.828  1.00  0.00     0.060 A 
BRANCH  44  45
ATOM     45  S   UNL A   1      40.531  34.495  38.154  1.00  0.00     0.124 S 
ATOM     46  O   UNL A   1      39.887  33.596  39.108  1.00  0.00    -0.237 OA
ATOM     47  O   UNL A   1      41.837  35.013  38.558  1.00  0.00    -0.237 OA
ATOM     48  O   UNL A   1      39.652  35.454  37.502  1.00  0.00    -0.744 OA
ENDBRANCH  44  45
ENDBRANCH  23  37
BRANCH  24  49
ATOM     49  C   UNL A   1      43.401  24.665  27.690  1.00  0.00     0.058 A 
ATOM     50  C   UNL A   1      44.001  25.048  26.484  1.00  0.00     0.135 A 
ATOM     51  C   UNL A   1      43.077  23.302  27.835  1.00  0.00     0.135 A 
ATOM     52  F   UNL A   1      44.265  26.342  26.249  1.00  0.00    -0.206 F 
ATOM     53  C   UNL A   1      44.349  24.112  25.506  1.00  0.00     0.059 A 
ATOM     54  C   UNL A   1      43.417  22.347  26.877  1.00  0.00     0.059 A 
ATOM     55  F   UNL A   1      42.451  22.881  28.945  1.00  0.00    -0.206 F 
ATOM     56  C   UNL A   1      44.082  22.760  25.727  1.00  0.00     0.060 A 
BRANCH  56  57
ATOM     57  S   UNL A   1      44.724  21.501  24.598  1.00  0.00     0.124 S 
ATOM     58  O   UNL A   1      44.508  22.124  23.298  1.00  0.00    -0.237 OA
ATOM     59  O   UNL A   1      46.118  21.365  25.014  1.00  0.00    -0.237 OA
ATOM     60  O   UNL A   1      43.874  20.354  24.907  1.00  0.00    -0.744 OA
ENDBRANCH  56  57
ENDBRANCH  24  49
BRANCH  36  61
ATOM     61  C   UNL A   1      46.777  26.728  33.346  1.00  0.00     0.058 A 
ATOM     62  C   UNL A   1      46.798  25.581  34.149  1.00  0.00     0.135 A 
ATOM     63  C   UNL A   1      47.987  27.386  33.078  1.00  0.00     0.135 A 
ATOM     64  F   UNL A   1      45.656  24.943  34.450  1.00  0.00    -0.206 F 
ATOM     65  C   UNL A   1      47.990  25.093  34.664  1.00  0.00     0.059 A 
ATOM     66  C   UNL A   1      49.192  26.898  33.556  1.00  0.00     0.059 A 
ATOM     67  F   UNL A   1      48.002  28.493  32.317  1.00  0.00    -0.206 F 
ATOM     68  C   UNL A   1      49.182  25.750  34.349  1.00  0.00     0.060 A 
BRANCH  68  69
ATOM     69  S   UNL A   1      50.727  25.052  34.955  1.00  0.00     0.124 S 
ATOM     70  O   UNL A   1      50.866  25.720  36.244  1.00  0.00    -0.237 OA
ATOM     71  O   UNL A   1      50.421  23.626  35.006  1.00  0.00    -0.237 OA
ATOM     72  O   UNL A   1      51.699  25.443  33.937  1.00  0.00    -0.744 OA
ENDBRANCH  68  69
ENDBRANCH  36  61
ENDBRANCH  10  11
ENDBRANCH   3   5
ENDBRANCH   2   3
ENDBRANCH   1   2
BRANCH   1  73
ATOM     73  C   UNL A   1      33.131  34.544  28.406  1.00  0.00     0.274 C 
BRANCH  73  74
ATOM     74  O   UNL A   1      32.901  34.562  29.825  1.00  0.00    -0.460 OA
BRANCH  74  75
ATOM     75  C   UNL A   1      33.037  35.768  30.456  1.00  0.00     0.337 C 
ATOM     76  O   UNL A   1      32.444  36.788  30.123  1.00  0.00    -0.249 OA
BRANCH  75  77
ATOM     77  C   UNL A   1      34.028  35.707  31.625  1.00  0.00     0.247 C 
ATOM     78  C   UNL A   1      34.816  34.395  31.537  1.00  0.00     0.162 C 
ATOM     79  O   UNL A   1      33.353  35.848  32.885  1.00  0.00    -0.363 OA
ATOM     80  N   UNL A   1      35.637  34.185  32.725  1.00  0.00    -0.351 N 
ATOM     81  C   UNL A   1      34.270  35.754  33.990  1.00  0.00     0.183 C 
ATOM     82  C   UNL A   1      34.996  34.404  34.015  1.00  0.00     0.146 C 
BRANCH  80  83
ATOM     83  C   UNL A   1      37.003  34.319  32.668  1.00  0.00     0.135 A 
ATOM     84  N   UNL A   1      37.700  34.729  33.738  1.00  0.00    -0.219 NA
ATOM     85  C   UNL A   1      37.639  34.067  31.481  1.00  0.00     0.016 A 
ATOM     86  C   UNL A   1      39.037  34.853  33.564  1.00  0.00     0.224 A 
ATOM     87  C   UNL A   1      38.990  34.284  31.397  1.00  0.00     0.049 A 
ATOM     88  C   UNL A   1      37.038  33.666  30.192  1.00  0.00     0.042 C 
ATOM     89  N   UNL A   1      39.740  34.658  32.434  1.00  0.00    -0.241 NA
ATOM     90  C   UNL A   1      39.484  34.109  29.993  1.00  0.00     0.057 C 
ATOM     91  C   UNL A   1      38.184  33.879  29.215  1.00  0.00     0.011 C 
ENDBRANCH  80  83
ENDBRANCH  75  77
ENDBRANCH  74  75
ENDBRANCH  73  74
ENDBRANCH   1  73
TORSDOF 15
ENDMDL
MODEL 3
REMARK VINA RESULT:     -10.7      5.079      6.742
REMARK SMILES O=C(OCCOC(=O)[C@@H]1CN(c2ncnc3c2CCC3)CCO1)c1ccc(-c2c3nc(c(-c4c(F)cc(S(=O)(=O)[O-])cc4F)c4ccc([nH]4)c(-c4c(F)cc(S(=O)(=O)[O-])cc4F)c4nc(c(-c5c(F)cc(S(=O)(=O)[O-])cc5F)c5ccc2[nH]5)C=C4)C=C3)cc1
REMARK SMILES IDX 4 1 3 2 2 3 1 4 24 5 25 6 89 7 26 8 88 9 27 10 28 11 29 12
REMARK SMILES IDX 82 13 30 14 87 15 81 16 83 17 31 18 86 19 80 20 79 21 32 23
REMARK SMILES IDX 66 24 45 25 65 26 46 27 49 28 64 29 84 30 47 31 48 32 63 34
REMARK SMILES IDX 85 35 50 36 33 37 34 38 43 39 35 40 36 41 42 42 44 43 37 44
REMARK SMILES IDX 38 45 39 46 40 47 41 48 67 49 68 50 77 51 69 52 70 53 76 54
REMARK SMILES IDX 78 55 71 56 72 57 73 58 74 59 75 60 51 61 52 62 61 63 53 64
REMARK SMILES IDX 54 65 60 66 62 67 55 68 56 69 57 70 58 71 59 72 5 73 6 74
REMARK SMILES IDX 7 75 8 76 9 77 10 78 23 79 11 80 22 81 21 82 12 83 13 84
REMARK SMILES IDX 17 85 14 86 16 87 18 88 15 89 20 90 19 91
REMARK H PARENT 83 22 49 33
REMARK Flexibility Score: inf
ROOT
ATOM      1  C   UNL A   1      40.430  21.042  26.996  1.00  0.00     0.275 C 
ENDROOT
BRANCH   1   2
ATOM      2  O   UNL A   1      39.557  21.667  26.048  1.00  0.00    -0.458 OA
BRANCH   2   3
ATOM      3  C   UNL A   1      38.773  22.761  26.205  1.00  0.00     0.338 C 
ATOM      4  O   UNL A   1      37.640  22.728  25.723  1.00  0.00    -0.246 OA
BRANCH   3   5
ATOM      5  C   UNL A   1      39.235  24.049  26.833  1.00  0.00     0.060 A 
ATOM      6  C   UNL A   1      39.102  24.442  28.170  1.00  0.00     0.016 A 
ATOM      7  C   UNL A   1      39.907  24.931  25.974  1.00  0.00     0.016 A 
ATOM      8  C   UNL A   1      39.699  25.613  28.661  1.00  0.00     0.010 A 
ATOM      9  C   UNL A   1      40.530  26.083  26.462  1.00  0.00     0.010 A 
ATOM     10  C   UNL A   1      40.436  26.437  27.817  1.00  0.00    -0.014 A 
BRANCH  10  11
ATOM     11  C   UNL A   1      40.920  27.770  28.269  1.00  0.00     0.031 A 
ATOM     12  C   UNL A   1      42.413  27.972  28.258  1.00  0.00     0.074 A 
ATOM     13  C   UNL A   1      40.092  28.772  28.646  1.00  0.00     0.049 A 
ATOM     14  N   UNL A   1      43.115  28.986  28.682  1.00  0.00    -0.248 NA
ATOM     15  C   UNL A   1      43.229  26.875  27.694  1.00  0.00     0.031 C 
ATOM     16  C   UNL A   1      38.629  28.733  28.610  1.00  0.00     0.029 A 
ATOM     17  N   UNL A   1      40.361  30.025  29.154  1.00  0.00    -0.354 N 
ATOM     18  C   UNL A   1      44.432  28.666  28.382  1.00  0.00     0.074 A 
ATOM     19  C   UNL A   1      44.459  27.306  27.908  1.00  0.00     0.031 C 
ATOM     20  C   UNL A   1      38.137  29.884  29.110  1.00  0.00     0.029 A 
ATOM     21  C   UNL A   1      39.236  30.733  29.545  1.00  0.00     0.049 A 
ATOM     22  H   UNL A   1      41.273  30.386  29.233  1.00  0.00     0.167 HD
ATOM     23  C   UNL A   1      45.511  29.476  28.380  1.00  0.00     0.037 A 
ATOM     24  C   UNL A   1      39.128  31.909  30.204  1.00  0.00     0.037 A 
ATOM     25  C   UNL A   1      45.458  30.849  28.780  1.00  0.00     0.049 A 
ATOM     26  C   UNL A   1      40.388  32.695  30.430  1.00  0.00     0.074 A 
ATOM     27  C   UNL A   1      46.458  31.799  28.730  1.00  0.00     0.029 A 
ATOM     28  N   UNL A   1      44.331  31.463  29.303  1.00  0.00    -0.354 N 
ATOM     29  N   UNL A   1      41.621  32.370  30.127  1.00  0.00    -0.248 NA
ATOM     30  C   UNL A   1      40.236  34.036  31.014  1.00  0.00     0.031 C 
ATOM     31  C   UNL A   1      45.949  32.981  29.273  1.00  0.00     0.029 A 
ATOM     32  C   UNL A   1      44.622  32.774  29.620  1.00  0.00     0.049 A 
ATOM     33  H   UNL A   1      43.457  31.030  29.430  1.00  0.00     0.167 HD
ATOM     34  C   UNL A   1      42.383  33.488  30.428  1.00  0.00     0.074 A 
ATOM     35  C   UNL A   1      41.485  34.477  30.987  1.00  0.00     0.031 C 
ATOM     36  C   UNL A   1      43.699  33.704  30.209  1.00  0.00     0.037 A 
BRANCH  23  37
ATOM     37  C   UNL A   1      46.794  28.917  27.847  1.00  0.00     0.058 A 
ATOM     38  C   UNL A   1      47.744  28.339  28.707  1.00  0.00     0.135 A 
ATOM     39  C   UNL A   1      47.073  28.937  26.474  1.00  0.00     0.135 A 
ATOM     40  F   UNL A   1      47.536  28.322  30.034  1.00  0.00    -0.206 F 
ATOM     41  C   UNL A   1      48.937  27.819  28.225  1.00  0.00     0.059 A 
ATOM     42  C   UNL A   1      48.250  28.396  25.966  1.00  0.00     0.059 A 
ATOM     43  F   UNL A   1      46.203  29.491  25.616  1.00  0.00    -0.206 F 
ATOM     44  C   UNL A   1      49.178  27.845  26.851  1.00  0.00     0.060 A 
BRANCH  44  45
ATOM     45  S   UNL A   1      50.717  27.132  26.240  1.00  0.00     0.124 S 
ATOM     46  O   UNL A   1      50.382  26.868  24.843  1.00  0.00    -0.237 OA
ATOM     47  O   UNL A   1      51.669  28.219  26.466  1.00  0.00    -0.237 OA
ATOM     48  O   UNL A   1      50.903  25.954  27.074  1.00  0.00    -0.744 OA
ENDBRANCH  44  45
ENDBRANCH  23  37
BRANCH  24  49
ATOM     49  C   UNL A   1      37.837  32.449  30.732  1.00  0.00     0.058 A 
ATOM     50  C   UNL A   1      37.349  32.152  32.010  1.00  0.00     0.135 A 
ATOM     51  C   UNL A   1      37.022  33.251  29.911  1.00  0.00     0.135 A 
ATOM     52  F   UNL A   1      38.037  31.330  32.816  1.00  0.00    -0.206 F 
ATOM     53  C   UNL A   1      36.154  32.699  32.487  1.00  0.00     0.059 A 
ATOM     54  C   UNL A   1      35.829  33.815  30.362  1.00  0.00     0.059 A 
ATOM     55  F   UNL A   1      37.409  33.527  28.655  1.00  0.00    -0.206 F 
ATOM     56  C   UNL A   1      35.418  33.556  31.666  1.00  0.00     0.060 A 
BRANCH  56  57
ATOM     57  S   UNL A   1      34.000  34.465  32.325  1.00  0.00     0.124 S 
ATOM     58  O   UNL A   1      33.343  33.449  33.138  1.00  0.00    -0.237 OA
ATOM     59  O   UNL A   1      34.624  35.562  33.059  1.00  0.00    -0.237 OA
ATOM     60  O   UNL A   1      33.300  34.859  31.105  1.00  0.00    -0.744 OA
ENDBRANCH  56  57
ENDBRANCH  24  49
BRANCH  36  61
ATOM     61  C   UNL A   1      44.225  35.057  30.556  1.00  0.00     0.058 A 
ATOM     62  C   UNL A   1      44.134  36.124  29.654  1.00  0.00     0.135 A 
ATOM     63  C   UNL A   1      44.759  35.295  31.832  1.00  0.00     0.135 A 
ATOM     64  F   UNL A   1      43.656  35.927  28.417  1.00  0.00    -0.206 F 
ATOM     65  C   UNL A   1      44.553  37.397  30.012  1.00  0.00     0.059 A 
ATOM     66  C   UNL A   1      45.153  36.565  32.221  1.00  0.00     0.059 A 
ATOM     67  F   UNL A   1      44.867  34.292  32.720  1.00  0.00    -0.206 F 
ATOM     68  C   UNL A   1      45.046  37.609  31.303  1.00  0.00     0.060 A 
BRANCH  68  69
ATOM     69  S   UNL A   1      45.502  39.285  31.777  1.00  0.00     0.124 S 
ATOM     70  O   UNL A   1      46.874  39.365  31.290  1.00  0.00    -0.237 OA
ATOM     71  O   UNL A   1      44.522  40.087  31.052  1.00  0.00    -0.237 OA
ATOM     72  O   UNL A   1      45.350  39.280  33.230  1.00  0.00    -0.744 OA
ENDBRANCH  68  69
ENDBRANCH  36  61
ENDBRANCH  10  11
ENDBRANCH   3   5
ENDBRANCH   2   3
ENDBRANCH   1   2
BRANCH   1  73
ATOM     73  C   UNL A   1      41.101  19.764  26.485  1.00  0.00     0.274 C 
BRANCH  73  74
ATOM     74  O   UNL A   1      42.027  20.004  25.411  1.00  0.00    -0.460 OA
BRANCH  74  75
ATOM     75  C   UNL A   1      43.202  19.305  25.443  1.00  0.00     0.337 C 
ATOM     76  O   UNL A   1      43.275  18.082  25.422  1.00  0.00    -0.249 OA
BRANCH  75  77
ATOM     77  C   UNL A   1      44.426  20.226  25.522  1.00  0.00     0.247 C 
ATOM     78  C   UNL A   1      43.947  21.678  25.623  1.00  0.00     0.162 C 
ATOM     79  O   UNL A   1      45.301  20.022  24.401  1.00  0.00    -0.363 OA
ATOM     80  N   UNL A   1      45.058  22.617  25.505  1.00  0.00    -0.351 N 
ATOM     81  C   UNL A   1      46.434  20.908  24.448  1.00  0.00     0.183 C 
ATOM     82  C   UNL A   1      46.007  22.381  24.426  1.00  0.00     0.146 C 
BRANCH  80  83
ATOM     83  C   UNL A   1      45.508  23.312  26.601  1.00  0.00     0.135 A 
ATOM     84  N   UNL A   1      46.759  23.796  26.644  1.00  0.00    -0.219 NA
ATOM     85  C   UNL A   1      44.668  23.469  27.672  1.00  0.00     0.016 A 
ATOM     86  C   UNL A   1      47.107  24.442  27.782  1.00  0.00     0.224 A 
ATOM     87  C   UNL A   1      45.143  24.086  28.799  1.00  0.00     0.049 A 
ATOM     88  C   UNL A   1      43.289  22.961  27.830  1.00  0.00     0.042 C 
ATOM     89  N   UNL A   1      46.363  24.616  28.888  1.00  0.00    -0.241 NA
ATOM     90  C   UNL A   1      44.144  24.027  29.915  1.00  0.00     0.057 C 
ATOM     91  C   UNL A   1      43.036  23.154  29.317  1.00  0.00     0.011 C 
ENDBRANCH  80  83
ENDBRANCH  75  77
ENDBRANCH  74  75
ENDBRANCH  73  74
ENDBRANCH   1  73
TORSDOF 15
ENDMDL
