MODEL 1
REMARK VINA RESULT:     -11.3      0.000      0.000
REMARK SMILES Cc1cc(C)c2c(c1)C=C(C(=O)OCCOC(=O)c1ccc(-c3c4nc(c(-c5c(F)cc(S(=O)(=O)[O-])cc5F)c5ccc([nH]5)c(-c5c(F)cc(S(=O)(=O)[O-])cc5F)c5nc(c(-c6c(F)cc(S(=O)(=O)[O-])cc6F)c6ccc3[nH]6)C=C5)C=C4)cc1)[C@@H](C(F)(F)F)O2
REMARK SMILES IDX 15 1 14 2 13 3 11 4 12 5 10 6 1 7 2 8 3 9 8 10 4 11 7 12
REMARK SMILES IDX 5 13 6 14 9 15 90 16 85 17 86 18 87 19 88 20 89 21 16 22
REMARK SMILES IDX 17 23 18 24 19 25 20 26 84 27 21 28 83 29 22 30 23 31 24 32
REMARK SMILES IDX 77 33 25 34 82 35 76 36 78 37 26 38 81 39 75 40 74 41 27 43
REMARK SMILES IDX 61 44 40 45 60 46 41 47 44 48 59 49 79 50 42 51 43 52 58 54
REMARK SMILES IDX 80 55 45 56 28 57 29 58 38 59 30 60 31 61 37 62 39 63 32 64
REMARK SMILES IDX 33 65 34 66 35 67 36 68 62 69 63 70 72 71 64 72 65 73 71 74
REMARK SMILES IDX 73 75 66 76 67 77 68 78 69 79 70 80 46 81 47 82 56 83 48 84
REMARK SMILES IDX 49 85 55 86 57 87 50 88 51 89 52 90 53 91 54 92
REMARK H PARENT 78 42 44 53
REMARK Flexibility Score: inf
ROOT
ATOM      1  C   UNL A   1      33.135  28.481  26.409  1.00  0.00     0.275 C 
ENDROOT
BRANCH   1   2
ATOM      2  C   UNL A   1      32.415  27.132  26.353  1.00  0.00     0.275 C 
BRANCH   2   3
ATOM      3  O   UNL A   1      32.079  26.754  24.999  1.00  0.00    -0.459 OA
BRANCH   3   4
ATOM      4  C   UNL A   1      33.129  26.415  24.217  1.00  0.00     0.338 C 
ATOM      5  O   UNL A   1      33.633  27.108  23.344  1.00  0.00    -0.246 OA
BRANCH   4   6
ATOM      6  C   UNL A   1      33.639  25.075  24.565  1.00  0.00     0.087 C 
ATOM      7  C   UNL A   1      38.897  22.286  26.105  1.00  0.00     0.044 C 
ATOM      8  C   UNL A   1      37.441  22.354  25.748  1.00  0.00    -0.050 A 
ATOM      9  C   UNL A   1      36.680  21.202  25.523  1.00  0.00     0.010 A 
ATOM     10  C   UNL A   1      36.834  23.599  25.586  1.00  0.00     0.015 A 
ATOM     11  C   UNL A   1      35.322  21.284  25.161  1.00  0.00    -0.008 A 
ATOM     12  C   UNL A   1      35.489  23.690  25.205  1.00  0.00     0.018 A 
ATOM     13  C   UNL A   1      34.535  20.028  24.925  1.00  0.00     0.048 C 
ATOM     14  C   UNL A   1      34.724  22.544  25.007  1.00  0.00     0.130 A 
ATOM     15  C   UNL A   1      34.908  24.992  24.973  1.00  0.00     0.027 C 
ATOM     16  O   UNL A   1      33.396  22.588  24.673  1.00  0.00    -0.475 OA
ATOM     17  C   UNL A   1      32.790  23.865  24.312  1.00  0.00     0.316 C 
BRANCH  17  18
ATOM     18  C   UNL A   1      32.349  23.799  22.841  1.00  0.00     0.430 C 
ATOM     19  F   UNL A   1      31.220  24.519  22.631  1.00  0.00    -0.167 F 
ATOM     20  F   UNL A   1      33.290  24.316  22.013  1.00  0.00    -0.167 F 
ATOM     21  F   UNL A   1      32.104  22.533  22.432  1.00  0.00    -0.167 F 
ENDBRANCH  17  18
ENDBRANCH   4   6
ENDBRANCH   3   4
ENDBRANCH   2   3
ENDBRANCH   1   2
BRANCH   1  22
ATOM     22  O   UNL A   1      34.028  28.547  27.536  1.00  0.00    -0.458 OA
BRANCH  22  23
ATOM     23  C   UNL A   1      34.388  29.800  27.894  1.00  0.00     0.338 C 
ATOM     24  O   UNL A   1      33.662  30.776  27.989  1.00  0.00    -0.246 OA
BRANCH  23  25
ATOM     25  C   UNL A   1      35.807  29.849  28.270  1.00  0.00     0.060 A 
ATOM     26  C   UNL A   1      36.726  30.164  27.279  1.00  0.00     0.016 A 
ATOM     27  C   UNL A   1      36.245  29.353  29.493  1.00  0.00     0.016 A 
ATOM     28  C   UNL A   1      38.059  29.799  27.426  1.00  0.00     0.010 A 
ATOM     29  C   UNL A   1      37.616  29.155  29.703  1.00  0.00     0.010 A 
ATOM     30  C   UNL A   1      38.539  29.321  28.652  1.00  0.00    -0.014 A 
BRANCH  30  31
ATOM     31  C   UNL A   1      39.988  29.005  28.833  1.00  0.00     0.031 A 
ATOM     32  C   UNL A   1      40.946  30.060  29.337  1.00  0.00     0.074 A 
ATOM     33  C   UNL A   1      40.453  27.769  28.550  1.00  0.00     0.049 A 
ATOM     34  N   UNL A   1      42.254  30.055  29.337  1.00  0.00    -0.248 NA
ATOM     35  C   UNL A   1      40.356  31.286  29.903  1.00  0.00     0.031 C 
ATOM     36  C   UNL A   1      39.637  26.630  28.115  1.00  0.00     0.029 A 
ATOM     37  N   UNL A   1      41.727  27.255  28.586  1.00  0.00    -0.354 N 
ATOM     38  C   UNL A   1      42.644  31.291  29.847  1.00  0.00     0.074 A 
ATOM     39  C   UNL A   1      41.432  32.025  30.140  1.00  0.00     0.031 C 
ATOM     40  C   UNL A   1      40.416  25.549  27.975  1.00  0.00     0.029 A 
ATOM     41  C   UNL A   1      41.802  25.942  28.180  1.00  0.00     0.049 A 
ATOM     42  H   UNL A   1      42.512  27.777  28.874  1.00  0.00     0.167 HD
ATOM     43  C   UNL A   1      43.898  31.765  30.046  1.00  0.00     0.037 A 
ATOM     44  C   UNL A   1      42.862  25.150  27.931  1.00  0.00     0.037 A 
ATOM     45  C   UNL A   1      45.095  31.001  29.791  1.00  0.00     0.049 A 
ATOM     46  C   UNL A   1      44.241  25.718  28.096  1.00  0.00     0.074 A 
ATOM     47  C   UNL A   1      46.415  31.390  29.947  1.00  0.00     0.029 A 
ATOM     48  N   UNL A   1      45.119  29.688  29.344  1.00  0.00    -0.354 N 
ATOM     49  N   UNL A   1      44.594  26.919  28.488  1.00  0.00    -0.248 NA
ATOM     50  C   UNL A   1      45.365  24.833  27.768  1.00  0.00     0.031 C 
ATOM     51  C   UNL A   1      47.235  30.329  29.555  1.00  0.00     0.029 A 
ATOM     52  C   UNL A   1      46.429  29.255  29.212  1.00  0.00     0.049 A 
ATOM     53  H   UNL A   1      44.322  29.143  29.148  1.00  0.00     0.167 HD
ATOM     54  C   UNL A   1      45.983  26.925  28.482  1.00  0.00     0.074 A 
ATOM     55  C   UNL A   1      46.404  25.605  28.057  1.00  0.00     0.031 C 
ATOM     56  C   UNL A   1      46.831  27.933  28.801  1.00  0.00     0.037 A 
BRANCH  43  57
ATOM     57  C   UNL A   1      44.060  33.180  30.541  1.00  0.00     0.058 A 
ATOM     58  C   UNL A   1      44.136  34.274  29.665  1.00  0.00     0.135 A 
ATOM     59  C   UNL A   1      44.055  33.451  31.921  1.00  0.00     0.135 A 
ATOM     60  F   UNL A   1      44.163  34.075  28.338  1.00  0.00    -0.206 F 
ATOM     61  C   UNL A   1      44.212  35.583  30.137  1.00  0.00     0.059 A 
ATOM     62  C   UNL A   1      44.100  34.753  32.414  1.00  0.00     0.059 A 
ATOM     63  F   UNL A   1      43.985  32.445  32.807  1.00  0.00    -0.206 F 
ATOM     64  C   UNL A   1      44.185  35.812  31.514  1.00  0.00     0.060 A 
BRANCH  64  65
ATOM     65  S   UNL A   1      44.249  37.518  32.105  1.00  0.00     0.124 S 
ATOM     66  O   UNL A   1      45.660  37.656  32.450  1.00  0.00    -0.237 OA
ATOM     67  O   UNL A   1      43.804  38.268  30.935  1.00  0.00    -0.237 OA
ATOM     68  O   UNL A   1      43.326  37.522  33.237  1.00  0.00    -0.744 OA
ENDBRANCH  64  65
ENDBRANCH  43  57
BRANCH  44  69
ATOM     69  C   UNL A   1      42.650  23.753  27.461  1.00  0.00     0.058 A 
ATOM     70  C   UNL A   1      42.695  23.438  26.096  1.00  0.00     0.135 A 
ATOM     71  C   UNL A   1      42.435  22.701  28.367  1.00  0.00     0.135 A 
ATOM     72  F   UNL A   1      42.888  24.408  25.190  1.00  0.00    -0.206 F 
ATOM     73  C   UNL A   1      42.531  22.133  25.644  1.00  0.00     0.059 A 
ATOM     74  C   UNL A   1      42.303  21.383  27.942  1.00  0.00     0.059 A 
ATOM     75  F   UNL A   1      42.396  22.945  29.687  1.00  0.00    -0.206 F 
ATOM     76  C   UNL A   1      42.342  21.110  26.577  1.00  0.00     0.060 A 
BRANCH  76  77
ATOM     77  S   UNL A   1      42.185  19.413  25.980  1.00  0.00     0.124 S 
ATOM     78  O   UNL A   1      40.743  19.302  25.793  1.00  0.00    -0.237 OA
ATOM     79  O   UNL A   1      42.988  19.444  24.761  1.00  0.00    -0.237 OA
ATOM     80  O   UNL A   1      42.742  18.620  27.071  1.00  0.00    -0.744 OA
ENDBRANCH  76  77
ENDBRANCH  44  69
BRANCH  56  81
ATOM     81  C   UNL A   1      48.303  27.630  28.764  1.00  0.00     0.058 A 
ATOM     82  C   UNL A   1      48.984  27.114  29.876  1.00  0.00     0.135 A 
ATOM     83  C   UNL A   1      49.031  27.824  27.578  1.00  0.00     0.135 A 
ATOM     84  F   UNL A   1      48.336  26.918  31.035  1.00  0.00    -0.206 F 
ATOM     85  C   UNL A   1      50.345  26.831  29.826  1.00  0.00     0.059 A 
ATOM     86  C   UNL A   1      50.384  27.518  27.496  1.00  0.00     0.059 A 
ATOM     87  F   UNL A   1      48.423  28.305  26.482  1.00  0.00    -0.206 F 
ATOM     88  C   UNL A   1      51.036  27.035  28.629  1.00  0.00     0.060 A 
BRANCH  88  89
ATOM     89  S   UNL A   1      52.798  26.646  28.574  1.00  0.00     0.124 S 
ATOM     90  O   UNL A   1      53.028  26.140  29.922  1.00  0.00    -0.237 OA
ATOM     91  O   UNL A   1      52.862  25.656  27.503  1.00  0.00    -0.237 OA
ATOM     92  O   UNL A   1      53.421  27.931  28.270  1.00  0.00    -0.744 OA
ENDBRANCH  88  89
ENDBRANCH  56  81
ENDBRANCH  30  31
ENDBRANCH  23  25
ENDBRANCH  22  23
ENDBRANCH   1  22
TORSDOF 15
ENDMDL
MODEL 2
REMARK VINA RESULT:     -11.2      2.221      3.160
REMARK SMILES Cc1cc(C)c2c(c1)C=C(C(=O)OCCOC(=O)c1ccc(-c3c4nc(c(-c5c(F)cc(S(=O)(=O)[O-])cc5F)c5ccc([nH]5)c(-c5c(F)cc(S(=O)(=O)[O-])cc5F)c5nc(c(-c6c(F)cc(S(=O)(=O)[O-])cc6F)c6ccc3[nH]6)C=C5)C=C4)cc1)[C@@H](C(F)(F)F)O2
REMARK SMILES IDX 15 1 14 2 13 3 11 4 12 5 10 6 1 7 2 8 3 9 8 10 4 11 7 12
REMARK SMILES IDX 5 13 6 14 9 15 90 16 85 17 86 18 87 19 88 20 89 21 16 22
REMARK SMILES IDX 17 23 18 24 19 25 20 26 84 27 21 28 83 29 22 30 23 31 24 32
REMARK SMILES IDX 77 33 25 34 82 35 76 36 78 37 26 38 81 39 75 40 74 41 27 43
REMARK SMILES IDX 61 44 40 45 60 46 41 47 44 48 59 49 79 50 42 51 43 52 58 54
REMARK SMILES IDX 80 55 45 56 28 57 29 58 38 59 30 60 31 61 37 62 39 63 32 64
REMARK SMILES IDX 33 65 34 66 35 67 36 68 62 69 63 70 72 71 64 72 65 73 71 74
REMARK SMILES IDX 73 75 66 76 67 77 68 78 69 79 70 80 46 81 47 82 56 83 48 84
REMARK SMILES IDX 49 85 55 86 57 87 50 88 51 89 52 90 53 91 54 92
REMARK H PARENT 78 42 44 53
REMARK Flexibility Score: inf
ROOT
ATOM      1  C   UNL A   1      34.035  31.192  28.147  1.00  0.00     0.275 C 
ENDROOT
BRANCH   1   2
ATOM      2  C   UNL A   1      33.083  30.466  27.194  1.00  0.00     0.275 C 
BRANCH   2   3
ATOM      3  O   UNL A   1      33.428  29.071  27.043  1.00  0.00    -0.459 OA
BRANCH   3   4
ATOM      4  C   UNL A   1      32.378  28.222  26.958  1.00  0.00     0.338 C 
ATOM      5  O   UNL A   1      31.341  28.291  27.603  1.00  0.00    -0.246 OA
BRANCH   4   6
ATOM      6  C   UNL A   1      32.619  27.180  25.942  1.00  0.00     0.087 C 
ATOM      7  C   UNL A   1      36.754  22.863  24.506  1.00  0.00     0.044 C 
ATOM      8  C   UNL A   1      35.525  23.699  24.300  1.00  0.00    -0.050 A 
ATOM      9  C   UNL A   1      34.795  23.660  23.107  1.00  0.00     0.010 A 
ATOM     10  C   UNL A   1      35.120  24.580  25.303  1.00  0.00     0.015 A 
ATOM     11  C   UNL A   1      33.660  24.473  22.919  1.00  0.00    -0.008 A 
ATOM     12  C   UNL A   1      34.005  25.407  25.116  1.00  0.00     0.018 A 
ATOM     13  C   UNL A   1      32.901  24.407  21.626  1.00  0.00     0.048 C 
ATOM     14  C   UNL A   1      33.263  25.348  23.939  1.00  0.00     0.130 A 
ATOM     15  C   UNL A   1      33.654  26.361  26.142  1.00  0.00     0.027 C 
ATOM     16  O   UNL A   1      32.143  26.111  23.731  1.00  0.00    -0.475 OA
ATOM     17  C   UNL A   1      31.812  27.170  24.678  1.00  0.00     0.316 C 
BRANCH  17  18
ATOM     18  C   UNL A   1      31.907  28.522  23.952  1.00  0.00     0.430 C 
ATOM     19  F   UNL A   1      31.581  28.403  22.642  1.00  0.00    -0.167 F 
ATOM     20  F   UNL A   1      31.050  29.432  24.476  1.00  0.00    -0.167 F 
ATOM     21  F   UNL A   1      33.148  29.055  24.014  1.00  0.00    -0.167 F 
ENDBRANCH  17  18
ENDBRANCH   4   6
ENDBRANCH   3   4
ENDBRANCH   2   3
ENDBRANCH   1   2
BRANCH   1  22
ATOM     22  O   UNL A   1      35.401  30.800  27.917  1.00  0.00    -0.458 OA
BRANCH  22  23
ATOM     23  C   UNL A   1      36.178  30.792  29.024  1.00  0.00     0.338 C 
ATOM     24  O   UNL A   1      35.916  31.280  30.110  1.00  0.00    -0.246 OA
BRANCH  23  25
ATOM     25  C   UNL A   1      37.400  30.010  28.798  1.00  0.00     0.060 A 
ATOM     26  C   UNL A   1      38.152  29.653  29.909  1.00  0.00     0.016 A 
ATOM     27  C   UNL A   1      37.927  29.849  27.521  1.00  0.00     0.016 A 
ATOM     28  C   UNL A   1      39.495  29.328  29.764  1.00  0.00     0.010 A 
ATOM     29  C   UNL A   1      39.226  29.347  27.372  1.00  0.00     0.010 A 
ATOM     30  C   UNL A   1      40.051  29.133  28.493  1.00  0.00    -0.014 A 
BRANCH  30  31
ATOM     31  C   UNL A   1      41.474  28.705  28.341  1.00  0.00     0.031 A 
ATOM     32  C   UNL A   1      42.595  29.710  28.474  1.00  0.00     0.074 A 
ATOM     33  C   UNL A   1      41.770  27.412  28.087  1.00  0.00     0.049 A 
ATOM     34  N   UNL A   1      43.856  29.588  28.149  1.00  0.00    -0.248 NA
ATOM     35  C   UNL A   1      42.250  31.029  29.032  1.00  0.00     0.031 C 
ATOM     36  C   UNL A   1      40.799  26.317  27.995  1.00  0.00     0.029 A 
ATOM     37  N   UNL A   1      42.975  26.791  27.860  1.00  0.00    -0.354 N 
ATOM     38  C   UNL A   1      44.443  30.824  28.409  1.00  0.00     0.074 A 
ATOM     39  C   UNL A   1      43.396  31.687  28.913  1.00  0.00     0.031 C 
ATOM     40  C   UNL A   1      41.445  25.162  27.784  1.00  0.00     0.029 A 
ATOM     41  C   UNL A   1      42.859  25.446  27.593  1.00  0.00     0.049 A 
ATOM     42  H   UNL A   1      43.839  27.264  27.886  1.00  0.00     0.167 HD
ATOM     43  C   UNL A   1      45.734  31.200  28.237  1.00  0.00     0.037 A 
ATOM     44  C   UNL A   1      43.767  24.543  27.177  1.00  0.00     0.037 A 
ATOM     45  C   UNL A   1      46.774  30.312  27.776  1.00  0.00     0.049 A 
ATOM     46  C   UNL A   1      45.175  24.997  26.931  1.00  0.00     0.074 A 
ATOM     47  C   UNL A   1      48.111  30.593  27.557  1.00  0.00     0.029 A 
ATOM     48  N   UNL A   1      46.598  28.967  27.483  1.00  0.00    -0.354 N 
ATOM     49  N   UNL A   1      45.693  26.191  27.090  1.00  0.00    -0.248 NA
ATOM     50  C   UNL A   1      46.118  23.990  26.432  1.00  0.00     0.031 C 
ATOM     51  C   UNL A   1      48.734  29.432  27.091  1.00  0.00     0.029 A 
ATOM     52  C   UNL A   1      47.799  28.409  27.078  1.00  0.00     0.049 A 
ATOM     53  H   UNL A   1      45.744  28.480  27.552  1.00  0.00     0.167 HD
ATOM     54  C   UNL A   1      47.032  26.073  26.738  1.00  0.00     0.074 A 
ATOM     55  C   UNL A   1      47.244  24.688  26.367  1.00  0.00     0.031 C 
ATOM     56  C   UNL A   1      47.997  27.025  26.725  1.00  0.00     0.037 A 
BRANCH  43  57
ATOM     57  C   UNL A   1      46.107  32.633  28.520  1.00  0.00     0.058 A 
ATOM     58  C   UNL A   1      46.593  33.044  29.771  1.00  0.00     0.135 A 
ATOM     59  C   UNL A   1      46.055  33.593  27.494  1.00  0.00     0.135 A 
ATOM     60  F   UNL A   1      46.649  32.176  30.793  1.00  0.00    -0.206 F 
ATOM     61  C   UNL A   1      47.004  34.357  29.998  1.00  0.00     0.059 A 
ATOM     62  C   UNL A   1      46.488  34.903  27.691  1.00  0.00     0.059 A 
ATOM     63  F   UNL A   1      45.599  33.257  26.278  1.00  0.00    -0.206 F 
ATOM     64  C   UNL A   1      46.955  35.276  28.948  1.00  0.00     0.060 A 
BRANCH  64  65
ATOM     65  S   UNL A   1      47.524  36.963  29.253  1.00  0.00     0.124 S 
ATOM     66  O   UNL A   1      47.221  37.123  30.671  1.00  0.00    -0.237 OA
ATOM     67  O   UNL A   1      48.941  36.878  28.913  1.00  0.00    -0.237 OA
ATOM     68  O   UNL A   1      46.712  37.767  28.345  1.00  0.00    -0.744 OA
ENDBRANCH  64  65
ENDBRANCH  43  57
BRANCH  44  69
ATOM     69  C   UNL A   1      43.352  23.135  26.928  1.00  0.00     0.058 A 
ATOM     70  C   UNL A   1      43.260  22.630  25.623  1.00  0.00     0.135 A 
ATOM     71  C   UNL A   1      43.075  22.255  27.988  1.00  0.00     0.135 A 
ATOM     72  F   UNL A   1      43.504  23.432  24.576  1.00  0.00    -0.206 F 
ATOM     73  C   UNL A   1      42.905  21.308  25.377  1.00  0.00     0.059 A 
ATOM     74  C   UNL A   1      42.752  20.921  27.769  1.00  0.00     0.059 A 
ATOM     75  F   UNL A   1      43.162  22.683  29.258  1.00  0.00    -0.206 F 
ATOM     76  C   UNL A   1      42.660  20.458  26.458  1.00  0.00     0.060 A 
BRANCH  76  77
ATOM     77  S   UNL A   1      42.253  18.730  26.126  1.00  0.00     0.124 S 
ATOM     78  O   UNL A   1      40.847  18.828  25.751  1.00  0.00    -0.237 OA
ATOM     79  O   UNL A   1      43.181  18.402  25.048  1.00  0.00    -0.237 OA
ATOM     80  O   UNL A   1      42.522  18.070  27.399  1.00  0.00    -0.744 OA
ENDBRANCH  76  77
ENDBRANCH  44  69
BRANCH  56  81
ATOM     81  C   UNL A   1      49.387  26.588  26.356  1.00  0.00     0.058 A 
ATOM     82  C   UNL A   1      50.255  26.003  27.290  1.00  0.00     0.135 A 
ATOM     83  C   UNL A   1      49.839  26.726  25.033  1.00  0.00     0.135 A 
ATOM     84  F   UNL A   1      49.874  25.857  28.568  1.00  0.00    -0.206 F 
ATOM     85  C   UNL A   1      51.536  25.598  26.933  1.00  0.00     0.059 A 
ATOM     86  C   UNL A   1      51.104  26.298  24.647  1.00  0.00     0.059 A 
ATOM     87  F   UNL A   1      49.043  27.269  24.099  1.00  0.00    -0.206 F 
ATOM     88  C   UNL A   1      51.951  25.748  25.608  1.00  0.00     0.060 A 
BRANCH  88  89
ATOM     89  S   UNL A   1      53.610  25.200  25.156  1.00  0.00     0.124 S 
ATOM     90  O   UNL A   1      53.514  23.761  25.375  1.00  0.00    -0.237 OA
ATOM     91  O   UNL A   1      53.707  25.624  23.762  1.00  0.00    -0.237 OA
ATOM     92  O   UNL A   1      54.473  25.921  26.087  1.00  0.00    -0.744 OA
ENDBRANCH  88  89
ENDBRANCH  56  81
ENDBRANCH  30  31
ENDBRANCH  23  25
ENDBRANCH  22  23
ENDBRANCH   1  22
TORSDOF 15
ENDMDL
MODEL 3
REMARK VINA RESULT:     -11.1      5.248     11.016
REMARK SMILES Cc1cc(C)c2c(c1)C=C(C(=O)OCCOC(=O)c1ccc(-c3c4nc(c(-c5c(F)cc(S(=O)(=O)[O-])cc5F)c5ccc([nH]5)c(-c5c(F)cc(S(=O)(=O)[O-])cc5F)c5nc(c(-c6c(F)cc(S(=O)(=O)[O-])cc6F)c6ccc3[nH]6)C=C5)C=C4)cc1)[C@@H](C(F)(F)F)O2
REMARK SMILES IDX 15 1 14 2 13 3 11 4 12 5 10 6 1 7 2 8 3 9 8 10 4 11 7 12
REMARK SMILES IDX 5 13 6 14 9 15 90 16 85 17 86 18 87 19 88 20 89 21 16 22
REMARK SMILES IDX 17 23 18 24 19 25 20 26 84 27 21 28 83 29 22 30 23 31 24 32
REMARK SMILES IDX 77 33 25 34 82 35 76 36 78 37 26 38 81 39 75 40 74 41 27 43
REMARK SMILES IDX 61 44 40 45 60 46 41 47 44 48 59 49 79 50 42 51 43 52 58 54
REMARK SMILES IDX 80 55 45 56 28 57 29 58 38 59 30 60 31 61 37 62 39 63 32 64
REMARK SMILES IDX 33 65 34 66 35 67 36 68 62 69 63 70 72 71 64 72 65 73 71 74
REMARK SMILES IDX 73 75 66 76 67 77 68 78 69 79 70 80 46 81 47 82 56 83 48 84
REMARK SMILES IDX 49 85 55 86 57 87 50 88 51 89 52 90 53 91 54 92
REMARK H PARENT 78 42 44 53
REMARK Flexibility Score: inf
ROOT
ATOM      1  C   UNL A   1      33.683  33.258  28.253  1.00  0.00     0.275 C 
ENDROOT
BRANCH   1   2
ATOM      2  C   UNL A   1      34.356  34.521  28.794  1.00  0.00     0.275 C 
BRANCH   2   3
ATOM      3  O   UNL A   1      34.152  34.676  30.216  1.00  0.00    -0.459 OA
BRANCH   3   4
ATOM      4  C   UNL A   1      34.674  33.693  30.985  1.00  0.00     0.338 C 
ATOM      5  O   UNL A   1      34.186  32.587  31.173  1.00  0.00    -0.246 OA
BRANCH   4   6
ATOM      6  C   UNL A   1      35.961  34.107  31.574  1.00  0.00     0.087 C 
ATOM      7  C   UNL A   1      41.987  33.865  30.381  1.00  0.00     0.044 C 
ATOM      8  C   UNL A   1      40.769  34.167  31.204  1.00  0.00    -0.050 A 
ATOM      9  C   UNL A   1      40.862  34.587  32.535  1.00  0.00     0.010 A 
ATOM     10  C   UNL A   1      39.504  33.979  30.648  1.00  0.00     0.015 A 
ATOM     11  C   UNL A   1      39.708  34.839  33.302  1.00  0.00    -0.008 A 
ATOM     12  C   UNL A   1      38.351  34.208  31.410  1.00  0.00     0.018 A 
ATOM     13  C   UNL A   1      39.843  35.286  34.728  1.00  0.00     0.048 C 
ATOM     14  C   UNL A   1      38.443  34.651  32.727  1.00  0.00     0.130 A 
ATOM     15  C   UNL A   1      37.057  33.934  30.831  1.00  0.00     0.027 C 
ATOM     16  O   UNL A   1      37.341  34.924  33.495  1.00  0.00    -0.475 OA
ATOM     17  C   UNL A   1      36.017  34.556  33.005  1.00  0.00     0.316 C 
BRANCH  17  18
ATOM     18  C   UNL A   1      35.430  33.487  33.941  1.00  0.00     0.430 C 
ATOM     19  F   UNL A   1      35.810  33.693  35.226  1.00  0.00    -0.167 F 
ATOM     20  F   UNL A   1      34.074  33.510  33.937  1.00  0.00    -0.167 F 
ATOM     21  F   UNL A   1      35.813  32.236  33.601  1.00  0.00    -0.167 F 
ENDBRANCH  17  18
ENDBRANCH   4   6
ENDBRANCH   3   4
ENDBRANCH   2   3
ENDBRANCH   1   2
BRANCH   1  22
ATOM     22  O   UNL A   1      34.573  32.522  27.393  1.00  0.00    -0.458 OA
BRANCH  22  23
ATOM     23  C   UNL A   1      34.544  31.182  27.570  1.00  0.00     0.338 C 
ATOM     24  O   UNL A   1      33.613  30.428  27.340  1.00  0.00    -0.246 OA
BRANCH  23  25
ATOM     25  C   UNL A   1      35.856  30.685  28.004  1.00  0.00     0.060 A 
ATOM     26  C   UNL A   1      35.902  29.448  28.632  1.00  0.00     0.016 A 
ATOM     27  C   UNL A   1      36.971  31.518  28.025  1.00  0.00     0.016 A 
ATOM     28  C   UNL A   1      36.979  29.122  29.448  1.00  0.00     0.010 A 
ATOM     29  C   UNL A   1      38.125  31.103  28.702  1.00  0.00     0.010 A 
ATOM     30  C   UNL A   1      38.127  29.925  29.472  1.00  0.00    -0.014 A 
BRANCH  30  31
ATOM     31  C   UNL A   1      39.315  29.532  30.288  1.00  0.00     0.031 A 
ATOM     32  C   UNL A   1      40.339  28.566  29.736  1.00  0.00     0.074 A 
ATOM     33  C   UNL A   1      39.485  30.040  31.527  1.00  0.00     0.049 A 
ATOM     34  N   UNL A   1      41.295  27.930  30.362  1.00  0.00    -0.248 NA
ATOM     35  C   UNL A   1      40.271  28.268  28.295  1.00  0.00     0.031 C 
ATOM     36  C   UNL A   1      38.614  31.030  32.170  1.00  0.00     0.029 A 
ATOM     37  N   UNL A   1      40.450  29.800  32.476  1.00  0.00    -0.354 N 
ATOM     38  C   UNL A   1      41.905  27.117  29.410  1.00  0.00     0.074 A 
ATOM     39  C   UNL A   1      41.205  27.336  28.163  1.00  0.00     0.031 C 
ATOM     40  C   UNL A   1      39.107  31.348  33.374  1.00  0.00     0.029 A 
ATOM     41  C   UNL A   1      40.252  30.493  33.649  1.00  0.00     0.049 A 
ATOM     42  H   UNL A   1      41.210  29.190  32.331  1.00  0.00     0.167 HD
ATOM     43  C   UNL A   1      42.948  26.266  29.569  1.00  0.00     0.037 A 
ATOM     44  C   UNL A   1      40.873  30.413  34.842  1.00  0.00     0.037 A 
ATOM     45  C   UNL A   1      43.663  26.095  30.810  1.00  0.00     0.049 A 
ATOM     46  C   UNL A   1      41.982  29.417  35.012  1.00  0.00     0.074 A 
ATOM     47  C   UNL A   1      44.727  25.251  31.082  1.00  0.00     0.029 A 
ATOM     48  N   UNL A   1      43.400  26.792  31.981  1.00  0.00    -0.354 N 
ATOM     49  N   UNL A   1      42.484  28.588  34.129  1.00  0.00    -0.248 NA
ATOM     50  C   UNL A   1      42.596  29.331  36.342  1.00  0.00     0.031 C 
ATOM     51  C   UNL A   1      45.078  25.407  32.426  1.00  0.00     0.029 A 
ATOM     52  C   UNL A   1      44.275  26.393  32.978  1.00  0.00     0.049 A 
ATOM     53  H   UNL A   1      42.695  27.471  32.088  1.00  0.00     0.167 HD
ATOM     54  C   UNL A   1      43.495  27.900  34.789  1.00  0.00     0.074 A 
ATOM     55  C   UNL A   1      43.537  28.419  36.141  1.00  0.00     0.031 C 
ATOM     56  C   UNL A   1      44.314  26.929  34.316  1.00  0.00     0.037 A 
BRANCH  43  57
ATOM     57  C   UNL A   1      43.377  25.430  28.390  1.00  0.00     0.058 A 
ATOM     58  C   UNL A   1      44.373  25.855  27.496  1.00  0.00     0.135 A 
ATOM     59  C   UNL A   1      42.839  24.145  28.200  1.00  0.00     0.135 A 
ATOM     60  F   UNL A   1      44.911  27.079  27.617  1.00  0.00    -0.206 F 
ATOM     61  C   UNL A   1      44.812  25.042  26.453  1.00  0.00     0.059 A 
ATOM     62  C   UNL A   1      43.283  23.304  27.182  1.00  0.00     0.059 A 
ATOM     63  F   UNL A   1      41.883  23.685  29.022  1.00  0.00    -0.206 F 
ATOM     64  C   UNL A   1      44.267  23.764  26.310  1.00  0.00     0.060 A 
BRANCH  64  65
ATOM     65  S   UNL A   1      44.874  22.713  24.973  1.00  0.00     0.124 S 
ATOM     66  O   UNL A   1      45.313  23.704  23.996  1.00  0.00    -0.237 OA
ATOM     67  O   UNL A   1      45.935  21.957  25.631  1.00  0.00    -0.237 OA
ATOM     68  O   UNL A   1      43.700  21.935  24.590  1.00  0.00    -0.744 OA
ENDBRANCH  64  65
ENDBRANCH  43  57
BRANCH  44  69
ATOM     69  C   UNL A   1      40.423  31.273  35.971  1.00  0.00     0.058 A 
ATOM     70  C   UNL A   1      41.221  32.328  36.435  1.00  0.00     0.135 A 
ATOM     71  C   UNL A   1      39.173  31.083  36.583  1.00  0.00     0.135 A 
ATOM     72  F   UNL A   1      42.428  32.545  35.891  1.00  0.00    -0.206 F 
ATOM     73  C   UNL A   1      40.801  33.160  37.467  1.00  0.00     0.059 A 
ATOM     74  C   UNL A   1      38.715  31.923  37.593  1.00  0.00     0.059 A 
ATOM     75  F   UNL A   1      38.362  30.096  36.168  1.00  0.00    -0.206 F 
ATOM     76  C   UNL A   1      39.542  32.953  38.035  1.00  0.00     0.060 A 
BRANCH  76  77
ATOM     77  S   UNL A   1      38.985  34.075  39.337  1.00  0.00     0.124 S 
ATOM     78  O   UNL A   1      40.071  33.962  40.304  1.00  0.00    -0.237 OA
ATOM     79  O   UNL A   1      38.892  35.345  38.624  1.00  0.00    -0.237 OA
ATOM     80  O   UNL A   1      37.709  33.502  39.752  1.00  0.00    -0.744 OA
ENDBRANCH  76  77
ENDBRANCH  44  69
BRANCH  56  81
ATOM     81  C   UNL A   1      45.369  26.406  35.249  1.00  0.00     0.058 A 
ATOM     82  C   UNL A   1      45.143  25.299  36.080  1.00  0.00     0.135 A 
ATOM     83  C   UNL A   1      46.640  27.003  35.280  1.00  0.00     0.135 A 
ATOM     84  F   UNL A   1      43.944  24.696  36.094  1.00  0.00    -0.206 F 
ATOM     85  C   UNL A   1      46.130  24.820  36.935  1.00  0.00     0.059 A 
ATOM     86  C   UNL A   1      47.652  26.523  36.103  1.00  0.00     0.059 A 
ATOM     87  F   UNL A   1      46.910  28.059  34.497  1.00  0.00    -0.206 F 
ATOM     88  C   UNL A   1      47.383  25.439  36.937  1.00  0.00     0.060 A 
BRANCH  88  89
ATOM     89  S   UNL A   1      48.660  24.796  38.038  1.00  0.00     0.124 S 
ATOM     90  O   UNL A   1      49.631  25.884  38.028  1.00  0.00    -0.237 OA
ATOM     91  O   UNL A   1      47.928  24.611  39.287  1.00  0.00    -0.237 OA
ATOM     92  O   UNL A   1      49.089  23.565  37.381  1.00  0.00    -0.744 OA
ENDBRANCH  88  89
ENDBRANCH  56  81
ENDBRANCH  30  31
ENDBRANCH  23  25
ENDBRANCH  22  23
ENDBRANCH   1  22
TORSDOF 15
ENDMDL
