MODEL 1
REMARK VINA RESULT:     -14.2      0.000      0.000
REMARK SMILES Cc1ccc(C(=O)NC2(CC(=O)OCCOC(=O)c3ccc(-c4c5nc(c(-c6c(F)cc(S(=O)(=O)[O-])cc6F)c6ccc([nH]6)c(-c6c(F)cc(S(=O)(=O)[O-])cc6F)c6nc(c(-c7c(F)cc(S(=O)(=O)[O-])cc7F)c7ccc4[nH]7)C=C6)C=C5)cc3)CCC2)cc1
REMARK SMILES IDX 14 1 13 2 11 3 12 4 10 5 9 6 85 7 87 8 86 9 8 10 6 11 7 12
REMARK SMILES IDX 5 14 1 15 2 16 3 17 89 18 4 19 88 20 15 21 16 22 17 23 18 24
REMARK SMILES IDX 19 25 20 26 84 27 21 28 83 29 22 30 23 31 24 32 77 33 25 34
REMARK SMILES IDX 82 35 76 36 78 37 26 38 81 39 75 40 74 41 27 43 61 44 40 45
REMARK SMILES IDX 60 46 41 47 44 48 59 49 79 50 42 51 43 52 58 54 80 55 45 56
REMARK SMILES IDX 28 57 29 58 38 59 30 60 31 61 37 62 39 63 32 64 33 65 34 66
REMARK SMILES IDX 35 67 36 68 62 69 63 70 72 71 64 72 65 73 71 74 73 75 66 76
REMARK SMILES IDX 67 77 68 78 69 79 70 80 46 81 47 82 56 83 48 84 49 85 55 86
REMARK SMILES IDX 57 87 50 88 51 89 52 90 53 91 54 92
REMARK H PARENT 8 13 78 42 44 53
REMARK Flexibility Score: inf
ROOT
ATOM      1  C   UNL A   1      35.658  22.367  26.043  1.00  0.00     0.274 C 
ENDROOT
BRANCH   1   2
ATOM      2  O   UNL A   1      33.844  23.061  26.721  1.00  0.00    -0.462 OA
BRANCH   2   3
ATOM      3  C   UNL A   1      32.530  23.638  26.503  1.00  0.00     0.308 C 
ATOM      4  O   UNL A   1      31.620  23.429  27.314  1.00  0.00    -0.252 OA
BRANCH   3   5
ATOM      5  C   UNL A   1      32.032  24.671  25.523  1.00  0.00     0.151 C 
BRANCH   5   6
ATOM      6  C   UNL A   1      31.249  24.557  24.236  1.00  0.00     0.051 C 
ATOM      7  C   UNL A   1      31.139  23.058  23.806  1.00  0.00     0.029 C 
ATOM      8  C   UNL A   1      32.007  24.784  22.899  1.00  0.00     0.029 C 
ATOM      9  C   UNL A   1      32.369  23.288  22.909  1.00  0.00     0.005 C 
BRANCH   6  10
ATOM     10  N   UNL A   1      29.920  25.184  24.272  1.00  0.00    -0.346 N 
ATOM     11  C   UNL A   1      29.779  26.526  24.196  1.00  0.00     0.251 C 
ATOM     12  O   UNL A   1      28.886  27.122  23.619  1.00  0.00    -0.269 OA
ATOM     13  H   UNL A   1      29.121  24.616  24.354  1.00  0.00     0.164 HD
BRANCH  11  14
ATOM     14  C   UNL A   1      30.900  27.217  24.791  1.00  0.00     0.039 A 
ATOM     15  C   UNL A   1      34.942  29.330  27.080  1.00  0.00     0.044 C 
ATOM     16  C   UNL A   1      33.763  28.629  26.451  1.00  0.00    -0.051 A 
ATOM     17  C   UNL A   1      33.770  28.561  24.712  1.00  0.00     0.004 A 
ATOM     18  C   UNL A   1      32.388  28.026  27.365  1.00  0.00     0.004 A 
ATOM     19  C   UNL A   1      32.335  27.920  23.856  1.00  0.00     0.014 A 
ATOM     20  C   UNL A   1      30.948  27.333  26.576  1.00  0.00     0.014 A 
ENDBRANCH  11  14
ENDBRANCH   6  10
ENDBRANCH   5   6
ENDBRANCH   3   5
ENDBRANCH   2   3
ENDBRANCH   1   2
BRANCH   1  21
ATOM     21  C   UNL A   1      37.127  23.486  25.675  1.00  0.00     0.275 C 
BRANCH  21  22
ATOM     22  O   UNL A   1      38.260  24.078  26.723  1.00  0.00    -0.458 OA
BRANCH  22  23
ATOM     23  C   UNL A   1      39.580  24.017  27.263  1.00  0.00     0.338 C 
ATOM     24  O   UNL A   1      40.067  22.911  27.492  1.00  0.00    -0.246 OA
BRANCH  23  25
ATOM     25  C   UNL A   1      40.513  25.261  27.383  1.00  0.00     0.060 A 
ATOM     26  C   UNL A   1      40.386  26.401  26.529  1.00  0.00     0.016 A 
ATOM     27  C   UNL A   1      40.985  25.504  28.649  1.00  0.00     0.016 A 
ATOM     28  C   UNL A   1      40.421  27.771  27.036  1.00  0.00     0.010 A 
ATOM     29  C   UNL A   1      40.884  26.820  29.134  1.00  0.00     0.010 A 
ATOM     30  C   UNL A   1      40.535  28.017  28.409  1.00  0.00    -0.014 A 
BRANCH  30  31
ATOM     31  C   UNL A   1      40.255  29.329  29.228  1.00  0.00     0.031 A 
ATOM     32  C   UNL A   1      39.107  30.391  29.202  1.00  0.00     0.074 A 
ATOM     33  C   UNL A   1      41.157  29.568  30.217  1.00  0.00     0.049 A 
ATOM     34  N   UNL A   1      39.229  31.700  29.160  1.00  0.00    -0.248 NA
ATOM     35  C   UNL A   1      37.700  30.092  29.445  1.00  0.00     0.031 C 
ATOM     36  C   UNL A   1      41.249  30.641  31.191  1.00  0.00     0.029 A 
ATOM     37  N   UNL A   1      42.396  28.928  30.384  1.00  0.00    -0.354 N 
ATOM     38  C   UNL A   1      37.980  32.277  29.516  1.00  0.00     0.074 A 
ATOM     39  C   UNL A   1      37.024  31.237  29.391  1.00  0.00     0.031 C 
ATOM     40  C   UNL A   1      42.563  30.822  31.462  1.00  0.00     0.029 A 
ATOM     41  C   UNL A   1      43.320  29.937  30.576  1.00  0.00     0.049 A 
ATOM     42  H   UNL A   1      42.570  27.959  30.368  1.00  0.00     0.167 HD
ATOM     43  C   UNL A   1      37.821  33.430  30.251  1.00  0.00     0.037 A 
ATOM     44  C   UNL A   1      44.157  30.221  29.534  1.00  0.00     0.037 A 
ATOM     45  C   UNL A   1      39.116  33.870  30.708  1.00  0.00     0.049 A 
ATOM     46  C   UNL A   1      44.015  31.656  29.100  1.00  0.00     0.074 A 
ATOM     47  C   UNL A   1      39.796  33.797  31.909  1.00  0.00     0.029 A 
ATOM     48  N   UNL A   1      40.031  34.223  29.758  1.00  0.00    -0.354 N 
ATOM     49  N   UNL A   1      43.087  32.440  29.570  1.00  0.00    -0.248 NA
ATOM     50  C   UNL A   1      44.858  32.336  28.122  1.00  0.00     0.031 C 
ATOM     51  C   UNL A   1      41.163  34.100  31.646  1.00  0.00     0.029 A 
ATOM     52  C   UNL A   1      41.284  34.362  30.294  1.00  0.00     0.049 A 
ATOM     53  H   UNL A   1      39.817  34.362  28.807  1.00  0.00     0.167 HD
ATOM     54  C   UNL A   1      43.189  33.677  29.016  1.00  0.00     0.074 A 
ATOM     55  C   UNL A   1      44.306  33.564  28.097  1.00  0.00     0.031 C 
ATOM     56  C   UNL A   1      42.342  34.683  29.363  1.00  0.00     0.037 A 
BRANCH  43  57
ATOM     57  C   UNL A   1      36.517  34.040  30.818  1.00  0.00     0.058 A 
ATOM     58  C   UNL A   1      35.473  34.453  29.949  1.00  0.00     0.135 A 
ATOM     59  C   UNL A   1      36.193  34.189  32.188  1.00  0.00     0.135 A 
ATOM     60  F   UNL A   1      35.556  34.289  28.623  1.00  0.00    -0.206 F 
ATOM     61  C   UNL A   1      34.278  35.044  30.380  1.00  0.00     0.059 A 
ATOM     62  C   UNL A   1      35.008  34.810  32.647  1.00  0.00     0.059 A 
ATOM     63  F   UNL A   1      36.991  33.695  33.146  1.00  0.00    -0.206 F 
ATOM     64  C   UNL A   1      34.058  35.244  31.731  1.00  0.00     0.060 A 
BRANCH  64  65
ATOM     65  S   UNL A   1      32.519  36.046  32.243  1.00  0.00     0.124 S 
ATOM     66  O   UNL A   1      32.966  36.894  33.345  1.00  0.00    -0.237 OA
ATOM     67  O   UNL A   1      32.116  36.749  31.029  1.00  0.00    -0.237 OA
ATOM     68  O   UNL A   1      31.663  34.930  32.632  1.00  0.00    -0.744 OA
ENDBRANCH  64  65
ENDBRANCH  43  57
BRANCH  44  69
ATOM     69  C   UNL A   1      44.493  29.024  28.663  1.00  0.00     0.058 A 
ATOM     70  C   UNL A   1      43.928  28.946  27.364  1.00  0.00     0.135 A 
ATOM     71  C   UNL A   1      45.562  28.146  28.913  1.00  0.00     0.135 A 
ATOM     72  F   UNL A   1      42.918  29.766  27.025  1.00  0.00    -0.206 F 
ATOM     73  C   UNL A   1      44.440  28.122  26.356  1.00  0.00     0.059 A 
ATOM     74  C   UNL A   1      46.087  27.298  27.915  1.00  0.00     0.059 A 
ATOM     75  F   UNL A   1      46.169  28.148  30.108  1.00  0.00    -0.206 F 
ATOM     76  C   UNL A   1      45.534  27.308  26.631  1.00  0.00     0.060 A 
BRANCH  76  77
ATOM     77  S   UNL A   1      46.304  26.399  25.255  1.00  0.00     0.124 S 
ATOM     78  O   UNL A   1      47.363  25.663  25.936  1.00  0.00    -0.237 OA
ATOM     79  O   UNL A   1      45.200  25.578  24.759  1.00  0.00    -0.237 OA
ATOM     80  O   UNL A   1      46.746  27.459  24.356  1.00  0.00    -0.744 OA
ENDBRANCH  76  77
ENDBRANCH  44  69
BRANCH  56  81
ATOM     81  C   UNL A   1      42.407  36.062  28.800  1.00  0.00     0.058 A 
ATOM     82  C   UNL A   1      41.901  36.349  27.529  1.00  0.00     0.135 A 
ATOM     83  C   UNL A   1      43.089  37.109  29.465  1.00  0.00     0.135 A 
ATOM     84  F   UNL A   1      41.316  35.395  26.790  1.00  0.00    -0.206 F 
ATOM     85  C   UNL A   1      41.998  37.622  26.979  1.00  0.00     0.059 A 
ATOM     86  C   UNL A   1      43.253  38.365  28.908  1.00  0.00     0.059 A 
ATOM     87  F   UNL A   1      43.592  36.963  30.699  1.00  0.00    -0.206 F 
ATOM     88  C   UNL A   1      42.669  38.623  27.680  1.00  0.00     0.060 A 
BRANCH  88  89
ATOM     89  S   UNL A   1      42.771  40.273  26.979  1.00  0.00     0.124 S 
ATOM     90  O   UNL A   1      43.668  40.077  25.844  1.00  0.00    -0.237 OA
ATOM     91  O   UNL A   1      41.372  40.525  26.645  1.00  0.00    -0.237 OA
ATOM     92  O   UNL A   1      43.313  41.074  28.071  1.00  0.00    -0.744 OA
ENDBRANCH  88  89
ENDBRANCH  56  81
ENDBRANCH  30  31
ENDBRANCH  23  25
ENDBRANCH  22  23
ENDBRANCH  21  22
ENDBRANCH   1  21
TORSDOF 17
ENDMDL
MODEL 2
REMARK VINA RESULT:     -14.1      4.246     10.865
REMARK SMILES Cc1ccc(C(=O)NC2(CC(=O)OCCOC(=O)c3ccc(-c4c5nc(c(-c6c(F)cc(S(=O)(=O)[O-])cc6F)c6ccc([nH]6)c(-c6c(F)cc(S(=O)(=O)[O-])cc6F)c6nc(c(-c7c(F)cc(S(=O)(=O)[O-])cc7F)c7ccc4[nH]7)C=C6)C=C5)cc3)CCC2)cc1
REMARK SMILES IDX 14 1 13 2 11 3 12 4 10 5 9 6 85 7 87 8 86 9 8 10 6 11 7 12
REMARK SMILES IDX 5 14 1 15 2 16 3 17 89 18 4 19 88 20 15 21 16 22 17 23 18 24
REMARK SMILES IDX 19 25 20 26 84 27 21 28 83 29 22 30 23 31 24 32 77 33 25 34
REMARK SMILES IDX 82 35 76 36 78 37 26 38 81 39 75 40 74 41 27 43 61 44 40 45
REMARK SMILES IDX 60 46 41 47 44 48 59 49 79 50 42 51 43 52 58 54 80 55 45 56
REMARK SMILES IDX 28 57 29 58 38 59 30 60 31 61 37 62 39 63 32 64 33 65 34 66
REMARK SMILES IDX 35 67 36 68 62 69 63 70 72 71 64 72 65 73 71 74 73 75 66 76
REMARK SMILES IDX 67 77 68 78 69 79 70 80 46 81 47 82 56 83 48 84 49 85 55 86
REMARK SMILES IDX 57 87 50 88 51 89 52 90 53 91 54 92
REMARK H PARENT 8 13 78 42 44 53
REMARK Flexibility Score: inf
ROOT
ATOM      1  C   UNL A   1      33.975  28.524  24.231  1.00  0.00     0.274 C 
ENDROOT
BRANCH   1   2
ATOM      2  O   UNL A   1      33.506  26.903  23.055  1.00  0.00    -0.462 OA
BRANCH   2   3
ATOM      3  C   UNL A   1      32.642  25.797  22.682  1.00  0.00     0.308 C 
ATOM      4  O   UNL A   1      33.012  24.983  21.828  1.00  0.00    -0.252 OA
BRANCH   3   5
ATOM      5  C   UNL A   1      31.362  25.270  23.282  1.00  0.00     0.151 C 
BRANCH   5   6
ATOM      6  C   UNL A   1      30.466  25.790  24.381  1.00  0.00     0.051 C 
ATOM      7  C   UNL A   1      29.333  26.680  23.773  1.00  0.00     0.029 C 
ATOM      8  C   UNL A   1      30.918  27.061  25.151  1.00  0.00     0.029 C 
ATOM      9  C   UNL A   1      30.220  27.904  24.068  1.00  0.00     0.005 C 
BRANCH   6  10
ATOM     10  N   UNL A   1      29.897  24.749  25.248  1.00  0.00    -0.346 N 
ATOM     11  C   UNL A   1      30.684  24.011  26.062  1.00  0.00     0.251 C 
ATOM     12  O   UNL A   1      30.394  23.622  27.181  1.00  0.00    -0.269 OA
ATOM     13  H   UNL A   1      28.926  24.587  25.235  1.00  0.00     0.164 HD
BRANCH  11  14
ATOM     14  C   UNL A   1      32.002  23.818  25.502  1.00  0.00     0.039 A 
ATOM     15  C   UNL A   1      36.781  23.060  23.882  1.00  0.00     0.044 C 
ATOM     16  C   UNL A   1      35.398  23.271  24.447  1.00  0.00    -0.051 A 
ATOM     17  C   UNL A   1      34.160  22.224  23.815  1.00  0.00     0.004 A 
ATOM     18  C   UNL A   1      34.991  24.562  25.568  1.00  0.00     0.004 A 
ATOM     19  C   UNL A   1      32.454  22.509  24.274  1.00  0.00     0.014 A 
ATOM     20  C   UNL A   1      33.319  24.870  26.102  1.00  0.00     0.014 A 
ENDBRANCH  11  14
ENDBRANCH   6  10
ENDBRANCH   5   6
ENDBRANCH   3   5
ENDBRANCH   2   3
ENDBRANCH   1   2
BRANCH   1  21
ATOM     21  C   UNL A   1      34.193  28.426  26.098  1.00  0.00     0.275 C 
BRANCH  21  22
ATOM     22  O   UNL A   1      34.149  29.652  27.206  1.00  0.00    -0.458 OA
BRANCH  22  23
ATOM     23  C   UNL A   1      34.774  30.789  27.801  1.00  0.00     0.338 C 
ATOM     24  O   UNL A   1      34.262  31.894  27.630  1.00  0.00    -0.246 OA
BRANCH  23  25
ATOM     25  C   UNL A   1      35.948  30.682  28.822  1.00  0.00     0.060 A 
ATOM     26  C   UNL A   1      36.094  29.572  29.711  1.00  0.00     0.016 A 
ATOM     27  C   UNL A   1      37.110  31.296  28.426  1.00  0.00     0.016 A 
ATOM     28  C   UNL A   1      37.374  28.903  29.930  1.00  0.00     0.010 A 
ATOM     29  C   UNL A   1      38.303  30.560  28.548  1.00  0.00     0.010 A 
ATOM     30  C   UNL A   1      38.515  29.304  29.227  1.00  0.00    -0.014 A 
BRANCH  30  31
ATOM     31  C   UNL A   1      39.885  28.565  29.013  1.00  0.00     0.031 A 
ATOM     32  C   UNL A   1      40.271  27.087  28.678  1.00  0.00     0.074 A 
ATOM     33  C   UNL A   1      40.970  29.384  29.060  1.00  0.00     0.049 A 
ATOM     34  N   UNL A   1      41.163  26.336  29.286  1.00  0.00    -0.248 NA
ATOM     35  C   UNL A   1      39.846  26.375  27.478  1.00  0.00     0.031 C 
ATOM     36  C   UNL A   1      42.387  29.107  28.900  1.00  0.00     0.029 A 
ATOM     37  N   UNL A   1      40.992  30.709  29.524  1.00  0.00    -0.354 N 
ATOM     38  C   UNL A   1      41.452  25.222  28.452  1.00  0.00     0.074 A 
ATOM     39  C   UNL A   1      40.399  25.164  27.505  1.00  0.00     0.031 C 
ATOM     40  C   UNL A   1      43.056  30.004  29.660  1.00  0.00     0.029 A 
ATOM     41  C   UNL A   1      42.061  30.787  30.395  1.00  0.00     0.049 A 
ATOM     42  H   UNL A   1      40.372  31.434  29.279  1.00  0.00     0.167 HD
ATOM     43  C   UNL A   1      42.690  24.638  28.312  1.00  0.00     0.037 A 
ATOM     44  C   UNL A   1      41.774  30.837  31.731  1.00  0.00     0.037 A 
ATOM     45  C   UNL A   1      43.658  25.423  29.039  1.00  0.00     0.049 A 
ATOM     46  C   UNL A   1      42.413  29.689  32.466  1.00  0.00     0.074 A 
ATOM     47  C   UNL A   1      44.614  26.355  28.683  1.00  0.00     0.029 A 
ATOM     48  N   UNL A   1      43.502  25.516  30.392  1.00  0.00    -0.354 N 
ATOM     49  N   UNL A   1      43.009  28.708  31.849  1.00  0.00    -0.248 NA
ATOM     50  C   UNL A   1      42.440  29.516  33.915  1.00  0.00     0.031 C 
ATOM     51  C   UNL A   1      45.017  27.030  29.870  1.00  0.00     0.029 A 
ATOM     52  C   UNL A   1      44.307  26.488  30.925  1.00  0.00     0.049 A 
ATOM     53  H   UNL A   1      42.889  24.954  30.919  1.00  0.00     0.167 HD
ATOM     54  C   UNL A   1      43.497  27.813  32.747  1.00  0.00     0.074 A 
ATOM     55  C   UNL A   1      43.102  28.350  34.036  1.00  0.00     0.031 C 
ATOM     56  C   UNL A   1      44.182  26.707  32.348  1.00  0.00     0.037 A 
BRANCH  43  57
ATOM     57  C   UNL A   1      43.131  23.537  27.317  1.00  0.00     0.058 A 
ATOM     58  C   UNL A   1      42.664  22.204  27.460  1.00  0.00     0.135 A 
ATOM     59  C   UNL A   1      43.946  23.723  26.176  1.00  0.00     0.135 A 
ATOM     60  F   UNL A   1      41.796  21.862  28.421  1.00  0.00    -0.206 F 
ATOM     61  C   UNL A   1      43.041  21.145  26.624  1.00  0.00     0.059 A 
ATOM     62  C   UNL A   1      44.366  22.665  25.335  1.00  0.00     0.059 A 
ATOM     63  F   UNL A   1      44.335  24.948  25.794  1.00  0.00    -0.206 F 
ATOM     64  C   UNL A   1      43.913  21.373  25.575  1.00  0.00     0.060 A 
BRANCH  64  65
ATOM     65  S   UNL A   1      44.405  19.971  24.543  1.00  0.00     0.124 S 
ATOM     66  O   UNL A   1      43.245  19.090  24.649  1.00  0.00    -0.237 OA
ATOM     67  O   UNL A   1      44.605  20.597  23.241  1.00  0.00    -0.237 OA
ATOM     68  O   UNL A   1      45.616  19.476  25.192  1.00  0.00    -0.744 OA
ENDBRANCH  64  65
ENDBRANCH  43  57
BRANCH  44  69
ATOM     69  C   UNL A   1      40.462  31.526  32.058  1.00  0.00     0.058 A 
ATOM     70  C   UNL A   1      39.364  30.734  32.482  1.00  0.00     0.135 A 
ATOM     71  C   UNL A   1      40.334  32.908  32.280  1.00  0.00     0.135 A 
ATOM     72  F   UNL A   1      39.407  29.399  32.335  1.00  0.00    -0.206 F 
ATOM     73  C   UNL A   1      38.257  31.261  33.157  1.00  0.00     0.059 A 
ATOM     74  C   UNL A   1      39.222  33.463  32.948  1.00  0.00     0.059 A 
ATOM     75  F   UNL A   1      41.322  33.741  31.922  1.00  0.00    -0.206 F 
ATOM     76  C   UNL A   1      38.197  32.629  33.403  1.00  0.00     0.060 A 
BRANCH  76  77
ATOM     77  S   UNL A   1      36.851  33.260  34.453  1.00  0.00     0.124 S 
ATOM     78  O   UNL A   1      36.968  34.701  34.259  1.00  0.00    -0.237 OA
ATOM     79  O   UNL A   1      35.666  32.648  33.854  1.00  0.00    -0.237 OA
ATOM     80  O   UNL A   1      37.202  32.770  35.782  1.00  0.00    -0.744 OA
ENDBRANCH  76  77
ENDBRANCH  44  69
BRANCH  56  81
ATOM     81  C   UNL A   1      44.752  25.694  33.282  1.00  0.00     0.058 A 
ATOM     82  C   UNL A   1      46.123  25.428  33.310  1.00  0.00     0.135 A 
ATOM     83  C   UNL A   1      43.927  24.873  34.087  1.00  0.00     0.135 A 
ATOM     84  F   UNL A   1      46.971  26.099  32.515  1.00  0.00    -0.206 F 
ATOM     85  C   UNL A   1      46.658  24.454  34.146  1.00  0.00     0.059 A 
ATOM     86  C   UNL A   1      44.432  23.856  34.878  1.00  0.00     0.059 A 
ATOM     87  F   UNL A   1      42.601  25.050  34.166  1.00  0.00    -0.206 F 
ATOM     88  C   UNL A   1      45.804  23.679  34.930  1.00  0.00     0.060 A 
BRANCH  88  89
ATOM     89  S   UNL A   1      46.498  22.440  36.028  1.00  0.00     0.124 S 
ATOM     90  O   UNL A   1      45.422  21.457  36.111  1.00  0.00    -0.237 OA
ATOM     91  O   UNL A   1      47.678  22.025  35.277  1.00  0.00    -0.237 OA
ATOM     92  O   UNL A   1      46.759  23.181  37.257  1.00  0.00    -0.744 OA
ENDBRANCH  88  89
ENDBRANCH  56  81
ENDBRANCH  30  31
ENDBRANCH  23  25
ENDBRANCH  22  23
ENDBRANCH  21  22
ENDBRANCH   1  21
TORSDOF 17
ENDMDL
MODEL 3
REMARK VINA RESULT:     -14.1      3.865     10.483
REMARK SMILES Cc1ccc(C(=O)NC2(CC(=O)OCCOC(=O)c3ccc(-c4c5nc(c(-c6c(F)cc(S(=O)(=O)[O-])cc6F)c6ccc([nH]6)c(-c6c(F)cc(S(=O)(=O)[O-])cc6F)c6nc(c(-c7c(F)cc(S(=O)(=O)[O-])cc7F)c7ccc4[nH]7)C=C6)C=C5)cc3)CCC2)cc1
REMARK SMILES IDX 14 1 13 2 11 3 12 4 10 5 9 6 85 7 87 8 86 9 8 10 6 11 7 12
REMARK SMILES IDX 5 14 1 15 2 16 3 17 89 18 4 19 88 20 15 21 16 22 17 23 18 24
REMARK SMILES IDX 19 25 20 26 84 27 21 28 83 29 22 30 23 31 24 32 77 33 25 34
REMARK SMILES IDX 82 35 76 36 78 37 26 38 81 39 75 40 74 41 27 43 61 44 40 45
REMARK SMILES IDX 60 46 41 47 44 48 59 49 79 50 42 51 43 52 58 54 80 55 45 56
REMARK SMILES IDX 28 57 29 58 38 59 30 60 31 61 37 62 39 63 32 64 33 65 34 66
REMARK SMILES IDX 35 67 36 68 62 69 63 70 72 71 64 72 65 73 71 74 73 75 66 76
REMARK SMILES IDX 67 77 68 78 69 79 70 80 46 81 47 82 56 83 48 84 49 85 55 86
REMARK SMILES IDX 57 87 50 88 51 89 52 90 53 91 54 92
REMARK H PARENT 8 13 78 42 44 53
REMARK Flexibility Score: inf
ROOT
ATOM      1  C   UNL A   1      32.150  27.863  27.120  1.00  0.00     0.274 C 
ENDROOT
BRANCH   1   2
ATOM      2  O   UNL A   1      32.198  25.954  26.355  1.00  0.00    -0.462 OA
BRANCH   2   3
ATOM      3  C   UNL A   1      31.924  24.531  26.442  1.00  0.00     0.308 C 
ATOM      4  O   UNL A   1      31.101  24.107  27.262  1.00  0.00    -0.252 OA
BRANCH   3   5
ATOM      5  C   UNL A   1      32.315  23.372  25.558  1.00  0.00     0.151 C 
BRANCH   5   6
ATOM      6  C   UNL A   1      33.550  23.095  24.734  1.00  0.00     0.051 C 
ATOM      7  C   UNL A   1      34.486  22.095  25.488  1.00  0.00     0.029 C 
ATOM      8  C   UNL A   1      34.726  24.108  24.817  1.00  0.00     0.029 C 
ATOM      9  C   UNL A   1      35.254  23.316  26.027  1.00  0.00     0.005 C 
BRANCH   6  10
ATOM     10  N   UNL A   1      33.280  22.621  23.369  1.00  0.00    -0.346 N 
ATOM     11  C   UNL A   1      33.109  23.492  22.349  1.00  0.00     0.251 C 
ATOM     12  O   UNL A   1      33.486  23.333  21.201  1.00  0.00    -0.269 OA
ATOM     13  H   UNL A   1      33.221  21.654  23.197  1.00  0.00     0.164 HD
BRANCH  11  14
ATOM     14  C   UNL A   1      32.514  24.730  22.795  1.00  0.00     0.039 A 
ATOM     15  C   UNL A   1      30.523  29.262  24.034  1.00  0.00     0.044 C 
ATOM     16  C   UNL A   1      31.143  27.960  23.591  1.00  0.00    -0.051 A 
ATOM     17  C   UNL A   1      30.056  26.605  23.496  1.00  0.00     0.004 A 
ATOM     18  C   UNL A   1      32.864  27.748  23.308  1.00  0.00     0.004 A 
ATOM     19  C   UNL A   1      30.716  24.975  23.162  1.00  0.00     0.014 A 
ATOM     20  C   UNL A   1      33.580  26.161  22.925  1.00  0.00     0.014 A 
ENDBRANCH  11  14
ENDBRANCH   6  10
ENDBRANCH   5   6
ENDBRANCH   3   5
ENDBRANCH   2   3
ENDBRANCH   1   2
BRANCH   1  21
ATOM     21  C   UNL A   1      33.489  29.145  26.798  1.00  0.00     0.275 C 
BRANCH  21  22
ATOM     22  O   UNL A   1      33.565  30.711  27.324  1.00  0.00    -0.458 OA
BRANCH  22  23
ATOM     23  C   UNL A   1      34.308  31.760  27.944  1.00  0.00     0.338 C 
ATOM     24  O   UNL A   1      34.043  32.922  27.642  1.00  0.00    -0.246 OA
BRANCH  23  25
ATOM     25  C   UNL A   1      35.291  31.524  29.133  1.00  0.00     0.060 A 
ATOM     26  C   UNL A   1      35.422  30.256  29.781  1.00  0.00     0.016 A 
ATOM     27  C   UNL A   1      36.415  32.312  29.113  1.00  0.00     0.016 A 
ATOM     28  C   UNL A   1      36.721  29.669  30.104  1.00  0.00     0.010 A 
ATOM     29  C   UNL A   1      37.653  31.674  29.311  1.00  0.00     0.010 A 
ATOM     30  C   UNL A   1      37.905  30.320  29.740  1.00  0.00    -0.014 A 
BRANCH  30  31
ATOM     31  C   UNL A   1      39.375  29.772  29.652  1.00  0.00     0.031 A 
ATOM     32  C   UNL A   1      39.991  28.407  29.199  1.00  0.00     0.074 A 
ATOM     33  C   UNL A   1      40.328  30.688  29.972  1.00  0.00     0.049 A 
ATOM     34  N   UNL A   1      40.879  27.678  29.839  1.00  0.00    -0.248 NA
ATOM     35  C   UNL A   1      39.834  27.833  27.868  1.00  0.00     0.031 C 
ATOM     36  C   UNL A   1      41.777  30.592  30.002  1.00  0.00     0.029 A 
ATOM     37  N   UNL A   1      40.114  31.928  30.596  1.00  0.00    -0.354 N 
ATOM     38  C   UNL A   1      41.423  26.734  28.928  1.00  0.00     0.074 A 
ATOM     39  C   UNL A   1      40.529  26.699  27.828  1.00  0.00     0.031 C 
ATOM     40  C   UNL A   1      42.212  31.439  30.964  1.00  0.00     0.029 A 
ATOM     41  C   UNL A   1      41.031  31.995  31.627  1.00  0.00     0.049 A 
ATOM     42  H   UNL A   1      39.446  32.608  30.350  1.00  0.00     0.167 HD
ATOM     43  C   UNL A   1      42.733  26.314  28.911  1.00  0.00     0.037 A 
ATOM     44  C   UNL A   1      40.556  31.822  32.897  1.00  0.00     0.037 A 
ATOM     45  C   UNL A   1      43.480  27.087  29.873  1.00  0.00     0.049 A 
ATOM     46  C   UNL A   1      41.227  30.655  33.572  1.00  0.00     0.074 A 
ATOM     47  C   UNL A   1      44.349  28.159  29.791  1.00  0.00     0.029 A 
ATOM     48  N   UNL A   1      43.125  26.967  31.186  1.00  0.00    -0.354 N 
ATOM     49  N   UNL A   1      42.025  29.844  32.938  1.00  0.00    -0.248 NA
ATOM     50  C   UNL A   1      41.072  30.281  34.974  1.00  0.00     0.031 C 
ATOM     51  C   UNL A   1      44.491  28.696  31.102  1.00  0.00     0.029 A 
ATOM     52  C   UNL A   1      43.715  27.934  31.957  1.00  0.00     0.049 A 
ATOM     53  H   UNL A   1      42.522  26.272  31.536  1.00  0.00     0.167 HD
ATOM     54  C   UNL A   1      42.494  28.888  33.782  1.00  0.00     0.074 A 
ATOM     55  C   UNL A   1      41.856  29.188  35.050  1.00  0.00     0.031 C 
ATOM     56  C   UNL A   1      43.364  27.932  33.359  1.00  0.00     0.037 A 
BRANCH  43  57
ATOM     57  C   UNL A   1      43.447  25.422  27.867  1.00  0.00     0.058 A 
ATOM     58  C   UNL A   1      44.063  25.996  26.724  1.00  0.00     0.135 A 
ATOM     59  C   UNL A   1      43.625  24.020  27.950  1.00  0.00     0.135 A 
ATOM     60  F   UNL A   1      44.091  27.322  26.533  1.00  0.00    -0.206 F 
ATOM     61  C   UNL A   1      44.700  25.258  25.719  1.00  0.00     0.059 A 
ATOM     62  C   UNL A   1      44.235  23.249  26.934  1.00  0.00     0.059 A 
ATOM     63  F   UNL A   1      43.256  23.339  29.045  1.00  0.00    -0.206 F 
ATOM     64  C   UNL A   1      44.763  23.879  25.813  1.00  0.00     0.060 A 
BRANCH  64  65
ATOM     65  S   UNL A   1      45.559  22.960  24.474  1.00  0.00     0.124 S 
ATOM     66  O   UNL A   1      46.243  21.892  25.198  1.00  0.00    -0.237 OA
ATOM     67  O   UNL A   1      44.420  22.543  23.663  1.00  0.00    -0.237 OA
ATOM     68  O   UNL A   1      46.439  23.947  23.856  1.00  0.00    -0.744 OA
ENDBRANCH  64  65
ENDBRANCH  43  57
BRANCH  44  69
ATOM     69  C   UNL A   1      39.132  32.310  33.099  1.00  0.00     0.058 A 
ATOM     70  C   UNL A   1      38.850  33.686  32.902  1.00  0.00     0.135 A 
ATOM     71  C   UNL A   1      38.012  31.463  33.157  1.00  0.00     0.135 A 
ATOM     72  F   UNL A   1      39.860  34.568  32.806  1.00  0.00    -0.206 F 
ATOM     73  C   UNL A   1      37.558  34.178  32.689  1.00  0.00     0.059 A 
ATOM     74  C   UNL A   1      36.699  31.939  32.958  1.00  0.00     0.059 A 
ATOM     75  F   UNL A   1      38.175  30.144  33.333  1.00  0.00    -0.206 F 
ATOM     76  C   UNL A   1      36.482  33.296  32.701  1.00  0.00     0.060 A 
BRANCH  76  77
ATOM     77  S   UNL A   1      34.842  33.924  32.226  1.00  0.00     0.124 S 
ATOM     78  O   UNL A   1      35.127  34.581  30.956  1.00  0.00    -0.237 OA
ATOM     79  O   UNL A   1      34.048  32.700  32.126  1.00  0.00    -0.237 OA
ATOM     80  O   UNL A   1      34.487  34.809  33.331  1.00  0.00    -0.744 OA
ENDBRANCH  76  77
ENDBRANCH  44  69
BRANCH  56  81
ATOM     81  C   UNL A   1      43.923  26.863  34.236  1.00  0.00     0.058 A 
ATOM     82  C   UNL A   1      45.298  26.760  34.463  1.00  0.00     0.135 A 
ATOM     83  C   UNL A   1      43.111  25.836  34.773  1.00  0.00     0.135 A 
ATOM     84  F   UNL A   1      46.153  27.640  33.920  1.00  0.00    -0.206 F 
ATOM     85  C   UNL A   1      45.832  25.741  35.242  1.00  0.00     0.059 A 
ATOM     86  C   UNL A   1      43.628  24.778  35.498  1.00  0.00     0.059 A 
ATOM     87  F   UNL A   1      41.776  25.841  34.646  1.00  0.00    -0.206 F 
ATOM     88  C   UNL A   1      44.987  24.759  35.761  1.00  0.00     0.060 A 
BRANCH  88  89
ATOM     89  S   UNL A   1      45.675  23.458  36.789  1.00  0.00     0.124 S 
ATOM     90  O   UNL A   1      47.112  23.662  36.634  1.00  0.00    -0.237 OA
ATOM     91  O   UNL A   1      45.123  23.808  38.094  1.00  0.00    -0.237 OA
ATOM     92  O   UNL A   1      45.151  22.237  36.189  1.00  0.00    -0.744 OA
ENDBRANCH  88  89
ENDBRANCH  56  81
ENDBRANCH  30  31
ENDBRANCH  23  25
ENDBRANCH  22  23
ENDBRANCH  21  22
ENDBRANCH   1  21
TORSDOF 17
ENDMDL
