MODEL 1
REMARK VINA RESULT:     -10.8      0.000      0.000
REMARK SMILES CC(C)C[C@@H](C[NH3+])C(=O)N1CCC(CC(=O)OCCOC(=O)c2ccc(-c3c4nc(c(-c5c(F)cc(S(=O)(=O)[O-])cc5F)c5ccc([nH]5)c(-c5c(F)cc(S(=O)(=O)[O-])cc5F)c5nc(c(-c6c(F)cc(S(=O)(=O)[O-])cc6F)c6ccc3[nH]6)C=C5)C=C4)cc2)CC1
REMARK SMILES IDX 18 1 17 2 15 3 16 4 14 5 13 6 8 7 9 8 10 9 11 10 90 11 12 12
REMARK SMILES IDX 89 13 5 14 4 15 2 16 1 17 3 18 6 19 7 20 19 24 20 25 21 26
REMARK SMILES IDX 22 27 23 28 24 29 88 30 25 31 87 32 26 33 27 34 28 35 81 36
REMARK SMILES IDX 29 37 86 38 80 39 82 40 30 41 85 42 79 43 78 44 31 46 65 47
REMARK SMILES IDX 44 48 64 49 45 50 48 51 63 52 83 53 46 54 47 55 62 57 84 58
REMARK SMILES IDX 49 59 32 60 33 61 42 62 34 63 35 64 41 65 43 66 36 67 37 68
REMARK SMILES IDX 38 69 39 70 40 71 66 72 67 73 76 74 68 75 69 76 75 77 77 78
REMARK SMILES IDX 70 79 71 80 72 81 73 82 74 83 50 84 51 85 60 86 52 87 53 88
REMARK SMILES IDX 59 89 61 90 54 91 55 92 56 93 57 94 58 95
REMARK H PARENT 7 21 7 22 7 23 82 45 48 56
REMARK Flexibility Score: inf
ROOT
ATOM      1  C   UNL A   1      38.662  21.850  25.770  1.00  0.00     0.274 C 
ENDROOT
BRANCH   1   2
ATOM      2  O   UNL A   1      37.295  22.177  26.084  1.00  0.00    -0.462 OA
BRANCH   2   3
ATOM      3  C   UNL A   1      36.370  21.905  25.130  1.00  0.00     0.306 C 
ATOM      4  O   UNL A   1      36.584  21.921  23.926  1.00  0.00    -0.252 OA
BRANCH   3   5
ATOM      5  C   UNL A   1      34.996  21.646  25.712  1.00  0.00     0.126 C 
BRANCH   5   6
ATOM      6  C   UNL A   1      33.814  22.233  24.921  1.00  0.00     0.003 C 
ATOM      7  C   UNL A   1      30.694  24.749  25.704  1.00  0.00     0.231 C 
ATOM      8  O   UNL A   1      30.186  24.247  26.717  1.00  0.00    -0.274 OA
ATOM      9  N   UNL A   1      31.500  23.991  24.881  1.00  0.00    -0.342 N 
ATOM     10  C   UNL A   1      31.308  22.549  24.858  1.00  0.00     0.120 C 
ATOM     11  C   UNL A   1      32.711  24.433  24.205  1.00  0.00     0.120 C 
ATOM     12  C   UNL A   1      32.463  21.838  25.546  1.00  0.00     0.026 C 
ATOM     13  C   UNL A   1      33.938  23.770  24.845  1.00  0.00     0.026 C 
BRANCH   7  14
ATOM     14  C   UNL A   1      30.213  26.148  25.279  1.00  0.00     0.133 C 
BRANCH  14  15
ATOM     15  C   UNL A   1      31.178  27.334  25.414  1.00  0.00     0.022 C 
BRANCH  15  16
ATOM     16  C   UNL A   1      32.118  27.286  26.642  1.00  0.00    -0.016 C 
ATOM     17  C   UNL A   1      33.581  27.565  26.298  1.00  0.00     0.007 C 
ATOM     18  C   UNL A   1      31.637  28.290  27.695  1.00  0.00     0.007 C 
ENDBRANCH  15  16
ENDBRANCH  14  15
BRANCH  14  19
ATOM     19  C   UNL A   1      29.492  26.041  23.922  1.00  0.00     0.272 C 
BRANCH  19  20
ATOM     20  N   UNL A   1      28.054  26.298  23.965  1.00  0.00    -0.357 N 
ATOM     21  H   UNL A   1      27.775  26.506  24.924  1.00  0.00     0.344 HD
ATOM     22  H   UNL A   1      27.551  25.475  23.634  1.00  0.00     0.344 HD
ATOM     23  H   UNL A   1      27.834  27.095  23.367  1.00  0.00     0.344 HD
ENDBRANCH  19  20
ENDBRANCH  14  19
ENDBRANCH   7  14
ENDBRANCH   5   6
ENDBRANCH   3   5
ENDBRANCH   2   3
ENDBRANCH   1   2
BRANCH   1  24
ATOM     24  C   UNL A   1      39.634  22.537  26.730  1.00  0.00     0.275 C 
BRANCH  24  25
ATOM     25  O   UNL A   1      39.698  23.953  26.480  1.00  0.00    -0.458 OA
BRANCH  25  26
ATOM     26  C   UNL A   1      40.886  24.536  26.766  1.00  0.00     0.338 C 
ATOM     27  O   UNL A   1      41.967  24.295  26.258  1.00  0.00    -0.246 OA
BRANCH  26  28
ATOM     28  C   UNL A   1      40.676  25.627  27.731  1.00  0.00     0.060 A 
ATOM     29  C   UNL A   1      41.647  26.628  27.824  1.00  0.00     0.016 A 
ATOM     30  C   UNL A   1      39.572  25.624  28.586  1.00  0.00     0.016 A 
ATOM     31  C   UNL A   1      41.521  27.632  28.783  1.00  0.00     0.010 A 
ATOM     32  C   UNL A   1      39.448  26.632  29.547  1.00  0.00     0.010 A 
ATOM     33  C   UNL A   1      40.429  27.633  29.662  1.00  0.00    -0.014 A 
BRANCH  33  34
ATOM     34  C   UNL A   1      40.342  28.655  30.732  1.00  0.00     0.031 A 
ATOM     35  C   UNL A   1      41.246  28.561  31.929  1.00  0.00     0.074 A 
ATOM     36  C   UNL A   1      39.462  29.669  30.626  1.00  0.00     0.049 A 
ATOM     37  N   UNL A   1      41.291  29.321  32.993  1.00  0.00    -0.248 NA
ATOM     38  C   UNL A   1      42.228  27.465  31.930  1.00  0.00     0.031 C 
ATOM     39  C   UNL A   1      38.549  29.878  29.503  1.00  0.00     0.029 A 
ATOM     40  N   UNL A   1      39.190  30.709  31.479  1.00  0.00    -0.354 N 
ATOM     41  C   UNL A   1      42.292  28.790  33.798  1.00  0.00     0.074 A 
ATOM     42  C   UNL A   1      42.817  27.630  33.106  1.00  0.00     0.031 C 
ATOM     43  C   UNL A   1      37.815  30.979  29.737  1.00  0.00     0.029 A 
ATOM     44  C   UNL A   1      38.181  31.532  31.038  1.00  0.00     0.049 A 
ATOM     45  H   UNL A   1      39.672  30.853  32.325  1.00  0.00     0.167 HD
ATOM     46  C   UNL A   1      42.737  29.231  35.000  1.00  0.00     0.037 A 
ATOM     47  C   UNL A   1      37.606  32.598  31.627  1.00  0.00     0.037 A 
ATOM     48  C   UNL A   1      42.219  30.390  35.679  1.00  0.00     0.049 A 
ATOM     49  C   UNL A   1      38.096  33.052  32.975  1.00  0.00     0.074 A 
ATOM     50  C   UNL A   1      42.614  30.926  36.893  1.00  0.00     0.029 A 
ATOM     51  N   UNL A   1      41.192  31.194  35.205  1.00  0.00    -0.354 N 
ATOM     52  N   UNL A   1      39.050  32.544  33.719  1.00  0.00    -0.248 NA
ATOM     53  C   UNL A   1      37.433  34.224  33.564  1.00  0.00     0.031 C 
ATOM     54  C   UNL A   1      41.805  32.034  37.168  1.00  0.00     0.029 A 
ATOM     55  C   UNL A   1      40.931  32.212  36.107  1.00  0.00     0.049 A 
ATOM     56  H   UNL A   1      40.718  31.060  34.353  1.00  0.00     0.167 HD
ATOM     57  C   UNL A   1      39.115  33.346  34.853  1.00  0.00     0.074 A 
ATOM     58  C   UNL A   1      38.113  34.379  34.693  1.00  0.00     0.031 C 
ATOM     59  C   UNL A   1      39.931  33.235  35.931  1.00  0.00     0.037 A 
BRANCH  46  60
ATOM     60  C   UNL A   1      43.826  28.440  35.667  1.00  0.00     0.058 A 
ATOM     61  C   UNL A   1      43.538  27.407  36.572  1.00  0.00     0.135 A 
ATOM     62  C   UNL A   1      45.174  28.702  35.378  1.00  0.00     0.135 A 
ATOM     63  F   UNL A   1      42.265  27.127  36.897  1.00  0.00    -0.206 F 
ATOM     64  C   UNL A   1      44.550  26.677  37.188  1.00  0.00     0.059 A 
ATOM     65  C   UNL A   1      46.203  27.970  35.965  1.00  0.00     0.059 A 
ATOM     66  F   UNL A   1      45.504  29.680  34.520  1.00  0.00    -0.206 F 
ATOM     67  C   UNL A   1      45.880  26.970  36.881  1.00  0.00     0.060 A 
BRANCH  67  68
ATOM     68  S   UNL A   1      47.185  26.020  37.691  1.00  0.00     0.124 S 
ATOM     69  O   UNL A   1      47.862  25.421  36.546  1.00  0.00    -0.237 OA
ATOM     70  O   UNL A   1      47.933  27.053  38.400  1.00  0.00    -0.237 OA
ATOM     71  O   UNL A   1      46.448  25.089  38.541  1.00  0.00    -0.744 OA
ENDBRANCH  67  68
ENDBRANCH  46  60
BRANCH  47  72
ATOM     72  C   UNL A   1      36.492  33.307  30.944  1.00  0.00     0.058 A 
ATOM     73  C   UNL A   1      35.173  33.196  31.405  1.00  0.00     0.135 A 
ATOM     74  C   UNL A   1      36.729  34.118  29.823  1.00  0.00     0.135 A 
ATOM     75  F   UNL A   1      34.897  32.424  32.468  1.00  0.00    -0.206 F 
ATOM     76  C   UNL A   1      34.124  33.856  30.775  1.00  0.00     0.059 A 
ATOM     77  C   UNL A   1      35.700  34.806  29.188  1.00  0.00     0.059 A 
ATOM     78  F   UNL A   1      37.977  34.264  29.350  1.00  0.00    -0.206 F 
ATOM     79  C   UNL A   1      34.397  34.661  29.667  1.00  0.00     0.060 A 
BRANCH  79  80
ATOM     80  S   UNL A   1      33.039  35.560  28.886  1.00  0.00     0.124 S 
ATOM     81  O   UNL A   1      32.402  34.505  28.105  1.00  0.00    -0.237 OA
ATOM     82  O   UNL A   1      32.286  36.044  30.038  1.00  0.00    -0.237 OA
ATOM     83  O   UNL A   1      33.723  36.593  28.115  1.00  0.00    -0.744 OA
ENDBRANCH  79  80
ENDBRANCH  47  72
BRANCH  59  84
ATOM     84  C   UNL A   1      39.794  34.276  37.006  1.00  0.00     0.058 A 
ATOM     85  C   UNL A   1      39.093  34.019  38.194  1.00  0.00     0.135 A 
ATOM     86  C   UNL A   1      40.401  35.534  36.860  1.00  0.00     0.135 A 
ATOM     87  F   UNL A   1      38.490  32.834  38.381  1.00  0.00    -0.206 F 
ATOM     88  C   UNL A   1      38.976  34.982  39.191  1.00  0.00     0.059 A 
ATOM     89  C   UNL A   1      40.316  36.505  37.853  1.00  0.00     0.059 A 
ATOM     90  F   UNL A   1      41.092  35.826  35.747  1.00  0.00    -0.206 F 
ATOM     91  C   UNL A   1      39.589  36.224  39.010  1.00  0.00     0.060 A 
BRANCH  91  92
ATOM     92  S   UNL A   1      39.452  37.463  40.318  1.00  0.00     0.124 S 
ATOM     93  O   UNL A   1      38.737  38.534  39.632  1.00  0.00    -0.237 OA
ATOM     94  O   UNL A   1      38.695  36.754  41.345  1.00  0.00    -0.237 OA
ATOM     95  O   UNL A   1      40.841  37.749  40.659  1.00  0.00    -0.744 OA
ENDBRANCH  91  92
ENDBRANCH  59  84
ENDBRANCH  33  34
ENDBRANCH  26  28
ENDBRANCH  25  26
ENDBRANCH  24  25
ENDBRANCH   1  24
TORSDOF 20
ENDMDL
MODEL 2
REMARK VINA RESULT:     -10.6      1.279      2.253
REMARK SMILES CC(C)C[C@@H](C[NH3+])C(=O)N1CCC(CC(=O)OCCOC(=O)c2ccc(-c3c4nc(c(-c5c(F)cc(S(=O)(=O)[O-])cc5F)c5ccc([nH]5)c(-c5c(F)cc(S(=O)(=O)[O-])cc5F)c5nc(c(-c6c(F)cc(S(=O)(=O)[O-])cc6F)c6ccc3[nH]6)C=C5)C=C4)cc2)CC1
REMARK SMILES IDX 18 1 17 2 15 3 16 4 14 5 13 6 8 7 9 8 10 9 11 10 90 11 12 12
REMARK SMILES IDX 89 13 5 14 4 15 2 16 1 17 3 18 6 19 7 20 19 24 20 25 21 26
REMARK SMILES IDX 22 27 23 28 24 29 88 30 25 31 87 32 26 33 27 34 28 35 81 36
REMARK SMILES IDX 29 37 86 38 80 39 82 40 30 41 85 42 79 43 78 44 31 46 65 47
REMARK SMILES IDX 44 48 64 49 45 50 48 51 63 52 83 53 46 54 47 55 62 57 84 58
REMARK SMILES IDX 49 59 32 60 33 61 42 62 34 63 35 64 41 65 43 66 36 67 37 68
REMARK SMILES IDX 38 69 39 70 40 71 66 72 67 73 76 74 68 75 69 76 75 77 77 78
REMARK SMILES IDX 70 79 71 80 72 81 73 82 74 83 50 84 51 85 60 86 52 87 53 88
REMARK SMILES IDX 59 89 61 90 54 91 55 92 56 93 57 94 58 95
REMARK H PARENT 7 21 7 22 7 23 82 45 48 56
REMARK Flexibility Score: inf
ROOT
ATOM      1  C   UNL A   1      39.707  21.571  26.216  1.00  0.00     0.274 C 
ENDROOT
BRANCH   1   2
ATOM      2  O   UNL A   1      38.416  22.133  25.914  1.00  0.00    -0.462 OA
BRANCH   2   3
ATOM      3  C   UNL A   1      37.677  21.492  24.975  1.00  0.00     0.306 C 
ATOM      4  O   UNL A   1      37.672  20.281  24.798  1.00  0.00    -0.252 OA
BRANCH   3   5
ATOM      5  C   UNL A   1      36.896  22.449  24.098  1.00  0.00     0.126 C 
BRANCH   5   6
ATOM      6  C   UNL A   1      35.496  22.834  24.611  1.00  0.00     0.003 C 
ATOM      7  C   UNL A   1      32.946  25.990  24.150  1.00  0.00     0.231 C 
ATOM      8  O   UNL A   1      33.667  26.964  24.416  1.00  0.00    -0.274 OA
ATOM      9  N   UNL A   1      33.293  24.728  24.586  1.00  0.00    -0.342 N 
ATOM     10  C   UNL A   1      34.125  24.609  25.773  1.00  0.00     0.120 C 
ATOM     11  C   UNL A   1      33.136  23.482  23.850  1.00  0.00     0.120 C 
ATOM     12  C   UNL A   1      35.529  24.152  25.407  1.00  0.00     0.026 C 
ATOM     13  C   UNL A   1      34.512  22.949  23.428  1.00  0.00     0.026 C 
BRANCH   7  14
ATOM     14  C   UNL A   1      31.563  26.269  23.535  1.00  0.00     0.133 C 
BRANCH  14  15
ATOM     15  C   UNL A   1      30.654  27.309  24.202  1.00  0.00     0.022 C 
BRANCH  15  16
ATOM     16  C   UNL A   1      29.910  28.257  23.232  1.00  0.00    -0.016 C 
ATOM     17  C   UNL A   1      28.406  27.992  23.157  1.00  0.00     0.007 C 
ATOM     18  C   UNL A   1      30.154  29.711  23.650  1.00  0.00     0.007 C 
ENDBRANCH  15  16
ENDBRANCH  14  15
BRANCH  14  19
ATOM     19  C   UNL A   1      31.712  26.411  22.008  1.00  0.00     0.272 C 
BRANCH  19  20
ATOM     20  N   UNL A   1      33.048  26.786  21.550  1.00  0.00    -0.357 N 
ATOM     21  H   UNL A   1      33.747  26.263  22.078  1.00  0.00     0.344 HD
ATOM     22  H   UNL A   1      33.189  27.785  21.694  1.00  0.00     0.344 HD
ATOM     23  H   UNL A   1      33.140  26.569  20.557  1.00  0.00     0.344 HD
ENDBRANCH  19  20
ENDBRANCH  14  19
ENDBRANCH   7  14
ENDBRANCH   5   6
ENDBRANCH   3   5
ENDBRANCH   2   3
ENDBRANCH   1   2
BRANCH   1  24
ATOM     24  C   UNL A   1      40.709  22.657  26.608  1.00  0.00     0.275 C 
BRANCH  24  25
ATOM     25  O   UNL A   1      40.115  23.966  26.530  1.00  0.00    -0.458 OA
BRANCH  25  26
ATOM     26  C   UNL A   1      40.983  24.981  26.308  1.00  0.00     0.338 C 
ATOM     27  O   UNL A   1      41.612  25.203  25.289  1.00  0.00    -0.246 OA
BRANCH  26  28
ATOM     28  C   UNL A   1      40.981  25.889  27.466  1.00  0.00     0.060 A 
ATOM     29  C   UNL A   1      39.911  25.821  28.363  1.00  0.00     0.016 A 
ATOM     30  C   UNL A   1      41.985  26.846  27.627  1.00  0.00     0.016 A 
ATOM     31  C   UNL A   1      39.836  26.719  29.425  1.00  0.00     0.010 A 
ATOM     32  C   UNL A   1      41.907  27.747  28.694  1.00  0.00     0.010 A 
ATOM     33  C   UNL A   1      40.825  27.699  29.591  1.00  0.00    -0.014 A 
BRANCH  33  34
ATOM     34  C   UNL A   1      40.697  28.704  30.673  1.00  0.00     0.031 A 
ATOM     35  C   UNL A   1      41.596  28.624  31.876  1.00  0.00     0.074 A 
ATOM     36  C   UNL A   1      39.785  29.689  30.574  1.00  0.00     0.049 A 
ATOM     37  N   UNL A   1      41.608  29.371  32.949  1.00  0.00    -0.248 NA
ATOM     38  C   UNL A   1      42.613  27.561  31.870  1.00  0.00     0.031 C 
ATOM     39  C   UNL A   1      38.873  29.882  29.447  1.00  0.00     0.029 A 
ATOM     40  N   UNL A   1      39.474  30.709  31.438  1.00  0.00    -0.354 N 
ATOM     41  C   UNL A   1      42.621  28.863  33.754  1.00  0.00     0.074 A 
ATOM     42  C   UNL A   1      43.189  27.730  33.052  1.00  0.00     0.031 C 
ATOM     43  C   UNL A   1      38.101  30.956  29.689  1.00  0.00     0.029 A 
ATOM     44  C   UNL A   1      38.441  31.504  31.000  1.00  0.00     0.049 A 
ATOM     45  H   UNL A   1      39.944  30.858  32.289  1.00  0.00     0.167 HD
ATOM     46  C   UNL A   1      43.043  29.303  34.965  1.00  0.00     0.037 A 
ATOM     47  C   UNL A   1      37.827  32.543  31.598  1.00  0.00     0.037 A 
ATOM     48  C   UNL A   1      42.482  30.436  35.655  1.00  0.00     0.049 A 
ATOM     49  C   UNL A   1      38.293  32.995  32.955  1.00  0.00     0.074 A 
ATOM     50  C   UNL A   1      42.852  30.969  36.878  1.00  0.00     0.029 A 
ATOM     51  N   UNL A   1      41.433  31.212  35.184  1.00  0.00    -0.354 N 
ATOM     52  N   UNL A   1      39.258  32.509  33.700  1.00  0.00    -0.248 NA
ATOM     53  C   UNL A   1      37.587  34.137  33.554  1.00  0.00     0.031 C 
ATOM     54  C   UNL A   1      42.005  32.046  37.161  1.00  0.00     0.029 A 
ATOM     55  C   UNL A   1      41.133  32.209  36.097  1.00  0.00     0.049 A 
ATOM     56  H   UNL A   1      40.969  31.073  34.326  1.00  0.00     0.167 HD
ATOM     57  C   UNL A   1      39.289  33.298  34.844  1.00  0.00     0.074 A 
ATOM     58  C   UNL A   1      38.254  34.300  34.689  1.00  0.00     0.031 C 
ATOM     59  C   UNL A   1      40.101  33.201  35.926  1.00  0.00     0.037 A 
BRANCH  46  60
ATOM     60  C   UNL A   1      44.153  28.540  35.630  1.00  0.00     0.058 A 
ATOM     61  C   UNL A   1      45.502  28.855  35.403  1.00  0.00     0.135 A 
ATOM     62  C   UNL A   1      43.864  27.499  36.525  1.00  0.00     0.135 A 
ATOM     63  F   UNL A   1      45.834  29.830  34.542  1.00  0.00    -0.206 F 
ATOM     64  C   UNL A   1      46.527  28.145  36.021  1.00  0.00     0.059 A 
ATOM     65  C   UNL A   1      44.872  26.790  37.172  1.00  0.00     0.059 A 
ATOM     66  F   UNL A   1      42.590  27.157  36.776  1.00  0.00    -0.206 F 
ATOM     67  C   UNL A   1      46.202  27.111  36.901  1.00  0.00     0.060 A 
BRANCH  67  68
ATOM     68  S   UNL A   1      47.541  26.194  37.693  1.00  0.00     0.124 S 
ATOM     69  O   UNL A   1      48.704  26.985  37.304  1.00  0.00    -0.237 OA
ATOM     70  O   UNL A   1      47.175  26.258  39.105  1.00  0.00    -0.237 OA
ATOM     71  O   UNL A   1      47.450  24.870  37.085  1.00  0.00    -0.744 OA
ENDBRANCH  67  68
ENDBRANCH  46  60
BRANCH  47  72
ATOM     72  C   UNL A   1      36.695  33.223  30.916  1.00  0.00     0.058 A 
ATOM     73  C   UNL A   1      36.920  34.133  29.874  1.00  0.00     0.135 A 
ATOM     74  C   UNL A   1      35.366  32.967  31.287  1.00  0.00     0.135 A 
ATOM     75  F   UNL A   1      38.174  34.418  29.491  1.00  0.00    -0.206 F 
ATOM     76  C   UNL A   1      35.868  34.774  29.227  1.00  0.00     0.059 A 
ATOM     77  C   UNL A   1      34.296  33.578  30.641  1.00  0.00     0.059 A 
ATOM     78  F   UNL A   1      35.099  32.095  32.273  1.00  0.00    -0.206 F 
ATOM     79  C   UNL A   1      34.558  34.488  29.617  1.00  0.00     0.060 A 
BRANCH  79  80
ATOM     80  S   UNL A   1      33.195  35.281  28.738  1.00  0.00     0.124 S 
ATOM     81  O   UNL A   1      32.566  34.139  28.082  1.00  0.00    -0.237 OA
ATOM     82  O   UNL A   1      32.435  35.889  29.826  1.00  0.00    -0.237 OA
ATOM     83  O   UNL A   1      33.871  36.224  27.853  1.00  0.00    -0.744 OA
ENDBRANCH  79  80
ENDBRANCH  47  72
BRANCH  59  84
ATOM     84  C   UNL A   1      39.922  34.223  37.013  1.00  0.00     0.058 A 
ATOM     85  C   UNL A   1      40.553  35.475  36.959  1.00  0.00     0.135 A 
ATOM     86  C   UNL A   1      39.081  33.958  38.106  1.00  0.00     0.135 A 
ATOM     87  F   UNL A   1      41.371  35.775  35.937  1.00  0.00    -0.206 F 
ATOM     88  C   UNL A   1      40.378  36.421  37.963  1.00  0.00     0.059 A 
ATOM     89  C   UNL A   1      38.874  34.898  39.111  1.00  0.00     0.059 A 
ATOM     90  F   UNL A   1      38.446  32.780  38.201  1.00  0.00    -0.206 F 
ATOM     91  C   UNL A   1      39.538  36.122  39.038  1.00  0.00     0.060 A 
BRANCH  91  92
ATOM     92  S   UNL A   1      39.298  37.364  40.327  1.00  0.00     0.124 S 
ATOM     93  O   UNL A   1      38.488  38.358  39.629  1.00  0.00    -0.237 OA
ATOM     94  O   UNL A   1      38.612  36.608  41.370  1.00  0.00    -0.237 OA
ATOM     95  O   UNL A   1      40.658  37.778  40.654  1.00  0.00    -0.744 OA
ENDBRANCH  91  92
ENDBRANCH  59  84
ENDBRANCH  33  34
ENDBRANCH  26  28
ENDBRANCH  25  26
ENDBRANCH  24  25
ENDBRANCH   1  24
TORSDOF 20
ENDMDL
MODEL 3
REMARK VINA RESULT:     -10.5      4.816     10.625
REMARK SMILES CC(C)C[C@@H](C[NH3+])C(=O)N1CCC(CC(=O)OCCOC(=O)c2ccc(-c3c4nc(c(-c5c(F)cc(S(=O)(=O)[O-])cc5F)c5ccc([nH]5)c(-c5c(F)cc(S(=O)(=O)[O-])cc5F)c5nc(c(-c6c(F)cc(S(=O)(=O)[O-])cc6F)c6ccc3[nH]6)C=C5)C=C4)cc2)CC1
REMARK SMILES IDX 18 1 17 2 15 3 16 4 14 5 13 6 8 7 9 8 10 9 11 10 90 11 12 12
REMARK SMILES IDX 89 13 5 14 4 15 2 16 1 17 3 18 6 19 7 20 19 24 20 25 21 26
REMARK SMILES IDX 22 27 23 28 24 29 88 30 25 31 87 32 26 33 27 34 28 35 81 36
REMARK SMILES IDX 29 37 86 38 80 39 82 40 30 41 85 42 79 43 78 44 31 46 65 47
REMARK SMILES IDX 44 48 64 49 45 50 48 51 63 52 83 53 46 54 47 55 62 57 84 58
REMARK SMILES IDX 49 59 32 60 33 61 42 62 34 63 35 64 41 65 43 66 36 67 37 68
REMARK SMILES IDX 38 69 39 70 40 71 66 72 67 73 76 74 68 75 69 76 75 77 77 78
REMARK SMILES IDX 70 79 71 80 72 81 73 82 74 83 50 84 51 85 60 86 52 87 53 88
REMARK SMILES IDX 59 89 61 90 54 91 55 92 56 93 57 94 58 95
REMARK H PARENT 7 21 7 22 7 23 82 45 48 56
REMARK Flexibility Score: inf
ROOT
ATOM      1  C   UNL A   1      31.785  29.141  26.147  1.00  0.00     0.274 C 
ENDROOT
BRANCH   1   2
ATOM      2  O   UNL A   1      32.468  29.547  24.947  1.00  0.00    -0.462 OA
BRANCH   2   3
ATOM      3  C   UNL A   1      32.127  28.903  23.804  1.00  0.00     0.306 C 
ATOM      4  O   UNL A   1      31.042  29.001  23.245  1.00  0.00    -0.252 OA
BRANCH   3   5
ATOM      5  C   UNL A   1      33.217  27.973  23.314  1.00  0.00     0.126 C 
BRANCH   5   6
ATOM      6  C   UNL A   1      32.954  26.470  23.518  1.00  0.00     0.003 C 
ATOM      7  C   UNL A   1      35.216  23.075  23.715  1.00  0.00     0.231 C 
ATOM      8  O   UNL A   1      35.903  23.146  22.686  1.00  0.00    -0.274 OA
ATOM      9  N   UNL A   1      34.042  23.792  23.817  1.00  0.00    -0.342 N 
ATOM     10  C   UNL A   1      33.338  24.149  22.596  1.00  0.00     0.120 C 
ATOM     11  C   UNL A   1      33.538  24.466  25.005  1.00  0.00     0.120 C 
ATOM     12  C   UNL A   1      33.454  25.641  22.320  1.00  0.00     0.026 C 
ATOM     13  C   UNL A   1      33.627  25.987  24.820  1.00  0.00     0.026 C 
BRANCH   7  14
ATOM     14  C   UNL A   1      35.588  22.002  24.754  1.00  0.00     0.133 C 
BRANCH  14  15
ATOM     15  C   UNL A   1      34.818  20.675  24.753  1.00  0.00     0.022 C 
BRANCH  15  16
ATOM     16  C   UNL A   1      33.713  20.551  25.828  1.00  0.00    -0.016 C 
ATOM     17  C   UNL A   1      33.959  21.426  27.057  1.00  0.00     0.007 C 
ATOM     18  C   UNL A   1      32.356  20.904  25.211  1.00  0.00     0.007 C 
ENDBRANCH  15  16
ENDBRANCH  14  15
BRANCH  14  19
ATOM     19  C   UNL A   1      37.122  21.870  24.812  1.00  0.00     0.272 C 
BRANCH  19  20
ATOM     20  N   UNL A   1      37.845  23.130  24.970  1.00  0.00    -0.357 N 
ATOM     21  H   UNL A   1      37.234  23.819  25.409  1.00  0.00     0.344 HD
ATOM     22  H   UNL A   1      38.140  23.470  24.055  1.00  0.00     0.344 HD
ATOM     23  H   UNL A   1      38.664  22.980  25.558  1.00  0.00     0.344 HD
ENDBRANCH  19  20
ENDBRANCH  14  19
ENDBRANCH   7  14
ENDBRANCH   5   6
ENDBRANCH   3   5
ENDBRANCH   2   3
ENDBRANCH   1   2
BRANCH   1  24
ATOM     24  C   UNL A   1      32.770  28.666  27.216  1.00  0.00     0.275 C 
BRANCH  24  25
ATOM     25  O   UNL A   1      34.095  29.168  26.962  1.00  0.00    -0.458 OA
BRANCH  25  26
ATOM     26  C   UNL A   1      34.497  30.173  27.774  1.00  0.00     0.338 C 
ATOM     27  O   UNL A   1      33.814  31.077  28.222  1.00  0.00    -0.246 OA
BRANCH  26  28
ATOM     28  C   UNL A   1      35.903  29.962  28.155  1.00  0.00     0.060 A 
ATOM     29  C   UNL A   1      36.879  30.031  27.157  1.00  0.00     0.016 A 
ATOM     30  C   UNL A   1      36.247  29.628  29.466  1.00  0.00     0.016 A 
ATOM     31  C   UNL A   1      38.210  29.757  27.467  1.00  0.00     0.010 A 
ATOM     32  C   UNL A   1      37.582  29.353  29.775  1.00  0.00     0.010 A 
ATOM     33  C   UNL A   1      38.570  29.401  28.775  1.00  0.00    -0.014 A 
BRANCH  33  34
ATOM     34  C   UNL A   1      39.973  29.030  29.081  1.00  0.00     0.031 A 
ATOM     35  C   UNL A   1      40.885  30.032  29.732  1.00  0.00     0.074 A 
ATOM     36  C   UNL A   1      40.423  27.796  28.786  1.00  0.00     0.049 A 
ATOM     37  N   UNL A   1      42.153  29.922  30.033  1.00  0.00    -0.248 NA
ATOM     38  C   UNL A   1      40.291  31.331  30.088  1.00  0.00     0.031 C 
ATOM     39  C   UNL A   1      39.627  26.732  28.174  1.00  0.00     0.029 A 
ATOM     40  N   UNL A   1      41.663  27.233  28.957  1.00  0.00    -0.354 N 
ATOM     41  C   UNL A   1      42.515  31.139  30.600  1.00  0.00     0.074 A 
ATOM     42  C   UNL A   1      41.336  31.980  30.583  1.00  0.00     0.031 C 
ATOM     43  C   UNL A   1      40.400  25.644  28.019  1.00  0.00     0.029 A 
ATOM     44  C   UNL A   1      41.750  25.944  28.488  1.00  0.00     0.049 A 
ATOM     45  H   UNL A   1      42.418  27.706  29.375  1.00  0.00     0.167 HD
ATOM     46  C   UNL A   1      43.719  31.518  31.093  1.00  0.00     0.037 A 
ATOM     47  C   UNL A   1      42.805  25.108  28.425  1.00  0.00     0.037 A 
ATOM     48  C   UNL A   1      44.887  30.676  31.117  1.00  0.00     0.049 A 
ATOM     49  C   UNL A   1      44.139  25.562  28.953  1.00  0.00     0.074 A 
ATOM     50  C   UNL A   1      46.148  30.964  31.611  1.00  0.00     0.029 A 
ATOM     51  N   UNL A   1      44.939  29.379  30.626  1.00  0.00    -0.354 N 
ATOM     52  N   UNL A   1      44.464  26.713  29.493  1.00  0.00    -0.248 NA
ATOM     53  C   UNL A   1      45.251  24.605  28.862  1.00  0.00     0.031 C 
ATOM     54  C   UNL A   1      46.971  29.854  31.389  1.00  0.00     0.029 A 
ATOM     55  C   UNL A   1      46.212  28.860  30.793  1.00  0.00     0.049 A 
ATOM     56  H   UNL A   1      44.182  28.898  30.220  1.00  0.00     0.167 HD
ATOM     57  C   UNL A   1      45.810  26.610  29.826  1.00  0.00     0.074 A 
ATOM     58  C   UNL A   1      46.237  25.281  29.437  1.00  0.00     0.031 C 
ATOM     59  C   UNL A   1      46.620  27.533  30.402  1.00  0.00     0.037 A 
BRANCH  46  60
ATOM     60  C   UNL A   1      43.838  32.917  31.629  1.00  0.00     0.058 A 
ATOM     61  C   UNL A   1      43.593  33.212  32.979  1.00  0.00     0.135 A 
ATOM     62  C   UNL A   1      44.226  33.971  30.787  1.00  0.00     0.135 A 
ATOM     63  F   UNL A   1      43.202  32.244  33.823  1.00  0.00    -0.206 F 
ATOM     64  C   UNL A   1      43.705  34.509  33.470  1.00  0.00     0.059 A 
ATOM     65  C   UNL A   1      44.365  35.272  31.261  1.00  0.00     0.059 A 
ATOM     66  F   UNL A   1      44.470  33.742  29.487  1.00  0.00    -0.206 F 
ATOM     67  C   UNL A   1      44.087  35.534  32.602  1.00  0.00     0.060 A 
BRANCH  67  68
ATOM     68  S   UNL A   1      44.221  37.213  33.251  1.00  0.00     0.124 S 
ATOM     69  O   UNL A   1      43.056  37.281  34.126  1.00  0.00    -0.237 OA
ATOM     70  O   UNL A   1      45.517  37.188  33.922  1.00  0.00    -0.237 OA
ATOM     71  O   UNL A   1      44.156  38.045  32.053  1.00  0.00    -0.744 OA
ENDBRANCH  67  68
ENDBRANCH  46  60
BRANCH  47  72
ATOM     72  C   UNL A   1      42.641  23.756  27.832  1.00  0.00     0.058 A 
ATOM     73  C   UNL A   1      42.676  23.566  26.443  1.00  0.00     0.135 A 
ATOM     74  C   UNL A   1      42.459  22.625  28.644  1.00  0.00     0.135 A 
ATOM     75  F   UNL A   1      42.838  24.618  25.626  1.00  0.00    -0.206 F 
ATOM     76  C   UNL A   1      42.526  22.305  25.877  1.00  0.00     0.059 A 
ATOM     77  C   UNL A   1      42.328  21.351  28.103  1.00  0.00     0.059 A 
ATOM     78  F   UNL A   1      42.429  22.755  29.980  1.00  0.00    -0.206 F 
ATOM     79  C   UNL A   1      42.354  21.201  26.716  1.00  0.00     0.060 A 
BRANCH  79  80
ATOM     80  S   UNL A   1      42.214  19.559  25.978  1.00  0.00     0.124 S 
ATOM     81  O   UNL A   1      40.808  19.531  25.589  1.00  0.00    -0.237 OA
ATOM     82  O   UNL A   1      43.178  19.628  24.884  1.00  0.00    -0.237 OA
ATOM     83  O   UNL A   1      42.585  18.668  27.073  1.00  0.00    -0.744 OA
ENDBRANCH  79  80
ENDBRANCH  47  72
BRANCH  59  84
ATOM     84  C   UNL A   1      48.041  27.127  30.672  1.00  0.00     0.058 A 
ATOM     85  C   UNL A   1      49.085  27.475  29.802  1.00  0.00     0.135 A 
ATOM     86  C   UNL A   1      48.367  26.410  31.835  1.00  0.00     0.135 A 
ATOM     87  F   UNL A   1      48.825  28.156  28.674  1.00  0.00    -0.206 F 
ATOM     88  C   UNL A   1      50.401  27.105  30.061  1.00  0.00     0.059 A 
ATOM     89  C   UNL A   1      49.679  26.049  32.126  1.00  0.00     0.059 A 
ATOM     90  F   UNL A   1      47.407  26.062  32.706  1.00  0.00    -0.206 F 
ATOM     91  C   UNL A   1      50.688  26.389  31.225  1.00  0.00     0.060 A 
BRANCH  91  92
ATOM     92  S   UNL A   1      52.401  25.930  31.565  1.00  0.00     0.124 S 
ATOM     93  O   UNL A   1      52.248  24.559  32.041  1.00  0.00    -0.237 OA
ATOM     94  O   UNL A   1      53.034  26.081  30.258  1.00  0.00    -0.237 OA
ATOM     95  O   UNL A   1      52.817  26.903  32.571  1.00  0.00    -0.744 OA
ENDBRANCH  91  92
ENDBRANCH  59  84
ENDBRANCH  33  34
ENDBRANCH  26  28
ENDBRANCH  25  26
ENDBRANCH  24  25
ENDBRANCH   1  24
TORSDOF 20
ENDMDL
