MODEL 1
REMARK VINA RESULT:     -11.4      0.000      0.000
REMARK SMILES COc1ccccc1C(=O)Nc1sc2c(c1C(=O)OCCOC(=O)c1ccc(-c3c4nc(c(-c5c(F)cc(S(=O)(=O)[O-])cc5F)c5ccc([nH]5)c(-c5c(F)cc(S(=O)(=O)[O-])cc5F)c5nc(c(-c6c(F)cc(S(=O)(=O)[O-])cc6F)c6ccc3[nH]6)C=C5)C=C4)cc1)CCCC2
REMARK SMILES IDX 20 1 19 2 17 3 18 4 16 5 12 6 13 7 14 8 15 9 94 10 91 11
REMARK SMILES IDX 93 12 92 13 11 14 9 15 10 16 8 18 3 19 4 20 5 21 7 22 6 23
REMARK SMILES IDX 2 24 1 25 21 26 22 27 23 28 24 29 25 30 26 31 90 32 27 33
REMARK SMILES IDX 89 34 28 35 29 36 30 37 83 38 31 39 88 40 82 41 84 42 32 43
REMARK SMILES IDX 87 44 81 45 80 46 33 48 67 49 46 50 66 51 47 52 50 53 65 54
REMARK SMILES IDX 85 55 48 56 49 57 64 59 86 60 51 61 34 62 35 63 44 64 36 65
REMARK SMILES IDX 37 66 43 67 45 68 38 69 39 70 40 71 41 72 42 73 68 74 69 75
REMARK SMILES IDX 78 76 70 77 71 78 77 79 79 80 72 81 73 82 74 83 75 84 76 85
REMARK SMILES IDX 52 86 53 87 62 88 54 89 55 90 61 91 63 92 56 93 57 94 58 95
REMARK SMILES IDX 59 96 60 97
REMARK H PARENT 11 17 84 47 50 58
REMARK Flexibility Score: inf
ROOT
ATOM      1  C   UNL A   1      33.724  27.567  25.874  1.00  0.00     0.275 C 
ENDROOT
BRANCH   1   2
ATOM      2  O   UNL A   1      33.816  26.153  26.146  1.00  0.00    -0.458 OA
BRANCH   2   3
ATOM      3  C   UNL A   1      33.947  25.337  25.059  1.00  0.00     0.341 C 
ATOM      4  O   UNL A   1      33.873  25.733  23.901  1.00  0.00    -0.246 OA
BRANCH   3   5
ATOM      5  C   UNL A   1      34.123  23.926  25.400  1.00  0.00     0.098 A 
ATOM      6  C   UNL A   1      33.449  23.283  26.428  1.00  0.00     0.110 A 
ATOM      7  S   UNL A   1      33.873  21.652  26.615  1.00  0.00    -0.122 S 
ATOM      8  C   UNL A   1      35.172  21.842  25.538  1.00  0.00     0.011 A 
ATOM      9  C   UNL A   1      35.151  23.057  24.876  1.00  0.00    -0.017 A 
ATOM     10  C   UNL A   1      36.229  20.796  25.386  1.00  0.00     0.047 C 
ATOM     11  C   UNL A   1      36.214  23.440  23.887  1.00  0.00     0.038 C 
ATOM     12  C   UNL A   1      37.489  21.427  24.773  1.00  0.00     0.006 C 
ATOM     13  C   UNL A   1      37.140  22.267  23.538  1.00  0.00     0.005 C 
BRANCH   6  14
ATOM     14  N   UNL A   1      32.418  23.738  27.218  1.00  0.00    -0.313 N 
ATOM     15  C   UNL A   1      31.120  23.828  26.747  1.00  0.00     0.260 C 
ATOM     16  O   UNL A   1      30.189  23.413  27.440  1.00  0.00    -0.269 OA
ATOM     17  H   UNL A   1      32.609  24.006  28.146  1.00  0.00     0.171 HD
BRANCH  15  18
ATOM     18  C   UNL A   1      30.758  24.543  25.513  1.00  0.00     0.082 A 
ATOM     19  C   UNL A   1      30.713  23.978  24.237  1.00  0.00     0.131 A 
ATOM     20  C   UNL A   1      30.342  24.769  23.145  1.00  0.00     0.047 A 
ATOM     21  C   UNL A   1      29.914  26.084  23.338  1.00  0.00     0.004 A 
ATOM     22  C   UNL A   1      30.299  25.858  25.704  1.00  0.00     0.018 A 
ATOM     23  C   UNL A   1      29.870  26.623  24.621  1.00  0.00     0.001 A 
BRANCH  19  24
ATOM     24  O   UNL A   1      31.043  22.680  23.955  1.00  0.00    -0.496 OA
ATOM     25  C   UNL A   1      32.010  22.601  22.908  1.00  0.00     0.278 C 
ENDBRANCH  19  24
ENDBRANCH  15  18
ENDBRANCH   6  14
ENDBRANCH   3   5
ENDBRANCH   2   3
ENDBRANCH   1   2
BRANCH   1  26
ATOM     26  C   UNL A   1      32.966  28.299  26.980  1.00  0.00     0.275 C 
BRANCH  26  27
ATOM     27  O   UNL A   1      33.886  28.702  28.006  1.00  0.00    -0.458 OA
BRANCH  27  28
ATOM     28  C   UNL A   1      34.446  29.927  27.865  1.00  0.00     0.338 C 
ATOM     29  O   UNL A   1      33.888  30.962  27.567  1.00  0.00    -0.246 OA
BRANCH  28  30
ATOM     30  C   UNL A   1      35.882  29.843  28.203  1.00  0.00     0.060 A 
ATOM     31  C   UNL A   1      36.816  30.092  27.207  1.00  0.00     0.016 A 
ATOM     32  C   UNL A   1      36.309  29.389  29.451  1.00  0.00     0.016 A 
ATOM     33  C   UNL A   1      38.149  29.767  27.412  1.00  0.00     0.010 A 
ATOM     34  C   UNL A   1      37.681  29.196  29.691  1.00  0.00     0.010 A 
ATOM     35  C   UNL A   1      38.620  29.349  28.656  1.00  0.00    -0.014 A 
BRANCH  35  36
ATOM     36  C   UNL A   1      40.072  29.022  28.806  1.00  0.00     0.031 A 
ATOM     37  C   UNL A   1      41.001  30.013  29.454  1.00  0.00     0.074 A 
ATOM     38  C   UNL A   1      40.549  27.801  28.475  1.00  0.00     0.049 A 
ATOM     39  N   UNL A   1      42.308  30.003  29.520  1.00  0.00    -0.248 NA
ATOM     40  C   UNL A   1      40.378  31.166  30.122  1.00  0.00     0.031 C 
ATOM     41  C   UNL A   1      39.750  26.676  27.982  1.00  0.00     0.029 A 
ATOM     42  N   UNL A   1      41.821  27.281  28.551  1.00  0.00    -0.354 N 
ATOM     43  C   UNL A   1      42.665  31.184  30.161  1.00  0.00     0.074 A 
ATOM     44  C   UNL A   1      41.435  31.874  30.489  1.00  0.00     0.031 C 
ATOM     45  C   UNL A   1      40.524  25.586  27.889  1.00  0.00     0.029 A 
ATOM     46  C   UNL A   1      41.903  25.962  28.165  1.00  0.00     0.049 A 
ATOM     47  H   UNL A   1      42.599  27.803  28.852  1.00  0.00     0.167 HD
ATOM     48  C   UNL A   1      43.908  31.654  30.432  1.00  0.00     0.037 A 
ATOM     49  C   UNL A   1      42.969  25.156  27.991  1.00  0.00     0.037 A 
ATOM     50  C   UNL A   1      45.119  30.928  30.153  1.00  0.00     0.049 A 
ATOM     51  C   UNL A   1      44.341  25.731  28.188  1.00  0.00     0.074 A 
ATOM     52  C   UNL A   1      46.430  31.324  30.350  1.00  0.00     0.029 A 
ATOM     53  N   UNL A   1      45.167  29.642  29.630  1.00  0.00    -0.354 N 
ATOM     54  N   UNL A   1      44.681  26.909  28.653  1.00  0.00    -0.248 NA
ATOM     55  C   UNL A   1      45.476  24.889  27.786  1.00  0.00     0.031 C 
ATOM     56  C   UNL A   1      47.270  30.298  29.901  1.00  0.00     0.029 A 
ATOM     57  C   UNL A   1      46.483  29.241  29.469  1.00  0.00     0.049 A 
ATOM     58  H   UNL A   1      44.379  29.096  29.404  1.00  0.00     0.167 HD
ATOM     59  C   UNL A   1      46.069  26.952  28.599  1.00  0.00     0.074 A 
ATOM     60  C   UNL A   1      46.506  25.673  28.077  1.00  0.00     0.031 C 
ATOM     61  C   UNL A   1      46.902  27.965  28.944  1.00  0.00     0.037 A 
BRANCH  48  62
ATOM     62  C   UNL A   1      44.008  33.059  30.961  1.00  0.00     0.058 A 
ATOM     63  C   UNL A   1      43.973  34.190  30.131  1.00  0.00     0.135 A 
ATOM     64  C   UNL A   1      44.177  33.267  32.341  1.00  0.00     0.135 A 
ATOM     65  F   UNL A   1      43.832  34.051  28.804  1.00  0.00    -0.206 F 
ATOM     66  C   UNL A   1      44.153  35.473  30.644  1.00  0.00     0.059 A 
ATOM     67  C   UNL A   1      44.331  34.540  32.879  1.00  0.00     0.059 A 
ATOM     68  F   UNL A   1      44.216  32.221  33.182  1.00  0.00    -0.206 F 
ATOM     69  C   UNL A   1      44.345  35.636  32.018  1.00  0.00     0.060 A 
BRANCH  69  70
ATOM     70  S   UNL A   1      44.636  37.295  32.668  1.00  0.00     0.124 S 
ATOM     71  O   UNL A   1      45.629  37.030  33.706  1.00  0.00    -0.237 OA
ATOM     72  O   UNL A   1      45.123  38.013  31.495  1.00  0.00    -0.237 OA
ATOM     73  O   UNL A   1      43.322  37.708  33.150  1.00  0.00    -0.744 OA
ENDBRANCH  69  70
ENDBRANCH  48  62
BRANCH  49  74
ATOM     74  C   UNL A   1      42.778  23.752  27.527  1.00  0.00     0.058 A 
ATOM     75  C   UNL A   1      42.597  22.705  28.442  1.00  0.00     0.135 A 
ATOM     76  C   UNL A   1      42.745  23.432  26.158  1.00  0.00     0.135 A 
ATOM     77  F   UNL A   1      42.643  22.949  29.760  1.00  0.00    -0.206 F 
ATOM     78  C   UNL A   1      42.377  21.396  28.019  1.00  0.00     0.059 A 
ATOM     79  C   UNL A   1      42.495  22.140  25.711  1.00  0.00     0.059 A 
ATOM     80  F   UNL A   1      42.920  24.394  25.238  1.00  0.00    -0.206 F 
ATOM     81  C   UNL A   1      42.317  21.125  26.650  1.00  0.00     0.060 A 
BRANCH  81  82
ATOM     82  S   UNL A   1      41.957  19.440  26.108  1.00  0.00     0.124 S 
ATOM     83  O   UNL A   1      42.396  18.661  27.261  1.00  0.00    -0.237 OA
ATOM     84  O   UNL A   1      40.516  19.488  25.882  1.00  0.00    -0.237 OA
ATOM     85  O   UNL A   1      42.768  19.294  24.903  1.00  0.00    -0.744 OA
ENDBRANCH  81  82
ENDBRANCH  49  74
BRANCH  61  86
ATOM     86  C   UNL A   1      48.376  27.723  28.785  1.00  0.00     0.058 A 
ATOM     87  C   UNL A   1      49.120  27.047  29.764  1.00  0.00     0.135 A 
ATOM     88  C   UNL A   1      49.041  28.127  27.616  1.00  0.00     0.135 A 
ATOM     89  F   UNL A   1      48.534  26.651  30.905  1.00  0.00    -0.206 F 
ATOM     90  C   UNL A   1      50.477  26.794  29.597  1.00  0.00     0.059 A 
ATOM     91  C   UNL A   1      50.391  27.862  27.417  1.00  0.00     0.059 A 
ATOM     92  F   UNL A   1      48.372  28.771  26.646  1.00  0.00    -0.206 F 
ATOM     93  C   UNL A   1      51.104  27.202  28.417  1.00  0.00     0.060 A 
BRANCH  93  94
ATOM     94  S   UNL A   1      52.856  26.828  28.193  1.00  0.00     0.124 S 
ATOM     95  O   UNL A   1      53.253  26.458  29.547  1.00  0.00    -0.237 OA
ATOM     96  O   UNL A   1      52.822  25.739  27.222  1.00  0.00    -0.237 OA
ATOM     97  O   UNL A   1      53.410  28.085  27.698  1.00  0.00    -0.744 OA
ENDBRANCH  93  94
ENDBRANCH  61  86
ENDBRANCH  35  36
ENDBRANCH  28  30
ENDBRANCH  27  28
ENDBRANCH  26  27
ENDBRANCH   1  26
TORSDOF 17
ENDMDL
MODEL 2
REMARK VINA RESULT:     -11.2      3.760      9.518
REMARK SMILES COc1ccccc1C(=O)Nc1sc2c(c1C(=O)OCCOC(=O)c1ccc(-c3c4nc(c(-c5c(F)cc(S(=O)(=O)[O-])cc5F)c5ccc([nH]5)c(-c5c(F)cc(S(=O)(=O)[O-])cc5F)c5nc(c(-c6c(F)cc(S(=O)(=O)[O-])cc6F)c6ccc3[nH]6)C=C5)C=C4)cc1)CCCC2
REMARK SMILES IDX 20 1 19 2 17 3 18 4 16 5 12 6 13 7 14 8 15 9 94 10 91 11
REMARK SMILES IDX 93 12 92 13 11 14 9 15 10 16 8 18 3 19 4 20 5 21 7 22 6 23
REMARK SMILES IDX 2 24 1 25 21 26 22 27 23 28 24 29 25 30 26 31 90 32 27 33
REMARK SMILES IDX 89 34 28 35 29 36 30 37 83 38 31 39 88 40 82 41 84 42 32 43
REMARK SMILES IDX 87 44 81 45 80 46 33 48 67 49 46 50 66 51 47 52 50 53 65 54
REMARK SMILES IDX 85 55 48 56 49 57 64 59 86 60 51 61 34 62 35 63 44 64 36 65
REMARK SMILES IDX 37 66 43 67 45 68 38 69 39 70 40 71 41 72 42 73 68 74 69 75
REMARK SMILES IDX 78 76 70 77 71 78 77 79 79 80 72 81 73 82 74 83 75 84 76 85
REMARK SMILES IDX 52 86 53 87 62 88 54 89 55 90 61 91 63 92 56 93 57 94 58 95
REMARK SMILES IDX 59 96 60 97
REMARK H PARENT 11 17 84 47 50 58
REMARK Flexibility Score: inf
ROOT
ATOM      1  C   UNL A   1      35.837  23.616  23.457  1.00  0.00     0.275 C 
ENDROOT
BRANCH   1   2
ATOM      2  O   UNL A   1      34.730  24.144  24.219  1.00  0.00    -0.458 OA
BRANCH   2   3
ATOM      3  C   UNL A   1      33.537  24.239  23.562  1.00  0.00     0.341 C 
ATOM      4  O   UNL A   1      33.310  23.696  22.487  1.00  0.00    -0.246 OA
BRANCH   3   5
ATOM      5  C   UNL A   1      32.566  25.105  24.229  1.00  0.00     0.098 A 
ATOM      6  C   UNL A   1      31.298  24.698  24.619  1.00  0.00     0.110 A 
ATOM      7  S   UNL A   1      30.376  25.922  25.345  1.00  0.00    -0.122 S 
ATOM      8  C   UNL A   1      31.521  27.090  24.888  1.00  0.00     0.011 A 
ATOM      9  C   UNL A   1      32.688  26.535  24.393  1.00  0.00    -0.017 A 
ATOM     10  C   UNL A   1      31.237  28.553  24.987  1.00  0.00     0.047 C 
ATOM     11  C   UNL A   1      33.830  27.385  23.917  1.00  0.00     0.038 C 
ATOM     12  C   UNL A   1      32.192  29.324  24.063  1.00  0.00     0.006 C 
ATOM     13  C   UNL A   1      33.642  28.868  24.265  1.00  0.00     0.005 C 
BRANCH   6  14
ATOM     14  N   UNL A   1      30.742  23.439  24.613  1.00  0.00    -0.313 N 
ATOM     15  C   UNL A   1      30.911  22.560  25.668  1.00  0.00     0.260 C 
ATOM     16  O   UNL A   1      29.941  21.940  26.107  1.00  0.00    -0.269 OA
ATOM     17  H   UNL A   1      30.207  23.157  23.837  1.00  0.00     0.171 HD
BRANCH  15  18
ATOM     18  C   UNL A   1      32.230  22.195  26.209  1.00  0.00     0.082 A 
ATOM     19  C   UNL A   1      33.182  21.411  25.555  1.00  0.00     0.131 A 
ATOM     20  C   UNL A   1      34.405  21.147  26.180  1.00  0.00     0.047 A 
ATOM     21  C   UNL A   1      34.719  21.747  27.401  1.00  0.00     0.004 A 
ATOM     22  C   UNL A   1      32.564  22.819  27.424  1.00  0.00     0.018 A 
ATOM     23  C   UNL A   1      33.808  22.603  28.014  1.00  0.00     0.001 A 
BRANCH  19  24
ATOM     24  O   UNL A   1      32.999  20.838  24.326  1.00  0.00    -0.496 OA
ATOM     25  C   UNL A   1      32.528  19.496  24.439  1.00  0.00     0.278 C 
ENDBRANCH  19  24
ENDBRANCH  15  18
ENDBRANCH   6  14
ENDBRANCH   3   5
ENDBRANCH   2   3
ENDBRANCH   1   2
BRANCH   1  26
ATOM     26  C   UNL A   1      36.799  22.829  24.345  1.00  0.00     0.275 C 
BRANCH  26  27
ATOM     27  O   UNL A   1      37.560  23.740  25.153  1.00  0.00    -0.458 OA
BRANCH  27  28
ATOM     28  C   UNL A   1      38.631  23.220  25.800  1.00  0.00     0.338 C 
ATOM     29  O   UNL A   1      39.095  22.106  25.678  1.00  0.00    -0.246 OA
BRANCH  28  30
ATOM     30  C   UNL A   1      39.225  24.261  26.663  1.00  0.00     0.060 A 
ATOM     31  C   UNL A   1      38.914  24.263  28.015  1.00  0.00     0.016 A 
ATOM     32  C   UNL A   1      39.972  25.310  26.126  1.00  0.00     0.016 A 
ATOM     33  C   UNL A   1      39.232  25.364  28.797  1.00  0.00     0.010 A 
ATOM     34  C   UNL A   1      40.409  26.354  26.962  1.00  0.00     0.010 A 
ATOM     35  C   UNL A   1      40.011  26.412  28.308  1.00  0.00    -0.014 A 
BRANCH  35  36
ATOM     36  C   UNL A   1      40.320  27.563  29.210  1.00  0.00     0.031 A 
ATOM     37  C   UNL A   1      41.649  27.628  29.915  1.00  0.00     0.074 A 
ATOM     38  C   UNL A   1      39.475  28.613  29.317  1.00  0.00     0.049 A 
ATOM     39  N   UNL A   1      42.044  28.435  30.867  1.00  0.00    -0.248 NA
ATOM     40  C   UNL A   1      42.671  26.660  29.490  1.00  0.00     0.031 C 
ATOM     41  C   UNL A   1      38.220  28.777  28.579  1.00  0.00     0.029 A 
ATOM     42  N   UNL A   1      39.565  29.771  30.055  1.00  0.00    -0.354 N 
ATOM     43  C   UNL A   1      43.326  28.020  31.210  1.00  0.00     0.074 A 
ATOM     44  C   UNL A   1      43.653  26.906  30.345  1.00  0.00     0.031 C 
ATOM     45  C   UNL A   1      37.712  29.992  28.827  1.00  0.00     0.029 A 
ATOM     46  C   UNL A   1      38.514  30.636  29.857  1.00  0.00     0.049 A 
ATOM     47  H   UNL A   1      40.312  29.962  30.667  1.00  0.00     0.167 HD
ATOM     48  C   UNL A   1      44.143  28.514  32.172  1.00  0.00     0.037 A 
ATOM     49  C   UNL A   1      38.190  31.791  30.472  1.00  0.00     0.037 A 
ATOM     50  C   UNL A   1      43.826  29.660  32.984  1.00  0.00     0.049 A 
ATOM     51  C   UNL A   1      39.048  32.260  31.611  1.00  0.00     0.074 A 
ATOM     52  C   UNL A   1      44.562  30.222  34.012  1.00  0.00     0.029 A 
ATOM     53  N   UNL A   1      42.680  30.433  32.846  1.00  0.00    -0.354 N 
ATOM     54  N   UNL A   1      40.190  31.775  32.036  1.00  0.00    -0.248 NA
ATOM     55  C   UNL A   1      38.549  33.401  32.390  1.00  0.00     0.031 C 
ATOM     56  C   UNL A   1      43.839  31.304  34.528  1.00  0.00     0.029 A 
ATOM     57  C   UNL A   1      42.674  31.448  33.789  1.00  0.00     0.049 A 
ATOM     58  H   UNL A   1      41.974  30.280  32.178  1.00  0.00     0.167 HD
ATOM     59  C   UNL A   1      40.547  32.549  33.133  1.00  0.00     0.074 A 
ATOM     60  C   UNL A   1      39.511  33.550  33.292  1.00  0.00     0.031 C 
ATOM     61  C   UNL A   1      41.632  32.434  33.938  1.00  0.00     0.037 A 
BRANCH  48  62
ATOM     62  C   UNL A   1      45.403  27.744  32.462  1.00  0.00     0.058 A 
ATOM     63  C   UNL A   1      46.656  28.112  31.948  1.00  0.00     0.135 A 
ATOM     64  C   UNL A   1      45.337  26.585  33.256  1.00  0.00     0.135 A 
ATOM     65  F   UNL A   1      46.775  29.198  31.169  1.00  0.00    -0.206 F 
ATOM     66  C   UNL A   1      47.789  27.330  32.167  1.00  0.00     0.059 A 
ATOM     67  C   UNL A   1      46.460  25.805  33.510  1.00  0.00     0.059 A 
ATOM     68  F   UNL A   1      44.166  26.188  33.776  1.00  0.00    -0.206 F 
ATOM     69  C   UNL A   1      47.677  26.171  32.939  1.00  0.00     0.060 A 
BRANCH  69  70
ATOM     70  S   UNL A   1      49.136  25.133  33.169  1.00  0.00     0.124 S 
ATOM     71  O   UNL A   1      50.014  26.028  33.919  1.00  0.00    -0.237 OA
ATOM     72  O   UNL A   1      48.602  23.999  33.917  1.00  0.00    -0.237 OA
ATOM     73  O   UNL A   1      49.561  24.836  31.806  1.00  0.00    -0.744 OA
ENDBRANCH  69  70
ENDBRANCH  48  62
BRANCH  49  74
ATOM     74  C   UNL A   1      36.956  32.529  30.079  1.00  0.00     0.058 A 
ATOM     75  C   UNL A   1      35.724  32.254  30.687  1.00  0.00     0.135 A 
ATOM     76  C   UNL A   1      36.989  33.544  29.106  1.00  0.00     0.135 A 
ATOM     77  F   UNL A   1      35.629  31.279  31.604  1.00  0.00    -0.206 F 
ATOM     78  C   UNL A   1      34.572  32.965  30.357  1.00  0.00     0.059 A 
ATOM     79  C   UNL A   1      35.861  34.290  28.783  1.00  0.00     0.059 A 
ATOM     80  F   UNL A   1      38.142  33.846  28.487  1.00  0.00    -0.206 F 
ATOM     81  C   UNL A   1      34.653  33.989  29.411  1.00  0.00     0.060 A 
BRANCH  81  82
ATOM     82  S   UNL A   1      33.173  34.957  29.041  1.00  0.00     0.124 S 
ATOM     83  O   UNL A   1      32.492  34.096  28.081  1.00  0.00    -0.237 OA
ATOM     84  O   UNL A   1      32.543  35.072  30.354  1.00  0.00    -0.237 OA
ATOM     85  O   UNL A   1      33.711  36.202  28.502  1.00  0.00    -0.744 OA
ENDBRANCH  81  82
ENDBRANCH  49  74
BRANCH  61  86
ATOM     86  C   UNL A   1      41.763  33.428  35.056  1.00  0.00     0.058 A 
ATOM     87  C   UNL A   1      42.367  34.680  34.860  1.00  0.00     0.135 A 
ATOM     88  C   UNL A   1      41.234  33.145  36.325  1.00  0.00     0.135 A 
ATOM     89  F   UNL A   1      42.899  34.994  33.668  1.00  0.00    -0.206 F 
ATOM     90  C   UNL A   1      42.454  35.612  35.888  1.00  0.00     0.059 A 
ATOM     91  C   UNL A   1      41.288  34.072  37.361  1.00  0.00     0.059 A 
ATOM     92  F   UNL A   1      40.641  31.964  36.562  1.00  0.00    -0.206 F 
ATOM     93  C   UNL A   1      41.908  35.300  37.135  1.00  0.00     0.060 A 
BRANCH  93  94
ATOM     94  S   UNL A   1      41.989  36.535  38.449  1.00  0.00     0.124 S 
ATOM     95  O   UNL A   1      42.321  35.711  39.607  1.00  0.00    -0.237 OA
ATOM     96  O   UNL A   1      43.047  37.424  37.979  1.00  0.00    -0.237 OA
ATOM     97  O   UNL A   1      40.649  37.114  38.454  1.00  0.00    -0.744 OA
ENDBRANCH  93  94
ENDBRANCH  61  86
ENDBRANCH  35  36
ENDBRANCH  28  30
ENDBRANCH  27  28
ENDBRANCH  26  27
ENDBRANCH   1  26
TORSDOF 17
ENDMDL
MODEL 3
REMARK VINA RESULT:     -11.2      3.991      9.743
REMARK SMILES COc1ccccc1C(=O)Nc1sc2c(c1C(=O)OCCOC(=O)c1ccc(-c3c4nc(c(-c5c(F)cc(S(=O)(=O)[O-])cc5F)c5ccc([nH]5)c(-c5c(F)cc(S(=O)(=O)[O-])cc5F)c5nc(c(-c6c(F)cc(S(=O)(=O)[O-])cc6F)c6ccc3[nH]6)C=C5)C=C4)cc1)CCCC2
REMARK SMILES IDX 20 1 19 2 17 3 18 4 16 5 12 6 13 7 14 8 15 9 94 10 91 11
REMARK SMILES IDX 93 12 92 13 11 14 9 15 10 16 8 18 3 19 4 20 5 21 7 22 6 23
REMARK SMILES IDX 2 24 1 25 21 26 22 27 23 28 24 29 25 30 26 31 90 32 27 33
REMARK SMILES IDX 89 34 28 35 29 36 30 37 83 38 31 39 88 40 82 41 84 42 32 43
REMARK SMILES IDX 87 44 81 45 80 46 33 48 67 49 46 50 66 51 47 52 50 53 65 54
REMARK SMILES IDX 85 55 48 56 49 57 64 59 86 60 51 61 34 62 35 63 44 64 36 65
REMARK SMILES IDX 37 66 43 67 45 68 38 69 39 70 40 71 41 72 42 73 68 74 69 75
REMARK SMILES IDX 78 76 70 77 71 78 77 79 79 80 72 81 73 82 74 83 75 84 76 85
REMARK SMILES IDX 52 86 53 87 62 88 54 89 55 90 61 91 63 92 56 93 57 94 58 95
REMARK SMILES IDX 59 96 60 97
REMARK H PARENT 11 17 84 47 50 58
REMARK Flexibility Score: inf
ROOT
ATOM      1  C   UNL A   1      35.566  23.918  25.716  1.00  0.00     0.275 C 
ENDROOT
BRANCH   1   2
ATOM      2  O   UNL A   1      34.985  25.110  25.145  1.00  0.00    -0.458 OA
BRANCH   2   3
ATOM      3  C   UNL A   1      33.717  25.416  25.547  1.00  0.00     0.341 C 
ATOM      4  O   UNL A   1      33.048  24.698  26.281  1.00  0.00    -0.246 OA
BRANCH   3   5
ATOM      5  C   UNL A   1      33.199  26.655  24.968  1.00  0.00     0.098 A 
ATOM      6  C   UNL A   1      33.397  27.041  23.651  1.00  0.00     0.110 A 
ATOM      7  S   UNL A   1      32.706  28.541  23.263  1.00  0.00    -0.122 S 
ATOM      8  C   UNL A   1      32.390  28.847  24.903  1.00  0.00     0.011 A 
ATOM      9  C   UNL A   1      32.598  27.740  25.707  1.00  0.00    -0.017 A 
ATOM     10  C   UNL A   1      31.976  30.199  25.387  1.00  0.00     0.047 C 
ATOM     11  C   UNL A   1      32.392  27.790  27.194  1.00  0.00     0.038 C 
ATOM     12  C   UNL A   1      32.257  30.311  26.894  1.00  0.00     0.006 C 
ATOM     13  C   UNL A   1      31.716  29.091  27.648  1.00  0.00     0.005 C 
BRANCH   6  14
ATOM     14  N   UNL A   1      33.954  26.340  22.606  1.00  0.00    -0.313 N 
ATOM     15  C   UNL A   1      33.278  25.313  21.971  1.00  0.00     0.260 C 
ATOM     16  O   UNL A   1      33.267  25.259  20.740  1.00  0.00    -0.269 OA
ATOM     17  H   UNL A   1      34.860  26.576  22.300  1.00  0.00     0.171 HD
BRANCH  15  18
ATOM     18  C   UNL A   1      32.688  24.172  22.688  1.00  0.00     0.082 A 
ATOM     19  C   UNL A   1      31.373  24.102  23.151  1.00  0.00     0.131 A 
ATOM     20  C   UNL A   1      30.934  22.950  23.811  1.00  0.00     0.047 A 
ATOM     21  C   UNL A   1      31.767  21.834  23.915  1.00  0.00     0.004 A 
ATOM     22  C   UNL A   1      33.511  23.035  22.770  1.00  0.00     0.018 A 
ATOM     23  C   UNL A   1      33.049  21.867  23.373  1.00  0.00     0.001 A 
BRANCH  19  24
ATOM     24  O   UNL A   1      30.458  25.113  23.034  1.00  0.00    -0.496 OA
ATOM     25  C   UNL A   1      29.946  25.506  24.307  1.00  0.00     0.278 C 
ENDBRANCH  19  24
ENDBRANCH  15  18
ENDBRANCH   6  14
ENDBRANCH   3   5
ENDBRANCH   2   3
ENDBRANCH   1   2
BRANCH   1  26
ATOM     26  C   UNL A   1      36.646  23.334  24.807  1.00  0.00     0.275 C 
BRANCH  26  27
ATOM     27  O   UNL A   1      37.885  24.024  25.032  1.00  0.00    -0.458 OA
BRANCH  27  28
ATOM     28  C   UNL A   1      38.750  23.439  25.896  1.00  0.00     0.338 C 
ATOM     29  O   UNL A   1      39.083  22.273  25.930  1.00  0.00    -0.246 OA
BRANCH  28  30
ATOM     30  C   UNL A   1      39.310  24.473  26.791  1.00  0.00     0.060 A 
ATOM     31  C   UNL A   1      38.956  24.456  28.132  1.00  0.00     0.016 A 
ATOM     32  C   UNL A   1      40.067  25.533  26.291  1.00  0.00     0.016 A 
ATOM     33  C   UNL A   1      39.242  25.549  28.938  1.00  0.00     0.010 A 
ATOM     34  C   UNL A   1      40.470  26.569  27.153  1.00  0.00     0.010 A 
ATOM     35  C   UNL A   1      40.029  26.607  28.486  1.00  0.00    -0.014 A 
BRANCH  35  36
ATOM     36  C   UNL A   1      40.302  27.749  29.412  1.00  0.00     0.031 A 
ATOM     37  C   UNL A   1      41.604  27.809  30.166  1.00  0.00     0.074 A 
ATOM     38  C   UNL A   1      39.451  28.795  29.500  1.00  0.00     0.049 A 
ATOM     39  N   UNL A   1      41.962  28.606  31.141  1.00  0.00    -0.248 NA
ATOM     40  C   UNL A   1      42.645  26.848  29.767  1.00  0.00     0.031 C 
ATOM     41  C   UNL A   1      38.223  28.965  28.719  1.00  0.00     0.029 A 
ATOM     42  N   UNL A   1      39.512  29.945  30.254  1.00  0.00    -0.354 N 
ATOM     43  C   UNL A   1      43.233  28.190  31.525  1.00  0.00     0.074 A 
ATOM     44  C   UNL A   1      43.594  27.087  30.660  1.00  0.00     0.031 C 
ATOM     45  C   UNL A   1      37.703  30.176  28.962  1.00  0.00     0.029 A 
ATOM     46  C   UNL A   1      38.465  30.811  30.027  1.00  0.00     0.049 A 
ATOM     47  H   UNL A   1      40.235  30.131  30.895  1.00  0.00     0.167 HD
ATOM     48  C   UNL A   1      44.012  28.675  32.522  1.00  0.00     0.037 A 
ATOM     49  C   UNL A   1      38.117  31.958  30.644  1.00  0.00     0.037 A 
ATOM     50  C   UNL A   1      43.664  29.811  33.334  1.00  0.00     0.049 A 
ATOM     51  C   UNL A   1      38.931  32.416  31.818  1.00  0.00     0.074 A 
ATOM     52  C   UNL A   1      44.360  30.363  34.394  1.00  0.00     0.029 A 
ATOM     53  N   UNL A   1      42.521  30.583  33.164  1.00  0.00    -0.354 N 
ATOM     54  N   UNL A   1      40.058  31.928  32.279  1.00  0.00    -0.248 NA
ATOM     55  C   UNL A   1      38.401  33.546  32.591  1.00  0.00     0.031 C 
ATOM     56  C   UNL A   1      43.616  31.437  34.896  1.00  0.00     0.029 A 
ATOM     57  C   UNL A   1      42.478  31.587  34.117  1.00  0.00     0.049 A 
ATOM     58  H   UNL A   1      41.840  30.436  32.468  1.00  0.00     0.167 HD
ATOM     59  C   UNL A   1      40.374  32.691  33.397  1.00  0.00     0.074 A 
ATOM     60  C   UNL A   1      39.329  33.687  33.530  1.00  0.00     0.031 C 
ATOM     61  C   UNL A   1      41.428  32.569  34.239  1.00  0.00     0.037 A 
BRANCH  48  62
ATOM     62  C   UNL A   1      45.264  27.905  32.848  1.00  0.00     0.058 A 
ATOM     63  C   UNL A   1      45.278  26.810  33.725  1.00  0.00     0.135 A 
ATOM     64  C   UNL A   1      46.488  28.307  32.284  1.00  0.00     0.135 A 
ATOM     65  F   UNL A   1      44.143  26.394  34.307  1.00  0.00    -0.206 F 
ATOM     66  C   UNL A   1      46.468  26.172  34.070  1.00  0.00     0.059 A 
ATOM     67  C   UNL A   1      47.684  27.667  32.593  1.00  0.00     0.059 A 
ATOM     68  F   UNL A   1      46.533  29.347  31.437  1.00  0.00    -0.206 F 
ATOM     69  C   UNL A   1      47.667  26.617  33.508  1.00  0.00     0.060 A 
BRANCH  69  70
ATOM     70  S   UNL A   1      49.211  25.824  34.006  1.00  0.00     0.124 S 
ATOM     71  O   UNL A   1      49.579  25.114  32.784  1.00  0.00    -0.237 OA
ATOM     72  O   UNL A   1      50.054  26.963  34.353  1.00  0.00    -0.237 OA
ATOM     73  O   UNL A   1      48.814  24.978  35.126  1.00  0.00    -0.744 OA
ENDBRANCH  69  70
ENDBRANCH  48  62
BRANCH  49  74
ATOM     74  C   UNL A   1      36.895  32.697  30.215  1.00  0.00     0.058 A 
ATOM     75  C   UNL A   1      35.649  32.437  30.800  1.00  0.00     0.135 A 
ATOM     76  C   UNL A   1      36.955  33.698  29.229  1.00  0.00     0.135 A 
ATOM     77  F   UNL A   1      35.529  31.476  31.728  1.00  0.00    -0.206 F 
ATOM     78  C   UNL A   1      34.508  33.151  30.436  1.00  0.00     0.059 A 
ATOM     79  C   UNL A   1      35.839  34.445  28.872  1.00  0.00     0.059 A 
ATOM     80  F   UNL A   1      38.122  33.984  28.630  1.00  0.00    -0.206 F 
ATOM     81  C   UNL A   1      34.616  34.161  29.478  1.00  0.00     0.060 A 
BRANCH  81  82
ATOM     82  S   UNL A   1      33.150  35.131  29.064  1.00  0.00     0.124 S 
ATOM     83  O   UNL A   1      33.746  36.345  28.517  1.00  0.00    -0.237 OA
ATOM     84  O   UNL A   1      32.467  34.267  28.105  1.00  0.00    -0.237 OA
ATOM     85  O   UNL A   1      32.474  35.284  30.349  1.00  0.00    -0.744 OA
ENDBRANCH  81  82
ENDBRANCH  49  74
BRANCH  61  86
ATOM     86  C   UNL A   1      41.516  33.551  35.372  1.00  0.00     0.058 A 
ATOM     87  C   UNL A   1      42.202  34.768  35.239  1.00  0.00     0.135 A 
ATOM     88  C   UNL A   1      40.864  33.293  36.589  1.00  0.00     0.135 A 
ATOM     89  F   UNL A   1      42.853  35.056  34.101  1.00  0.00    -0.206 F 
ATOM     90  C   UNL A   1      42.251  35.689  36.280  1.00  0.00     0.059 A 
ATOM     91  C   UNL A   1      40.878  34.212  37.633  1.00  0.00     0.059 A 
ATOM     92  F   UNL A   1      40.188  32.146  36.764  1.00  0.00    -0.206 F 
ATOM     93  C   UNL A   1      41.582  35.404  37.471  1.00  0.00     0.060 A 
BRANCH  93  94
ATOM     94  S   UNL A   1      41.617  36.629  38.798  1.00  0.00     0.124 S 
ATOM     95  O   UNL A   1      42.718  37.487  38.378  1.00  0.00    -0.237 OA
ATOM     96  O   UNL A   1      40.284  37.218  38.714  1.00  0.00    -0.237 OA
ATOM     97  O   UNL A   1      41.866  35.827  39.993  1.00  0.00    -0.744 OA
ENDBRANCH  93  94
ENDBRANCH  61  86
ENDBRANCH  35  36
ENDBRANCH  28  30
ENDBRANCH  27  28
ENDBRANCH  26  27
ENDBRANCH   1  26
TORSDOF 17
ENDMDL
