MODEL 1
REMARK VINA RESULT:     -12.8      0.000      0.000
REMARK SMILES Cc1ccc2oc(-c3ccc4c(c3)OCO4)c/c(=N\[C@H](C)C(=O)OCCOC(=O)c3ccc(-c4c5nc(c(-c6c(F)cc(S(=O)(=O)[O-])cc6F)c6ccc([nH]6)c(-c6c(F)cc(S(=O)(=O)[O-])cc6F)c6nc(c(-c7c(F)cc(S(=O)(=O)[O-])cc7F)c7ccc4[nH]7)C=C6)C=C5)cc3)c2c1
REMARK SMILES IDX 26 1 25 2 24 3 22 4 23 5 20 6 21 7 19 8 1 9 2 10 3 11 97 12
REMARK SMILES IDX 4 13 96 14 5 15 18 16 6 17 17 18 7 19 8 20 9 21 13 22 10 23
REMARK SMILES IDX 12 24 11 25 14 26 16 27 15 28 27 29 28 30 29 31 30 32 31 33
REMARK SMILES IDX 95 34 32 35 94 36 33 37 34 38 35 39 88 40 36 41 93 42 87 43
REMARK SMILES IDX 89 44 37 45 92 46 86 47 85 48 38 50 72 51 51 52 71 53 52 54
REMARK SMILES IDX 55 55 70 56 90 57 53 58 54 59 69 61 91 62 56 63 39 64 40 65
REMARK SMILES IDX 49 66 41 67 42 68 48 69 50 70 43 71 44 72 45 73 46 74 47 75
REMARK SMILES IDX 73 76 74 77 83 78 75 79 76 80 82 81 84 82 77 83 78 84 79 85
REMARK SMILES IDX 80 86 81 87 57 88 58 89 67 90 59 91 60 92 66 93 68 94 61 95
REMARK SMILES IDX 62 96 63 97 64 98 65 99
REMARK H PARENT 89 49 55 60
REMARK Flexibility Score: inf
ROOT
ATOM      1  C   UNL A   1      41.990  23.103  26.193  1.00  0.00     0.275 C 
ENDROOT
BRANCH   1   2
ATOM      2  C   UNL A   1      41.240  21.767  26.224  1.00  0.00     0.274 C 
BRANCH   2   3
ATOM      3  O   UNL A   1      39.883  21.962  26.649  1.00  0.00    -0.460 OA
BRANCH   3   4
ATOM      4  C   UNL A   1      38.937  21.266  25.962  1.00  0.00     0.330 C 
ATOM      5  O   UNL A   1      39.112  20.149  25.483  1.00  0.00    -0.250 OA
BRANCH   4   6
ATOM      6  C   UNL A   1      37.607  22.018  25.871  1.00  0.00     0.212 C 
ATOM      7  C   UNL A   1      37.660  23.308  25.050  1.00  0.00     0.046 C 
BRANCH   6   8
ATOM      8  N   UNL A   1      36.611  21.077  25.342  1.00  0.00    -0.270 NA
ATOM      9  C   UNL A   1      34.234  16.709  23.917  1.00  0.00     0.044 C 
ATOM     10  C   UNL A   1      33.852  18.151  24.080  1.00  0.00    -0.050 A 
ATOM     11  C   UNL A   1      32.597  18.613  23.658  1.00  0.00     0.007 A 
ATOM     12  C   UNL A   1      34.760  19.061  24.625  1.00  0.00     0.017 A 
ATOM     13  C   UNL A   1      32.238  19.957  23.822  1.00  0.00     0.048 A 
ATOM     14  C   UNL A   1      34.400  20.404  24.783  1.00  0.00     0.043 A 
ATOM     15  C   UNL A   1      33.134  20.849  24.406  1.00  0.00     0.136 A 
ATOM     16  C   UNL A   1      35.362  21.377  25.339  1.00  0.00     0.073 A 
ATOM     17  O   UNL A   1      32.722  22.148  24.589  1.00  0.00    -0.456 OA
ATOM     18  C   UNL A   1      34.750  22.637  25.809  1.00  0.00     0.076 A 
ATOM     19  C   UNL A   1      33.521  22.950  25.383  1.00  0.00     0.136 A 
BRANCH  19  20
ATOM     20  C   UNL A   1      32.962  24.253  25.748  1.00  0.00     0.021 A 
ATOM     21  C   UNL A   1      31.566  24.398  25.924  1.00  0.00     0.016 A 
ATOM     22  C   UNL A   1      33.801  25.372  25.822  1.00  0.00     0.062 A 
ATOM     23  C   UNL A   1      31.005  25.654  26.177  1.00  0.00     0.051 A 
ATOM     24  C   UNL A   1      33.218  26.593  26.082  1.00  0.00     0.166 A 
ATOM     25  C   UNL A   1      31.860  26.731  26.255  1.00  0.00     0.165 A 
ATOM     26  O   UNL A   1      33.877  27.777  26.190  1.00  0.00    -0.454 OA
ATOM     27  O   UNL A   1      31.497  28.019  26.498  1.00  0.00    -0.454 OA
ATOM     28  C   UNL A   1      32.789  28.662  26.527  1.00  0.00     0.468 C 
ENDBRANCH  19  20
ENDBRANCH   6   8
ENDBRANCH   4   6
ENDBRANCH   3   4
ENDBRANCH   2   3
ENDBRANCH   1   2
BRANCH   1  29
ATOM     29  O   UNL A   1      41.090  24.228  26.181  1.00  0.00    -0.458 OA
BRANCH  29  30
ATOM     30  C   UNL A   1      41.659  25.445  26.005  1.00  0.00     0.338 C 
ATOM     31  O   UNL A   1      42.153  25.887  24.983  1.00  0.00    -0.246 OA
BRANCH  30  32
ATOM     32  C   UNL A   1      41.485  26.252  27.223  1.00  0.00     0.060 A 
ATOM     33  C   UNL A   1      42.274  27.379  27.451  1.00  0.00     0.016 A 
ATOM     34  C   UNL A   1      40.475  25.899  28.123  1.00  0.00     0.016 A 
ATOM     35  C   UNL A   1      42.056  28.142  28.600  1.00  0.00     0.010 A 
ATOM     36  C   UNL A   1      40.249  26.667  29.262  1.00  0.00     0.010 A 
ATOM     37  C   UNL A   1      41.045  27.790  29.513  1.00  0.00    -0.014 A 
BRANCH  37  38
ATOM     38  C   UNL A   1      40.794  28.629  30.707  1.00  0.00     0.031 A 
ATOM     39  C   UNL A   1      41.649  28.495  31.934  1.00  0.00     0.074 A 
ATOM     40  C   UNL A   1      39.782  29.517  30.672  1.00  0.00     0.049 A 
ATOM     41  N   UNL A   1      41.652  29.230  33.016  1.00  0.00    -0.248 NA
ATOM     42  C   UNL A   1      42.617  27.386  31.957  1.00  0.00     0.031 C 
ATOM     43  C   UNL A   1      38.847  29.679  29.558  1.00  0.00     0.029 A 
ATOM     44  N   UNL A   1      39.382  30.459  31.585  1.00  0.00    -0.354 N 
ATOM     45  C   UNL A   1      42.633  28.690  33.838  1.00  0.00     0.074 A 
ATOM     46  C   UNL A   1      43.161  27.528  33.158  1.00  0.00     0.031 C 
ATOM     47  C   UNL A   1      38.012  30.694  29.830  1.00  0.00     0.029 A 
ATOM     48  C   UNL A   1      38.342  31.242  31.143  1.00  0.00     0.049 A 
ATOM     49  H   UNL A   1      39.797  30.563  32.471  1.00  0.00     0.167 HD
ATOM     50  C   UNL A   1      43.072  29.146  35.036  1.00  0.00     0.037 A 
ATOM     51  C   UNL A   1      37.741  32.300  31.721  1.00  0.00     0.037 A 
ATOM     52  C   UNL A   1      42.531  30.303  35.701  1.00  0.00     0.049 A 
ATOM     53  C   UNL A   1      38.241  32.787  33.052  1.00  0.00     0.074 A 
ATOM     54  C   UNL A   1      42.931  30.875  36.896  1.00  0.00     0.029 A 
ATOM     55  N   UNL A   1      41.468  31.062  35.231  1.00  0.00    -0.354 N 
ATOM     56  N   UNL A   1      39.229  32.320  33.779  1.00  0.00    -0.248 NA
ATOM     57  C   UNL A   1      37.558  33.946  33.638  1.00  0.00     0.031 C 
ATOM     58  C   UNL A   1      42.084  31.954  37.170  1.00  0.00     0.029 A 
ATOM     59  C   UNL A   1      41.185  32.084  36.124  1.00  0.00     0.049 A 
ATOM     60  H   UNL A   1      40.986  30.899  34.389  1.00  0.00     0.167 HD
ATOM     61  C   UNL A   1      39.298  33.140  34.899  1.00  0.00     0.074 A 
ATOM     62  C   UNL A   1      38.260  34.140  34.747  1.00  0.00     0.031 C 
ATOM     63  C   UNL A   1      40.145  33.071  35.955  1.00  0.00     0.037 A 
BRANCH  50  64
ATOM     64  C   UNL A   1      44.205  28.408  35.695  1.00  0.00     0.058 A 
ATOM     65  C   UNL A   1      43.965  27.403  36.645  1.00  0.00     0.135 A 
ATOM     66  C   UNL A   1      45.538  28.661  35.335  1.00  0.00     0.135 A 
ATOM     67  F   UNL A   1      42.710  27.126  37.034  1.00  0.00    -0.206 F 
ATOM     68  C   UNL A   1      45.005  26.689  37.229  1.00  0.00     0.059 A 
ATOM     69  C   UNL A   1      46.595  27.941  35.888  1.00  0.00     0.059 A 
ATOM     70  F   UNL A   1      45.826  29.610  34.430  1.00  0.00    -0.206 F 
ATOM     71  C   UNL A   1      46.318  26.963  36.843  1.00  0.00     0.060 A 
BRANCH  71  72
ATOM     72  S   UNL A   1      47.653  26.012  37.600  1.00  0.00     0.124 S 
ATOM     73  O   UNL A   1      48.703  27.020  37.716  1.00  0.00    -0.237 OA
ATOM     74  O   UNL A   1      47.051  25.578  38.858  1.00  0.00    -0.237 OA
ATOM     75  O   UNL A   1      47.909  24.951  36.632  1.00  0.00    -0.744 OA
ENDBRANCH  71  72
ENDBRANCH  50  64
BRANCH  51  76
ATOM     76  C   UNL A   1      36.645  33.001  31.001  1.00  0.00     0.058 A 
ATOM     77  C   UNL A   1      35.310  32.849  31.402  1.00  0.00     0.135 A 
ATOM     78  C   UNL A   1      36.914  33.879  29.940  1.00  0.00     0.135 A 
ATOM     79  F   UNL A   1      35.003  32.018  32.410  1.00  0.00    -0.206 F 
ATOM     80  C   UNL A   1      34.279  33.542  30.777  1.00  0.00     0.059 A 
ATOM     81  C   UNL A   1      35.903  34.601  29.314  1.00  0.00     0.059 A 
ATOM     82  F   UNL A   1      38.178  34.071  29.531  1.00  0.00    -0.206 F 
ATOM     83  C   UNL A   1      34.586  34.422  29.739  1.00  0.00     0.060 A 
BRANCH  83  84
ATOM     84  S   UNL A   1      33.247  35.370  28.986  1.00  0.00     0.124 S 
ATOM     85  O   UNL A   1      33.984  36.411  28.278  1.00  0.00    -0.237 OA
ATOM     86  O   UNL A   1      32.596  34.366  28.149  1.00  0.00    -0.237 OA
ATOM     87  O   UNL A   1      32.465  35.820  30.134  1.00  0.00    -0.744 OA
ENDBRANCH  83  84
ENDBRANCH  51  76
BRANCH  63  88
ATOM     88  C   UNL A   1      39.997  34.106  37.035  1.00  0.00     0.058 A 
ATOM     89  C   UNL A   1      40.543  35.391  36.898  1.00  0.00     0.135 A 
ATOM     90  C   UNL A   1      39.224  33.838  38.177  1.00  0.00     0.135 A 
ATOM     91  F   UNL A   1      41.296  35.694  35.829  1.00  0.00    -0.206 F 
ATOM     92  C   UNL A   1      40.331  36.375  37.857  1.00  0.00     0.059 A 
ATOM     93  C   UNL A   1      38.979  34.814  39.137  1.00  0.00     0.059 A 
ATOM     94  F   UNL A   1      38.673  32.626  38.351  1.00  0.00    -0.206 F 
ATOM     95  C   UNL A   1      39.540  36.080  38.969  1.00  0.00     0.060 A 
BRANCH  95  96
ATOM     96  S   UNL A   1      39.223  37.388  40.173  1.00  0.00     0.124 S 
ATOM     97  O   UNL A   1      38.411  38.316  39.392  1.00  0.00    -0.237 OA
ATOM     98  O   UNL A   1      38.523  36.671  41.234  1.00  0.00    -0.237 OA
ATOM     99  O   UNL A   1      40.558  37.863  40.521  1.00  0.00    -0.744 OA
ENDBRANCH  95  96
ENDBRANCH  63  88
ENDBRANCH  37  38
ENDBRANCH  30  32
ENDBRANCH  29  30
ENDBRANCH   1  29
TORSDOF 16
ENDMDL
MODEL 2
REMARK VINA RESULT:     -12.6      6.309     12.179
REMARK SMILES Cc1ccc2oc(-c3ccc4c(c3)OCO4)c/c(=N\[C@H](C)C(=O)OCCOC(=O)c3ccc(-c4c5nc(c(-c6c(F)cc(S(=O)(=O)[O-])cc6F)c6ccc([nH]6)c(-c6c(F)cc(S(=O)(=O)[O-])cc6F)c6nc(c(-c7c(F)cc(S(=O)(=O)[O-])cc7F)c7ccc4[nH]7)C=C6)C=C5)cc3)c2c1
REMARK SMILES IDX 26 1 25 2 24 3 22 4 23 5 20 6 21 7 19 8 1 9 2 10 3 11 97 12
REMARK SMILES IDX 4 13 96 14 5 15 18 16 6 17 17 18 7 19 8 20 9 21 13 22 10 23
REMARK SMILES IDX 12 24 11 25 14 26 16 27 15 28 27 29 28 30 29 31 30 32 31 33
REMARK SMILES IDX 95 34 32 35 94 36 33 37 34 38 35 39 88 40 36 41 93 42 87 43
REMARK SMILES IDX 89 44 37 45 92 46 86 47 85 48 38 50 72 51 51 52 71 53 52 54
REMARK SMILES IDX 55 55 70 56 90 57 53 58 54 59 69 61 91 62 56 63 39 64 40 65
REMARK SMILES IDX 49 66 41 67 42 68 48 69 50 70 43 71 44 72 45 73 46 74 47 75
REMARK SMILES IDX 73 76 74 77 83 78 75 79 76 80 82 81 84 82 77 83 78 84 79 85
REMARK SMILES IDX 80 86 81 87 57 88 58 89 67 90 59 91 60 92 66 93 68 94 61 95
REMARK SMILES IDX 62 96 63 97 64 98 65 99
REMARK H PARENT 89 49 55 60
REMARK Flexibility Score: inf
ROOT
ATOM      1  C   UNL A   1      35.197  32.459  30.768  1.00  0.00     0.275 C 
ENDROOT
BRANCH   1   2
ATOM      2  C   UNL A   1      34.685  32.735  29.351  1.00  0.00     0.274 C 
BRANCH   2   3
ATOM      3  O   UNL A   1      34.708  31.533  28.565  1.00  0.00    -0.460 OA
BRANCH   3   4
ATOM      4  C   UNL A   1      33.731  31.417  27.626  1.00  0.00     0.330 C 
ATOM      5  O   UNL A   1      32.866  32.264  27.419  1.00  0.00    -0.250 OA
BRANCH   4   6
ATOM      6  C   UNL A   1      33.841  30.119  26.823  1.00  0.00     0.212 C 
ATOM      7  C   UNL A   1      34.055  28.862  27.670  1.00  0.00     0.046 C 
BRANCH   6   8
ATOM      8  N   UNL A   1      32.633  30.017  25.994  1.00  0.00    -0.270 NA
ATOM      9  C   UNL A   1      28.409  31.249  23.275  1.00  0.00     0.044 C 
ATOM     10  C   UNL A   1      29.261  30.029  23.463  1.00  0.00    -0.050 A 
ATOM     11  C   UNL A   1      28.873  28.792  22.931  1.00  0.00     0.007 A 
ATOM     12  C   UNL A   1      30.442  30.106  24.206  1.00  0.00     0.017 A 
ATOM     13  C   UNL A   1      29.677  27.657  23.098  1.00  0.00     0.048 A 
ATOM     14  C   UNL A   1      31.240  28.969  24.376  1.00  0.00     0.043 A 
ATOM     15  C   UNL A   1      30.874  27.752  23.804  1.00  0.00     0.136 A 
ATOM     16  C   UNL A   1      32.478  29.036  25.177  1.00  0.00     0.073 A 
ATOM     17  O   UNL A   1      31.653  26.623  23.905  1.00  0.00    -0.456 OA
ATOM     18  C   UNL A   1      33.407  27.908  24.959  1.00  0.00     0.076 A 
ATOM     19  C   UNL A   1      32.936  26.792  24.390  1.00  0.00     0.136 A 
BRANCH  19  20
ATOM     20  C   UNL A   1      33.821  25.632  24.284  1.00  0.00     0.021 A 
ATOM     21  C   UNL A   1      33.762  24.800  23.141  1.00  0.00     0.016 A 
ATOM     22  C   UNL A   1      34.650  25.290  25.360  1.00  0.00     0.062 A 
ATOM     23  C   UNL A   1      34.529  23.633  23.066  1.00  0.00     0.051 A 
ATOM     24  C   UNL A   1      35.401  24.139  25.250  1.00  0.00     0.166 A 
ATOM     25  C   UNL A   1      35.343  23.334  24.137  1.00  0.00     0.165 A 
ATOM     26  O   UNL A   1      36.257  23.661  26.191  1.00  0.00    -0.454 OA
ATOM     27  O   UNL A   1      36.160  22.251  24.237  1.00  0.00    -0.454 OA
ATOM     28  C   UNL A   1      36.789  22.506  25.511  1.00  0.00     0.468 C 
ENDBRANCH  19  20
ENDBRANCH   6   8
ENDBRANCH   4   6
ENDBRANCH   3   4
ENDBRANCH   2   3
ENDBRANCH   1   2
BRANCH   1  29
ATOM     29  O   UNL A   1      36.582  32.065  30.776  1.00  0.00    -0.458 OA
BRANCH  29  30
ATOM     30  C   UNL A   1      36.834  30.773  31.102  1.00  0.00     0.338 C 
ATOM     31  O   UNL A   1      36.103  30.012  31.710  1.00  0.00    -0.246 OA
BRANCH  30  32
ATOM     32  C   UNL A   1      38.105  30.349  30.495  1.00  0.00     0.060 A 
ATOM     33  C   UNL A   1      38.248  30.285  29.110  1.00  0.00     0.016 A 
ATOM     34  C   UNL A   1      39.186  30.063  31.334  1.00  0.00     0.016 A 
ATOM     35  C   UNL A   1      39.481  29.914  28.569  1.00  0.00     0.010 A 
ATOM     36  C   UNL A   1      40.419  29.706  30.795  1.00  0.00     0.010 A 
ATOM     37  C   UNL A   1      40.573  29.620  29.407  1.00  0.00    -0.014 A 
BRANCH  37  38
ATOM     38  C   UNL A   1      41.887  29.268  28.824  1.00  0.00     0.031 A 
ATOM     39  C   UNL A   1      42.991  30.283  28.747  1.00  0.00     0.074 A 
ATOM     40  C   UNL A   1      42.075  28.017  28.361  1.00  0.00     0.049 A 
ATOM     41  N   UNL A   1      44.236  30.114  28.385  1.00  0.00    -0.248 NA
ATOM     42  C   UNL A   1      42.652  31.668  29.111  1.00  0.00     0.031 C 
ATOM     43  C   UNL A   1      41.047  26.974  28.322  1.00  0.00     0.029 A 
ATOM     44  N   UNL A   1      43.192  27.405  27.853  1.00  0.00    -0.354 N 
ATOM     45  C   UNL A   1      44.836  31.361  28.499  1.00  0.00     0.074 A 
ATOM     46  C   UNL A   1      43.804  32.291  28.902  1.00  0.00     0.031 C 
ATOM     47  C   UNL A   1      41.594  25.837  27.864  1.00  0.00     0.029 A 
ATOM     48  C   UNL A   1      43.003  26.075  27.563  1.00  0.00     0.049 A 
ATOM     49  H   UNL A   1      44.046  27.873  27.710  1.00  0.00     0.167 HD
ATOM     50  C   UNL A   1      46.137  31.690  28.314  1.00  0.00     0.037 A 
ATOM     51  C   UNL A   1      43.875  25.146  27.127  1.00  0.00     0.037 A 
ATOM     52  C   UNL A   1      47.152  30.751  27.908  1.00  0.00     0.049 A 
ATOM     53  C   UNL A   1      45.313  25.532  26.924  1.00  0.00     0.074 A 
ATOM     54  C   UNL A   1      48.507  30.970  27.733  1.00  0.00     0.029 A 
ATOM     55  N   UNL A   1      46.921  29.416  27.606  1.00  0.00    -0.354 N 
ATOM     56  N   UNL A   1      45.886  26.697  27.120  1.00  0.00    -0.248 NA
ATOM     57  C   UNL A   1      46.227  24.483  26.454  1.00  0.00     0.031 C 
ATOM     58  C   UNL A   1      49.089  29.779  27.286  1.00  0.00     0.029 A 
ATOM     59  C   UNL A   1      48.105  28.804  27.226  1.00  0.00     0.049 A 
ATOM     60  H   UNL A   1      46.046  28.969  27.655  1.00  0.00     0.167 HD
ATOM     61  C   UNL A   1      47.230  26.515  26.815  1.00  0.00     0.074 A 
ATOM     62  C   UNL A   1      47.387  25.126  26.434  1.00  0.00     0.031 C 
ATOM     63  C   UNL A   1      48.241  27.419  26.849  1.00  0.00     0.037 A 
BRANCH  50  64
ATOM     64  C   UNL A   1      46.545  33.115  28.570  1.00  0.00     0.058 A 
ATOM     65  C   UNL A   1      46.521  34.075  27.545  1.00  0.00     0.135 A 
ATOM     66  C   UNL A   1      46.904  33.544  29.857  1.00  0.00     0.135 A 
ATOM     67  F   UNL A   1      46.195  33.718  26.293  1.00  0.00    -0.206 F 
ATOM     68  C   UNL A   1      46.858  35.403  27.782  1.00  0.00     0.059 A 
ATOM     69  C   UNL A   1      47.221  34.875  30.124  1.00  0.00     0.059 A 
ATOM     70  F   UNL A   1      46.942  32.670  30.875  1.00  0.00    -0.206 F 
ATOM     71  C   UNL A   1      47.204  35.795  29.077  1.00  0.00     0.060 A 
BRANCH  71  72
ATOM     72  S   UNL A   1      47.620  37.527  29.367  1.00  0.00     0.124 S 
ATOM     73  O   UNL A   1      46.346  38.059  29.843  1.00  0.00    -0.237 OA
ATOM     74  O   UNL A   1      48.678  37.430  30.368  1.00  0.00    -0.237 OA
ATOM     75  O   UNL A   1      48.045  38.002  28.054  1.00  0.00    -0.744 OA
ENDBRANCH  71  72
ENDBRANCH  50  64
BRANCH  51  76
ATOM     76  C   UNL A   1      43.412  23.748  26.921  1.00  0.00     0.058 A 
ATOM     77  C   UNL A   1      43.277  22.870  28.006  1.00  0.00     0.135 A 
ATOM     78  C   UNL A   1      43.039  23.282  25.651  1.00  0.00     0.135 A 
ATOM     79  F   UNL A   1      43.624  23.269  29.240  1.00  0.00    -0.206 F 
ATOM     80  C   UNL A   1      42.790  21.577  27.840  1.00  0.00     0.059 A 
ATOM     81  C   UNL A   1      42.528  22.002  25.463  1.00  0.00     0.059 A 
ATOM     82  F   UNL A   1      43.133  24.092  24.584  1.00  0.00    -0.206 F 
ATOM     83  C   UNL A   1      42.410  21.155  26.565  1.00  0.00     0.060 A 
BRANCH  83  84
ATOM     84  S   UNL A   1      41.712  19.501  26.377  1.00  0.00     0.124 S 
ATOM     85  O   UNL A   1      40.314  19.802  26.087  1.00  0.00    -0.237 OA
ATOM     86  O   UNL A   1      42.494  18.964  25.267  1.00  0.00    -0.237 OA
ATOM     87  O   UNL A   1      41.967  18.878  27.672  1.00  0.00    -0.744 OA
ENDBRANCH  83  84
ENDBRANCH  51  76
BRANCH  63  88
ATOM     88  C   UNL A   1      49.615  26.940  26.471  1.00  0.00     0.058 A 
ATOM     89  C   UNL A   1      50.471  26.352  27.415  1.00  0.00     0.135 A 
ATOM     90  C   UNL A   1      50.042  26.985  25.134  1.00  0.00     0.135 A 
ATOM     91  F   UNL A   1      50.113  26.292  28.707  1.00  0.00    -0.206 F 
ATOM     92  C   UNL A   1      51.706  25.830  27.047  1.00  0.00     0.059 A 
ATOM     93  C   UNL A   1      51.263  26.447  24.740  1.00  0.00     0.059 A 
ATOM     94  F   UNL A   1      49.256  27.530  24.191  1.00  0.00    -0.206 F 
ATOM     95  C   UNL A   1      52.090  25.875  25.705  1.00  0.00     0.060 A 
BRANCH  95  96
ATOM     96  S   UNL A   1      53.668  25.135  25.235  1.00  0.00     0.124 S 
ATOM     97  O   UNL A   1      53.864  25.683  23.897  1.00  0.00    -0.237 OA
ATOM     98  O   UNL A   1      54.569  25.642  26.266  1.00  0.00    -0.237 OA
ATOM     99  O   UNL A   1      53.404  23.700  25.294  1.00  0.00    -0.744 OA
ENDBRANCH  95  96
ENDBRANCH  63  88
ENDBRANCH  37  38
ENDBRANCH  30  32
ENDBRANCH  29  30
ENDBRANCH   1  29
TORSDOF 16
ENDMDL
MODEL 3
REMARK VINA RESULT:     -12.5      5.900      8.671
REMARK SMILES Cc1ccc2oc(-c3ccc4c(c3)OCO4)c/c(=N\[C@H](C)C(=O)OCCOC(=O)c3ccc(-c4c5nc(c(-c6c(F)cc(S(=O)(=O)[O-])cc6F)c6ccc([nH]6)c(-c6c(F)cc(S(=O)(=O)[O-])cc6F)c6nc(c(-c7c(F)cc(S(=O)(=O)[O-])cc7F)c7ccc4[nH]7)C=C6)C=C5)cc3)c2c1
REMARK SMILES IDX 26 1 25 2 24 3 22 4 23 5 20 6 21 7 19 8 1 9 2 10 3 11 97 12
REMARK SMILES IDX 4 13 96 14 5 15 18 16 6 17 17 18 7 19 8 20 9 21 13 22 10 23
REMARK SMILES IDX 12 24 11 25 14 26 16 27 15 28 27 29 28 30 29 31 30 32 31 33
REMARK SMILES IDX 95 34 32 35 94 36 33 37 34 38 35 39 88 40 36 41 93 42 87 43
REMARK SMILES IDX 89 44 37 45 92 46 86 47 85 48 38 50 72 51 51 52 71 53 52 54
REMARK SMILES IDX 55 55 70 56 90 57 53 58 54 59 69 61 91 62 56 63 39 64 40 65
REMARK SMILES IDX 49 66 41 67 42 68 48 69 50 70 43 71 44 72 45 73 46 74 47 75
REMARK SMILES IDX 73 76 74 77 83 78 75 79 76 80 82 81 84 82 77 83 78 84 79 85
REMARK SMILES IDX 80 86 81 87 57 88 58 89 67 90 59 91 60 92 66 93 68 94 61 95
REMARK SMILES IDX 62 96 63 97 64 98 65 99
REMARK H PARENT 89 49 55 60
REMARK Flexibility Score: inf
ROOT
ATOM      1  C   UNL A   1      39.549  20.186  25.742  1.00  0.00     0.275 C 
ENDROOT
BRANCH   1   2
ATOM      2  C   UNL A   1      39.136  21.610  26.128  1.00  0.00     0.274 C 
BRANCH   2   3
ATOM      3  O   UNL A   1      37.838  21.918  25.597  1.00  0.00    -0.460 OA
BRANCH   3   4
ATOM      4  C   UNL A   1      37.485  23.232  25.613  1.00  0.00     0.330 C 
ATOM      5  O   UNL A   1      37.774  24.015  26.513  1.00  0.00    -0.250 OA
BRANCH   4   6
ATOM      6  C   UNL A   1      36.705  23.644  24.363  1.00  0.00     0.212 C 
ATOM      7  C   UNL A   1      36.652  22.579  23.265  1.00  0.00     0.046 C 
BRANCH   6   8
ATOM      8  N   UNL A   1      35.360  24.041  24.799  1.00  0.00    -0.270 NA
ATOM      9  C   UNL A   1      31.078  26.816  25.645  1.00  0.00     0.044 C 
ATOM     10  C   UNL A   1      31.477  25.374  25.756  1.00  0.00    -0.050 A 
ATOM     11  C   UNL A   1      30.618  24.434  26.342  1.00  0.00     0.007 A 
ATOM     12  C   UNL A   1      32.731  24.957  25.305  1.00  0.00     0.017 A 
ATOM     13  C   UNL A   1      30.988  23.086  26.433  1.00  0.00     0.048 A 
ATOM     14  C   UNL A   1      33.100  23.610  25.402  1.00  0.00     0.043 A 
ATOM     15  C   UNL A   1      32.224  22.670  25.941  1.00  0.00     0.136 A 
ATOM     16  C   UNL A   1      34.432  23.164  24.947  1.00  0.00     0.073 A 
ATOM     17  O   UNL A   1      32.527  21.331  26.011  1.00  0.00    -0.456 OA
ATOM     18  C   UNL A   1      34.549  21.706  24.742  1.00  0.00     0.076 A 
ATOM     19  C   UNL A   1      33.636  20.905  25.305  1.00  0.00     0.136 A 
BRANCH  19  20
ATOM     20  C   UNL A   1      33.818  19.456  25.207  1.00  0.00     0.021 A 
ATOM     21  C   UNL A   1      34.992  18.930  24.617  1.00  0.00     0.016 A 
ATOM     22  C   UNL A   1      32.785  18.598  25.603  1.00  0.00     0.062 A 
ATOM     23  C   UNL A   1      35.140  17.553  24.425  1.00  0.00     0.051 A 
ATOM     24  C   UNL A   1      32.967  17.245  25.409  1.00  0.00     0.166 A 
ATOM     25  C   UNL A   1      34.109  16.737  24.838  1.00  0.00     0.165 A 
ATOM     26  O   UNL A   1      32.074  16.273  25.736  1.00  0.00    -0.454 OA
ATOM     27  O   UNL A   1      34.080  15.381  24.738  1.00  0.00    -0.454 OA
ATOM     28  C   UNL A   1      32.818  15.092  25.377  1.00  0.00     0.468 C 
ENDBRANCH  19  20
ENDBRANCH   6   8
ENDBRANCH   4   6
ENDBRANCH   3   4
ENDBRANCH   2   3
ENDBRANCH   1   2
BRANCH   1  29
ATOM     29  O   UNL A   1      40.592  19.675  26.595  1.00  0.00    -0.458 OA
BRANCH  29  30
ATOM     30  C   UNL A   1      41.853  19.747  26.104  1.00  0.00     0.338 C 
ATOM     31  O   UNL A   1      42.427  18.916  25.424  1.00  0.00    -0.246 OA
BRANCH  30  32
ATOM     32  C   UNL A   1      42.426  21.069  26.404  1.00  0.00     0.060 A 
ATOM     33  C   UNL A   1      42.750  21.955  25.379  1.00  0.00     0.016 A 
ATOM     34  C   UNL A   1      42.586  21.442  27.742  1.00  0.00     0.016 A 
ATOM     35  C   UNL A   1      43.257  23.216  25.703  1.00  0.00     0.010 A 
ATOM     36  C   UNL A   1      43.079  22.703  28.066  1.00  0.00     0.010 A 
ATOM     37  C   UNL A   1      43.426  23.597  27.047  1.00  0.00    -0.014 A 
BRANCH  37  38
ATOM     38  C   UNL A   1      43.925  24.950  27.381  1.00  0.00     0.031 A 
ATOM     39  C   UNL A   1      45.369  25.308  27.182  1.00  0.00     0.074 A 
ATOM     40  C   UNL A   1      43.057  25.857  27.869  1.00  0.00     0.049 A 
ATOM     41  N   UNL A   1      45.949  26.474  27.301  1.00  0.00    -0.248 NA
ATOM     42  C   UNL A   1      46.284  24.216  26.812  1.00  0.00     0.031 C 
ATOM     43  C   UNL A   1      41.648  25.593  28.168  1.00  0.00     0.029 A 
ATOM     44  N   UNL A   1      43.222  27.181  28.182  1.00  0.00    -0.354 N 
ATOM     45  C   UNL A   1      47.289  26.264  27.001  1.00  0.00     0.074 A 
ATOM     46  C   UNL A   1      47.449  24.847  26.755  1.00  0.00     0.031 C 
ATOM     47  C   UNL A   1      41.065  26.731  28.574  1.00  0.00     0.029 A 
ATOM     48  C   UNL A   1      42.061  27.799  28.580  1.00  0.00     0.049 A 
ATOM     49  H   UNL A   1      44.089  27.645  28.128  1.00  0.00     0.167 HD
ATOM     50  C   UNL A   1      48.284  27.177  26.908  1.00  0.00     0.037 A 
ATOM     51  C   UNL A   1      41.821  29.088  28.889  1.00  0.00     0.037 A 
ATOM     52  C   UNL A   1      48.108  28.585  27.161  1.00  0.00     0.049 A 
ATOM     53  C   UNL A   1      42.940  30.085  28.783  1.00  0.00     0.074 A 
ATOM     54  C   UNL A   1      49.040  29.602  27.054  1.00  0.00     0.029 A 
ATOM     55  N   UNL A   1      46.921  29.172  27.577  1.00  0.00    -0.354 N 
ATOM     56  N   UNL A   1      44.184  29.887  28.412  1.00  0.00    -0.248 NA
ATOM     57  C   UNL A   1      42.628  31.478  29.124  1.00  0.00     0.031 C 
ATOM     58  C   UNL A   1      48.428  30.798  27.446  1.00  0.00     0.029 A 
ATOM     59  C   UNL A   1      47.103  30.535  27.753  1.00  0.00     0.049 A 
ATOM     60  H   UNL A   1      46.076  28.692  27.727  1.00  0.00     0.167 HD
ATOM     61  C   UNL A   1      44.797  31.134  28.458  1.00  0.00     0.074 A 
ATOM     62  C   UNL A   1      43.785  32.081  28.880  1.00  0.00     0.031 C 
ATOM     63  C   UNL A   1      46.082  31.462  28.175  1.00  0.00     0.037 A 
BRANCH  50  64
ATOM     64  C   UNL A   1      49.647  26.692  26.496  1.00  0.00     0.058 A 
ATOM     65  C   UNL A   1      50.506  26.067  27.414  1.00  0.00     0.135 A 
ATOM     66  C   UNL A   1      50.078  26.794  25.164  1.00  0.00     0.135 A 
ATOM     67  F   UNL A   1      50.149  25.951  28.703  1.00  0.00    -0.206 F 
ATOM     68  C   UNL A   1      51.751  25.579  27.032  1.00  0.00     0.059 A 
ATOM     69  C   UNL A   1      51.311  26.289  24.753  1.00  0.00     0.059 A 
ATOM     70  F   UNL A   1      49.297  27.380  24.243  1.00  0.00    -0.206 F 
ATOM     71  C   UNL A   1      52.144  25.693  25.698  1.00  0.00     0.060 A 
BRANCH  71  72
ATOM     72  S   UNL A   1      53.757  25.036  25.219  1.00  0.00     0.124 S 
ATOM     73  O   UNL A   1      54.619  25.589  26.259  1.00  0.00    -0.237 OA
ATOM     74  O   UNL A   1      53.536  23.594  25.280  1.00  0.00    -0.237 OA
ATOM     75  O   UNL A   1      53.963  25.579  23.880  1.00  0.00    -0.744 OA
ENDBRANCH  71  72
ENDBRANCH  50  64
BRANCH  51  76
ATOM     76  C   UNL A   1      40.443  29.506  29.261  1.00  0.00     0.058 A 
ATOM     77  C   UNL A   1      40.117  29.801  30.592  1.00  0.00     0.135 A 
ATOM     78  C   UNL A   1      39.445  29.676  28.289  1.00  0.00     0.135 A 
ATOM     79  F   UNL A   1      41.038  29.651  31.558  1.00  0.00    -0.206 F 
ATOM     80  C   UNL A   1      38.850  30.249  30.949  1.00  0.00     0.059 A 
ATOM     81  C   UNL A   1      38.177  30.144  28.618  1.00  0.00     0.059 A 
ATOM     82  F   UNL A   1      39.714  29.423  26.998  1.00  0.00    -0.206 F 
ATOM     83  C   UNL A   1      37.888  30.425  29.953  1.00  0.00     0.060 A 
BRANCH  83  84
ATOM     84  S   UNL A   1      36.271  31.077  30.421  1.00  0.00     0.124 S 
ATOM     85  O   UNL A   1      36.580  32.480  30.674  1.00  0.00    -0.237 OA
ATOM     86  O   UNL A   1      35.475  30.803  29.228  1.00  0.00    -0.237 OA
ATOM     87  O   UNL A   1      35.916  30.288  31.597  1.00  0.00    -0.744 OA
ENDBRANCH  83  84
ENDBRANCH  51  76
BRANCH  63  88
ATOM     88  C   UNL A   1      46.475  32.908  28.303  1.00  0.00     0.058 A 
ATOM     89  C   UNL A   1      46.295  33.812  27.245  1.00  0.00     0.135 A 
ATOM     90  C   UNL A   1      46.950  33.411  29.525  1.00  0.00     0.135 A 
ATOM     91  F   UNL A   1      45.851  33.380  26.055  1.00  0.00    -0.206 F 
ATOM     92  C   UNL A   1      46.576  35.166  27.394  1.00  0.00     0.059 A 
ATOM     93  C   UNL A   1      47.215  34.765  29.703  1.00  0.00     0.059 A 
ATOM     94  F   UNL A   1      47.132  32.587  30.570  1.00  0.00    -0.206 F 
ATOM     95  C   UNL A   1      47.028  35.634  28.629  1.00  0.00     0.060 A 
BRANCH  95  96
ATOM     96  S   UNL A   1      47.327  37.404  28.822  1.00  0.00     0.124 S 
ATOM     97  O   UNL A   1      48.112  37.703  27.628  1.00  0.00    -0.237 OA
ATOM     98  O   UNL A   1      45.973  37.948  28.844  1.00  0.00    -0.237 OA
ATOM     99  O   UNL A   1      48.052  37.492  30.086  1.00  0.00    -0.744 OA
ENDBRANCH  95  96
ENDBRANCH  63  88
ENDBRANCH  37  38
ENDBRANCH  30  32
ENDBRANCH  29  30
ENDBRANCH   1  29
TORSDOF 16
ENDMDL
