MODEL 1
REMARK VINA RESULT:     -13.5      0.000      0.000
REMARK SMILES Cc1cc(C(=O)OCCOC(=O)c2ccc(-c3c4nc(c(-c5c(F)cc(S(=O)(=O)[O-])cc5F)c5ccc([nH]5)c(-c5c(F)cc(S(=O)(=O)[O-])cc5F)c5nc(c(-c6c(F)cc(S(=O)(=O)[O-])cc6F)c6ccc3[nH]6)C=C5)C=C4)cc2)ccc1NS(=O)(=O)c1ccc2c(c1)CCC2
REMARK SMILES IDX 8 1 7 2 5 3 6 4 4 5 1 6 2 7 3 8 81 9 80 10 79 11 82 12 83 14
REMARK SMILES IDX 84 15 85 16 86 17 87 18 91 19 88 20 90 21 89 22 92 23 94 24
REMARK SMILES IDX 93 25 9 26 10 27 11 28 12 29 13 30 14 31 78 32 15 33 77 34
REMARK SMILES IDX 16 35 17 36 18 37 71 38 19 39 76 40 70 41 72 42 20 43 75 44
REMARK SMILES IDX 69 45 68 46 21 48 55 49 34 50 54 51 35 52 38 53 53 54 73 55
REMARK SMILES IDX 36 56 37 57 52 59 74 60 39 61 22 62 23 63 32 64 24 65 25 66
REMARK SMILES IDX 31 67 33 68 26 69 27 70 28 71 29 72 30 73 56 74 57 75 66 76
REMARK SMILES IDX 58 77 59 78 65 79 67 80 60 81 61 82 62 83 63 84 64 85 40 86
REMARK SMILES IDX 41 87 50 88 42 89 43 90 49 91 51 92 44 93 45 94 46 95 47 96
REMARK SMILES IDX 48 97
REMARK H PARENT 82 13 72 47 38 58
REMARK Flexibility Score: inf
ROOT
ATOM      1  C   UNL A   1      33.159  31.212  27.333  1.00  0.00     0.275 C 
ENDROOT
BRANCH   1   2
ATOM      2  O   UNL A   1      32.509  29.939  27.578  1.00  0.00    -0.458 OA
BRANCH   2   3
ATOM      3  C   UNL A   1      32.116  29.338  26.423  1.00  0.00     0.338 C 
ATOM      4  O   UNL A   1      31.390  29.887  25.599  1.00  0.00    -0.246 OA
BRANCH   3   5
ATOM      5  C   UNL A   1      32.501  27.903  26.233  1.00  0.00     0.060 A 
ATOM      6  C   UNL A   1      31.591  24.248  26.815  1.00  0.00     0.046 C 
ATOM      7  C   UNL A   1      32.198  25.469  26.168  1.00  0.00    -0.026 A 
ATOM      8  C   UNL A   1      31.759  26.763  26.577  1.00  0.00     0.021 A 
ATOM      9  C   UNL A   1      33.332  25.365  25.340  1.00  0.00     0.052 A 
ATOM     10  C   UNL A   1      34.173  26.459  25.207  1.00  0.00     0.028 A 
ATOM     11  C   UNL A   1      33.758  27.712  25.643  1.00  0.00     0.018 A 
BRANCH   9  12
ATOM     12  N   UNL A   1      33.614  24.249  24.473  1.00  0.00    -0.279 N 
ATOM     13  H   UNL A   1      34.225  23.528  24.750  1.00  0.00     0.180 HD
BRANCH  12  14
ATOM     14  S   UNL A   1      32.840  24.221  22.922  1.00  0.00     0.261 S 
ATOM     15  O   UNL A   1      33.852  24.690  21.979  1.00  0.00    -0.201 OA
ATOM     16  O   UNL A   1      32.248  22.923  22.739  1.00  0.00    -0.201 OA
BRANCH  14  17
ATOM     17  C   UNL A   1      31.515  25.427  22.913  1.00  0.00     0.088 A 
ATOM     18  C   UNL A   1      30.251  25.037  23.389  1.00  0.00     0.022 A 
ATOM     19  C   UNL A   1      31.704  26.724  22.413  1.00  0.00     0.026 A 
ATOM     20  C   UNL A   1      29.266  25.993  23.649  1.00  0.00     0.005 A 
ATOM     21  C   UNL A   1      30.670  27.641  22.577  1.00  0.00    -0.043 A 
ATOM     22  C   UNL A   1      29.514  27.302  23.288  1.00  0.00    -0.045 A 
ATOM     23  C   UNL A   1      30.535  29.032  22.037  1.00  0.00     0.036 C 
ATOM     24  C   UNL A   1      28.657  28.504  23.547  1.00  0.00     0.036 C 
ATOM     25  C   UNL A   1      29.550  29.648  23.039  1.00  0.00     0.010 C 
ENDBRANCH  14  17
ENDBRANCH  12  14
ENDBRANCH   9  12
ENDBRANCH   3   5
ENDBRANCH   2   3
ENDBRANCH   1   2
BRANCH   1  26
ATOM     26  C   UNL A   1      34.702  31.173  27.339  1.00  0.00     0.275 C 
BRANCH  26  27
ATOM     27  O   UNL A   1      35.318  30.048  27.991  1.00  0.00    -0.458 OA
BRANCH  27  28
ATOM     28  C   UNL A   1      36.172  30.378  28.997  1.00  0.00     0.338 C 
ATOM     29  O   UNL A   1      35.839  31.002  29.991  1.00  0.00    -0.246 OA
BRANCH  28  30
ATOM     30  C   UNL A   1      37.368  29.495  28.861  1.00  0.00     0.060 A 
ATOM     31  C   UNL A   1      38.321  29.779  27.874  1.00  0.00     0.016 A 
ATOM     32  C   UNL A   1      37.687  28.635  29.922  1.00  0.00     0.016 A 
ATOM     33  C   UNL A   1      39.619  29.278  27.993  1.00  0.00     0.010 A 
ATOM     34  C   UNL A   1      38.991  28.245  30.107  1.00  0.00     0.010 A 
ATOM     35  C   UNL A   1      39.952  28.542  29.132  1.00  0.00    -0.014 A 
BRANCH  35  36
ATOM     36  C   UNL A   1      41.151  27.724  29.245  1.00  0.00     0.031 A 
ATOM     37  C   UNL A   1      41.265  26.341  28.752  1.00  0.00     0.074 A 
ATOM     38  C   UNL A   1      42.183  28.442  29.734  1.00  0.00     0.049 A 
ATOM     39  N   UNL A   1      42.198  25.524  29.102  1.00  0.00    -0.248 NA
ATOM     40  C   UNL A   1      40.315  25.731  27.833  1.00  0.00     0.031 C 
ATOM     41  C   UNL A   1      43.601  28.155  29.791  1.00  0.00     0.029 A 
ATOM     42  N   UNL A   1      42.036  29.612  30.490  1.00  0.00    -0.354 N 
ATOM     43  C   UNL A   1      42.130  24.402  28.295  1.00  0.00     0.074 A 
ATOM     44  C   UNL A   1      40.881  24.542  27.589  1.00  0.00     0.031 C 
ATOM     45  C   UNL A   1      44.143  28.923  30.758  1.00  0.00     0.029 A 
ATOM     46  C   UNL A   1      43.045  29.607  31.443  1.00  0.00     0.049 A 
ATOM     47  H   UNL A   1      41.348  30.306  30.369  1.00  0.00     0.167 HD
ATOM     48  C   UNL A   1      43.218  23.574  28.232  1.00  0.00     0.037 A 
ATOM     49  C   UNL A   1      42.678  29.411  32.745  1.00  0.00     0.037 A 
ATOM     50  C   UNL A   1      44.212  24.024  29.206  1.00  0.00     0.049 A 
ATOM     51  C   UNL A   1      43.235  28.104  33.251  1.00  0.00     0.074 A 
ATOM     52  C   UNL A   1      45.290  24.885  29.081  1.00  0.00     0.029 A 
ATOM     53  N   UNL A   1      43.940  23.918  30.567  1.00  0.00    -0.354 N 
ATOM     54  N   UNL A   1      43.393  27.032  32.519  1.00  0.00    -0.248 NA
ATOM     55  C   UNL A   1      43.775  27.967  34.597  1.00  0.00     0.031 C 
ATOM     56  C   UNL A   1      45.570  25.411  30.368  1.00  0.00     0.029 A 
ATOM     57  C   UNL A   1      44.693  24.836  31.276  1.00  0.00     0.049 A 
ATOM     58  H   UNL A   1      43.304  23.281  30.967  1.00  0.00     0.167 HD
ATOM     59  C   UNL A   1      44.121  26.115  33.233  1.00  0.00     0.074 A 
ATOM     60  C   UNL A   1      44.312  26.738  34.534  1.00  0.00     0.031 C 
ATOM     61  C   UNL A   1      44.585  24.938  32.721  1.00  0.00     0.037 A 
BRANCH  48  62
ATOM     62  C   UNL A   1      43.542  22.576  27.122  1.00  0.00     0.058 A 
ATOM     63  C   UNL A   1      42.738  21.421  26.950  1.00  0.00     0.135 A 
ATOM     64  C   UNL A   1      44.644  22.638  26.246  1.00  0.00     0.135 A 
ATOM     65  F   UNL A   1      41.603  21.248  27.644  1.00  0.00    -0.206 F 
ATOM     66  C   UNL A   1      43.055  20.380  26.072  1.00  0.00     0.059 A 
ATOM     67  C   UNL A   1      44.999  21.595  25.375  1.00  0.00     0.059 A 
ATOM     68  F   UNL A   1      45.410  23.731  26.158  1.00  0.00    -0.206 F 
ATOM     69  C   UNL A   1      44.208  20.458  25.308  1.00  0.00     0.060 A 
BRANCH  69  70
ATOM     70  S   UNL A   1      44.637  19.077  24.227  1.00  0.00     0.124 S 
ATOM     71  O   UNL A   1      43.700  18.046  24.662  1.00  0.00    -0.237 OA
ATOM     72  O   UNL A   1      44.393  19.635  22.900  1.00  0.00    -0.237 OA
ATOM     73  O   UNL A   1      46.038  18.817  24.544  1.00  0.00    -0.744 OA
ENDBRANCH  69  70
ENDBRANCH  48  62
BRANCH  49  74
ATOM     74  C   UNL A   1      41.364  30.030  33.138  1.00  0.00     0.058 A 
ATOM     75  C   UNL A   1      41.293  31.438  33.256  1.00  0.00     0.135 A 
ATOM     76  C   UNL A   1      40.141  29.344  33.161  1.00  0.00     0.135 A 
ATOM     77  F   UNL A   1      42.420  32.169  33.257  1.00  0.00    -0.206 F 
ATOM     78  C   UNL A   1      40.084  32.134  33.281  1.00  0.00     0.059 A 
ATOM     79  C   UNL A   1      38.911  30.022  33.205  1.00  0.00     0.059 A 
ATOM     80  F   UNL A   1      40.110  28.007  33.065  1.00  0.00    -0.206 F 
ATOM     81  C   UNL A   1      38.894  31.418  33.230  1.00  0.00     0.060 A 
BRANCH  81  82
ATOM     82  S   UNL A   1      37.348  32.342  33.011  1.00  0.00     0.124 S 
ATOM     83  O   UNL A   1      36.358  31.271  33.002  1.00  0.00    -0.237 OA
ATOM     84  O   UNL A   1      37.341  33.199  34.194  1.00  0.00    -0.237 OA
ATOM     85  O   UNL A   1      37.553  33.027  31.739  1.00  0.00    -0.744 OA
ENDBRANCH  81  82
ENDBRANCH  49  74
BRANCH  61  86
ATOM     86  C   UNL A   1      45.126  23.812  33.562  1.00  0.00     0.058 A 
ATOM     87  C   UNL A   1      46.450  23.779  34.028  1.00  0.00     0.135 A 
ATOM     88  C   UNL A   1      44.270  22.800  34.058  1.00  0.00     0.135 A 
ATOM     89  F   UNL A   1      47.318  24.758  33.735  1.00  0.00    -0.206 F 
ATOM     90  C   UNL A   1      46.924  22.758  34.847  1.00  0.00     0.059 A 
ATOM     91  C   UNL A   1      44.707  21.809  34.928  1.00  0.00     0.059 A 
ATOM     92  F   UNL A   1      42.973  22.747  33.722  1.00  0.00    -0.206 F 
ATOM     93  C   UNL A   1      46.046  21.775  35.288  1.00  0.00     0.060 A 
BRANCH  93  94
ATOM     94  S   UNL A   1      46.642  20.472  36.373  1.00  0.00     0.124 S 
ATOM     95  O   UNL A   1      48.061  20.802  36.465  1.00  0.00    -0.237 OA
ATOM     96  O   UNL A   1      45.866  20.683  37.592  1.00  0.00    -0.237 OA
ATOM     97  O   UNL A   1      46.319  19.254  35.638  1.00  0.00    -0.744 OA
ENDBRANCH  93  94
ENDBRANCH  61  86
ENDBRANCH  35  36
ENDBRANCH  28  30
ENDBRANCH  27  28
ENDBRANCH  26  27
ENDBRANCH   1  26
TORSDOF 17
ENDMDL
MODEL 2
REMARK VINA RESULT:     -13.5      1.500      2.784
REMARK SMILES Cc1cc(C(=O)OCCOC(=O)c2ccc(-c3c4nc(c(-c5c(F)cc(S(=O)(=O)[O-])cc5F)c5ccc([nH]5)c(-c5c(F)cc(S(=O)(=O)[O-])cc5F)c5nc(c(-c6c(F)cc(S(=O)(=O)[O-])cc6F)c6ccc3[nH]6)C=C5)C=C4)cc2)ccc1NS(=O)(=O)c1ccc2c(c1)CCC2
REMARK SMILES IDX 8 1 7 2 5 3 6 4 4 5 1 6 2 7 3 8 81 9 80 10 79 11 82 12 83 14
REMARK SMILES IDX 84 15 85 16 86 17 87 18 91 19 88 20 90 21 89 22 92 23 94 24
REMARK SMILES IDX 93 25 9 26 10 27 11 28 12 29 13 30 14 31 78 32 15 33 77 34
REMARK SMILES IDX 16 35 17 36 18 37 71 38 19 39 76 40 70 41 72 42 20 43 75 44
REMARK SMILES IDX 69 45 68 46 21 48 55 49 34 50 54 51 35 52 38 53 53 54 73 55
REMARK SMILES IDX 36 56 37 57 52 59 74 60 39 61 22 62 23 63 32 64 24 65 25 66
REMARK SMILES IDX 31 67 33 68 26 69 27 70 28 71 29 72 30 73 56 74 57 75 66 76
REMARK SMILES IDX 58 77 59 78 65 79 67 80 60 81 61 82 62 83 63 84 64 85 40 86
REMARK SMILES IDX 41 87 50 88 42 89 43 90 49 91 51 92 44 93 45 94 46 95 47 96
REMARK SMILES IDX 48 97
REMARK H PARENT 82 13 72 47 38 58
REMARK Flexibility Score: inf
ROOT
ATOM      1  C   UNL A   1      32.879  30.031  26.922  1.00  0.00     0.275 C 
ENDROOT
BRANCH   1   2
ATOM      2  O   UNL A   1      33.140  29.433  25.627  1.00  0.00    -0.458 OA
BRANCH   2   3
ATOM      3  C   UNL A   1      32.001  29.285  24.897  1.00  0.00     0.338 C 
ATOM      4  O   UNL A   1      31.216  30.207  24.693  1.00  0.00    -0.246 OA
BRANCH   3   5
ATOM      5  C   UNL A   1      31.657  27.902  24.438  1.00  0.00     0.060 A 
ATOM      6  C   UNL A   1      32.843  24.727  22.697  1.00  0.00     0.046 C 
ATOM      7  C   UNL A   1      32.059  25.622  23.624  1.00  0.00    -0.026 A 
ATOM      8  C   UNL A   1      32.508  26.959  23.842  1.00  0.00     0.021 A 
ATOM      9  C   UNL A   1      30.788  25.245  24.096  1.00  0.00     0.052 A 
ATOM     10  C   UNL A   1      29.885  26.231  24.465  1.00  0.00     0.028 A 
ATOM     11  C   UNL A   1      30.317  27.540  24.638  1.00  0.00     0.018 A 
BRANCH   9  12
ATOM     12  N   UNL A   1      30.392  23.891  24.391  1.00  0.00    -0.279 N 
ATOM     13  H   UNL A   1      29.814  23.383  23.777  1.00  0.00     0.180 HD
BRANCH  12  14
ATOM     14  S   UNL A   1      30.968  23.188  25.867  1.00  0.00     0.261 S 
ATOM     15  O   UNL A   1      30.979  24.282  26.835  1.00  0.00    -0.201 OA
ATOM     16  O   UNL A   1      30.188  22.010  26.137  1.00  0.00    -0.201 OA
BRANCH  14  17
ATOM     17  C   UNL A   1      32.668  22.672  25.639  1.00  0.00     0.088 A 
ATOM     18  C   UNL A   1      32.915  21.403  25.085  1.00  0.00     0.022 A 
ATOM     19  C   UNL A   1      33.743  23.484  26.030  1.00  0.00     0.026 A 
ATOM     20  C   UNL A   1      34.195  21.058  24.646  1.00  0.00     0.005 A 
ATOM     21  C   UNL A   1      35.027  23.074  25.685  1.00  0.00    -0.043 A 
ATOM     22  C   UNL A   1      35.232  21.932  24.904  1.00  0.00    -0.045 A 
ATOM     23  C   UNL A   1      36.351  23.655  26.077  1.00  0.00     0.036 C 
ATOM     24  C   UNL A   1      36.658  21.823  24.454  1.00  0.00     0.036 C 
ATOM     25  C   UNL A   1      37.246  23.160  24.934  1.00  0.00     0.010 C 
ENDBRANCH  14  17
ENDBRANCH  12  14
ENDBRANCH   9  12
ENDBRANCH   3   5
ENDBRANCH   2   3
ENDBRANCH   1   2
BRANCH   1  26
ATOM     26  C   UNL A   1      34.099  30.698  27.594  1.00  0.00     0.275 C 
BRANCH  26  27
ATOM     27  O   UNL A   1      35.281  29.891  27.738  1.00  0.00    -0.458 OA
BRANCH  27  28
ATOM     28  C   UNL A   1      36.157  30.336  28.678  1.00  0.00     0.338 C 
ATOM     29  O   UNL A   1      35.838  31.039  29.623  1.00  0.00    -0.246 OA
BRANCH  28  30
ATOM     30  C   UNL A   1      37.376  29.479  28.578  1.00  0.00     0.060 A 
ATOM     31  C   UNL A   1      38.375  29.813  27.654  1.00  0.00     0.016 A 
ATOM     32  C   UNL A   1      37.655  28.591  29.627  1.00  0.00     0.016 A 
ATOM     33  C   UNL A   1      39.674  29.332  27.828  1.00  0.00     0.010 A 
ATOM     34  C   UNL A   1      38.954  28.218  29.870  1.00  0.00     0.010 A 
ATOM     35  C   UNL A   1      39.959  28.564  28.959  1.00  0.00    -0.014 A 
BRANCH  35  36
ATOM     36  C   UNL A   1      41.166  27.764  29.110  1.00  0.00     0.031 A 
ATOM     37  C   UNL A   1      41.328  26.394  28.593  1.00  0.00     0.074 A 
ATOM     38  C   UNL A   1      42.162  28.489  29.662  1.00  0.00     0.049 A 
ATOM     39  N   UNL A   1      42.259  25.586  28.970  1.00  0.00    -0.248 NA
ATOM     40  C   UNL A   1      40.433  25.789  27.619  1.00  0.00     0.031 C 
ATOM     41  C   UNL A   1      43.581  28.225  29.779  1.00  0.00     0.029 A 
ATOM     42  N   UNL A   1      41.959  29.639  30.435  1.00  0.00    -0.354 N 
ATOM     43  C   UNL A   1      42.248  24.481  28.136  1.00  0.00     0.074 A 
ATOM     44  C   UNL A   1      41.031  24.616  27.376  1.00  0.00     0.031 C 
ATOM     45  C   UNL A   1      44.063  28.980  30.786  1.00  0.00     0.029 A 
ATOM     46  C   UNL A   1      42.922  29.630  31.434  1.00  0.00     0.049 A 
ATOM     47  H   UNL A   1      41.265  30.324  30.297  1.00  0.00     0.167 HD
ATOM     48  C   UNL A   1      43.353  23.674  28.107  1.00  0.00     0.037 A 
ATOM     49  C   UNL A   1      42.499  29.399  32.713  1.00  0.00     0.037 A 
ATOM     50  C   UNL A   1      44.293  24.119  29.136  1.00  0.00     0.049 A 
ATOM     51  C   UNL A   1      43.056  28.092  33.216  1.00  0.00     0.074 A 
ATOM     52  C   UNL A   1      45.360  25.001  29.080  1.00  0.00     0.029 A 
ATOM     53  N   UNL A   1      43.960  23.978  30.480  1.00  0.00    -0.354 N 
ATOM     54  N   UNL A   1      43.266  27.038  32.470  1.00  0.00    -0.248 NA
ATOM     55  C   UNL A   1      43.535  27.934  34.583  1.00  0.00     0.031 C 
ATOM     56  C   UNL A   1      45.569  25.502  30.390  1.00  0.00     0.029 A 
ATOM     57  C   UNL A   1      44.662  24.893  31.243  1.00  0.00     0.049 A 
ATOM     58  H   UNL A   1      43.317  23.322  30.836  1.00  0.00     0.167 HD
ATOM     59  C   UNL A   1      43.977  26.119  33.198  1.00  0.00     0.074 A 
ATOM     60  C   UNL A   1      44.096  26.716  34.519  1.00  0.00     0.031 C 
ATOM     61  C   UNL A   1      44.486  24.961  32.683  1.00  0.00     0.037 A 
BRANCH  48  62
ATOM     62  C   UNL A   1      43.746  22.706  26.993  1.00  0.00     0.058 A 
ATOM     63  C   UNL A   1      42.941  21.571  26.723  1.00  0.00     0.135 A 
ATOM     64  C   UNL A   1      44.912  22.777  26.205  1.00  0.00     0.135 A 
ATOM     65  F   UNL A   1      41.755  21.395  27.322  1.00  0.00    -0.206 F 
ATOM     66  C   UNL A   1      43.309  20.553  25.837  1.00  0.00     0.059 A 
ATOM     67  C   UNL A   1      45.317  21.756  25.329  1.00  0.00     0.059 A 
ATOM     68  F   UNL A   1      45.698  23.859  26.211  1.00  0.00    -0.206 F 
ATOM     69  C   UNL A   1      44.517  20.636  25.165  1.00  0.00     0.060 A 
BRANCH  69  70
ATOM     70  S   UNL A   1      45.008  19.283  24.074  1.00  0.00     0.124 S 
ATOM     71  O   UNL A   1      46.462  19.306  24.195  1.00  0.00    -0.237 OA
ATOM     72  O   UNL A   1      44.339  18.137  24.682  1.00  0.00    -0.237 OA
ATOM     73  O   UNL A   1      44.487  19.688  22.772  1.00  0.00    -0.744 OA
ENDBRANCH  69  70
ENDBRANCH  48  62
BRANCH  49  74
ATOM     74  C   UNL A   1      41.157  29.987  33.057  1.00  0.00     0.058 A 
ATOM     75  C   UNL A   1      41.053  31.391  33.193  1.00  0.00     0.135 A 
ATOM     76  C   UNL A   1      39.947  29.278  33.015  1.00  0.00     0.135 A 
ATOM     77  F   UNL A   1      42.165  32.144  33.255  1.00  0.00    -0.206 F 
ATOM     78  C   UNL A   1      39.831  32.064  33.175  1.00  0.00     0.059 A 
ATOM     79  C   UNL A   1      38.704  29.932  33.016  1.00  0.00     0.059 A 
ATOM     80  F   UNL A   1      39.947  27.942  32.897  1.00  0.00    -0.206 F 
ATOM     81  C   UNL A   1      38.659  31.327  33.061  1.00  0.00     0.060 A 
BRANCH  81  82
ATOM     82  S   UNL A   1      37.106  32.225  32.789  1.00  0.00     0.124 S 
ATOM     83  O   UNL A   1      36.156  31.133  32.607  1.00  0.00    -0.237 OA
ATOM     84  O   UNL A   1      36.973  32.978  34.033  1.00  0.00    -0.237 OA
ATOM     85  O   UNL A   1      37.392  33.022  31.599  1.00  0.00    -0.744 OA
ENDBRANCH  81  82
ENDBRANCH  49  74
BRANCH  61  86
ATOM     86  C   UNL A   1      45.006  23.827  33.524  1.00  0.00     0.058 A 
ATOM     87  C   UNL A   1      46.328  23.775  33.998  1.00  0.00     0.135 A 
ATOM     88  C   UNL A   1      44.135  22.824  34.013  1.00  0.00     0.135 A 
ATOM     89  F   UNL A   1      47.210  24.742  33.711  1.00  0.00    -0.206 F 
ATOM     90  C   UNL A   1      46.784  22.746  34.816  1.00  0.00     0.059 A 
ATOM     91  C   UNL A   1      44.554  21.826  34.883  1.00  0.00     0.059 A 
ATOM     92  F   UNL A   1      42.839  22.789  33.670  1.00  0.00    -0.206 F 
ATOM     93  C   UNL A   1      45.890  21.773  35.251  1.00  0.00     0.060 A 
BRANCH  93  94
ATOM     94  S   UNL A   1      46.463  20.460  36.336  1.00  0.00     0.124 S 
ATOM     95  O   UNL A   1      45.903  19.282  35.680  1.00  0.00    -0.237 OA
ATOM     96  O   UNL A   1      47.916  20.589  36.264  1.00  0.00    -0.237 OA
ATOM     97  O   UNL A   1      45.874  20.812  37.623  1.00  0.00    -0.744 OA
ENDBRANCH  93  94
ENDBRANCH  61  86
ENDBRANCH  35  36
ENDBRANCH  28  30
ENDBRANCH  27  28
ENDBRANCH  26  27
ENDBRANCH   1  26
TORSDOF 17
ENDMDL
MODEL 3
REMARK VINA RESULT:     -13.4      1.440      2.120
REMARK SMILES Cc1cc(C(=O)OCCOC(=O)c2ccc(-c3c4nc(c(-c5c(F)cc(S(=O)(=O)[O-])cc5F)c5ccc([nH]5)c(-c5c(F)cc(S(=O)(=O)[O-])cc5F)c5nc(c(-c6c(F)cc(S(=O)(=O)[O-])cc6F)c6ccc3[nH]6)C=C5)C=C4)cc2)ccc1NS(=O)(=O)c1ccc2c(c1)CCC2
REMARK SMILES IDX 8 1 7 2 5 3 6 4 4 5 1 6 2 7 3 8 81 9 80 10 79 11 82 12 83 14
REMARK SMILES IDX 84 15 85 16 86 17 87 18 91 19 88 20 90 21 89 22 92 23 94 24
REMARK SMILES IDX 93 25 9 26 10 27 11 28 12 29 13 30 14 31 78 32 15 33 77 34
REMARK SMILES IDX 16 35 17 36 18 37 71 38 19 39 76 40 70 41 72 42 20 43 75 44
REMARK SMILES IDX 69 45 68 46 21 48 55 49 34 50 54 51 35 52 38 53 53 54 73 55
REMARK SMILES IDX 36 56 37 57 52 59 74 60 39 61 22 62 23 63 32 64 24 65 25 66
REMARK SMILES IDX 31 67 33 68 26 69 27 70 28 71 29 72 30 73 56 74 57 75 66 76
REMARK SMILES IDX 58 77 59 78 65 79 67 80 60 81 61 82 62 83 63 84 64 85 40 86
REMARK SMILES IDX 41 87 50 88 42 89 43 90 49 91 51 92 44 93 45 94 46 95 47 96
REMARK SMILES IDX 48 97
REMARK H PARENT 82 13 72 47 38 58
REMARK Flexibility Score: inf
ROOT
ATOM      1  C   UNL A   1      33.445  28.900  25.909  1.00  0.00     0.275 C 
ENDROOT
BRANCH   1   2
ATOM      2  O   UNL A   1      34.046  27.588  26.055  1.00  0.00    -0.458 OA
BRANCH   2   3
ATOM      3  C   UNL A   1      34.016  26.882  24.892  1.00  0.00     0.338 C 
ATOM      4  O   UNL A   1      33.678  27.377  23.821  1.00  0.00    -0.246 OA
BRANCH   3   5
ATOM      5  C   UNL A   1      34.294  25.413  24.975  1.00  0.00     0.060 A 
ATOM      6  C   UNL A   1      34.600  22.343  27.212  1.00  0.00     0.046 C 
ATOM      7  C   UNL A   1      34.348  23.174  25.978  1.00  0.00    -0.026 A 
ATOM      8  C   UNL A   1      34.219  24.589  26.109  1.00  0.00     0.021 A 
ATOM      9  C   UNL A   1      34.460  22.616  24.690  1.00  0.00     0.052 A 
ATOM     10  C   UNL A   1      34.763  23.444  23.620  1.00  0.00     0.028 A 
ATOM     11  C   UNL A   1      34.675  24.824  23.762  1.00  0.00     0.018 A 
BRANCH   9  12
ATOM     12  N   UNL A   1      34.120  21.257  24.354  1.00  0.00    -0.279 N 
ATOM     13  H   UNL A   1      34.817  20.586  24.173  1.00  0.00     0.180 HD
BRANCH  12  14
ATOM     14  S   UNL A   1      32.437  20.846  24.276  1.00  0.00     0.261 S 
ATOM     15  O   UNL A   1      32.172  20.576  22.865  1.00  0.00    -0.201 OA
ATOM     16  O   UNL A   1      32.180  19.823  25.254  1.00  0.00    -0.201 OA
BRANCH  14  17
ATOM     17  C   UNL A   1      31.467  22.283  24.727  1.00  0.00     0.088 A 
ATOM     18  C   UNL A   1      30.893  22.328  26.010  1.00  0.00     0.022 A 
ATOM     19  C   UNL A   1      31.243  23.332  23.823  1.00  0.00     0.026 A 
ATOM     20  C   UNL A   1      30.357  23.520  26.504  1.00  0.00     0.005 A 
ATOM     21  C   UNL A   1      30.605  24.474  24.299  1.00  0.00    -0.043 A 
ATOM     22  C   UNL A   1      30.272  24.602  25.651  1.00  0.00    -0.045 A 
ATOM     23  C   UNL A   1      30.119  25.676  23.549  1.00  0.00     0.036 C 
ATOM     24  C   UNL A   1      29.824  25.995  25.977  1.00  0.00     0.036 C 
ATOM     25  C   UNL A   1      30.102  26.735  24.659  1.00  0.00     0.010 C 
ENDBRANCH  14  17
ENDBRANCH  12  14
ENDBRANCH   9  12
ENDBRANCH   3   5
ENDBRANCH   2   3
ENDBRANCH   1   2
BRANCH   1  26
ATOM     26  C   UNL A   1      33.956  29.969  26.898  1.00  0.00     0.275 C 
BRANCH  26  27
ATOM     27  O   UNL A   1      34.954  29.550  27.846  1.00  0.00    -0.458 OA
BRANCH  27  28
ATOM     28  C   UNL A   1      35.726  30.557  28.335  1.00  0.00     0.338 C 
ATOM     29  O   UNL A   1      35.277  31.612  28.755  1.00  0.00    -0.246 OA
BRANCH  28  30
ATOM     30  C   UNL A   1      37.060  29.969  28.654  1.00  0.00     0.060 A 
ATOM     31  C   UNL A   1      37.186  29.110  29.754  1.00  0.00     0.016 A 
ATOM     32  C   UNL A   1      38.056  30.000  27.667  1.00  0.00     0.016 A 
ATOM     33  C   UNL A   1      38.259  28.219  29.823  1.00  0.00     0.010 A 
ATOM     34  C   UNL A   1      39.041  29.043  27.669  1.00  0.00     0.010 A 
ATOM     35  C   UNL A   1      39.160  28.170  28.758  1.00  0.00    -0.014 A 
BRANCH  35  36
ATOM     36  C   UNL A   1      40.461  27.520  28.828  1.00  0.00     0.031 A 
ATOM     37  C   UNL A   1      40.720  26.128  28.425  1.00  0.00     0.074 A 
ATOM     38  C   UNL A   1      41.423  28.399  29.179  1.00  0.00     0.049 A 
ATOM     39  N   UNL A   1      41.776  25.465  28.753  1.00  0.00    -0.248 NA
ATOM     40  C   UNL A   1      39.794  25.332  27.633  1.00  0.00     0.031 C 
ATOM     41  C   UNL A   1      42.867  28.298  29.139  1.00  0.00     0.029 A 
ATOM     42  N   UNL A   1      41.179  29.598  29.862  1.00  0.00    -0.354 N 
ATOM     43  C   UNL A   1      41.796  24.282  28.034  1.00  0.00     0.074 A 
ATOM     44  C   UNL A   1      40.492  24.208  27.426  1.00  0.00     0.031 C 
ATOM     45  C   UNL A   1      43.372  29.202  30.002  1.00  0.00     0.029 A 
ATOM     46  C   UNL A   1      42.247  29.795  30.726  1.00  0.00     0.049 A 
ATOM     47  H   UNL A   1      40.399  30.188  29.750  1.00  0.00     0.167 HD
ATOM     48  C   UNL A   1      42.977  23.596  27.939  1.00  0.00     0.037 A 
ATOM     49  C   UNL A   1      42.005  29.659  32.065  1.00  0.00     0.037 A 
ATOM     50  C   UNL A   1      43.971  24.243  28.795  1.00  0.00     0.049 A 
ATOM     51  C   UNL A   1      42.764  28.477  32.612  1.00  0.00     0.074 A 
ATOM     52  C   UNL A   1      44.915  25.220  28.522  1.00  0.00     0.029 A 
ATOM     53  N   UNL A   1      43.815  24.212  30.178  1.00  0.00    -0.354 N 
ATOM     54  N   UNL A   1      43.008  27.378  31.946  1.00  0.00    -0.248 NA
ATOM     55  C   UNL A   1      43.414  28.517  33.915  1.00  0.00     0.031 C 
ATOM     56  C   UNL A   1      45.216  25.877  29.742  1.00  0.00     0.029 A 
ATOM     57  C   UNL A   1      44.491  25.271  30.756  1.00  0.00     0.049 A 
ATOM     58  H   UNL A   1      43.299  23.535  30.672  1.00  0.00     0.167 HD
ATOM     59  C   UNL A   1      43.900  26.620  32.660  1.00  0.00     0.074 A 
ATOM     60  C   UNL A   1      44.101  27.363  33.894  1.00  0.00     0.031 C 
ATOM     61  C   UNL A   1      44.476  25.473  32.195  1.00  0.00     0.037 A 
BRANCH  48  62
ATOM     62  C   UNL A   1      43.347  22.561  26.879  1.00  0.00     0.058 A 
ATOM     63  C   UNL A   1      42.714  21.293  26.874  1.00  0.00     0.135 A 
ATOM     64  C   UNL A   1      44.345  22.703  25.894  1.00  0.00     0.135 A 
ATOM     65  F   UNL A   1      41.685  21.020  27.689  1.00  0.00    -0.206 F 
ATOM     66  C   UNL A   1      43.105  20.234  26.047  1.00  0.00     0.059 A 
ATOM     67  C   UNL A   1      44.774  21.649  25.070  1.00  0.00     0.059 A 
ATOM     68  F   UNL A   1      44.927  23.882  25.649  1.00  0.00    -0.206 F 
ATOM     69  C   UNL A   1      44.160  20.409  25.167  1.00  0.00     0.060 A 
BRANCH  69  70
ATOM     70  S   UNL A   1      44.694  19.015  24.152  1.00  0.00     0.124 S 
ATOM     71  O   UNL A   1      43.774  17.962  24.571  1.00  0.00    -0.237 OA
ATOM     72  O   UNL A   1      44.500  19.525  22.799  1.00  0.00    -0.237 OA
ATOM     73  O   UNL A   1      46.085  18.816  24.549  1.00  0.00    -0.744 OA
ENDBRANCH  69  70
ENDBRANCH  48  62
BRANCH  49  74
ATOM     74  C   UNL A   1      40.652  30.138  32.521  1.00  0.00     0.058 A 
ATOM     75  C   UNL A   1      40.373  31.523  32.454  1.00  0.00     0.135 A 
ATOM     76  C   UNL A   1      39.560  29.296  32.779  1.00  0.00     0.135 A 
ATOM     77  F   UNL A   1      41.366  32.398  32.224  1.00  0.00    -0.206 F 
ATOM     78  C   UNL A   1      39.077  32.036  32.525  1.00  0.00     0.059 A 
ATOM     79  C   UNL A   1      38.249  29.791  32.874  1.00  0.00     0.059 A 
ATOM     80  F   UNL A   1      39.732  27.969  32.869  1.00  0.00    -0.206 F 
ATOM     81  C   UNL A   1      38.015  31.159  32.710  1.00  0.00     0.060 A 
BRANCH  81  82
ATOM     82  S   UNL A   1      36.330  31.810  32.551  1.00  0.00     0.124 S 
ATOM     83  O   UNL A   1      36.061  32.281  33.904  1.00  0.00    -0.237 OA
ATOM     84  O   UNL A   1      36.504  32.851  31.541  1.00  0.00    -0.237 OA
ATOM     85  O   UNL A   1      35.566  30.642  32.122  1.00  0.00    -0.744 OA
ENDBRANCH  81  82
ENDBRANCH  49  74
BRANCH  61  86
ATOM     86  C   UNL A   1      45.219  24.495  33.065  1.00  0.00     0.058 A 
ATOM     87  C   UNL A   1      46.507  24.748  33.566  1.00  0.00     0.135 A 
ATOM     88  C   UNL A   1      44.585  23.327  33.551  1.00  0.00     0.135 A 
ATOM     89  F   UNL A   1      47.154  25.888  33.283  1.00  0.00    -0.206 F 
ATOM     90  C   UNL A   1      47.164  23.858  34.410  1.00  0.00     0.059 A 
ATOM     91  C   UNL A   1      45.198  22.459  34.445  1.00  0.00     0.059 A 
ATOM     92  F   UNL A   1      43.339  22.996  33.182  1.00  0.00    -0.206 F 
ATOM     93  C   UNL A   1      46.502  22.713  34.841  1.00  0.00     0.060 A 
BRANCH  93  94
ATOM     94  S   UNL A   1      47.331  21.575  35.959  1.00  0.00     0.124 S 
ATOM     95  O   UNL A   1      46.195  20.992  36.667  1.00  0.00    -0.237 OA
ATOM     96  O   UNL A   1      48.032  20.676  35.046  1.00  0.00    -0.237 OA
ATOM     97  O   UNL A   1      48.190  22.451  36.747  1.00  0.00    -0.744 OA
ENDBRANCH  93  94
ENDBRANCH  61  86
ENDBRANCH  35  36
ENDBRANCH  28  30
ENDBRANCH  27  28
ENDBRANCH  26  27
ENDBRANCH   1  26
TORSDOF 17
ENDMDL
