MODEL 1
REMARK VINA RESULT:     -13.5      0.000      0.000
REMARK SMILES O=C(OCCOC(=O)[C@H]1CCCN(c2cc(-c3ccccn3)nc(-c3ccccc3F)n2)C1)c1ccc(-c2c3nc(c(-c4c(F)cc(S(=O)(=O)[O-])cc4F)c4ccc([nH]4)c(-c4c(F)cc(S(=O)(=O)[O-])cc4F)c4nc(c(-c5c(F)cc(S(=O)(=O)[O-])cc5F)c5ccc2[nH]5)C=C4)C=C3)cc1
REMARK SMILES IDX 4 1 3 2 2 3 1 4 34 5 35 6 99 7 36 8 98 9 37 10 38 11 39 12
REMARK SMILES IDX 92 13 40 14 97 15 91 16 93 17 41 18 96 19 90 20 89 21 42 23
REMARK SMILES IDX 76 24 55 25 75 26 56 27 59 28 74 29 94 30 57 31 58 32 73 34
REMARK SMILES IDX 95 35 60 36 43 37 44 38 53 39 45 40 46 41 52 42 54 43 47 44
REMARK SMILES IDX 48 45 49 46 50 47 51 48 77 49 78 50 87 51 79 52 80 53 86 54
REMARK SMILES IDX 88 55 81 56 82 57 83 58 84 59 85 60 61 61 62 62 71 63 63 64
REMARK SMILES IDX 64 65 70 66 72 67 65 68 66 69 67 70 68 71 69 72 5 73 6 74
REMARK SMILES IDX 7 75 8 76 9 77 10 78 33 79 11 80 13 81 12 82 14 83 15 84
REMARK SMILES IDX 32 85 16 86 24 87 23 88 17 89 18 90 22 91 19 92 21 93 20 94
REMARK SMILES IDX 25 95 26 96 30 97 27 98 29 99 31 100 28 101
REMARK H PARENT 93 22 59 33
REMARK Flexibility Score: inf
ROOT
ATOM      1  C   UNL A   1      44.528  21.107  25.087  1.00  0.00     0.275 C 
ENDROOT
BRANCH   1   2
ATOM      2  O   UNL A   1      44.522  22.543  25.136  1.00  0.00    -0.458 OA
BRANCH   2   3
ATOM      3  C   UNL A   1      45.234  23.249  26.053  1.00  0.00     0.338 C 
ATOM      4  O   UNL A   1      46.313  22.865  26.481  1.00  0.00    -0.246 OA
BRANCH   3   5
ATOM      5  C   UNL A   1      44.501  24.326  26.752  1.00  0.00     0.060 A 
ATOM      6  C   UNL A   1      43.273  24.125  27.383  1.00  0.00     0.016 A 
ATOM      7  C   UNL A   1      45.104  25.586  26.776  1.00  0.00     0.016 A 
ATOM      8  C   UNL A   1      42.729  25.138  28.173  1.00  0.00     0.010 A 
ATOM      9  C   UNL A   1      44.559  26.600  27.562  1.00  0.00     0.010 A 
ATOM     10  C   UNL A   1      43.391  26.364  28.298  1.00  0.00    -0.014 A 
BRANCH  10  11
ATOM     11  C   UNL A   1      42.899  27.375  29.248  1.00  0.00     0.031 A 
ATOM     12  C   UNL A   1      43.150  27.267  30.735  1.00  0.00     0.074 A 
ATOM     13  C   UNL A   1      42.092  28.355  28.804  1.00  0.00     0.049 A 
ATOM     14  N   UNL A   1      42.762  28.066  31.706  1.00  0.00    -0.248 NA
ATOM     15  C   UNL A   1      43.922  26.106  31.177  1.00  0.00     0.031 C 
ATOM     16  C   UNL A   1      41.598  28.601  27.488  1.00  0.00     0.029 A 
ATOM     17  N   UNL A   1      41.508  29.296  29.586  1.00  0.00    -0.354 N 
ATOM     18  C   UNL A   1      43.276  27.535  32.880  1.00  0.00     0.074 A 
ATOM     19  C   UNL A   1      43.936  26.292  32.489  1.00  0.00     0.031 C 
ATOM     20  C   UNL A   1      40.620  29.520  27.542  1.00  0.00     0.029 A 
ATOM     21  C   UNL A   1      40.242  30.037  29.108  1.00  0.00     0.049 A 
ATOM     22  H   UNL A   1      41.894  29.507  30.466  1.00  0.00     0.167 HD
ATOM     23  C   UNL A   1      43.295  28.018  34.152  1.00  0.00     0.037 A 
ATOM     24  C   UNL A   1      38.890  31.010  29.961  1.00  0.00     0.037 A 
ATOM     25  C   UNL A   1      42.607  29.165  34.720  1.00  0.00     0.049 A 
ATOM     26  C   UNL A   1      38.657  31.509  31.724  1.00  0.00     0.074 A 
ATOM     27  C   UNL A   1      42.871  29.750  35.951  1.00  0.00     0.029 A 
ATOM     28  N   UNL A   1      41.477  29.824  34.226  1.00  0.00    -0.354 N 
ATOM     29  N   UNL A   1      39.263  30.979  32.774  1.00  0.00    -0.248 NA
ATOM     30  C   UNL A   1      37.855  32.679  32.152  1.00  0.00     0.031 C 
ATOM     31  C   UNL A   1      41.908  30.732  36.211  1.00  0.00     0.029 A 
ATOM     32  C   UNL A   1      41.057  30.824  35.121  1.00  0.00     0.049 A 
ATOM     33  H   UNL A   1      41.036  29.617  33.370  1.00  0.00     0.167 HD
ATOM     34  C   UNL A   1      39.169  31.826  33.832  1.00  0.00     0.074 A 
ATOM     35  C   UNL A   1      38.200  32.820  33.438  1.00  0.00     0.031 C 
ATOM     36  C   UNL A   1      39.967  31.786  34.926  1.00  0.00     0.037 A 
BRANCH  23  37
ATOM     37  C   UNL A   1      44.294  27.302  35.034  1.00  0.00     0.058 A 
ATOM     38  C   UNL A   1      45.631  27.709  35.129  1.00  0.00     0.135 A 
ATOM     39  C   UNL A   1      43.857  26.260  35.876  1.00  0.00     0.135 A 
ATOM     40  F   UNL A   1      46.094  28.706  34.360  1.00  0.00    -0.206 F 
ATOM     41  C   UNL A   1      46.488  27.143  36.071  1.00  0.00     0.059 A 
ATOM     42  C   UNL A   1      44.690  25.697  36.835  1.00  0.00     0.059 A 
ATOM     43  F   UNL A   1      42.578  25.850  35.835  1.00  0.00    -0.206 F 
ATOM     44  C   UNL A   1      46.003  26.156  36.933  1.00  0.00     0.060 A 
BRANCH  44  45
ATOM     45  S   UNL A   1      47.051  25.575  38.287  1.00  0.00     0.124 S 
ATOM     46  O   UNL A   1      46.521  26.326  39.420  1.00  0.00    -0.237 OA
ATOM     47  O   UNL A   1      46.788  24.139  38.293  1.00  0.00    -0.237 OA
ATOM     48  O   UNL A   1      48.393  25.950  37.851  1.00  0.00    -0.744 OA
ENDBRANCH  44  45
ENDBRANCH  23  37
BRANCH  24  49
ATOM     49  C   UNL A   1      37.473  31.910  29.455  1.00  0.00     0.058 A 
ATOM     50  C   UNL A   1      37.519  33.257  29.044  1.00  0.00     0.135 A 
ATOM     51  C   UNL A   1      36.180  31.326  29.560  1.00  0.00     0.135 A 
ATOM     52  F   UNL A   1      38.688  33.855  28.771  1.00  0.00    -0.206 F 
ATOM     53  C   UNL A   1      36.361  34.040  29.011  1.00  0.00     0.059 A 
ATOM     54  C   UNL A   1      35.018  32.087  29.512  1.00  0.00     0.059 A 
ATOM     55  F   UNL A   1      36.036  30.008  29.760  1.00  0.00    -0.206 F 
ATOM     56  C   UNL A   1      35.128  33.458  29.317  1.00  0.00     0.060 A 
BRANCH  56  57
ATOM     57  S   UNL A   1      33.690  34.523  29.577  1.00  0.00     0.124 S 
ATOM     58  O   UNL A   1      32.678  33.844  28.771  1.00  0.00    -0.237 OA
ATOM     59  O   UNL A   1      33.507  34.455  31.021  1.00  0.00    -0.237 OA
ATOM     60  O   UNL A   1      34.127  35.816  29.058  1.00  0.00    -0.744 OA
ENDBRANCH  56  57
ENDBRANCH  24  49
BRANCH  36  61
ATOM     61  C   UNL A   1      39.791  32.875  35.942  1.00  0.00     0.058 A 
ATOM     62  C   UNL A   1      40.561  34.049  35.869  1.00  0.00     0.135 A 
ATOM     63  C   UNL A   1      38.937  32.722  37.043  1.00  0.00     0.135 A 
ATOM     64  F   UNL A   1      41.388  34.252  34.831  1.00  0.00    -0.206 F 
ATOM     65  C   UNL A   1      40.519  35.014  36.870  1.00  0.00     0.059 A 
ATOM     66  C   UNL A   1      38.865  33.683  38.049  1.00  0.00     0.059 A 
ATOM     67  F   UNL A   1      38.170  31.626  37.155  1.00  0.00    -0.206 F 
ATOM     68  C   UNL A   1      39.678  34.815  37.965  1.00  0.00     0.060 A 
BRANCH  68  69
ATOM     69  S   UNL A   1      39.642  36.062  39.272  1.00  0.00     0.124 S 
ATOM     70  O   UNL A   1      38.701  35.473  40.219  1.00  0.00    -0.237 OA
ATOM     71  O   UNL A   1      41.036  36.104  39.707  1.00  0.00    -0.237 OA
ATOM     72  O   UNL A   1      39.175  37.259  38.581  1.00  0.00    -0.744 OA
ENDBRANCH  68  69
ENDBRANCH  36  61
ENDBRANCH  10  11
ENDBRANCH   3   5
ENDBRANCH   2   3
ENDBRANCH   1   2
BRANCH   1  73
ATOM     73  C   UNL A   1      43.385  20.411  25.837  1.00  0.00     0.274 C 
BRANCH  73  74
ATOM     74  O   UNL A   1      42.201  21.196  26.054  1.00  0.00    -0.462 OA
BRANCH  74  75
ATOM     75  C   UNL A   1      41.057  20.463  26.150  1.00  0.00     0.310 C 
ATOM     76  O   UNL A   1      40.998  19.270  25.868  1.00  0.00    -0.252 OA
BRANCH  75  77
ATOM     77  C   UNL A   1      39.828  21.294  26.510  1.00  0.00     0.118 C 
ATOM     78  C   UNL A   1      40.291  22.741  26.771  1.00  0.00     0.019 C 
ATOM     79  C   UNL A   1      38.721  21.253  25.453  1.00  0.00     0.133 C 
ATOM     80  C   UNL A   1      39.124  23.689  27.021  1.00  0.00     0.022 C 
ATOM     81  N   UNL A   1      37.695  22.271  25.699  1.00  0.00    -0.356 N 
ATOM     82  C   UNL A   1      38.128  23.645  25.869  1.00  0.00     0.118 C 
BRANCH  81  83
ATOM     83  C   UNL A   1      36.378  21.994  25.374  1.00  0.00     0.133 A 
ATOM     84  C   UNL A   1      35.939  20.693  25.201  1.00  0.00     0.077 A 
ATOM     85  N   UNL A   1      35.531  23.027  25.239  1.00  0.00    -0.211 NA
ATOM     86  C   UNL A   1      34.612  20.500  24.865  1.00  0.00     0.095 A 
ATOM     87  C   UNL A   1      34.250  22.754  24.901  1.00  0.00     0.165 A 
ATOM     88  N   UNL A   1      33.761  21.527  24.699  1.00  0.00    -0.226 NA
BRANCH  86  89
ATOM     89  C   UNL A   1      34.028  19.155  24.768  1.00  0.00     0.089 A 
ATOM     90  C   UNL A   1      34.788  18.066  24.335  1.00  0.00     0.030 A 
ATOM     91  N   UNL A   1      32.722  19.032  25.123  1.00  0.00    -0.255 NA
ATOM     92  C   UNL A   1      34.201  16.802  24.298  1.00  0.00     0.004 A 
ATOM     93  C   UNL A   1      32.197  17.787  25.119  1.00  0.00     0.112 A 
ATOM     94  C   UNL A   1      32.883  16.656  24.710  1.00  0.00     0.020 A 
ENDBRANCH  86  89
BRANCH  87  95
ATOM     95  C   UNL A   1      33.275  23.832  25.108  1.00  0.00     0.055 A 
ATOM     96  C   UNL A   1      31.954  23.657  26.392  1.00  0.00     0.015 A 
ATOM     97  C   UNL A   1      32.995  24.959  23.678  1.00  0.00     0.134 A 
ATOM     98  C   UNL A   1      30.327  24.569  26.217  1.00  0.00     0.001 A 
ATOM     99  C   UNL A   1      31.352  25.895  23.488  1.00  0.00     0.040 A 
ATOM    100  F   UNL A   1      33.848  24.929  22.640  1.00  0.00    -0.206 F 
ATOM    101  C   UNL A   1      30.034  25.679  24.764  1.00  0.00     0.003 A 
ENDBRANCH  87  95
ENDBRANCH  81  83
ENDBRANCH  75  77
ENDBRANCH  74  75
ENDBRANCH  73  74
ENDBRANCH   1  73
TORSDOF 17
ENDMDL
MODEL 2
REMARK VINA RESULT:     -13.4      1.706      7.999
REMARK SMILES O=C(OCCOC(=O)[C@H]1CCCN(c2cc(-c3ccccn3)nc(-c3ccccc3F)n2)C1)c1ccc(-c2c3nc(c(-c4c(F)cc(S(=O)(=O)[O-])cc4F)c4ccc([nH]4)c(-c4c(F)cc(S(=O)(=O)[O-])cc4F)c4nc(c(-c5c(F)cc(S(=O)(=O)[O-])cc5F)c5ccc2[nH]5)C=C4)C=C3)cc1
REMARK SMILES IDX 4 1 3 2 2 3 1 4 34 5 35 6 99 7 36 8 98 9 37 10 38 11 39 12
REMARK SMILES IDX 92 13 40 14 97 15 91 16 93 17 41 18 96 19 90 20 89 21 42 23
REMARK SMILES IDX 76 24 55 25 75 26 56 27 59 28 74 29 94 30 57 31 58 32 73 34
REMARK SMILES IDX 95 35 60 36 43 37 44 38 53 39 45 40 46 41 52 42 54 43 47 44
REMARK SMILES IDX 48 45 49 46 50 47 51 48 77 49 78 50 87 51 79 52 80 53 86 54
REMARK SMILES IDX 88 55 81 56 82 57 83 58 84 59 85 60 61 61 62 62 71 63 63 64
REMARK SMILES IDX 64 65 70 66 72 67 65 68 66 69 67 70 68 71 69 72 5 73 6 74
REMARK SMILES IDX 7 75 8 76 9 77 10 78 33 79 11 80 13 81 12 82 14 83 15 84
REMARK SMILES IDX 32 85 16 86 24 87 23 88 17 89 18 90 22 91 19 92 21 93 20 94
REMARK SMILES IDX 25 95 26 96 30 97 27 98 29 99 31 100 28 101
REMARK H PARENT 93 22 59 33
REMARK Flexibility Score: inf
ROOT
ATOM      1  C   UNL A   1      43.230  23.050  25.071  1.00  0.00     0.275 C 
ENDROOT
BRANCH   1   2
ATOM      2  O   UNL A   1      42.488  24.270  25.238  1.00  0.00    -0.458 OA
BRANCH   2   3
ATOM      3  C   UNL A   1      43.084  25.460  25.512  1.00  0.00     0.338 C 
ATOM      4  O   UNL A   1      44.184  25.759  25.068  1.00  0.00    -0.246 OA
BRANCH   3   5
ATOM      5  C   UNL A   1      42.502  26.234  26.628  1.00  0.00     0.060 A 
ATOM      6  C   UNL A   1      41.433  25.774  27.397  1.00  0.00     0.016 A 
ATOM      7  C   UNL A   1      43.085  27.473  26.908  1.00  0.00     0.016 A 
ATOM      8  C   UNL A   1      41.054  26.475  28.543  1.00  0.00     0.010 A 
ATOM      9  C   UNL A   1      42.705  28.175  28.050  1.00  0.00     0.010 A 
ATOM     10  C   UNL A   1      41.717  27.655  28.895  1.00  0.00    -0.014 A 
BRANCH  10  11
ATOM     11  C   UNL A   1      41.422  28.312  30.180  1.00  0.00     0.031 A 
ATOM     12  C   UNL A   1      40.438  29.455  30.288  1.00  0.00     0.074 A 
ATOM     13  C   UNL A   1      42.140  27.979  31.267  1.00  0.00     0.049 A 
ATOM     14  N   UNL A   1      40.086  30.154  31.346  1.00  0.00    -0.248 NA
ATOM     15  C   UNL A   1      39.784  29.864  29.045  1.00  0.00     0.031 C 
ATOM     16  C   UNL A   1      43.206  27.040  31.401  1.00  0.00     0.029 A 
ATOM     17  N   UNL A   1      42.024  28.565  32.484  1.00  0.00    -0.354 N 
ATOM     18  C   UNL A   1      39.134  31.065  30.913  1.00  0.00     0.074 A 
ATOM     19  C   UNL A   1      39.034  30.870  29.470  1.00  0.00     0.031 C 
ATOM     20  C   UNL A   1      43.809  27.216  32.589  1.00  0.00     0.029 A 
ATOM     21  C   UNL A   1      43.184  28.496  33.500  1.00  0.00     0.049 A 
ATOM     22  H   UNL A   1      41.195  29.038  32.721  1.00  0.00     0.167 HD
ATOM     23  C   UNL A   1      38.345  31.935  31.602  1.00  0.00     0.037 A 
ATOM     24  C   UNL A   1      43.655  29.479  35.022  1.00  0.00     0.037 A 
ATOM     25  C   UNL A   1      38.391  32.321  33.002  1.00  0.00     0.049 A 
ATOM     26  C   UNL A   1      42.807  30.861  35.907  1.00  0.00     0.074 A 
ATOM     27  C   UNL A   1      37.403  33.010  33.693  1.00  0.00     0.029 A 
ATOM     28  N   UNL A   1      39.462  32.205  33.894  1.00  0.00    -0.354 N 
ATOM     29  N   UNL A   1      41.845  31.627  35.420  1.00  0.00    -0.248 NA
ATOM     30  C   UNL A   1      43.018  31.176  37.339  1.00  0.00     0.031 C 
ATOM     31  C   UNL A   1      37.872  33.326  34.974  1.00  0.00     0.029 A 
ATOM     32  C   UNL A   1      39.139  32.788  35.133  1.00  0.00     0.049 A 
ATOM     33  H   UNL A   1      40.323  31.776  33.684  1.00  0.00     0.167 HD
ATOM     34  C   UNL A   1      41.196  32.248  36.440  1.00  0.00     0.074 A 
ATOM     35  C   UNL A   1      42.017  32.026  37.605  1.00  0.00     0.031 C 
ATOM     36  C   UNL A   1      39.960  32.795  36.348  1.00  0.00     0.037 A 
BRANCH  23  37
ATOM     37  C   UNL A   1      37.184  32.448  30.778  1.00  0.00     0.058 A 
ATOM     38  C   UNL A   1      35.907  31.880  30.855  1.00  0.00     0.135 A 
ATOM     39  C   UNL A   1      37.350  33.604  29.988  1.00  0.00     0.135 A 
ATOM     40  F   UNL A   1      35.692  30.789  31.605  1.00  0.00    -0.206 F 
ATOM     41  C   UNL A   1      34.818  32.473  30.218  1.00  0.00     0.059 A 
ATOM     42  C   UNL A   1      36.274  34.220  29.362  1.00  0.00     0.059 A 
ATOM     43  F   UNL A   1      38.553  34.195  29.901  1.00  0.00    -0.206 F 
ATOM     44  C   UNL A   1      35.008  33.654  29.494  1.00  0.00     0.060 A 
BRANCH  44  45
ATOM     45  S   UNL A   1      33.566  34.533  28.847  1.00  0.00     0.124 S 
ATOM     46  O   UNL A   1      32.758  34.707  30.049  1.00  0.00    -0.237 OA
ATOM     47  O   UNL A   1      34.161  35.746  28.295  1.00  0.00    -0.237 OA
ATOM     48  O   UNL A   1      33.032  33.605  27.853  1.00  0.00    -0.744 OA
ENDBRANCH  44  45
ENDBRANCH  23  37
BRANCH  24  49
ATOM     49  C   UNL A   1      44.923  29.402  36.230  1.00  0.00     0.058 A 
ATOM     50  C   UNL A   1      46.061  30.231  36.211  1.00  0.00     0.135 A 
ATOM     51  C   UNL A   1      44.897  28.390  37.230  1.00  0.00     0.135 A 
ATOM     52  F   UNL A   1      46.118  31.305  35.409  1.00  0.00    -0.206 F 
ATOM     53  C   UNL A   1      47.205  29.903  36.945  1.00  0.00     0.059 A 
ATOM     54  C   UNL A   1      46.019  28.061  37.980  1.00  0.00     0.059 A 
ATOM     55  F   UNL A   1      43.785  27.673  37.453  1.00  0.00    -0.206 F 
ATOM     56  C   UNL A   1      47.192  28.774  37.770  1.00  0.00     0.060 A 
BRANCH  56  57
ATOM     57  S   UNL A   1      48.748  28.176  38.470  1.00  0.00     0.124 S 
ATOM     58  O   UNL A   1      49.708  28.617  37.462  1.00  0.00    -0.237 OA
ATOM     59  O   UNL A   1      48.802  28.871  39.750  1.00  0.00    -0.237 OA
ATOM     60  O   UNL A   1      48.553  26.731  38.548  1.00  0.00    -0.744 OA
ENDBRANCH  56  57
ENDBRANCH  24  49
BRANCH  36  61
ATOM     61  C   UNL A   1      39.355  33.335  37.610  1.00  0.00     0.058 A 
ATOM     62  C   UNL A   1      39.809  34.548  38.156  1.00  0.00     0.135 A 
ATOM     63  C   UNL A   1      38.397  32.611  38.333  1.00  0.00     0.135 A 
ATOM     64  F   UNL A   1      40.718  35.287  37.500  1.00  0.00    -0.206 F 
ATOM     65  C   UNL A   1      39.365  35.004  39.393  1.00  0.00     0.059 A 
ATOM     66  C   UNL A   1      37.925  33.058  39.566  1.00  0.00     0.059 A 
ATOM     67  F   UNL A   1      37.919  31.454  37.851  1.00  0.00    -0.206 F 
ATOM     68  C   UNL A   1      38.433  34.244  40.099  1.00  0.00     0.060 A 
BRANCH  68  69
ATOM     69  S   UNL A   1      37.875  34.831  41.713  1.00  0.00     0.124 S 
ATOM     70  O   UNL A   1      38.169  36.257  41.628  1.00  0.00    -0.237 OA
ATOM     71  O   UNL A   1      36.458  34.474  41.707  1.00  0.00    -0.237 OA
ATOM     72  O   UNL A   1      38.697  34.072  42.650  1.00  0.00    -0.744 OA
ENDBRANCH  68  69
ENDBRANCH  36  61
ENDBRANCH  10  11
ENDBRANCH   3   5
ENDBRANCH   2   3
ENDBRANCH   1   2
BRANCH   1  73
ATOM     73  C   UNL A   1      42.630  21.810  25.744  1.00  0.00     0.274 C 
BRANCH  73  74
ATOM     74  O   UNL A   1      41.495  22.040  26.595  1.00  0.00    -0.462 OA
BRANCH  74  75
ATOM     75  C   UNL A   1      40.443  21.208  26.358  1.00  0.00     0.310 C 
ATOM     76  O   UNL A   1      40.577  20.045  25.988  1.00  0.00    -0.252 OA
BRANCH  75  77
ATOM     77  C   UNL A   1      39.084  21.895  26.465  1.00  0.00     0.118 C 
ATOM     78  C   UNL A   1      39.319  23.418  26.451  1.00  0.00     0.019 C 
ATOM     79  C   UNL A   1      38.093  21.481  25.374  1.00  0.00     0.133 C 
ATOM     80  C   UNL A   1      38.015  24.207  26.430  1.00  0.00     0.022 C 
ATOM     81  N   UNL A   1      36.919  22.359  25.343  1.00  0.00    -0.356 N 
ATOM     82  C   UNL A   1      37.142  23.789  25.253  1.00  0.00     0.118 C 
BRANCH  81  83
ATOM     83  C   UNL A   1      35.687  21.826  25.002  1.00  0.00     0.133 A 
ATOM     84  C   UNL A   1      35.469  20.459  25.011  1.00  0.00     0.077 A 
ATOM     85  N   UNL A   1      34.703  22.675  24.670  1.00  0.00    -0.211 NA
ATOM     86  C   UNL A   1      34.215  20.005  24.646  1.00  0.00     0.095 A 
ATOM     87  C   UNL A   1      33.507  22.151  24.318  1.00  0.00     0.165 A 
ATOM     88  N   UNL A   1      33.229  20.843  24.284  1.00  0.00    -0.226 NA
BRANCH  86  89
ATOM     89  C   UNL A   1      33.855  18.583  24.730  1.00  0.00     0.089 A 
ATOM     90  C   UNL A   1      34.730  17.587  24.290  1.00  0.00     0.030 A 
ATOM     91  N   UNL A   1      32.636  18.294  25.257  1.00  0.00    -0.255 NA
ATOM     92  C   UNL A   1      34.360  16.251  24.427  1.00  0.00     0.004 A 
ATOM     93  C   UNL A   1      32.326  16.989  25.417  1.00  0.00     0.112 A 
ATOM     94  C   UNL A   1      33.139  15.943  25.014  1.00  0.00     0.020 A 
ENDBRANCH  86  89
BRANCH  87  95
ATOM     95  C   UNL A   1      32.364  23.073  24.310  1.00  0.00     0.055 A 
ATOM     96  C   UNL A   1      32.060  24.166  22.849  1.00  0.00     0.015 A 
ATOM     97  C   UNL A   1      31.716  23.576  25.960  1.00  0.00     0.134 A 
ATOM     98  C   UNL A   1      31.154  25.794  23.048  1.00  0.00     0.001 A 
ATOM     99  C   UNL A   1      30.792  25.221  26.178  1.00  0.00     0.040 A 
ATOM    100  F   UNL A   1      32.112  22.905  27.055  1.00  0.00    -0.206 F 
ATOM    101  C   UNL A   1      30.529  26.314  24.711  1.00  0.00     0.003 A 
ENDBRANCH  87  95
ENDBRANCH  81  83
ENDBRANCH  75  77
ENDBRANCH  74  75
ENDBRANCH  73  74
ENDBRANCH   1  73
TORSDOF 17
ENDMDL
MODEL 3
REMARK VINA RESULT:     -13.1      1.255      1.937
REMARK SMILES O=C(OCCOC(=O)[C@H]1CCCN(c2cc(-c3ccccn3)nc(-c3ccccc3F)n2)C1)c1ccc(-c2c3nc(c(-c4c(F)cc(S(=O)(=O)[O-])cc4F)c4ccc([nH]4)c(-c4c(F)cc(S(=O)(=O)[O-])cc4F)c4nc(c(-c5c(F)cc(S(=O)(=O)[O-])cc5F)c5ccc2[nH]5)C=C4)C=C3)cc1
REMARK SMILES IDX 4 1 3 2 2 3 1 4 34 5 35 6 99 7 36 8 98 9 37 10 38 11 39 12
REMARK SMILES IDX 92 13 40 14 97 15 91 16 93 17 41 18 96 19 90 20 89 21 42 23
REMARK SMILES IDX 76 24 55 25 75 26 56 27 59 28 74 29 94 30 57 31 58 32 73 34
REMARK SMILES IDX 95 35 60 36 43 37 44 38 53 39 45 40 46 41 52 42 54 43 47 44
REMARK SMILES IDX 48 45 49 46 50 47 51 48 77 49 78 50 87 51 79 52 80 53 86 54
REMARK SMILES IDX 88 55 81 56 82 57 83 58 84 59 85 60 61 61 62 62 71 63 63 64
REMARK SMILES IDX 64 65 70 66 72 67 65 68 66 69 67 70 68 71 69 72 5 73 6 74
REMARK SMILES IDX 7 75 8 76 9 77 10 78 33 79 11 80 13 81 12 82 14 83 15 84
REMARK SMILES IDX 32 85 16 86 24 87 23 88 17 89 18 90 22 91 19 92 21 93 20 94
REMARK SMILES IDX 25 95 26 96 30 97 27 98 29 99 31 100 28 101
REMARK H PARENT 93 22 59 33
REMARK Flexibility Score: inf
ROOT
ATOM      1  C   UNL A   1      44.342  22.131  25.976  1.00  0.00     0.275 C 
ENDROOT
BRANCH   1   2
ATOM      2  O   UNL A   1      43.802  23.391  26.406  1.00  0.00    -0.458 OA
BRANCH   2   3
ATOM      3  C   UNL A   1      44.571  24.498  26.580  1.00  0.00     0.338 C 
ATOM      4  O   UNL A   1      45.640  24.649  26.006  1.00  0.00    -0.246 OA
BRANCH   3   5
ATOM      5  C   UNL A   1      44.224  25.352  27.736  1.00  0.00     0.060 A 
ATOM      6  C   UNL A   1      45.125  26.241  28.323  1.00  0.00     0.016 A 
ATOM      7  C   UNL A   1      42.920  25.248  28.228  1.00  0.00     0.016 A 
ATOM      8  C   UNL A   1      44.676  27.140  29.291  1.00  0.00     0.010 A 
ATOM      9  C   UNL A   1      42.472  26.143  29.197  1.00  0.00     0.010 A 
ATOM     10  C   UNL A   1      43.339  27.122  29.701  1.00  0.00    -0.014 A 
BRANCH  10  11
ATOM     11  C   UNL A   1      42.830  28.165  30.607  1.00  0.00     0.031 A 
ATOM     12  C   UNL A   1      43.142  28.162  32.087  1.00  0.00     0.074 A 
ATOM     13  C   UNL A   1      41.957  29.073  30.137  1.00  0.00     0.049 A 
ATOM     14  N   UNL A   1      42.749  29.000  33.023  1.00  0.00    -0.248 NA
ATOM     15  C   UNL A   1      43.990  27.071  32.567  1.00  0.00     0.031 C 
ATOM     16  C   UNL A   1      41.402  29.211  28.830  1.00  0.00     0.029 A 
ATOM     17  N   UNL A   1      41.354  30.030  30.885  1.00  0.00    -0.354 N 
ATOM     18  C   UNL A   1      43.334  28.569  34.204  1.00  0.00     0.074 A 
ATOM     19  C   UNL A   1      44.043  27.339  33.863  1.00  0.00     0.031 C 
ATOM     20  C   UNL A   1      40.380  30.081  28.868  1.00  0.00     0.029 A 
ATOM     21  C   UNL A   1      40.034  30.675  30.414  1.00  0.00     0.049 A 
ATOM     22  H   UNL A   1      41.761  30.315  31.734  1.00  0.00     0.167 HD
ATOM     23  C   UNL A   1      43.375  29.131  35.443  1.00  0.00     0.037 A 
ATOM     24  C   UNL A   1      38.665  31.631  31.260  1.00  0.00     0.037 A 
ATOM     25  C   UNL A   1      42.649  30.275  35.968  1.00  0.00     0.049 A 
ATOM     26  C   UNL A   1      38.472  32.227  32.998  1.00  0.00     0.074 A 
ATOM     27  C   UNL A   1      42.928  30.949  37.150  1.00  0.00     0.029 A 
ATOM     28  N   UNL A   1      41.468  30.845  35.481  1.00  0.00    -0.354 N 
ATOM     29  N   UNL A   1      39.144  31.795  34.052  1.00  0.00    -0.248 NA
ATOM     30  C   UNL A   1      37.626  33.380  33.386  1.00  0.00     0.031 C 
ATOM     31  C   UNL A   1      41.924  31.895  37.389  1.00  0.00     0.029 A 
ATOM     32  C   UNL A   1      41.030  31.877  36.331  1.00  0.00     0.049 A 
ATOM     33  H   UNL A   1      41.007  30.563  34.658  1.00  0.00     0.167 HD
ATOM     34  C   UNL A   1      39.045  32.700  35.060  1.00  0.00     0.074 A 
ATOM     35  C   UNL A   1      38.012  33.618  34.647  1.00  0.00     0.031 C 
ATOM     36  C   UNL A   1      39.884  32.768  36.122  1.00  0.00     0.037 A 
BRANCH  23  37
ATOM     37  C   UNL A   1      44.442  28.522  36.325  1.00  0.00     0.058 A 
ATOM     38  C   UNL A   1      45.750  29.022  36.367  1.00  0.00     0.135 A 
ATOM     39  C   UNL A   1      44.098  27.490  37.222  1.00  0.00     0.135 A 
ATOM     40  F   UNL A   1      46.124  30.015  35.545  1.00  0.00    -0.206 F 
ATOM     41  C   UNL A   1      46.667  28.557  37.308  1.00  0.00     0.059 A 
ATOM     42  C   UNL A   1      44.992  27.026  38.179  1.00  0.00     0.059 A 
ATOM     43  F   UNL A   1      42.850  26.993  37.232  1.00  0.00    -0.206 F 
ATOM     44  C   UNL A   1      46.272  27.576  38.223  1.00  0.00     0.060 A 
BRANCH  44  45
ATOM     45  S   UNL A   1      47.390  27.126  39.570  1.00  0.00     0.124 S 
ATOM     46  O   UNL A   1      48.630  26.856  38.851  1.00  0.00    -0.237 OA
ATOM     47  O   UNL A   1      47.380  28.327  40.399  1.00  0.00    -0.237 OA
ATOM     48  O   UNL A   1      46.738  25.964  40.168  1.00  0.00    -0.744 OA
ENDBRANCH  44  45
ENDBRANCH  23  37
BRANCH  24  49
ATOM     49  C   UNL A   1      37.186  32.426  30.759  1.00  0.00     0.058 A 
ATOM     50  C   UNL A   1      35.907  31.857  30.925  1.00  0.00     0.135 A 
ATOM     51  C   UNL A   1      37.241  33.654  30.042  1.00  0.00     0.135 A 
ATOM     52  F   UNL A   1      35.727  30.784  31.709  1.00  0.00    -0.206 F 
ATOM     53  C   UNL A   1      34.809  32.326  30.197  1.00  0.00     0.059 A 
ATOM     54  C   UNL A   1      36.154  34.143  29.327  1.00  0.00     0.059 A 
ATOM     55  F   UNL A   1      38.374  34.369  29.991  1.00  0.00    -0.206 F 
ATOM     56  C   UNL A   1      34.966  33.425  29.348  1.00  0.00     0.060 A 
BRANCH  56  57
ATOM     57  S   UNL A   1      33.645  33.835  28.184  1.00  0.00     0.124 S 
ATOM     58  O   UNL A   1      32.692  34.517  29.056  1.00  0.00    -0.237 OA
ATOM     59  O   UNL A   1      34.334  34.675  27.212  1.00  0.00    -0.237 OA
ATOM     60  O   UNL A   1      33.209  32.532  27.691  1.00  0.00    -0.744 OA
ENDBRANCH  56  57
ENDBRANCH  24  49
BRANCH  36  61
ATOM     61  C   UNL A   1      39.690  33.909  37.077  1.00  0.00     0.058 A 
ATOM     62  C   UNL A   1      40.369  35.124  36.883  1.00  0.00     0.135 A 
ATOM     63  C   UNL A   1      38.912  33.772  38.234  1.00  0.00     0.135 A 
ATOM     64  F   UNL A   1      41.120  35.313  35.786  1.00  0.00    -0.206 F 
ATOM     65  C   UNL A   1      40.315  36.148  37.823  1.00  0.00     0.059 A 
ATOM     66  C   UNL A   1      38.829  34.792  39.181  1.00  0.00     0.059 A 
ATOM     67  F   UNL A   1      38.231  32.638  38.461  1.00  0.00    -0.206 F 
ATOM     68  C   UNL A   1      39.554  35.967  38.978  1.00  0.00     0.060 A 
BRANCH  68  69
ATOM     69  S   UNL A   1      39.504  37.293  40.203  1.00  0.00     0.124 S 
ATOM     70  O   UNL A   1      40.908  37.679  40.281  1.00  0.00    -0.237 OA
ATOM     71  O   UNL A   1      38.612  38.267  39.579  1.00  0.00    -0.237 OA
ATOM     72  O   UNL A   1      38.964  36.635  41.389  1.00  0.00    -0.744 OA
ENDBRANCH  68  69
ENDBRANCH  36  61
ENDBRANCH  10  11
ENDBRANCH   3   5
ENDBRANCH   2   3
ENDBRANCH   1   2
BRANCH   1  73
ATOM     73  C   UNL A   1      43.319  21.010  25.755  1.00  0.00     0.274 C 
BRANCH  73  74
ATOM     74  O   UNL A   1      41.943  21.418  25.676  1.00  0.00    -0.462 OA
BRANCH  74  75
ATOM     75  C   UNL A   1      41.158  20.926  26.675  1.00  0.00     0.310 C 
ATOM     76  O   UNL A   1      41.377  19.855  27.235  1.00  0.00    -0.252 OA
BRANCH  75  77
ATOM     77  C   UNL A   1      39.909  21.764  26.939  1.00  0.00     0.118 C 
ATOM     78  C   UNL A   1      40.360  23.203  27.258  1.00  0.00     0.019 C 
ATOM     79  C   UNL A   1      38.898  21.746  25.790  1.00  0.00     0.133 C 
ATOM     80  C   UNL A   1      39.184  24.158  27.419  1.00  0.00     0.022 C 
ATOM     81  N   UNL A   1      37.863  22.771  25.960  1.00  0.00    -0.356 N 
ATOM     82  C   UNL A   1      38.291  24.138  26.185  1.00  0.00     0.118 C 
BRANCH  81  83
ATOM     83  C   UNL A   1      36.576  22.510  25.519  1.00  0.00     0.133 A 
ATOM     84  C   UNL A   1      36.154  21.217  25.258  1.00  0.00     0.077 A 
ATOM     85  N   UNL A   1      35.742  23.549  25.358  1.00  0.00    -0.211 NA
ATOM     86  C   UNL A   1      34.859  21.041  24.809  1.00  0.00     0.095 A 
ATOM     87  C   UNL A   1      34.493  23.293  24.907  1.00  0.00     0.165 A 
ATOM     88  N   UNL A   1      34.022  22.075  24.616  1.00  0.00    -0.226 NA
BRANCH  86  89
ATOM     89  C   UNL A   1      34.286  19.703  24.611  1.00  0.00     0.089 A 
ATOM     90  C   UNL A   1      32.910  19.519  24.458  1.00  0.00     0.030 A 
ATOM     91  N   UNL A   1      35.162  18.664  24.583  1.00  0.00    -0.255 NA
ATOM     92  C   UNL A   1      32.418  18.235  24.233  1.00  0.00     0.004 A 
ATOM     93  C   UNL A   1      34.658  17.439  24.319  1.00  0.00     0.112 A 
ATOM     94  C   UNL A   1      33.310  17.174  24.149  1.00  0.00     0.020 A 
ENDBRANCH  86  89
BRANCH  87  95
ATOM     95  C   UNL A   1      33.502  24.363  25.078  1.00  0.00     0.055 A 
ATOM     96  C   UNL A   1      32.187  24.216  26.371  1.00  0.00     0.015 A 
ATOM     97  C   UNL A   1      33.204  25.436  23.610  1.00  0.00     0.134 A 
ATOM     98  C   UNL A   1      30.546  25.098  26.167  1.00  0.00     0.001 A 
ATOM     99  C   UNL A   1      31.548  26.341  23.390  1.00  0.00     0.040 A 
ATOM    100  F   UNL A   1      34.056  25.381  22.571  1.00  0.00    -0.206 F 
ATOM    101  C   UNL A   1      30.236  26.152  24.676  1.00  0.00     0.003 A 
ENDBRANCH  87  95
ENDBRANCH  81  83
ENDBRANCH  75  77
ENDBRANCH  74  75
ENDBRANCH  73  74
ENDBRANCH   1  73
TORSDOF 17
ENDMDL
