MODEL 1
REMARK VINA RESULT:     -10.1      0.000      0.000
REMARK SMILES C[C@H](C(=O)OCCOC(=O)c1ccc(-c2c3nc(c(-c4c(F)cc(S(=O)(=O)[O-])cc4F)c4ccc([nH]4)c(-c4c(F)cc(S(=O)(=O)[O-])cc4F)c4nc(c(-c5c(F)cc(S(=O)(=O)[O-])cc5F)c5ccc2[nH]5)C=C4)C=C3)cc1)n1c(=O)ssc1=O
REMARK SMILES IDX 7 1 6 2 5 3 3 4 4 5 2 6 1 7 77 8 78 9 82 10 79 11 80 12
REMARK SMILES IDX 81 13 83 14 8 15 9 16 10 17 11 18 12 19 76 20 13 21 75 22
REMARK SMILES IDX 14 23 15 24 16 25 69 26 17 27 74 28 68 29 70 30 18 31 73 32
REMARK SMILES IDX 67 33 66 34 19 36 53 37 32 38 52 39 33 40 36 41 51 42 71 43
REMARK SMILES IDX 34 44 35 45 50 47 72 48 37 49 20 50 21 51 30 52 22 53 23 54
REMARK SMILES IDX 29 55 31 56 24 57 25 58 26 59 27 60 28 61 54 62 55 63 64 64
REMARK SMILES IDX 56 65 57 66 63 67 65 68 58 69 59 70 60 71 61 72 62 73 38 74
REMARK SMILES IDX 39 75 48 76 40 77 41 78 47 79 49 80 42 81 43 82 44 83 45 84
REMARK SMILES IDX 46 85
REMARK H PARENT 70 35 36 46
REMARK Flexibility Score: inf
ROOT
ATOM      1  C   UNL A   1      32.354  30.116  27.221  1.00  0.00     0.275 C 
ENDROOT
BRANCH   1   2
ATOM      2  C   UNL A   1      31.970  30.241  25.751  1.00  0.00     0.274 C 
BRANCH   2   3
ATOM      3  O   UNL A   1      32.751  29.310  24.980  1.00  0.00    -0.461 OA
BRANCH   3   4
ATOM      4  C   UNL A   1      32.153  28.747  23.894  1.00  0.00     0.329 C 
ATOM      5  O   UNL A   1      32.522  28.877  22.733  1.00  0.00    -0.250 OA
BRANCH   4   6
ATOM      6  C   UNL A   1      30.877  27.996  24.291  1.00  0.00     0.202 C 
ATOM      7  C   UNL A   1      29.706  28.221  23.333  1.00  0.00     0.044 C 
BRANCH   6   8
ATOM      8  N   UNL A   1      31.074  26.576  24.600  1.00  0.00    -0.242 N 
ATOM      9  C   UNL A   1      30.971  26.194  25.928  1.00  0.00     0.321 A 
ATOM     10  C   UNL A   1      31.159  25.628  23.603  1.00  0.00     0.321 A 
ATOM     11  O   UNL A   1      30.827  26.950  26.870  1.00  0.00    -0.256 OA
ATOM     12  S   UNL A   1      31.012  24.458  26.157  1.00  0.00    -0.014 S 
ATOM     13  S   UNL A   1      31.056  23.980  24.189  1.00  0.00    -0.014 S 
ATOM     14  O   UNL A   1      31.302  25.839  22.405  1.00  0.00    -0.256 OA
ENDBRANCH   6   8
ENDBRANCH   4   6
ENDBRANCH   3   4
ENDBRANCH   2   3
ENDBRANCH   1   2
BRANCH   1  15
ATOM     15  O   UNL A   1      33.741  29.746  27.312  1.00  0.00    -0.458 OA
BRANCH  15  16
ATOM     16  C   UNL A   1      34.491  30.564  28.087  1.00  0.00     0.338 C 
ATOM     17  O   UNL A   1      34.145  31.599  28.629  1.00  0.00    -0.246 OA
BRANCH  16  18
ATOM     18  C   UNL A   1      35.830  29.990  28.275  1.00  0.00     0.060 A 
ATOM     19  C   UNL A   1      36.234  29.585  29.548  1.00  0.00     0.016 A 
ATOM     20  C   UNL A   1      36.741  30.035  27.222  1.00  0.00     0.016 A 
ATOM     21  C   UNL A   1      37.578  29.329  29.796  1.00  0.00     0.010 A 
ATOM     22  C   UNL A   1      38.068  29.667  27.450  1.00  0.00     0.010 A 
ATOM     23  C   UNL A   1      38.511  29.347  28.746  1.00  0.00    -0.014 A 
BRANCH  23  24
ATOM     24  C   UNL A   1      39.946  29.038  28.992  1.00  0.00     0.031 A 
ATOM     25  C   UNL A   1      40.872  30.103  29.521  1.00  0.00     0.074 A 
ATOM     26  C   UNL A   1      40.423  27.810  28.709  1.00  0.00     0.049 A 
ATOM     27  N   UNL A   1      42.178  30.098  29.599  1.00  0.00    -0.248 NA
ATOM     28  C   UNL A   1      40.251  31.344  30.010  1.00  0.00     0.031 C 
ATOM     29  C   UNL A   1      39.625  26.679  28.226  1.00  0.00     0.029 A 
ATOM     30  N   UNL A   1      41.698  27.305  28.778  1.00  0.00    -0.354 N 
ATOM     31  C   UNL A   1      42.538  31.349  30.090  1.00  0.00     0.074 A 
ATOM     32  C   UNL A   1      41.311  32.090  30.290  1.00  0.00     0.031 C 
ATOM     33  C   UNL A   1      40.420  25.613  28.068  1.00  0.00     0.029 A 
ATOM     34  C   UNL A   1      41.795  26.003  28.344  1.00  0.00     0.049 A 
ATOM     35  H   UNL A   1      42.467  27.824  29.105  1.00  0.00     0.167 HD
ATOM     36  C   UNL A   1      43.779  31.832  30.345  1.00  0.00     0.037 A 
ATOM     37  C   UNL A   1      42.874  25.225  28.136  1.00  0.00     0.037 A 
ATOM     38  C   UNL A   1      44.988  31.063  30.185  1.00  0.00     0.049 A 
ATOM     39  C   UNL A   1      44.240  25.793  28.393  1.00  0.00     0.074 A 
ATOM     40  C   UNL A   1      46.292  31.445  30.446  1.00  0.00     0.029 A 
ATOM     41  N   UNL A   1      45.040  29.753  29.731  1.00  0.00    -0.354 N 
ATOM     42  N   UNL A   1      44.567  26.988  28.824  1.00  0.00    -0.248 NA
ATOM     43  C   UNL A   1      45.384  24.914  28.121  1.00  0.00     0.031 C 
ATOM     44  C   UNL A   1      47.137  30.382  30.107  1.00  0.00     0.029 A 
ATOM     45  C   UNL A   1      46.355  29.319  29.685  1.00  0.00     0.049 A 
ATOM     46  H   UNL A   1      44.258  29.211  29.478  1.00  0.00     0.167 HD
ATOM     47  C   UNL A   1      45.954  27.000  28.892  1.00  0.00     0.074 A 
ATOM     48  C   UNL A   1      46.403  25.687  28.473  1.00  0.00     0.031 C 
ATOM     49  C   UNL A   1      46.782  28.005  29.268  1.00  0.00     0.037 A 
BRANCH  36  50
ATOM     50  C   UNL A   1      43.902  33.266  30.790  1.00  0.00     0.058 A 
ATOM     51  C   UNL A   1      43.965  34.331  29.880  1.00  0.00     0.135 A 
ATOM     52  C   UNL A   1      43.912  33.579  32.161  1.00  0.00     0.135 A 
ATOM     53  F   UNL A   1      43.972  34.092  28.558  1.00  0.00    -0.206 F 
ATOM     54  C   UNL A   1      44.058  35.652  30.309  1.00  0.00     0.059 A 
ATOM     55  C   UNL A   1      43.978  34.895  32.614  1.00  0.00     0.059 A 
ATOM     56  F   UNL A   1      43.853  32.601  33.079  1.00  0.00    -0.206 F 
ATOM     57  C   UNL A   1      44.066  35.925  31.679  1.00  0.00     0.060 A 
BRANCH  57  58
ATOM     58  S   UNL A   1      44.185  37.643  32.221  1.00  0.00     0.124 S 
ATOM     59  O   UNL A   1      43.229  37.667  33.324  1.00  0.00    -0.237 OA
ATOM     60  O   UNL A   1      45.590  37.756  32.599  1.00  0.00    -0.237 OA
ATOM     61  O   UNL A   1      43.794  38.401  31.037  1.00  0.00    -0.744 OA
ENDBRANCH  57  58
ENDBRANCH  36  50
BRANCH  37  62
ATOM     62  C   UNL A   1      42.697  23.840  27.626  1.00  0.00     0.058 A 
ATOM     63  C   UNL A   1      42.594  22.754  28.506  1.00  0.00     0.135 A 
ATOM     64  C   UNL A   1      42.594  23.577  26.250  1.00  0.00     0.135 A 
ATOM     65  F   UNL A   1      42.694  22.954  29.829  1.00  0.00    -0.206 F 
ATOM     66  C   UNL A   1      42.401  21.457  28.044  1.00  0.00     0.059 A 
ATOM     67  C   UNL A   1      42.371  22.293  25.764  1.00  0.00     0.059 A 
ATOM     68  F   UNL A   1      42.671  24.583  25.364  1.00  0.00    -0.206 F 
ATOM     69  C   UNL A   1      42.286  21.238  26.670  1.00  0.00     0.060 A 
BRANCH  69  70
ATOM     70  S   UNL A   1      41.978  19.558  26.083  1.00  0.00     0.124 S 
ATOM     71  O   UNL A   1      42.855  19.488  24.921  1.00  0.00    -0.237 OA
ATOM     72  O   UNL A   1      42.376  18.753  27.233  1.00  0.00    -0.237 OA
ATOM     73  O   UNL A   1      40.546  19.561  25.796  1.00  0.00    -0.744 OA
ENDBRANCH  69  70
ENDBRANCH  37  62
BRANCH  49  74
ATOM     74  C   UNL A   1      48.255  27.711  29.279  1.00  0.00     0.058 A 
ATOM     75  C   UNL A   1      48.863  27.027  30.343  1.00  0.00     0.135 A 
ATOM     76  C   UNL A   1      49.062  28.090  28.193  1.00  0.00     0.135 A 
ATOM     77  F   UNL A   1      48.137  26.653  31.409  1.00  0.00    -0.206 F 
ATOM     78  C   UNL A   1      50.225  26.748  30.341  1.00  0.00     0.059 A 
ATOM     79  C   UNL A   1      50.420  27.796  28.158  1.00  0.00     0.059 A 
ATOM     80  F   UNL A   1      48.527  28.739  27.148  1.00  0.00    -0.206 F 
ATOM     81  C   UNL A   1      50.996  27.136  29.243  1.00  0.00     0.060 A 
BRANCH  81  82
ATOM     82  S   UNL A   1      52.758  26.743  29.240  1.00  0.00     0.124 S 
ATOM     83  O   UNL A   1      52.895  26.000  30.487  1.00  0.00    -0.237 OA
ATOM     84  O   UNL A   1      52.901  25.961  28.016  1.00  0.00    -0.237 OA
ATOM     85  O   UNL A   1      53.398  28.055  29.216  1.00  0.00    -0.744 OA
ENDBRANCH  81  82
ENDBRANCH  49  74
ENDBRANCH  23  24
ENDBRANCH  16  18
ENDBRANCH  15  16
ENDBRANCH   1  15
TORSDOF 15
ENDMDL
MODEL 2
REMARK VINA RESULT:     -10.1      3.938      5.556
REMARK SMILES C[C@H](C(=O)OCCOC(=O)c1ccc(-c2c3nc(c(-c4c(F)cc(S(=O)(=O)[O-])cc4F)c4ccc([nH]4)c(-c4c(F)cc(S(=O)(=O)[O-])cc4F)c4nc(c(-c5c(F)cc(S(=O)(=O)[O-])cc5F)c5ccc2[nH]5)C=C4)C=C3)cc1)n1c(=O)ssc1=O
REMARK SMILES IDX 7 1 6 2 5 3 3 4 4 5 2 6 1 7 77 8 78 9 82 10 79 11 80 12
REMARK SMILES IDX 81 13 83 14 8 15 9 16 10 17 11 18 12 19 76 20 13 21 75 22
REMARK SMILES IDX 14 23 15 24 16 25 69 26 17 27 74 28 68 29 70 30 18 31 73 32
REMARK SMILES IDX 67 33 66 34 19 36 53 37 32 38 52 39 33 40 36 41 51 42 71 43
REMARK SMILES IDX 34 44 35 45 50 47 72 48 37 49 20 50 21 51 30 52 22 53 23 54
REMARK SMILES IDX 29 55 31 56 24 57 25 58 26 59 27 60 28 61 54 62 55 63 64 64
REMARK SMILES IDX 56 65 57 66 63 67 65 68 58 69 59 70 60 71 61 72 62 73 38 74
REMARK SMILES IDX 39 75 48 76 40 77 41 78 47 79 49 80 42 81 43 82 44 83 45 84
REMARK SMILES IDX 46 85
REMARK H PARENT 70 35 36 46
REMARK Flexibility Score: inf
ROOT
ATOM      1  C   UNL A   1      35.703  32.329  28.910  1.00  0.00     0.275 C 
ENDROOT
BRANCH   1   2
ATOM      2  C   UNL A   1      36.665  33.271  29.625  1.00  0.00     0.274 C 
BRANCH   2   3
ATOM      3  O   UNL A   1      36.752  32.892  31.011  1.00  0.00    -0.461 OA
BRANCH   3   4
ATOM      4  C   UNL A   1      36.428  33.838  31.935  1.00  0.00     0.329 C 
ATOM      5  O   UNL A   1      37.221  34.582  32.498  1.00  0.00    -0.250 OA
BRANCH   4   6
ATOM      6  C   UNL A   1      34.932  33.795  32.270  1.00  0.00     0.202 C 
ATOM      7  C   UNL A   1      34.631  33.277  33.678  1.00  0.00     0.044 C 
BRANCH   6   8
ATOM      8  N   UNL A   1      34.202  35.030  31.966  1.00  0.00    -0.242 N 
ATOM      9  C   UNL A   1      34.325  36.078  32.863  1.00  0.00     0.321 A 
ATOM     10  C   UNL A   1      33.582  35.218  30.749  1.00  0.00     0.321 A 
ATOM     11  O   UNL A   1      34.909  36.029  33.929  1.00  0.00    -0.256 OA
ATOM     12  S   UNL A   1      33.590  37.565  32.300  1.00  0.00    -0.014 S 
ATOM     13  S   UNL A   1      33.064  36.869  30.472  1.00  0.00    -0.014 S 
ATOM     14  O   UNL A   1      33.370  34.363  29.898  1.00  0.00    -0.256 OA
ENDBRANCH   6   8
ENDBRANCH   4   6
ENDBRANCH   3   4
ENDBRANCH   2   3
ENDBRANCH   1   2
BRANCH   1  15
ATOM     15  O   UNL A   1      35.723  31.051  29.571  1.00  0.00    -0.458 OA
BRANCH  15  16
ATOM     16  C   UNL A   1      36.027  30.007  28.765  1.00  0.00     0.338 C 
ATOM     17  O   UNL A   1      35.256  29.299  28.141  1.00  0.00    -0.246 OA
BRANCH  16  18
ATOM     18  C   UNL A   1      37.485  29.860  28.661  1.00  0.00     0.060 A 
ATOM     19  C   UNL A   1      38.081  29.788  27.401  1.00  0.00     0.016 A 
ATOM     20  C   UNL A   1      38.225  29.604  29.812  1.00  0.00     0.016 A 
ATOM     21  C   UNL A   1      39.397  29.351  27.286  1.00  0.00     0.010 A 
ATOM     22  C   UNL A   1      39.577  29.277  29.698  1.00  0.00     0.010 A 
ATOM     23  C   UNL A   1      40.169  29.108  28.433  1.00  0.00    -0.014 A 
BRANCH  23  24
ATOM     24  C   UNL A   1      41.589  28.677  28.324  1.00  0.00     0.031 A 
ATOM     25  C   UNL A   1      42.702  29.685  28.449  1.00  0.00     0.074 A 
ATOM     26  C   UNL A   1      41.877  27.383  28.078  1.00  0.00     0.049 A 
ATOM     27  N   UNL A   1      43.974  29.551  28.175  1.00  0.00    -0.248 NA
ATOM     28  C   UNL A   1      42.333  31.027  28.927  1.00  0.00     0.031 C 
ATOM     29  C   UNL A   1      40.895  26.300  27.971  1.00  0.00     0.029 A 
ATOM     30  N   UNL A   1      43.080  26.756  27.867  1.00  0.00    -0.354 N 
ATOM     31  C   UNL A   1      44.547  30.800  28.392  1.00  0.00     0.074 A 
ATOM     32  C   UNL A   1      43.481  31.682  28.819  1.00  0.00     0.031 C 
ATOM     33  C   UNL A   1      41.534  25.145  27.740  1.00  0.00     0.029 A 
ATOM     34  C   UNL A   1      42.957  25.415  27.588  1.00  0.00     0.049 A 
ATOM     35  H   UNL A   1      43.946  27.221  27.909  1.00  0.00     0.167 HD
ATOM     36  C   UNL A   1      45.842  31.173  28.245  1.00  0.00     0.037 A 
ATOM     37  C   UNL A   1      43.875  24.510  27.199  1.00  0.00     0.037 A 
ATOM     38  C   UNL A   1      46.899  30.269  27.864  1.00  0.00     0.049 A 
ATOM     39  C   UNL A   1      45.297  24.955  27.009  1.00  0.00     0.074 A 
ATOM     40  C   UNL A   1      48.249  30.536  27.718  1.00  0.00     0.029 A 
ATOM     41  N   UNL A   1      46.727  28.922  27.580  1.00  0.00    -0.354 N 
ATOM     42  N   UNL A   1      45.817  26.145  27.184  1.00  0.00    -0.248 NA
ATOM     43  C   UNL A   1      46.253  23.938  26.552  1.00  0.00     0.031 C 
ATOM     44  C   UNL A   1      48.886  29.362  27.301  1.00  0.00     0.029 A 
ATOM     45  C   UNL A   1      47.942  28.350  27.239  1.00  0.00     0.049 A 
ATOM     46  H   UNL A   1      45.867  28.443  27.615  1.00  0.00     0.167 HD
ATOM     47  C   UNL A   1      47.166  26.019  26.877  1.00  0.00     0.074 A 
ATOM     48  C   UNL A   1      47.383  24.630  26.520  1.00  0.00     0.031 C 
ATOM     49  C   UNL A   1      48.138  26.964  26.890  1.00  0.00     0.037 A 
BRANCH  36  50
ATOM     50  C   UNL A   1      46.189  32.623  28.458  1.00  0.00     0.058 A 
ATOM     51  C   UNL A   1      46.597  33.121  29.705  1.00  0.00     0.135 A 
ATOM     52  C   UNL A   1      46.155  33.522  27.378  1.00  0.00     0.135 A 
ATOM     53  F   UNL A   1      46.635  32.313  30.777  1.00  0.00    -0.206 F 
ATOM     54  C   UNL A   1      46.933  34.461  29.880  1.00  0.00     0.059 A 
ATOM     55  C   UNL A   1      46.513  34.860  27.523  1.00  0.00     0.059 A 
ATOM     56  F   UNL A   1      45.774  33.102  26.161  1.00  0.00    -0.206 F 
ATOM     57  C   UNL A   1      46.887  35.324  28.783  1.00  0.00     0.060 A 
BRANCH  57  58
ATOM     58  S   UNL A   1      47.329  37.058  29.024  1.00  0.00     0.124 S 
ATOM     59  O   UNL A   1      46.501  37.712  28.016  1.00  0.00    -0.237 OA
ATOM     60  O   UNL A   1      46.938  37.290  30.411  1.00  0.00    -0.237 OA
ATOM     61  O   UNL A   1      48.765  37.083  28.768  1.00  0.00    -0.744 OA
ENDBRANCH  57  58
ENDBRANCH  36  50
BRANCH  37  62
ATOM     62  C   UNL A   1      43.462  23.108  26.930  1.00  0.00     0.058 A 
ATOM     63  C   UNL A   1      43.418  22.607  25.622  1.00  0.00     0.135 A 
ATOM     64  C   UNL A   1      43.138  22.229  27.977  1.00  0.00     0.135 A 
ATOM     65  F   UNL A   1      43.712  23.410  24.588  1.00  0.00    -0.206 F 
ATOM     66  C   UNL A   1      43.061  21.290  25.357  1.00  0.00     0.059 A 
ATOM     67  C   UNL A   1      42.807  20.899  27.741  1.00  0.00     0.059 A 
ATOM     68  F   UNL A   1      43.180  22.653  29.250  1.00  0.00    -0.206 F 
ATOM     69  C   UNL A   1      42.762  20.441  26.425  1.00  0.00     0.060 A 
BRANCH  69  70
ATOM     70  S   UNL A   1      42.356  18.716  26.076  1.00  0.00     0.124 S 
ATOM     71  O   UNL A   1      43.295  18.406  25.005  1.00  0.00    -0.237 OA
ATOM     72  O   UNL A   1      42.617  18.074  27.360  1.00  0.00    -0.237 OA
ATOM     73  O   UNL A   1      40.950  18.775  25.688  1.00  0.00    -0.744 OA
ENDBRANCH  69  70
ENDBRANCH  37  62
BRANCH  49  74
ATOM     74  C   UNL A   1      49.530  26.519  26.544  1.00  0.00     0.058 A 
ATOM     75  C   UNL A   1      50.383  25.951  27.503  1.00  0.00     0.135 A 
ATOM     76  C   UNL A   1      50.004  26.632  25.226  1.00  0.00     0.135 A 
ATOM     77  F   UNL A   1      49.982  25.831  28.778  1.00  0.00    -0.206 F 
ATOM     78  C   UNL A   1      51.667  25.531  27.172  1.00  0.00     0.059 A 
ATOM     79  C   UNL A   1      51.273  26.193  24.868  1.00  0.00     0.059 A 
ATOM     80  F   UNL A   1      49.224  27.161  24.271  1.00  0.00    -0.206 F 
ATOM     81  C   UNL A   1      52.103  25.656  25.851  1.00  0.00     0.060 A 
BRANCH  81  82
ATOM     82  S   UNL A   1      53.761  25.081  25.429  1.00  0.00     0.124 S 
ATOM     83  O   UNL A   1      53.971  25.715  24.132  1.00  0.00    -0.237 OA
ATOM     84  O   UNL A   1      54.564  25.606  26.529  1.00  0.00    -0.237 OA
ATOM     85  O   UNL A   1      53.619  23.628  25.403  1.00  0.00    -0.744 OA
ENDBRANCH  81  82
ENDBRANCH  49  74
ENDBRANCH  23  24
ENDBRANCH  16  18
ENDBRANCH  15  16
ENDBRANCH   1  15
TORSDOF 15
ENDMDL
MODEL 3
REMARK VINA RESULT:     -10.0      4.575     10.158
REMARK SMILES C[C@H](C(=O)OCCOC(=O)c1ccc(-c2c3nc(c(-c4c(F)cc(S(=O)(=O)[O-])cc4F)c4ccc([nH]4)c(-c4c(F)cc(S(=O)(=O)[O-])cc4F)c4nc(c(-c5c(F)cc(S(=O)(=O)[O-])cc5F)c5ccc2[nH]5)C=C4)C=C3)cc1)n1c(=O)ssc1=O
REMARK SMILES IDX 7 1 6 2 5 3 3 4 4 5 2 6 1 7 77 8 78 9 82 10 79 11 80 12
REMARK SMILES IDX 81 13 83 14 8 15 9 16 10 17 11 18 12 19 76 20 13 21 75 22
REMARK SMILES IDX 14 23 15 24 16 25 69 26 17 27 74 28 68 29 70 30 18 31 73 32
REMARK SMILES IDX 67 33 66 34 19 36 53 37 32 38 52 39 33 40 36 41 51 42 71 43
REMARK SMILES IDX 34 44 35 45 50 47 72 48 37 49 20 50 21 51 30 52 22 53 23 54
REMARK SMILES IDX 29 55 31 56 24 57 25 58 26 59 27 60 28 61 54 62 55 63 64 64
REMARK SMILES IDX 56 65 57 66 63 67 65 68 58 69 59 70 60 71 61 72 62 73 38 74
REMARK SMILES IDX 39 75 48 76 40 77 41 78 47 79 49 80 42 81 43 82 44 83 45 84
REMARK SMILES IDX 46 85
REMARK H PARENT 70 35 36 46
REMARK Flexibility Score: inf
ROOT
ATOM      1  C   UNL A   1      35.883  32.045  32.924  1.00  0.00     0.275 C 
ENDROOT
BRANCH   1   2
ATOM      2  C   UNL A   1      36.015  33.468  33.453  1.00  0.00     0.274 C 
BRANCH   2   3
ATOM      3  O   UNL A   1      34.707  33.972  33.780  1.00  0.00    -0.461 OA
BRANCH   3   4
ATOM      4  C   UNL A   1      34.349  35.168  33.237  1.00  0.00     0.329 C 
ATOM      5  O   UNL A   1      34.790  36.261  33.572  1.00  0.00    -0.250 OA
BRANCH   4   6
ATOM      6  C   UNL A   1      33.229  34.994  32.204  1.00  0.00     0.202 C 
ATOM      7  C   UNL A   1      31.889  35.589  32.640  1.00  0.00     0.044 C 
BRANCH   6   8
ATOM      8  N   UNL A   1      33.592  35.388  30.838  1.00  0.00    -0.242 N 
ATOM      9  C   UNL A   1      34.003  34.386  29.975  1.00  0.00     0.321 A 
ATOM     10  C   UNL A   1      33.346  36.661  30.368  1.00  0.00     0.321 A 
ATOM     11  O   UNL A   1      34.182  33.223  30.280  1.00  0.00    -0.256 OA
ATOM     12  S   UNL A   1      34.205  34.931  28.322  1.00  0.00    -0.014 S 
ATOM     13  S   UNL A   1      33.542  36.819  28.634  1.00  0.00    -0.014 S 
ATOM     14  O   UNL A   1      33.027  37.637  31.036  1.00  0.00    -0.256 OA
ENDBRANCH   6   8
ENDBRANCH   4   6
ENDBRANCH   3   4
ENDBRANCH   2   3
ENDBRANCH   1   2
BRANCH   1  15
ATOM     15  O   UNL A   1      37.197  31.511  32.683  1.00  0.00    -0.458 OA
BRANCH  15  16
ATOM     16  C   UNL A   1      37.232  30.467  31.823  1.00  0.00     0.338 C 
ATOM     17  O   UNL A   1      36.326  29.698  31.550  1.00  0.00    -0.246 OA
BRANCH  16  18
ATOM     18  C   UNL A   1      38.540  30.406  31.157  1.00  0.00     0.060 A 
ATOM     19  C   UNL A   1      38.626  30.649  29.785  1.00  0.00     0.016 A 
ATOM     20  C   UNL A   1      39.638  29.923  31.864  1.00  0.00     0.016 A 
ATOM     21  C   UNL A   1      39.784  30.302  29.097  1.00  0.00     0.010 A 
ATOM     22  C   UNL A   1      40.835  29.684  31.187  1.00  0.00     0.010 A 
ATOM     23  C   UNL A   1      40.911  29.834  29.791  1.00  0.00    -0.014 A 
BRANCH  23  24
ATOM     24  C   UNL A   1      42.168  29.495  29.069  1.00  0.00     0.031 A 
ATOM     25  C   UNL A   1      42.372  28.113  28.506  1.00  0.00     0.074 A 
ATOM     26  C   UNL A   1      43.140  30.421  28.949  1.00  0.00     0.049 A 
ATOM     27  N   UNL A   1      43.464  27.562  28.040  1.00  0.00    -0.248 NA
ATOM     28  C   UNL A   1      41.199  27.224  28.480  1.00  0.00     0.031 C 
ATOM     29  C   UNL A   1      43.055  31.807  29.418  1.00  0.00     0.029 A 
ATOM     30  N   UNL A   1      44.397  30.337  28.403  1.00  0.00    -0.354 N 
ATOM     31  C   UNL A   1      43.125  26.251  27.718  1.00  0.00     0.074 A 
ATOM     32  C   UNL A   1      41.725  26.087  28.046  1.00  0.00     0.031 C 
ATOM     33  C   UNL A   1      44.193  32.447  29.118  1.00  0.00     0.029 A 
ATOM     34  C   UNL A   1      45.125  31.498  28.523  1.00  0.00     0.049 A 
ATOM     35  H   UNL A   1      44.743  29.526  27.968  1.00  0.00     0.167 HD
ATOM     36  C   UNL A   1      43.915  25.277  27.202  1.00  0.00     0.037 A 
ATOM     37  C   UNL A   1      46.415  31.760  28.240  1.00  0.00     0.037 A 
ATOM     38  C   UNL A   1      45.295  25.473  26.837  1.00  0.00     0.049 A 
ATOM     39  C   UNL A   1      47.278  30.656  27.701  1.00  0.00     0.074 A 
ATOM     40  C   UNL A   1      46.175  24.563  26.276  1.00  0.00     0.029 A 
ATOM     41  N   UNL A   1      45.996  26.661  26.988  1.00  0.00    -0.354 N 
ATOM     42  N   UNL A   1      46.954  29.413  27.435  1.00  0.00    -0.248 NA
ATOM     43  C   UNL A   1      48.685  30.984  27.439  1.00  0.00     0.031 C 
ATOM     44  C   UNL A   1      47.418  25.188  26.130  1.00  0.00     0.029 A 
ATOM     45  C   UNL A   1      47.300  26.503  26.550  1.00  0.00     0.049 A 
ATOM     46  H   UNL A   1      45.620  27.495  27.353  1.00  0.00     0.167 HD
ATOM     47  C   UNL A   1      48.113  28.814  26.957  1.00  0.00     0.074 A 
ATOM     48  C   UNL A   1      49.141  29.836  26.956  1.00  0.00     0.031 C 
ATOM     49  C   UNL A   1      48.309  27.534  26.554  1.00  0.00     0.037 A 
BRANCH  36  50
ATOM     50  C   UNL A   1      43.322  23.903  27.030  1.00  0.00     0.058 A 
ATOM     51  C   UNL A   1      43.126  23.030  28.111  1.00  0.00     0.135 A 
ATOM     52  C   UNL A   1      42.900  23.472  25.760  1.00  0.00     0.135 A 
ATOM     53  F   UNL A   1      43.521  23.383  29.345  1.00  0.00    -0.206 F 
ATOM     54  C   UNL A   1      42.557  21.772  27.937  1.00  0.00     0.059 A 
ATOM     55  C   UNL A   1      42.305  22.227  25.567  1.00  0.00     0.059 A 
ATOM     56  F   UNL A   1      43.061  24.265  24.689  1.00  0.00    -0.206 F 
ATOM     57  C   UNL A   1      42.151  21.378  26.661  1.00  0.00     0.060 A 
BRANCH  57  58
ATOM     58  S   UNL A   1      41.414  19.743  26.451  1.00  0.00     0.124 S 
ATOM     59  O   UNL A   1      40.023  20.085  26.169  1.00  0.00    -0.237 OA
ATOM     60  O   UNL A   1      42.171  19.199  25.329  1.00  0.00    -0.237 OA
ATOM     61  O   UNL A   1      41.650  19.095  27.737  1.00  0.00    -0.744 OA
ENDBRANCH  57  58
ENDBRANCH  36  50
BRANCH  37  62
ATOM     62  C   UNL A   1      46.967  33.116  28.498  1.00  0.00     0.058 A 
ATOM     63  C   UNL A   1      47.558  33.431  29.730  1.00  0.00     0.135 A 
ATOM     64  C   UNL A   1      46.948  34.112  27.509  1.00  0.00     0.135 A 
ATOM     65  F   UNL A   1      47.593  32.515  30.709  1.00  0.00    -0.206 F 
ATOM     66  C   UNL A   1      48.103  34.686  29.976  1.00  0.00     0.059 A 
ATOM     67  C   UNL A   1      47.514  35.365  27.720  1.00  0.00     0.059 A 
ATOM     68  F   UNL A   1      46.408  33.857  26.306  1.00  0.00    -0.206 F 
ATOM     69  C   UNL A   1      48.081  35.645  28.962  1.00  0.00     0.060 A 
BRANCH  69  70
ATOM     70  S   UNL A   1      48.845  37.253  29.271  1.00  0.00     0.124 S 
ATOM     71  O   UNL A   1      47.678  38.082  29.552  1.00  0.00    -0.237 OA
ATOM     72  O   UNL A   1      49.713  36.966  30.409  1.00  0.00    -0.237 OA
ATOM     73  O   UNL A   1      49.539  37.540  28.019  1.00  0.00    -0.744 OA
ENDBRANCH  69  70
ENDBRANCH  37  62
BRANCH  49  74
ATOM     74  C   UNL A   1      49.676  27.179  26.043  1.00  0.00     0.058 A 
ATOM     75  C   UNL A   1      50.689  26.722  26.901  1.00  0.00     0.135 A 
ATOM     76  C   UNL A   1      49.965  27.265  24.671  1.00  0.00     0.135 A 
ATOM     77  F   UNL A   1      50.467  26.632  28.222  1.00  0.00    -0.206 F 
ATOM     78  C   UNL A   1      51.949  26.383  26.418  1.00  0.00     0.059 A 
ATOM     79  C   UNL A   1      51.208  26.906  24.164  1.00  0.00     0.059 A 
ATOM     80  F   UNL A   1      49.028  27.690  23.809  1.00  0.00    -0.206 F 
ATOM     81  C   UNL A   1      52.199  26.479  25.048  1.00  0.00     0.060 A 
BRANCH  81  82
ATOM     82  S   UNL A   1      53.829  26.010  24.431  1.00  0.00     0.124 S 
ATOM     83  O   UNL A   1      54.698  26.903  25.190  1.00  0.00    -0.237 OA
ATOM     84  O   UNL A   1      53.904  24.597  24.789  1.00  0.00    -0.237 OA
ATOM     85  O   UNL A   1      53.742  26.284  23.000  1.00  0.00    -0.744 OA
ENDBRANCH  81  82
ENDBRANCH  49  74
ENDBRANCH  23  24
ENDBRANCH  16  18
ENDBRANCH  15  16
ENDBRANCH   1  15
TORSDOF 15
ENDMDL
