MODEL 1
REMARK VINA RESULT:     -10.5      0.000      0.000
REMARK SMILES CCOc1ccc(-c2ccc(=O)n(CC(=O)OCCOC(=O)c3ccc(-c4c5nc(c(-c6c(F)cc(S(=O)(=O)[O-])cc6F)c6ccc([nH]6)c(-c6c(F)cc(S(=O)(=O)[O-])cc6F)c6nc(c(-c7c(F)cc(S(=O)(=O)[O-])cc7F)c7ccc4[nH]7)C=C6)C=C5)cc3)n2)cc1
REMARK SMILES IDX 18 1 17 2 15 3 16 4 14 5 13 6 8 7 9 8 89 9 10 10 11 11 12 12
REMARK SMILES IDX 7 13 4 14 5 15 91 16 6 17 90 18 3 19 2 20 1 21 19 22 20 23
REMARK SMILES IDX 21 24 22 25 23 26 24 27 88 28 25 29 87 30 26 31 27 32 28 33
REMARK SMILES IDX 81 34 29 35 86 36 80 37 82 38 30 39 85 40 79 41 78 42 31 44
REMARK SMILES IDX 65 45 44 46 64 47 45 48 48 49 63 50 83 51 46 52 47 53 62 55
REMARK SMILES IDX 84 56 49 57 32 58 33 59 42 60 34 61 35 62 41 63 43 64 36 65
REMARK SMILES IDX 37 66 38 67 39 68 40 69 66 70 67 71 76 72 68 73 69 74 75 75
REMARK SMILES IDX 77 76 70 77 71 78 72 79 73 80 74 81 50 82 51 83 60 84 52 85
REMARK SMILES IDX 53 86 59 87 61 88 54 89 55 90 56 91 57 92 58 93
REMARK H PARENT 82 43 48 54
REMARK Flexibility Score: inf
ROOT
ATOM      1  C   UNL A   1      34.058  33.613  27.756  1.00  0.00     0.274 C 
ENDROOT
BRANCH   1   2
ATOM      2  O   UNL A   1      33.054  34.350  28.478  1.00  0.00    -0.461 OA
BRANCH   2   3
ATOM      3  C   UNL A   1      33.411  35.597  28.891  1.00  0.00     0.328 C 
ATOM      4  O   UNL A   1      34.309  36.264  28.388  1.00  0.00    -0.250 OA
BRANCH   3   5
ATOM      5  C   UNL A   1      32.615  36.093  30.088  1.00  0.00     0.270 C 
BRANCH   5   6
ATOM      6  N   UNL A   1      33.301  35.990  31.369  1.00  0.00    -0.218 N 
ATOM      7  C   UNL A   1      34.712  34.767  32.665  1.00  0.00     0.091 A 
ATOM      8  C   UNL A   1      34.683  35.746  33.766  1.00  0.00     0.036 A 
ATOM      9  N   UNL A   1      34.031  34.849  31.567  1.00  0.00    -0.169 NA
ATOM     10  C   UNL A   1      34.028  36.880  33.513  1.00  0.00     0.075 A 
ATOM     11  C   UNL A   1      33.357  37.087  32.213  1.00  0.00     0.267 A 
ATOM     12  O   UNL A   1      32.894  38.191  31.950  1.00  0.00    -0.268 OA
BRANCH   7  13
ATOM     13  C   UNL A   1      35.684  33.672  32.777  1.00  0.00     0.002 A 
ATOM     14  C   UNL A   1      37.668  31.749  32.923  1.00  0.00     0.119 A 
ATOM     15  C   UNL A   1      36.344  31.363  32.695  1.00  0.00     0.047 A 
ATOM     16  C   UNL A   1      38.010  33.094  33.036  1.00  0.00     0.047 A 
ATOM     17  C   UNL A   1      35.335  32.329  32.629  1.00  0.00     0.014 A 
ATOM     18  C   UNL A   1      37.013  34.057  32.976  1.00  0.00     0.014 A 
BRANCH  14  19
ATOM     19  O   UNL A   1      38.642  30.789  32.922  1.00  0.00    -0.494 OA
BRANCH  19  20
ATOM     20  C   UNL A   1      39.760  31.146  33.743  1.00  0.00     0.226 C 
ATOM     21  C   UNL A   1      39.673  30.527  35.131  1.00  0.00     0.049 C 
ENDBRANCH  19  20
ENDBRANCH  14  19
ENDBRANCH   7  13
ENDBRANCH   5   6
ENDBRANCH   3   5
ENDBRANCH   2   3
ENDBRANCH   1   2
BRANCH   1  22
ATOM     22  C   UNL A   1      34.913  32.817  28.734  1.00  0.00     0.275 C 
BRANCH  22  23
ATOM     23  O   UNL A   1      34.248  31.581  29.039  1.00  0.00    -0.458 OA
BRANCH  23  24
ATOM     24  C   UNL A   1      34.471  30.567  28.168  1.00  0.00     0.338 C 
ATOM     25  O   UNL A   1      33.673  30.078  27.387  1.00  0.00    -0.246 OA
BRANCH  24  26
ATOM     26  C   UNL A   1      35.840  30.065  28.369  1.00  0.00     0.060 A 
ATOM     27  C   UNL A   1      36.263  29.631  29.628  1.00  0.00     0.016 A 
ATOM     28  C   UNL A   1      36.735  30.106  27.300  1.00  0.00     0.016 A 
ATOM     29  C   UNL A   1      37.603  29.317  29.843  1.00  0.00     0.010 A 
ATOM     30  C   UNL A   1      38.058  29.708  27.498  1.00  0.00     0.010 A 
ATOM     31  C   UNL A   1      38.512  29.341  28.777  1.00  0.00    -0.014 A 
BRANCH  31  32
ATOM     32  C   UNL A   1      39.943  29.006  28.991  1.00  0.00     0.031 A 
ATOM     33  C   UNL A   1      40.891  30.054  29.506  1.00  0.00     0.074 A 
ATOM     34  C   UNL A   1      40.396  27.772  28.698  1.00  0.00     0.049 A 
ATOM     35  N   UNL A   1      42.196  30.019  29.590  1.00  0.00    -0.248 NA
ATOM     36  C   UNL A   1      40.293  31.314  29.978  1.00  0.00     0.031 C 
ATOM     37  C   UNL A   1      39.573  26.657  28.225  1.00  0.00     0.029 A 
ATOM     38  N   UNL A   1      41.665  27.252  28.743  1.00  0.00    -0.354 N 
ATOM     39  C   UNL A   1      42.579  31.261  30.081  1.00  0.00     0.074 A 
ATOM     40  C   UNL A   1      41.368  32.032  30.270  1.00  0.00     0.031 C 
ATOM     41  C   UNL A   1      40.355  25.583  28.036  1.00  0.00     0.029 A 
ATOM     42  C   UNL A   1      41.740  25.950  28.308  1.00  0.00     0.049 A 
ATOM     43  H   UNL A   1      42.447  27.762  29.057  1.00  0.00     0.167 HD
ATOM     44  C   UNL A   1      43.827  31.716  30.347  1.00  0.00     0.037 A 
ATOM     45  C   UNL A   1      42.808  25.153  28.114  1.00  0.00     0.037 A 
ATOM     46  C   UNL A   1      45.024  30.928  30.196  1.00  0.00     0.049 A 
ATOM     47  C   UNL A   1      44.184  25.688  28.388  1.00  0.00     0.074 A 
ATOM     48  C   UNL A   1      46.332  31.289  30.466  1.00  0.00     0.029 A 
ATOM     49  N   UNL A   1      45.057  29.618  29.743  1.00  0.00    -0.354 N 
ATOM     50  N   UNL A   1      44.534  26.875  28.824  1.00  0.00    -0.248 NA
ATOM     51  C   UNL A   1      45.312  24.781  28.132  1.00  0.00     0.031 C 
ATOM     52  C   UNL A   1      47.161  30.206  30.147  1.00  0.00     0.029 A 
ATOM     53  C   UNL A   1      46.363  29.159  29.713  1.00  0.00     0.049 A 
ATOM     54  H   UNL A   1      44.267  29.091  29.482  1.00  0.00     0.167 HD
ATOM     55  C   UNL A   1      45.921  26.853  28.910  1.00  0.00     0.074 A 
ATOM     56  C   UNL A   1      46.345  25.532  28.492  1.00  0.00     0.031 C 
ATOM     57  C   UNL A   1      46.767  27.839  29.299  1.00  0.00     0.037 A 
BRANCH  44  58
ATOM     58  C   UNL A   1      43.968  33.140  30.806  1.00  0.00     0.058 A 
ATOM     59  C   UNL A   1      43.843  34.221  29.919  1.00  0.00     0.135 A 
ATOM     60  C   UNL A   1      44.197  33.428  32.161  1.00  0.00     0.135 A 
ATOM     61  F   UNL A   1      43.640  34.002  28.611  1.00  0.00    -0.206 F 
ATOM     62  C   UNL A   1      43.965  35.537  30.357  1.00  0.00     0.059 A 
ATOM     63  C   UNL A   1      44.301  34.737  32.625  1.00  0.00     0.059 A 
ATOM     64  F   UNL A   1      44.323  32.432  33.052  1.00  0.00    -0.206 F 
ATOM     65  C   UNL A   1      44.197  35.785  31.711  1.00  0.00     0.060 A 
BRANCH  65  66
ATOM     66  S   UNL A   1      44.351  37.496  32.267  1.00  0.00     0.124 S 
ATOM     67  O   UNL A   1      45.653  37.473  32.926  1.00  0.00    -0.237 OA
ATOM     68  O   UNL A   1      44.290  38.241  31.013  1.00  0.00    -0.237 OA
ATOM     69  O   UNL A   1      43.203  37.671  33.150  1.00  0.00    -0.744 OA
ENDBRANCH  65  66
ENDBRANCH  44  58
BRANCH  45  70
ATOM     70  C   UNL A   1      42.611  23.769  27.609  1.00  0.00     0.058 A 
ATOM     71  C   UNL A   1      42.591  23.502  26.232  1.00  0.00     0.135 A 
ATOM     72  C   UNL A   1      42.468  22.686  28.489  1.00  0.00     0.135 A 
ATOM     73  F   UNL A   1      42.715  24.509  25.353  1.00  0.00    -0.206 F 
ATOM     74  C   UNL A   1      42.430  22.211  25.744  1.00  0.00     0.059 A 
ATOM     75  C   UNL A   1      42.329  21.381  28.025  1.00  0.00     0.059 A 
ATOM     76  F   UNL A   1      42.493  22.888  29.816  1.00  0.00    -0.206 F 
ATOM     77  C   UNL A   1      42.303  21.155  26.650  1.00  0.00     0.060 A 
BRANCH  77  78
ATOM     78  S   UNL A   1      42.155  19.473  26.010  1.00  0.00     0.124 S 
ATOM     79  O   UNL A   1      43.014  19.530  24.834  1.00  0.00    -0.237 OA
ATOM     80  O   UNL A   1      42.651  18.672  27.125  1.00  0.00    -0.237 OA
ATOM     81  O   UNL A   1      40.725  19.342  25.744  1.00  0.00    -0.744 OA
ENDBRANCH  77  78
ENDBRANCH  45  70
BRANCH  57  82
ATOM     82  C   UNL A   1      48.233  27.516  29.318  1.00  0.00     0.058 A 
ATOM     83  C   UNL A   1      49.041  27.701  28.187  1.00  0.00     0.135 A 
ATOM     84  C   UNL A   1      48.843  27.055  30.495  1.00  0.00     0.135 A 
ATOM     85  F   UNL A   1      48.503  28.131  27.035  1.00  0.00    -0.206 F 
ATOM     86  C   UNL A   1      50.404  27.423  28.216  1.00  0.00     0.059 A 
ATOM     87  C   UNL A   1      50.207  26.791  30.553  1.00  0.00     0.059 A 
ATOM     88  F   UNL A   1      48.114  26.870  31.607  1.00  0.00    -0.206 F 
ATOM     89  C   UNL A   1      50.979  26.967  29.404  1.00  0.00     0.060 A 
BRANCH  89  90
ATOM     90  S   UNL A   1      52.753  26.640  29.443  1.00  0.00     0.124 S 
ATOM     91  O   UNL A   1      53.299  27.992  29.508  1.00  0.00    -0.237 OA
ATOM     92  O   UNL A   1      52.901  25.838  30.653  1.00  0.00    -0.237 OA
ATOM     93  O   UNL A   1      52.993  25.925  28.192  1.00  0.00    -0.744 OA
ENDBRANCH  89  90
ENDBRANCH  57  82
ENDBRANCH  31  32
ENDBRANCH  24  26
ENDBRANCH  23  24
ENDBRANCH  22  23
ENDBRANCH   1  22
TORSDOF 18
ENDMDL
MODEL 2
REMARK VINA RESULT:     -10.3      5.111     12.791
REMARK SMILES CCOc1ccc(-c2ccc(=O)n(CC(=O)OCCOC(=O)c3ccc(-c4c5nc(c(-c6c(F)cc(S(=O)(=O)[O-])cc6F)c6ccc([nH]6)c(-c6c(F)cc(S(=O)(=O)[O-])cc6F)c6nc(c(-c7c(F)cc(S(=O)(=O)[O-])cc7F)c7ccc4[nH]7)C=C6)C=C5)cc3)n2)cc1
REMARK SMILES IDX 18 1 17 2 15 3 16 4 14 5 13 6 8 7 9 8 89 9 10 10 11 11 12 12
REMARK SMILES IDX 7 13 4 14 5 15 91 16 6 17 90 18 3 19 2 20 1 21 19 22 20 23
REMARK SMILES IDX 21 24 22 25 23 26 24 27 88 28 25 29 87 30 26 31 27 32 28 33
REMARK SMILES IDX 81 34 29 35 86 36 80 37 82 38 30 39 85 40 79 41 78 42 31 44
REMARK SMILES IDX 65 45 44 46 64 47 45 48 48 49 63 50 83 51 46 52 47 53 62 55
REMARK SMILES IDX 84 56 49 57 32 58 33 59 42 60 34 61 35 62 41 63 43 64 36 65
REMARK SMILES IDX 37 66 38 67 39 68 40 69 66 70 67 71 76 72 68 73 69 74 75 75
REMARK SMILES IDX 77 76 70 77 71 78 72 79 73 80 74 81 50 82 51 83 60 84 52 85
REMARK SMILES IDX 53 86 59 87 61 88 54 89 55 90 56 91 57 92 58 93
REMARK H PARENT 82 43 48 54
REMARK Flexibility Score: inf
ROOT
ATOM      1  C   UNL A   1      46.016  23.562  26.632  1.00  0.00     0.274 C 
ENDROOT
BRANCH   1   2
ATOM      2  O   UNL A   1      45.966  22.255  26.030  1.00  0.00    -0.461 OA
BRANCH   2   3
ATOM      3  C   UNL A   1      45.551  22.210  24.734  1.00  0.00     0.328 C 
ATOM      4  O   UNL A   1      45.594  23.159  23.958  1.00  0.00    -0.250 OA
BRANCH   3   5
ATOM      5  C   UNL A   1      44.971  20.864  24.326  1.00  0.00     0.270 C 
BRANCH   5   6
ATOM      6  N   UNL A   1      43.892  20.377  25.174  1.00  0.00    -0.218 N 
ATOM      7  C   UNL A   1      41.893  20.846  26.148  1.00  0.00     0.091 A 
ATOM      8  C   UNL A   1      41.770  19.503  26.741  1.00  0.00     0.036 A 
ATOM      9  N   UNL A   1      42.901  21.277  25.460  1.00  0.00    -0.169 NA
ATOM     10  C   UNL A   1      42.709  18.626  26.381  1.00  0.00     0.075 A 
ATOM     11  C   UNL A   1      43.805  19.027  25.474  1.00  0.00     0.267 A 
ATOM     12  O   UNL A   1      44.564  18.168  25.040  1.00  0.00    -0.268 OA
BRANCH   7  13
ATOM     13  C   UNL A   1      40.719  21.725  26.248  1.00  0.00     0.002 A 
ATOM     14  C   UNL A   1      38.422  23.266  26.273  1.00  0.00     0.119 A 
ATOM     15  C   UNL A   1      39.625  23.806  26.737  1.00  0.00     0.047 A 
ATOM     16  C   UNL A   1      38.373  21.974  25.757  1.00  0.00     0.047 A 
ATOM     17  C   UNL A   1      40.787  23.030  26.737  1.00  0.00     0.014 A 
ATOM     18  C   UNL A   1      39.521  21.196  25.757  1.00  0.00     0.014 A 
BRANCH  14  19
ATOM     19  O   UNL A   1      37.315  24.067  26.229  1.00  0.00    -0.494 OA
BRANCH  19  20
ATOM     20  C   UNL A   1      36.108  23.320  26.036  1.00  0.00     0.226 C 
ATOM     21  C   UNL A   1      34.948  24.207  25.606  1.00  0.00     0.049 C 
ENDBRANCH  19  20
ENDBRANCH  14  19
ENDBRANCH   7  13
ENDBRANCH   5   6
ENDBRANCH   3   5
ENDBRANCH   2   3
ENDBRANCH   1   2
BRANCH   1  22
ATOM     22  C   UNL A   1      44.602  24.036  26.946  1.00  0.00     0.275 C 
BRANCH  22  23
ATOM     23  O   UNL A   1      44.473  25.414  26.560  1.00  0.00    -0.458 OA
BRANCH  23  24
ATOM     24  C   UNL A   1      43.214  25.826  26.277  1.00  0.00     0.338 C 
ATOM     25  O   UNL A   1      42.585  25.625  25.252  1.00  0.00    -0.246 OA
BRANCH  24  26
ATOM     26  C   UNL A   1      42.728  26.656  27.391  1.00  0.00     0.060 A 
ATOM     27  C   UNL A   1      43.213  27.953  27.580  1.00  0.00     0.016 A 
ATOM     28  C   UNL A   1      41.836  26.098  28.306  1.00  0.00     0.016 A 
ATOM     29  C   UNL A   1      42.874  28.665  28.727  1.00  0.00     0.010 A 
ATOM     30  C   UNL A   1      41.429  26.848  29.412  1.00  0.00     0.010 A 
ATOM     31  C   UNL A   1      41.968  28.125  29.650  1.00  0.00    -0.014 A 
BRANCH  31  32
ATOM     32  C   UNL A   1      41.594  28.873  30.876  1.00  0.00     0.031 A 
ATOM     33  C   UNL A   1      40.399  29.786  30.864  1.00  0.00     0.074 A 
ATOM     34  C   UNL A   1      42.340  28.753  31.991  1.00  0.00     0.049 A 
ATOM     35  N   UNL A   1      40.013  30.655  31.763  1.00  0.00    -0.248 NA
ATOM     36  C   UNL A   1      39.529  29.723  29.678  1.00  0.00     0.031 C 
ATOM     37  C   UNL A   1      43.502  27.874  32.143  1.00  0.00     0.029 A 
ATOM     38  N   UNL A   1      42.239  29.383  33.206  1.00  0.00    -0.354 N 
ATOM     39  C   UNL A   1      38.885  31.272  31.235  1.00  0.00     0.074 A 
ATOM     40  C   UNL A   1      38.651  30.684  29.933  1.00  0.00     0.031 C 
ATOM     41  C   UNL A   1      43.998  28.012  33.383  1.00  0.00     0.029 A 
ATOM     42  C   UNL A   1      43.233  29.035  34.088  1.00  0.00     0.049 A 
ATOM     43  H   UNL A   1      41.523  30.023  33.425  1.00  0.00     0.167 HD
ATOM     44  C   UNL A   1      38.117  32.242  31.787  1.00  0.00     0.037 A 
ATOM     45  C   UNL A   1      43.521  29.511  35.315  1.00  0.00     0.037 A 
ATOM     46  C   UNL A   1      38.331  32.792  33.101  1.00  0.00     0.049 A 
ATOM     47  C   UNL A   1      42.673  30.607  35.895  1.00  0.00     0.074 A 
ATOM     48  C   UNL A   1      37.592  33.758  33.761  1.00  0.00     0.029 A 
ATOM     49  N   UNL A   1      39.355  32.419  33.959  1.00  0.00    -0.354 N 
ATOM     50  N   UNL A   1      41.627  31.202  35.373  1.00  0.00    -0.248 NA
ATOM     51  C   UNL A   1      43.051  31.105  37.224  1.00  0.00     0.031 C 
ATOM     52  C   UNL A   1      38.188  33.992  35.007  1.00  0.00     0.029 A 
ATOM     53  C   UNL A   1      39.276  33.144  35.136  1.00  0.00     0.049 A 
ATOM     54  H   UNL A   1      40.038  31.738  33.759  1.00  0.00     0.167 HD
ATOM     55  C   UNL A   1      41.212  32.134  36.316  1.00  0.00     0.074 A 
ATOM     56  C   UNL A   1      42.112  32.016  37.445  1.00  0.00     0.031 C 
ATOM     57  C   UNL A   1      40.178  33.010  36.252  1.00  0.00     0.037 A 
BRANCH  44  58
ATOM     58  C   UNL A   1      36.986  32.790  30.963  1.00  0.00     0.058 A 
ATOM     59  C   UNL A   1      37.188  33.790  29.999  1.00  0.00     0.135 A 
ATOM     60  C   UNL A   1      35.686  32.283  31.118  1.00  0.00     0.135 A 
ATOM     61  F   UNL A   1      38.407  34.321  29.821  1.00  0.00    -0.206 F 
ATOM     62  C   UNL A   1      36.135  34.284  29.233  1.00  0.00     0.059 A 
ATOM     63  C   UNL A   1      34.622  32.746  30.348  1.00  0.00     0.059 A 
ATOM     64  F   UNL A   1      35.438  31.325  32.026  1.00  0.00    -0.206 F 
ATOM     65  C   UNL A   1      34.855  33.758  29.418  1.00  0.00     0.060 A 
BRANCH  65  66
ATOM     66  S   UNL A   1      33.498  34.404  28.417  1.00  0.00     0.124 S 
ATOM     67  O   UNL A   1      33.076  33.209  27.692  1.00  0.00    -0.237 OA
ATOM     68  O   UNL A   1      32.566  34.893  29.428  1.00  0.00    -0.237 OA
ATOM     69  O   UNL A   1      34.135  35.437  27.606  1.00  0.00    -0.744 OA
ENDBRANCH  65  66
ENDBRANCH  44  58
BRANCH  45  70
ATOM     70  C   UNL A   1      44.684  28.966  36.063  1.00  0.00     0.058 A 
ATOM     71  C   UNL A   1      44.529  27.884  36.942  1.00  0.00     0.135 A 
ATOM     72  C   UNL A   1      45.972  29.494  35.892  1.00  0.00     0.135 A 
ATOM     73  F   UNL A   1      43.314  27.352  37.143  1.00  0.00    -0.206 F 
ATOM     74  C   UNL A   1      45.611  27.348  37.632  1.00  0.00     0.059 A 
ATOM     75  C   UNL A   1      47.074  28.960  36.554  1.00  0.00     0.059 A 
ATOM     76  F   UNL A   1      46.174  30.522  35.053  1.00  0.00    -0.206 F 
ATOM     77  C   UNL A   1      46.881  27.891  37.428  1.00  0.00     0.060 A 
BRANCH  77  78
ATOM     78  S   UNL A   1      48.290  27.152  38.281  1.00  0.00     0.124 S 
ATOM     79  O   UNL A   1      49.405  27.886  37.697  1.00  0.00    -0.237 OA
ATOM     80  O   UNL A   1      47.995  27.446  39.680  1.00  0.00    -0.237 OA
ATOM     81  O   UNL A   1      48.200  25.741  37.915  1.00  0.00    -0.744 OA
ENDBRANCH  77  78
ENDBRANCH  45  70
BRANCH  57  82
ATOM     82  C   UNL A   1      39.949  33.889  37.448  1.00  0.00     0.058 A 
ATOM     83  C   UNL A   1      40.632  35.103  37.609  1.00  0.00     0.135 A 
ATOM     84  C   UNL A   1      39.005  33.530  38.422  1.00  0.00     0.135 A 
ATOM     85  F   UNL A   1      41.551  35.486  36.709  1.00  0.00    -0.206 F 
ATOM     86  C   UNL A   1      40.399  35.925  38.707  1.00  0.00     0.059 A 
ATOM     87  C   UNL A   1      38.741  34.346  39.517  1.00  0.00     0.059 A 
ATOM     88  F   UNL A   1      38.319  32.381  38.308  1.00  0.00    -0.206 F 
ATOM     89  C   UNL A   1      39.451  35.538  39.657  1.00  0.00     0.060 A 
BRANCH  89  90
ATOM     90  S   UNL A   1      39.132  36.626  41.061  1.00  0.00     0.124 S 
ATOM     91  O   UNL A   1      38.391  37.711  40.428  1.00  0.00    -0.237 OA
ATOM     92  O   UNL A   1      38.361  35.769  41.956  1.00  0.00    -0.237 OA
ATOM     93  O   UNL A   1      40.470  36.972  41.533  1.00  0.00    -0.744 OA
ENDBRANCH  89  90
ENDBRANCH  57  82
ENDBRANCH  31  32
ENDBRANCH  24  26
ENDBRANCH  23  24
ENDBRANCH  22  23
ENDBRANCH   1  22
TORSDOF 18
ENDMDL
MODEL 3
REMARK VINA RESULT:     -10.3      2.459      3.744
REMARK SMILES CCOc1ccc(-c2ccc(=O)n(CC(=O)OCCOC(=O)c3ccc(-c4c5nc(c(-c6c(F)cc(S(=O)(=O)[O-])cc6F)c6ccc([nH]6)c(-c6c(F)cc(S(=O)(=O)[O-])cc6F)c6nc(c(-c7c(F)cc(S(=O)(=O)[O-])cc7F)c7ccc4[nH]7)C=C6)C=C5)cc3)n2)cc1
REMARK SMILES IDX 18 1 17 2 15 3 16 4 14 5 13 6 8 7 9 8 89 9 10 10 11 11 12 12
REMARK SMILES IDX 7 13 4 14 5 15 91 16 6 17 90 18 3 19 2 20 1 21 19 22 20 23
REMARK SMILES IDX 21 24 22 25 23 26 24 27 88 28 25 29 87 30 26 31 27 32 28 33
REMARK SMILES IDX 81 34 29 35 86 36 80 37 82 38 30 39 85 40 79 41 78 42 31 44
REMARK SMILES IDX 65 45 44 46 64 47 45 48 48 49 63 50 83 51 46 52 47 53 62 55
REMARK SMILES IDX 84 56 49 57 32 58 33 59 42 60 34 61 35 62 41 63 43 64 36 65
REMARK SMILES IDX 37 66 38 67 39 68 40 69 66 70 67 71 76 72 68 73 69 74 75 75
REMARK SMILES IDX 77 76 70 77 71 78 72 79 73 80 74 81 50 82 51 83 60 84 52 85
REMARK SMILES IDX 53 86 59 87 61 88 54 89 55 90 56 91 57 92 58 93
REMARK H PARENT 82 43 48 54
REMARK Flexibility Score: inf
ROOT
ATOM      1  C   UNL A   1      34.277  33.623  29.745  1.00  0.00     0.274 C 
ENDROOT
BRANCH   1   2
ATOM      2  O   UNL A   1      34.093  33.627  31.173  1.00  0.00    -0.461 OA
BRANCH   2   3
ATOM      3  C   UNL A   1      33.759  34.824  31.728  1.00  0.00     0.328 C 
ATOM      4  O   UNL A   1      32.765  35.477  31.425  1.00  0.00    -0.250 OA
BRANCH   3   5
ATOM      5  C   UNL A   1      34.767  35.324  32.751  1.00  0.00     0.270 C 
BRANCH   5   6
ATOM      6  N   UNL A   1      35.942  34.481  32.919  1.00  0.00    -0.218 N 
ATOM      7  C   UNL A   1      38.019  33.958  32.157  1.00  0.00     0.091 A 
ATOM      8  C   UNL A   1      38.241  32.947  33.206  1.00  0.00     0.036 A 
ATOM      9  N   UNL A   1      36.932  34.640  31.987  1.00  0.00    -0.169 NA
ATOM     10  C   UNL A   1      37.294  32.871  34.143  1.00  0.00     0.075 A 
ATOM     11  C   UNL A   1      36.099  33.736  34.077  1.00  0.00     0.267 A 
ATOM     12  O   UNL A   1      35.322  33.754  35.025  1.00  0.00    -0.268 OA
BRANCH   7  13
ATOM     13  C   UNL A   1      39.171  34.302  31.313  1.00  0.00     0.002 A 
ATOM     14  C   UNL A   1      41.229  34.871  29.554  1.00  0.00     0.119 A 
ATOM     15  C   UNL A   1      41.513  34.641  30.903  1.00  0.00     0.047 A 
ATOM     16  C   UNL A   1      39.926  34.776  29.074  1.00  0.00     0.047 A 
ATOM     17  C   UNL A   1      40.477  34.362  31.799  1.00  0.00     0.014 A 
ATOM     18  C   UNL A   1      38.892  34.504  29.958  1.00  0.00     0.014 A 
BRANCH  14  19
ATOM     19  O   UNL A   1      42.268  35.082  28.690  1.00  0.00    -0.494 OA
BRANCH  19  20
ATOM     20  C   UNL A   1      42.439  36.468  28.371  1.00  0.00     0.226 C 
ATOM     21  C   UNL A   1      42.881  36.674  26.929  1.00  0.00     0.049 C 
ENDBRANCH  19  20
ENDBRANCH  14  19
ENDBRANCH   7  13
ENDBRANCH   5   6
ENDBRANCH   3   5
ENDBRANCH   2   3
ENDBRANCH   1   2
BRANCH   1  22
ATOM     22  C   UNL A   1      34.793  32.261  29.298  1.00  0.00     0.275 C 
BRANCH  22  23
ATOM     23  O   UNL A   1      36.170  32.131  29.687  1.00  0.00    -0.458 OA
BRANCH  23  24
ATOM     24  C   UNL A   1      36.440  31.125  30.553  1.00  0.00     0.338 C 
ATOM     25  O   UNL A   1      35.783  30.793  31.525  1.00  0.00    -0.246 OA
BRANCH  24  26
ATOM     26  C   UNL A   1      37.734  30.524  30.189  1.00  0.00     0.060 A 
ATOM     27  C   UNL A   1      38.594  30.032  31.174  1.00  0.00     0.016 A 
ATOM     28  C   UNL A   1      38.124  30.528  28.851  1.00  0.00     0.016 A 
ATOM     29  C   UNL A   1      39.880  29.620  30.834  1.00  0.00     0.010 A 
ATOM     30  C   UNL A   1      39.382  30.035  28.502  1.00  0.00     0.010 A 
ATOM     31  C   UNL A   1      40.284  29.606  29.492  1.00  0.00    -0.014 A 
BRANCH  31  32
ATOM     32  C   UNL A   1      41.651  29.167  29.114  1.00  0.00     0.031 A 
ATOM     33  C   UNL A   1      42.784  30.157  29.115  1.00  0.00     0.074 A 
ATOM     34  C   UNL A   1      41.870  27.891  28.744  1.00  0.00     0.049 A 
ATOM     35  N   UNL A   1      44.000  30.022  28.651  1.00  0.00    -0.248 NA
ATOM     36  C   UNL A   1      42.511  31.478  29.706  1.00  0.00     0.031 C 
ATOM     37  C   UNL A   1      40.864  26.827  28.734  1.00  0.00     0.029 A 
ATOM     38  N   UNL A   1      43.010  27.274  28.293  1.00  0.00    -0.354 N 
ATOM     39  C   UNL A   1      44.622  31.248  28.852  1.00  0.00     0.074 A 
ATOM     40  C   UNL A   1      43.648  32.119  29.474  1.00  0.00     0.031 C 
ATOM     41  C   UNL A   1      41.433  25.688  28.311  1.00  0.00     0.029 A 
ATOM     42  C   UNL A   1      42.823  25.955  27.957  1.00  0.00     0.049 A 
ATOM     43  H   UNL A   1      43.878  27.733  28.218  1.00  0.00     0.167 HD
ATOM     44  C   UNL A   1      45.890  31.613  28.544  1.00  0.00     0.037 A 
ATOM     45  C   UNL A   1      43.665  25.068  27.392  1.00  0.00     0.037 A 
ATOM     46  C   UNL A   1      46.867  30.727  27.963  1.00  0.00     0.049 A 
ATOM     47  C   UNL A   1      45.057  25.504  27.032  1.00  0.00     0.074 A 
ATOM     48  C   UNL A   1      48.186  30.993  27.639  1.00  0.00     0.029 A 
ATOM     49  N   UNL A   1      46.634  29.402  27.628  1.00  0.00    -0.354 N 
ATOM     50  N   UNL A   1      45.622  26.675  27.200  1.00  0.00    -0.248 NA
ATOM     51  C   UNL A   1      45.920  24.501  26.393  1.00  0.00     0.031 C 
ATOM     52  C   UNL A   1      48.742  29.836  27.079  1.00  0.00     0.029 A 
ATOM     53  C   UNL A   1      47.780  28.840  27.090  1.00  0.00     0.049 A 
ATOM     54  H   UNL A   1      45.780  28.929  27.756  1.00  0.00     0.167 HD
ATOM     55  C   UNL A   1      46.914  26.547  26.703  1.00  0.00     0.074 A 
ATOM     56  C   UNL A   1      47.049  25.181  26.238  1.00  0.00     0.031 C 
ATOM     57  C   UNL A   1      47.898  27.477  26.636  1.00  0.00     0.037 A 
BRANCH  44  58
ATOM     58  C   UNL A   1      46.289  33.038  28.803  1.00  0.00     0.058 A 
ATOM     59  C   UNL A   1      46.965  33.418  29.973  1.00  0.00     0.135 A 
ATOM     60  C   UNL A   1      46.019  34.033  27.850  1.00  0.00     0.135 A 
ATOM     61  F   UNL A   1      47.233  32.510  30.924  1.00  0.00    -0.206 F 
ATOM     62  C   UNL A   1      47.339  34.740  30.199  1.00  0.00     0.059 A 
ATOM     63  C   UNL A   1      46.403  35.358  28.045  1.00  0.00     0.059 A 
ATOM     64  F   UNL A   1      45.375  33.724  26.713  1.00  0.00    -0.206 F 
ATOM     65  C   UNL A   1      47.051  35.703  29.230  1.00  0.00     0.060 A 
BRANCH  65  66
ATOM     66  S   UNL A   1      47.543  37.414  29.533  1.00  0.00     0.124 S 
ATOM     67  O   UNL A   1      48.592  37.596  28.533  1.00  0.00    -0.237 OA
ATOM     68  O   UNL A   1      46.305  38.147  29.290  1.00  0.00    -0.237 OA
ATOM     69  O   UNL A   1      47.996  37.397  30.920  1.00  0.00    -0.744 OA
ENDBRANCH  65  66
ENDBRANCH  44  58
BRANCH  45  70
ATOM     70  C   UNL A   1      43.197  23.686  27.111  1.00  0.00     0.058 A 
ATOM     71  C   UNL A   1      42.894  23.282  25.802  1.00  0.00     0.135 A 
ATOM     72  C   UNL A   1      43.074  22.736  28.135  1.00  0.00     0.135 A 
ATOM     73  F   UNL A   1      42.989  24.160  24.791  1.00  0.00    -0.206 F 
ATOM     74  C   UNL A   1      42.477  21.987  25.520  1.00  0.00     0.059 A 
ATOM     75  C   UNL A   1      42.681  21.427  27.875  1.00  0.00     0.059 A 
ATOM     76  F   UNL A   1      43.365  23.070  29.403  1.00  0.00    -0.206 F 
ATOM     77  C   UNL A   1      42.377  21.064  26.563  1.00  0.00     0.060 A 
BRANCH  77  78
ATOM     78  S   UNL A   1      41.893  19.367  26.181  1.00  0.00     0.124 S 
ATOM     79  O   UNL A   1      42.200  18.686  27.432  1.00  0.00    -0.237 OA
ATOM     80  O   UNL A   1      40.475  19.513  25.865  1.00  0.00    -0.237 OA
ATOM     81  O   UNL A   1      42.746  19.024  25.047  1.00  0.00    -0.744 OA
ENDBRANCH  77  78
ENDBRANCH  45  70
BRANCH  57  82
ATOM     82  C   UNL A   1      49.217  27.040  26.066  1.00  0.00     0.058 A 
ATOM     83  C   UNL A   1      49.524  27.214  24.709  1.00  0.00     0.135 A 
ATOM     84  C   UNL A   1      50.199  26.478  26.898  1.00  0.00     0.135 A 
ATOM     85  F   UNL A   1      48.615  27.739  23.872  1.00  0.00    -0.206 F 
ATOM     86  C   UNL A   1      50.756  26.830  24.190  1.00  0.00     0.059 A 
ATOM     87  C   UNL A   1      51.444  26.106  26.404  1.00  0.00     0.059 A 
ATOM     88  F   UNL A   1      49.955  26.299  28.206  1.00  0.00    -0.206 F 
ATOM     89  C   UNL A   1      51.711  26.275  25.046  1.00  0.00     0.060 A 
BRANCH  89  90
ATOM     90  S   UNL A   1      53.318  25.809  24.370  1.00  0.00     0.124 S 
ATOM     91  O   UNL A   1      53.532  24.508  24.995  1.00  0.00    -0.237 OA
ATOM     92  O   UNL A   1      53.063  25.787  22.933  1.00  0.00    -0.237 OA
ATOM     93  O   UNL A   1      54.201  26.878  24.828  1.00  0.00    -0.744 OA
ENDBRANCH  89  90
ENDBRANCH  57  82
ENDBRANCH  31  32
ENDBRANCH  24  26
ENDBRANCH  23  24
ENDBRANCH  22  23
ENDBRANCH   1  22
TORSDOF 18
ENDMDL
