MODEL 1
REMARK VINA RESULT:     -11.7      0.000      0.000
REMARK SMILES Cc1cc(Nc2ccc(C(=O)OCCOC(=O)c3ccc(-c4c5nc(c(-c6c(F)cc(S(=O)(=O)[O-])cc6F)c6ccc([nH]6)c(-c6c(F)cc(S(=O)(=O)[O-])cc6F)c6nc(c(-c7c(F)cc(S(=O)(=O)[O-])cc7F)c7ccc4[nH]7)C=C6)C=C5)cc3)cc2)nc(C(C)C)n1
REMARK SMILES IDX 13 1 12 2 10 3 11 4 9 5 6 6 7 7 85 8 8 9 84 10 5 11 4 13
REMARK SMILES IDX 1 14 2 15 3 16 91 17 87 18 86 19 88 20 89 21 90 22 14 23
REMARK SMILES IDX 15 24 16 25 17 26 18 27 19 28 83 29 20 30 82 31 21 32 22 33
REMARK SMILES IDX 23 34 76 35 24 36 81 37 75 38 77 39 25 40 80 41 74 42 73 43
REMARK SMILES IDX 26 45 60 46 39 47 59 48 40 49 43 50 58 51 78 52 41 53 42 54
REMARK SMILES IDX 57 56 79 57 44 58 27 59 28 60 37 61 29 62 30 63 36 64 38 65
REMARK SMILES IDX 31 66 32 67 33 68 34 69 35 70 61 71 62 72 71 73 63 74 64 75
REMARK SMILES IDX 70 76 72 77 65 78 66 79 67 80 68 81 69 82 45 83 46 84 55 85
REMARK SMILES IDX 47 86 48 87 54 88 56 89 49 90 50 91 51 92 52 93 53 94
REMARK H PARENT 5 12 77 44 43 55
REMARK Flexibility Score: inf
ROOT
ATOM      1  C   UNL A   1      33.067  29.958  26.905  1.00  0.00     0.275 C 
ENDROOT
BRANCH   1   2
ATOM      2  O   UNL A   1      33.211  28.525  26.829  1.00  0.00    -0.458 OA
BRANCH   2   3
ATOM      3  C   UNL A   1      32.090  27.814  27.105  1.00  0.00     0.338 C 
ATOM      4  O   UNL A   1      31.278  28.055  27.984  1.00  0.00    -0.246 OA
BRANCH   3   5
ATOM      5  C   UNL A   1      31.917  26.705  26.141  1.00  0.00     0.060 A 
ATOM      6  C   UNL A   1      31.761  24.460  24.460  1.00  0.00     0.040 A 
ATOM      7  C   UNL A   1      31.230  24.408  25.748  1.00  0.00     0.027 A 
ATOM      8  C   UNL A   1      32.347  25.654  24.013  1.00  0.00     0.027 A 
ATOM      9  C   UNL A   1      31.341  25.511  26.591  1.00  0.00     0.018 A 
ATOM     10  C   UNL A   1      32.406  26.784  24.838  1.00  0.00     0.018 A 
BRANCH   6  11
ATOM     11  N   UNL A   1      31.886  23.261  23.730  1.00  0.00    -0.340 N 
ATOM     12  H   UNL A   1      31.325  23.138  22.930  1.00  0.00     0.168 HD
BRANCH  11  13
ATOM     13  C   UNL A   1      32.777  22.227  24.087  1.00  0.00     0.134 A 
ATOM     14  C   UNL A   1      32.764  18.576  24.916  1.00  0.00     0.067 C 
ATOM     15  C   UNL A   1      33.201  19.986  24.665  1.00  0.00     0.043 A 
ATOM     16  C   UNL A   1      32.287  20.955  24.300  1.00  0.00     0.070 A 
ATOM     17  N   UNL A   1      34.519  20.243  24.794  1.00  0.00    -0.238 NA
ATOM     18  C   UNL A   1      34.913  21.507  24.560  1.00  0.00     0.133 A 
ATOM     19  N   UNL A   1      34.088  22.497  24.197  1.00  0.00    -0.216 NA
BRANCH  18  20
ATOM     20  C   UNL A   1      36.378  21.859  24.670  1.00  0.00     0.051 C 
ATOM     21  C   UNL A   1      37.237  20.617  24.899  1.00  0.00     0.016 C 
ATOM     22  C   UNL A   1      36.835  22.640  23.441  1.00  0.00     0.016 C 
ENDBRANCH  18  20
ENDBRANCH  11  13
ENDBRANCH   6  11
ENDBRANCH   3   5
ENDBRANCH   2   3
ENDBRANCH   1   2
BRANCH   1  23
ATOM     23  C   UNL A   1      34.364  30.627  27.360  1.00  0.00     0.275 C 
BRANCH  23  24
ATOM     24  O   UNL A   1      35.046  29.816  28.332  1.00  0.00    -0.458 OA
BRANCH  24  25
ATOM     25  C   UNL A   1      35.955  30.469  29.091  1.00  0.00     0.338 C 
ATOM     26  O   UNL A   1      35.760  31.414  29.836  1.00  0.00    -0.246 OA
BRANCH  25  27
ATOM     27  C   UNL A   1      37.275  29.843  28.934  1.00  0.00     0.060 A 
ATOM     28  C   UNL A   1      37.969  29.452  30.074  1.00  0.00     0.016 A 
ATOM     29  C   UNL A   1      37.887  29.781  27.686  1.00  0.00     0.016 A 
ATOM     30  C   UNL A   1      39.316  29.115  29.997  1.00  0.00     0.010 A 
ATOM     31  C   UNL A   1      39.203  29.317  27.595  1.00  0.00     0.010 A 
ATOM     32  C   UNL A   1      39.947  29.013  28.751  1.00  0.00    -0.014 A 
BRANCH  32  33
ATOM     33  C   UNL A   1      41.373  28.589  28.646  1.00  0.00     0.031 A 
ATOM     34  C   UNL A   1      42.473  29.611  28.747  1.00  0.00     0.074 A 
ATOM     35  C   UNL A   1      41.684  27.297  28.412  1.00  0.00     0.049 A 
ATOM     36  N   UNL A   1      43.736  29.507  28.421  1.00  0.00    -0.248 NA
ATOM     37  C   UNL A   1      42.094  30.936  29.265  1.00  0.00     0.031 C 
ATOM     38  C   UNL A   1      40.724  26.193  28.333  1.00  0.00     0.029 A 
ATOM     39  N   UNL A   1      42.896  26.696  28.175  1.00  0.00    -0.354 N 
ATOM     40  C   UNL A   1      44.286  30.769  28.623  1.00  0.00     0.074 A 
ATOM     41  C   UNL A   1      43.219  31.619  29.106  1.00  0.00     0.031 C 
ATOM     42  C   UNL A   1      41.381  25.054  28.073  1.00  0.00     0.029 A 
ATOM     43  C   UNL A   1      42.790  25.360  27.865  1.00  0.00     0.049 A 
ATOM     44  H   UNL A   1      43.756  27.173  28.223  1.00  0.00     0.167 HD
ATOM     45  C   UNL A   1      45.562  31.176  28.414  1.00  0.00     0.037 A 
ATOM     46  C   UNL A   1      43.701  24.487  27.392  1.00  0.00     0.037 A 
ATOM     47  C   UNL A   1      46.621  30.302  27.977  1.00  0.00     0.049 A 
ATOM     48  C   UNL A   1      45.103  24.957  27.146  1.00  0.00     0.074 A 
ATOM     49  C   UNL A   1      47.955  30.604  27.764  1.00  0.00     0.029 A 
ATOM     50  N   UNL A   1      46.467  28.953  27.689  1.00  0.00    -0.354 N 
ATOM     51  N   UNL A   1      45.605  26.158  27.303  1.00  0.00    -0.248 NA
ATOM     52  C   UNL A   1      46.062  23.961  26.651  1.00  0.00     0.031 C 
ATOM     53  C   UNL A   1      48.597  29.447  27.308  1.00  0.00     0.029 A 
ATOM     54  C   UNL A   1      47.676  28.411  27.284  1.00  0.00     0.049 A 
ATOM     55  H   UNL A   1      45.621  28.454  27.761  1.00  0.00     0.167 HD
ATOM     56  C   UNL A   1      46.942  26.063  26.938  1.00  0.00     0.074 A 
ATOM     57  C   UNL A   1      47.172  24.682  26.562  1.00  0.00     0.031 C 
ATOM     58  C   UNL A   1      47.889  27.032  26.917  1.00  0.00     0.037 A 
BRANCH  45  59
ATOM     59  C   UNL A   1      45.863  32.640  28.601  1.00  0.00     0.058 A 
ATOM     60  C   UNL A   1      46.278  33.172  29.832  1.00  0.00     0.135 A 
ATOM     61  C   UNL A   1      45.723  33.530  27.522  1.00  0.00     0.135 A 
ATOM     62  F   UNL A   1      46.419  32.372  30.902  1.00  0.00    -0.206 F 
ATOM     63  C   UNL A   1      46.491  34.538  30.001  1.00  0.00     0.059 A 
ATOM     64  C   UNL A   1      45.959  34.895  27.661  1.00  0.00     0.059 A 
ATOM     65  F   UNL A   1      45.336  33.079  26.319  1.00  0.00    -0.206 F 
ATOM     66  C   UNL A   1      46.318  35.393  28.912  1.00  0.00     0.060 A 
BRANCH  66  67
ATOM     67  S   UNL A   1      46.549  37.167  29.155  1.00  0.00     0.124 S 
ATOM     68  O   UNL A   1      45.342  37.705  28.535  1.00  0.00    -0.237 OA
ATOM     69  O   UNL A   1      46.617  37.280  30.609  1.00  0.00    -0.237 OA
ATOM     70  O   UNL A   1      47.796  37.448  28.450  1.00  0.00    -0.744 OA
ENDBRANCH  66  67
ENDBRANCH  45  59
BRANCH  46  71
ATOM     71  C   UNL A   1      43.272  23.098  27.077  1.00  0.00     0.058 A 
ATOM     72  C   UNL A   1      43.163  22.656  25.753  1.00  0.00     0.135 A 
ATOM     73  C   UNL A   1      43.058  22.161  28.102  1.00  0.00     0.135 A 
ATOM     74  F   UNL A   1      43.348  23.516  24.740  1.00  0.00    -0.206 F 
ATOM     75  C   UNL A   1      42.873  21.328  25.452  1.00  0.00     0.059 A 
ATOM     76  C   UNL A   1      42.794  20.823  27.827  1.00  0.00     0.059 A 
ATOM     77  F   UNL A   1      43.166  22.532  29.387  1.00  0.00    -0.206 F 
ATOM     78  C   UNL A   1      42.704  20.415  26.497  1.00  0.00     0.060 A 
BRANCH  78  79
ATOM     79  S   UNL A   1      42.439  18.675  26.095  1.00  0.00     0.124 S 
ATOM     80  O   UNL A   1      41.028  18.669  25.730  1.00  0.00    -0.237 OA
ATOM     81  O   UNL A   1      43.384  18.465  25.001  1.00  0.00    -0.237 OA
ATOM     82  O   UNL A   1      42.773  17.988  27.340  1.00  0.00    -0.744 OA
ENDBRANCH  78  79
ENDBRANCH  46  71
BRANCH  58  83
ATOM     83  C   UNL A   1      49.278  26.628  26.510  1.00  0.00     0.058 A 
ATOM     84  C   UNL A   1      50.148  25.976  27.396  1.00  0.00     0.135 A 
ATOM     85  C   UNL A   1      49.718  26.840  25.194  1.00  0.00     0.135 A 
ATOM     86  F   UNL A   1      49.779  25.760  28.669  1.00  0.00    -0.206 F 
ATOM     87  C   UNL A   1      51.411  25.555  26.994  1.00  0.00     0.059 A 
ATOM     88  C   UNL A   1      50.967  26.406  24.763  1.00  0.00     0.059 A 
ATOM     89  F   UNL A   1      48.920  27.455  24.305  1.00  0.00    -0.206 F 
ATOM     90  C   UNL A   1      51.810  25.770  25.673  1.00  0.00     0.060 A 
BRANCH  90  91
ATOM     91  S   UNL A   1      53.429  25.171  25.147  1.00  0.00     0.124 S 
ATOM     92  O   UNL A   1      53.302  23.737  25.377  1.00  0.00    -0.237 OA
ATOM     93  O   UNL A   1      53.477  25.588  23.749  1.00  0.00    -0.237 OA
ATOM     94  O   UNL A   1      54.354  25.870  26.034  1.00  0.00    -0.744 OA
ENDBRANCH  90  91
ENDBRANCH  58  83
ENDBRANCH  32  33
ENDBRANCH  25  27
ENDBRANCH  24  25
ENDBRANCH  23  24
ENDBRANCH   1  23
TORSDOF 17
ENDMDL
MODEL 2
REMARK VINA RESULT:     -11.4      5.361     10.907
REMARK SMILES Cc1cc(Nc2ccc(C(=O)OCCOC(=O)c3ccc(-c4c5nc(c(-c6c(F)cc(S(=O)(=O)[O-])cc6F)c6ccc([nH]6)c(-c6c(F)cc(S(=O)(=O)[O-])cc6F)c6nc(c(-c7c(F)cc(S(=O)(=O)[O-])cc7F)c7ccc4[nH]7)C=C6)C=C5)cc3)cc2)nc(C(C)C)n1
REMARK SMILES IDX 13 1 12 2 10 3 11 4 9 5 6 6 7 7 85 8 8 9 84 10 5 11 4 13
REMARK SMILES IDX 1 14 2 15 3 16 91 17 87 18 86 19 88 20 89 21 90 22 14 23
REMARK SMILES IDX 15 24 16 25 17 26 18 27 19 28 83 29 20 30 82 31 21 32 22 33
REMARK SMILES IDX 23 34 76 35 24 36 81 37 75 38 77 39 25 40 80 41 74 42 73 43
REMARK SMILES IDX 26 45 60 46 39 47 59 48 40 49 43 50 58 51 78 52 41 53 42 54
REMARK SMILES IDX 57 56 79 57 44 58 27 59 28 60 37 61 29 62 30 63 36 64 38 65
REMARK SMILES IDX 31 66 32 67 33 68 34 69 35 70 61 71 62 72 71 73 63 74 64 75
REMARK SMILES IDX 70 76 72 77 65 78 66 79 67 80 68 81 69 82 45 83 46 84 55 85
REMARK SMILES IDX 47 86 48 87 54 88 56 89 49 90 50 91 51 92 52 93 53 94
REMARK H PARENT 5 12 77 44 43 55
REMARK Flexibility Score: inf
ROOT
ATOM      1  C   UNL A   1      36.319  21.756  24.727  1.00  0.00     0.275 C 
ENDROOT
BRANCH   1   2
ATOM      2  O   UNL A   1      34.990  21.804  24.169  1.00  0.00    -0.458 OA
BRANCH   2   3
ATOM      3  C   UNL A   1      34.042  21.136  24.870  1.00  0.00     0.338 C 
ATOM      4  O   UNL A   1      34.056  19.950  25.161  1.00  0.00    -0.246 OA
BRANCH   3   5
ATOM      5  C   UNL A   1      32.973  22.055  25.322  1.00  0.00     0.060 A 
ATOM      6  C   UNL A   1      31.047  23.979  26.013  1.00  0.00     0.040 A 
ATOM      7  C   UNL A   1      31.041  23.408  24.741  1.00  0.00     0.027 A 
ATOM      8  C   UNL A   1      32.011  23.558  26.943  1.00  0.00     0.027 A 
ATOM      9  C   UNL A   1      32.019  22.481  24.391  1.00  0.00     0.018 A 
ATOM     10  C   UNL A   1      32.957  22.581  26.613  1.00  0.00     0.018 A 
BRANCH   6  11
ATOM     11  N   UNL A   1      30.234  25.105  26.254  1.00  0.00    -0.340 N 
ATOM     12  H   UNL A   1      29.387  24.975  26.739  1.00  0.00     0.168 HD
BRANCH  11  13
ATOM     13  C   UNL A   1      30.573  26.409  25.838  1.00  0.00     0.134 A 
ATOM     14  C   UNL A   1      30.185  28.680  22.887  1.00  0.00     0.067 C 
ATOM     15  C   UNL A   1      30.561  28.121  24.224  1.00  0.00     0.043 A 
ATOM     16  C   UNL A   1      30.186  26.842  24.587  1.00  0.00     0.070 A 
ATOM     17  N   UNL A   1      31.257  28.934  25.045  1.00  0.00    -0.238 NA
ATOM     18  C   UNL A   1      31.587  28.436  26.250  1.00  0.00     0.133 A 
ATOM     19  N   UNL A   1      31.254  27.210  26.674  1.00  0.00    -0.216 NA
BRANCH  18  20
ATOM     20  C   UNL A   1      32.351  29.300  27.225  1.00  0.00     0.051 C 
ATOM     21  C   UNL A   1      33.832  28.926  27.266  1.00  0.00     0.016 C 
ATOM     22  C   UNL A   1      32.153  30.778  26.900  1.00  0.00     0.016 C 
ENDBRANCH  18  20
ENDBRANCH  11  13
ENDBRANCH   6  11
ENDBRANCH   3   5
ENDBRANCH   2   3
ENDBRANCH   1   2
BRANCH   1  23
ATOM     23  C   UNL A   1      36.547  22.893  25.723  1.00  0.00     0.275 C 
BRANCH  23  24
ATOM     24  O   UNL A   1      37.711  23.659  25.371  1.00  0.00    -0.458 OA
BRANCH  24  25
ATOM     25  C   UNL A   1      38.869  23.239  25.931  1.00  0.00     0.338 C 
ATOM     26  O   UNL A   1      39.425  22.166  25.772  1.00  0.00    -0.246 OA
BRANCH  25  27
ATOM     27  C   UNL A   1      39.430  24.305  26.771  1.00  0.00     0.060 A 
ATOM     28  C   UNL A   1      39.021  24.395  28.098  1.00  0.00     0.016 A 
ATOM     29  C   UNL A   1      40.233  25.298  26.217  1.00  0.00     0.016 A 
ATOM     30  C   UNL A   1      39.306  25.533  28.846  1.00  0.00     0.010 A 
ATOM     31  C   UNL A   1      40.627  26.379  27.012  1.00  0.00     0.010 A 
ATOM     32  C   UNL A   1      40.138  26.530  28.325  1.00  0.00    -0.014 A 
BRANCH  32  33
ATOM     33  C   UNL A   1      40.507  27.725  29.137  1.00  0.00     0.031 A 
ATOM     34  C   UNL A   1      41.747  27.702  29.991  1.00  0.00     0.074 A 
ATOM     35  C   UNL A   1      39.710  28.813  29.149  1.00  0.00     0.049 A 
ATOM     36  N   UNL A   1      42.102  28.506  30.961  1.00  0.00    -0.248 NA
ATOM     37  C   UNL A   1      42.703  26.614  29.733  1.00  0.00     0.031 C 
ATOM     38  C   UNL A   1      38.502  28.991  28.339  1.00  0.00     0.029 A 
ATOM     39  N   UNL A   1      39.784  29.970  29.886  1.00  0.00    -0.354 N 
ATOM     40  C   UNL A   1      43.282  27.981  31.476  1.00  0.00     0.074 A 
ATOM     41  C   UNL A   1      43.585  26.793  30.707  1.00  0.00     0.031 C 
ATOM     42  C   UNL A   1      37.954  30.181  28.618  1.00  0.00     0.029 A 
ATOM     43  C   UNL A   1      38.709  30.807  29.696  1.00  0.00     0.049 A 
ATOM     44  H   UNL A   1      40.533  30.180  30.491  1.00  0.00     0.167 HD
ATOM     45  C   UNL A   1      44.034  28.447  32.503  1.00  0.00     0.037 A 
ATOM     46  C   UNL A   1      38.322  31.914  30.359  1.00  0.00     0.037 A 
ATOM     47  C   UNL A   1      43.742  29.658  33.227  1.00  0.00     0.049 A 
ATOM     48  C   UNL A   1      39.153  32.406  31.506  1.00  0.00     0.074 A 
ATOM     49  C   UNL A   1      44.454  30.237  34.263  1.00  0.00     0.029 A 
ATOM     50  N   UNL A   1      42.648  30.479  32.988  1.00  0.00    -0.354 N 
ATOM     51  N   UNL A   1      40.245  31.883  32.011  1.00  0.00    -0.248 NA
ATOM     52  C   UNL A   1      38.699  33.628  32.181  1.00  0.00     0.031 C 
ATOM     53  C   UNL A   1      43.769  31.385  34.676  1.00  0.00     0.029 A 
ATOM     54  C   UNL A   1      42.656  31.551  33.867  1.00  0.00     0.049 A 
ATOM     55  H   UNL A   1      41.966  30.322  32.296  1.00  0.00     0.167 HD
ATOM     56  C   UNL A   1      40.618  32.718  33.056  1.00  0.00     0.074 A 
ATOM     57  C   UNL A   1      39.639  33.787  33.104  1.00  0.00     0.031 C 
ATOM     58  C   UNL A   1      41.676  32.609  33.897  1.00  0.00     0.037 A 
BRANCH  45  59
ATOM     59  C   UNL A   1      45.211  27.612  32.937  1.00  0.00     0.058 A 
ATOM     60  C   UNL A   1      45.102  26.603  33.907  1.00  0.00     0.135 A 
ATOM     61  C   UNL A   1      46.479  27.837  32.372  1.00  0.00     0.135 A 
ATOM     62  F   UNL A   1      43.919  26.350  34.490  1.00  0.00    -0.206 F 
ATOM     63  C   UNL A   1      46.214  25.885  34.340  1.00  0.00     0.059 A 
ATOM     64  C   UNL A   1      47.599  27.111  32.768  1.00  0.00     0.059 A 
ATOM     65  F   UNL A   1      46.643  28.783  31.435  1.00  0.00    -0.206 F 
ATOM     66  C   UNL A   1      47.461  26.154  33.772  1.00  0.00     0.060 A 
BRANCH  66  67
ATOM     67  S   UNL A   1      48.903  25.251  34.375  1.00  0.00     0.124 S 
ATOM     68  O   UNL A   1      48.778  25.434  35.817  1.00  0.00    -0.237 OA
ATOM     69  O   UNL A   1      48.655  23.898  33.885  1.00  0.00    -0.237 OA
ATOM     70  O   UNL A   1      50.025  25.944  33.748  1.00  0.00    -0.744 OA
ENDBRANCH  66  67
ENDBRANCH  45  59
BRANCH  46  71
ATOM     71  C   UNL A   1      37.053  32.582  29.967  1.00  0.00     0.058 A 
ATOM     72  C   UNL A   1      35.829  32.206  30.535  1.00  0.00     0.135 A 
ATOM     73  C   UNL A   1      37.058  33.678  29.086  1.00  0.00     0.135 A 
ATOM     74  F   UNL A   1      35.772  31.160  31.374  1.00  0.00    -0.206 F 
ATOM     75  C   UNL A   1      34.655  32.901  30.258  1.00  0.00     0.059 A 
ATOM     76  C   UNL A   1      35.904  34.404  28.815  1.00  0.00     0.059 A 
ATOM     77  F   UNL A   1      38.208  34.087  28.528  1.00  0.00    -0.206 F 
ATOM     78  C   UNL A   1      34.706  34.008  29.407  1.00  0.00     0.060 A 
BRANCH  78  79
ATOM     79  S   UNL A   1      33.199  34.969  29.143  1.00  0.00     0.124 S 
ATOM     80  O   UNL A   1      33.737  36.236  28.666  1.00  0.00    -0.237 OA
ATOM     81  O   UNL A   1      32.489  34.162  28.155  1.00  0.00    -0.237 OA
ATOM     82  O   UNL A   1      32.586  35.002  30.469  1.00  0.00    -0.744 OA
ENDBRANCH  78  79
ENDBRANCH  46  71
BRANCH  58  83
ATOM     83  C   UNL A   1      41.856  33.693  34.922  1.00  0.00     0.058 A 
ATOM     84  C   UNL A   1      41.308  33.592  36.209  1.00  0.00     0.135 A 
ATOM     85  C   UNL A   1      42.645  34.817  34.629  1.00  0.00     0.135 A 
ATOM     86  F   UNL A   1      40.538  32.542  36.535  1.00  0.00    -0.206 F 
ATOM     87  C   UNL A   1      41.529  34.574  37.169  1.00  0.00     0.059 A 
ATOM     88  C   UNL A   1      42.898  35.799  35.581  1.00  0.00     0.059 A 
ATOM     89  F   UNL A   1      43.196  34.957  33.412  1.00  0.00    -0.206 F 
ATOM     90  C   UNL A   1      42.330  35.672  36.847  1.00  0.00     0.060 A 
BRANCH  90  91
ATOM     91  S   UNL A   1      42.653  36.913  38.117  1.00  0.00     0.124 S 
ATOM     92  O   UNL A   1      43.391  36.136  39.107  1.00  0.00    -0.237 OA
ATOM     93  O   UNL A   1      43.428  37.912  37.387  1.00  0.00    -0.237 OA
ATOM     94  O   UNL A   1      41.317  37.340  38.523  1.00  0.00    -0.744 OA
ENDBRANCH  90  91
ENDBRANCH  58  83
ENDBRANCH  32  33
ENDBRANCH  25  27
ENDBRANCH  24  25
ENDBRANCH  23  24
ENDBRANCH   1  23
TORSDOF 17
ENDMDL
MODEL 3
REMARK VINA RESULT:     -11.4      6.741     11.717
REMARK SMILES Cc1cc(Nc2ccc(C(=O)OCCOC(=O)c3ccc(-c4c5nc(c(-c6c(F)cc(S(=O)(=O)[O-])cc6F)c6ccc([nH]6)c(-c6c(F)cc(S(=O)(=O)[O-])cc6F)c6nc(c(-c7c(F)cc(S(=O)(=O)[O-])cc7F)c7ccc4[nH]7)C=C6)C=C5)cc3)cc2)nc(C(C)C)n1
REMARK SMILES IDX 13 1 12 2 10 3 11 4 9 5 6 6 7 7 85 8 8 9 84 10 5 11 4 13
REMARK SMILES IDX 1 14 2 15 3 16 91 17 87 18 86 19 88 20 89 21 90 22 14 23
REMARK SMILES IDX 15 24 16 25 17 26 18 27 19 28 83 29 20 30 82 31 21 32 22 33
REMARK SMILES IDX 23 34 76 35 24 36 81 37 75 38 77 39 25 40 80 41 74 42 73 43
REMARK SMILES IDX 26 45 60 46 39 47 59 48 40 49 43 50 58 51 78 52 41 53 42 54
REMARK SMILES IDX 57 56 79 57 44 58 27 59 28 60 37 61 29 62 30 63 36 64 38 65
REMARK SMILES IDX 31 66 32 67 33 68 34 69 35 70 61 71 62 72 71 73 63 74 64 75
REMARK SMILES IDX 70 76 72 77 65 78 66 79 67 80 68 81 69 82 45 83 46 84 55 85
REMARK SMILES IDX 47 86 48 87 54 88 56 89 49 90 50 91 51 92 52 93 53 94
REMARK H PARENT 5 12 77 44 43 55
REMARK Flexibility Score: inf
ROOT
ATOM      1  C   UNL A   1      42.547  22.181  26.141  1.00  0.00     0.275 C 
ENDROOT
BRANCH   1   2
ATOM      2  O   UNL A   1      41.251  21.888  25.580  1.00  0.00    -0.458 OA
BRANCH   2   3
ATOM      3  C   UNL A   1      40.296  21.539  26.476  1.00  0.00     0.338 C 
ATOM      4  O   UNL A   1      40.460  20.873  27.487  1.00  0.00    -0.246 OA
BRANCH   3   5
ATOM      5  C   UNL A   1      38.990  22.134  26.117  1.00  0.00     0.060 A 
ATOM      6  C   UNL A   1      36.601  23.279  25.184  1.00  0.00     0.040 A 
ATOM      7  C   UNL A   1      36.953  21.985  24.802  1.00  0.00     0.027 A 
ATOM      8  C   UNL A   1      37.444  23.984  26.058  1.00  0.00     0.027 A 
ATOM      9  C   UNL A   1      38.154  21.434  25.238  1.00  0.00     0.018 A 
ATOM     10  C   UNL A   1      38.623  23.409  26.546  1.00  0.00     0.018 A 
BRANCH   6  11
ATOM     11  N   UNL A   1      35.533  23.915  24.518  1.00  0.00    -0.340 N 
ATOM     12  H   UNL A   1      35.589  24.023  23.541  1.00  0.00     0.168 HD
BRANCH  11  13
ATOM     13  C   UNL A   1      34.389  24.405  25.181  1.00  0.00     0.134 A 
ATOM     14  C   UNL A   1      31.132  23.194  26.576  1.00  0.00     0.067 C 
ATOM     15  C   UNL A   1      32.275  24.066  26.158  1.00  0.00     0.043 A 
ATOM     16  C   UNL A   1      33.381  23.529  25.529  1.00  0.00     0.070 A 
ATOM     17  N   UNL A   1      32.172  25.380  26.449  1.00  0.00    -0.238 NA
ATOM     18  C   UNL A   1      33.203  26.161  26.083  1.00  0.00     0.133 A 
ATOM     19  N   UNL A   1      34.308  25.713  25.475  1.00  0.00    -0.216 NA
BRANCH  18  20
ATOM     20  C   UNL A   1      33.158  27.639  26.394  1.00  0.00     0.051 C 
ATOM     21  C   UNL A   1      33.459  28.482  25.156  1.00  0.00     0.016 C 
ATOM     22  C   UNL A   1      31.818  28.015  27.019  1.00  0.00     0.016 C 
ENDBRANCH  18  20
ENDBRANCH  11  13
ENDBRANCH   6  11
ENDBRANCH   3   5
ENDBRANCH   2   3
ENDBRANCH   1   2
BRANCH   1  23
ATOM     23  C   UNL A   1      42.892  23.665  26.007  1.00  0.00     0.275 C 
BRANCH  23  24
ATOM     24  O   UNL A   1      41.745  24.486  26.284  1.00  0.00    -0.458 OA
BRANCH  24  25
ATOM     25  C   UNL A   1      41.898  25.802  26.012  1.00  0.00     0.338 C 
ATOM     26  O   UNL A   1      42.317  26.304  24.983  1.00  0.00    -0.246 OA
BRANCH  25  27
ATOM     27  C   UNL A   1      41.438  26.602  27.154  1.00  0.00     0.060 A 
ATOM     28  C   UNL A   1      42.029  27.840  27.384  1.00  0.00     0.016 A 
ATOM     29  C   UNL A   1      40.541  26.072  28.077  1.00  0.00     0.016 A 
ATOM     30  C   UNL A   1      41.828  28.503  28.590  1.00  0.00     0.010 A 
ATOM     31  C   UNL A   1      40.240  26.802  29.231  1.00  0.00     0.010 A 
ATOM     32  C   UNL A   1      40.906  28.009  29.521  1.00  0.00    -0.014 A 
BRANCH  32  33
ATOM     33  C   UNL A   1      40.629  28.741  30.790  1.00  0.00     0.031 A 
ATOM     34  C   UNL A   1      39.525  29.763  30.845  1.00  0.00     0.074 A 
ATOM     35  C   UNL A   1      41.394  28.527  31.881  1.00  0.00     0.049 A 
ATOM     36  N   UNL A   1      39.293  30.687  31.741  1.00  0.00    -0.248 NA
ATOM     37  C   UNL A   1      38.567  29.757  29.728  1.00  0.00     0.031 C 
ATOM     38  C   UNL A   1      42.469  27.538  31.985  1.00  0.00     0.029 A 
ATOM     39  N   UNL A   1      41.398  29.147  33.107  1.00  0.00    -0.354 N 
ATOM     40  C   UNL A   1      38.211  31.418  31.262  1.00  0.00     0.074 A 
ATOM     41  C   UNL A   1      37.830  30.825  29.998  1.00  0.00     0.031 C 
ATOM     42  C   UNL A   1      43.023  27.613  33.202  1.00  0.00     0.029 A 
ATOM     43  C   UNL A   1      42.416  28.720  33.929  1.00  0.00     0.049 A 
ATOM     44  H   UNL A   1      40.739  29.829  33.372  1.00  0.00     0.167 HD
ATOM     45  C   UNL A   1      37.603  32.491  31.825  1.00  0.00     0.037 A 
ATOM     46  C   UNL A   1      42.867  29.205  35.102  1.00  0.00     0.037 A 
ATOM     47  C   UNL A   1      37.967  33.039  33.107  1.00  0.00     0.049 A 
ATOM     48  C   UNL A   1      42.196  30.404  35.703  1.00  0.00     0.074 A 
ATOM     49  C   UNL A   1      37.397  34.103  33.783  1.00  0.00     0.029 A 
ATOM     50  N   UNL A   1      38.995  32.563  33.909  1.00  0.00    -0.354 N 
ATOM     51  N   UNL A   1      41.201  31.112  35.226  1.00  0.00    -0.248 NA
ATOM     52  C   UNL A   1      42.713  30.879  36.992  1.00  0.00     0.031 C 
ATOM     53  C   UNL A   1      38.106  34.295  34.974  1.00  0.00     0.029 A 
ATOM     54  C   UNL A   1      39.088  33.320  35.065  1.00  0.00     0.049 A 
ATOM     55  H   UNL A   1      39.576  31.799  33.687  1.00  0.00     0.167 HD
ATOM     56  C   UNL A   1      40.961  32.110  36.161  1.00  0.00     0.074 A 
ATOM     57  C   UNL A   1      41.911  31.908  37.237  1.00  0.00     0.031 C 
ATOM     58  C   UNL A   1      40.038  33.102  36.129  1.00  0.00     0.037 A 
BRANCH  45  59
ATOM     59  C   UNL A   1      36.520  33.172  31.029  1.00  0.00     0.058 A 
ATOM     60  C   UNL A   1      36.798  33.961  29.901  1.00  0.00     0.135 A 
ATOM     61  C   UNL A   1      35.174  33.038  31.413  1.00  0.00     0.135 A 
ATOM     62  F   UNL A   1      38.065  34.135  29.492  1.00  0.00    -0.206 F 
ATOM     63  C   UNL A   1      35.789  34.633  29.216  1.00  0.00     0.059 A 
ATOM     64  C   UNL A   1      34.147  33.677  30.726  1.00  0.00     0.059 A 
ATOM     65  F   UNL A   1      34.848  32.291  32.479  1.00  0.00    -0.206 F 
ATOM     66  C   UNL A   1      34.467  34.494  29.643  1.00  0.00     0.060 A 
BRANCH  66  67
ATOM     67  S   UNL A   1      33.173  35.409  28.778  1.00  0.00     0.124 S 
ATOM     68  O   UNL A   1      32.534  34.347  28.006  1.00  0.00    -0.237 OA
ATOM     69  O   UNL A   1      32.383  35.953  29.878  1.00  0.00    -0.237 OA
ATOM     70  O   UNL A   1      33.915  36.393  27.997  1.00  0.00    -0.744 OA
ENDBRANCH  66  67
ENDBRANCH  45  59
BRANCH  46  71
ATOM     71  C   UNL A   1      44.051  28.568  35.737  1.00  0.00     0.058 A 
ATOM     72  C   UNL A   1      45.350  29.005  35.452  1.00  0.00     0.135 A 
ATOM     73  C   UNL A   1      43.894  27.572  36.717  1.00  0.00     0.135 A 
ATOM     74  F   UNL A   1      45.552  29.947  34.518  1.00  0.00    -0.206 F 
ATOM     75  C   UNL A   1      46.454  28.492  36.128  1.00  0.00     0.059 A 
ATOM     76  C   UNL A   1      44.978  27.062  37.423  1.00  0.00     0.059 A 
ATOM     77  F   UNL A   1      42.668  27.130  37.037  1.00  0.00    -0.206 F 
ATOM     78  C   UNL A   1      46.256  27.530  37.122  1.00  0.00     0.060 A 
BRANCH  78  79
ATOM     79  S   UNL A   1      47.683  26.953  38.066  1.00  0.00     0.124 S 
ATOM     80  O   UNL A   1      48.294  26.015  37.133  1.00  0.00    -0.237 OA
ATOM     81  O   UNL A   1      48.418  28.192  38.301  1.00  0.00    -0.237 OA
ATOM     82  O   UNL A   1      47.080  26.358  39.255  1.00  0.00    -0.744 OA
ENDBRANCH  78  79
ENDBRANCH  46  71
BRANCH  58  83
ATOM     83  C   UNL A   1      39.980  34.027  37.312  1.00  0.00     0.058 A 
ATOM     84  C   UNL A   1      40.671  35.247  37.331  1.00  0.00     0.135 A 
ATOM     85  C   UNL A   1      39.166  33.715  38.413  1.00  0.00     0.135 A 
ATOM     86  F   UNL A   1      41.471  35.586  36.307  1.00  0.00    -0.206 F 
ATOM     87  C   UNL A   1      40.566  36.123  38.406  1.00  0.00     0.059 A 
ATOM     88  C   UNL A   1      39.027  34.587  39.488  1.00  0.00     0.059 A 
ATOM     89  F   UNL A   1      38.479  32.561  38.440  1.00  0.00    -0.206 F 
ATOM     90  C   UNL A   1      39.737  35.787  39.478  1.00  0.00     0.060 A 
BRANCH  90  91
ATOM     91  S   UNL A   1      39.566  36.955  40.843  1.00  0.00     0.124 S 
ATOM     92  O   UNL A   1      40.946  37.078  41.300  1.00  0.00    -0.237 OA
ATOM     93  O   UNL A   1      39.009  38.130  40.180  1.00  0.00    -0.237 OA
ATOM     94  O   UNL A   1      38.660  36.273  41.763  1.00  0.00    -0.744 OA
ENDBRANCH  90  91
ENDBRANCH  58  83
ENDBRANCH  32  33
ENDBRANCH  25  27
ENDBRANCH  24  25
ENDBRANCH  23  24
ENDBRANCH   1  23
TORSDOF 17
ENDMDL
