MODEL 1
REMARK VINA RESULT:     -11.2      0.000      0.000
REMARK SMILES C[C@H]1CC=C(C2=NN=C(C(=O)OCCOC(=O)c3ccc(-c4c5nc(c(-c6c(F)cc(S(=O)(=O)[O-])cc6F)c6ccc([nH]6)c(-c6c(F)cc(S(=O)(=O)[O-])cc6F)c6nc(c(-c7c(F)cc(S(=O)(=O)[O-])cc7F)c7ccc4[nH]7)C=C6)C=C5)cc3)C2)O1
REMARK SMILES IDX 14 1 13 2 12 3 10 4 11 5 9 6 6 7 7 8 84 9 8 10 5 11 1 12
REMARK SMILES IDX 2 13 3 14 85 15 4 16 15 17 16 18 17 19 18 20 19 21 83 22
REMARK SMILES IDX 20 23 82 24 21 25 22 26 23 27 76 28 24 29 81 30 75 31 77 32
REMARK SMILES IDX 25 33 80 34 74 35 73 36 26 38 60 39 39 40 59 41 40 42 43 43
REMARK SMILES IDX 58 44 78 45 41 46 42 47 57 49 79 50 44 51 27 52 28 53 37 54
REMARK SMILES IDX 29 55 30 56 36 57 38 58 31 59 32 60 33 61 34 62 35 63 61 64
REMARK SMILES IDX 62 65 71 66 63 67 64 68 70 69 72 70 65 71 66 72 67 73 68 74
REMARK SMILES IDX 69 75 45 76 46 77 55 78 47 79 48 80 54 81 56 82 49 83 50 84
REMARK SMILES IDX 51 85 52 86 53 87
REMARK H PARENT 77 37 43 48
REMARK Flexibility Score: inf
ROOT
ATOM      1  C   UNL A   1      41.427  19.493  26.196  1.00  0.00     0.275 C 
ENDROOT
BRANCH   1   2
ATOM      2  C   UNL A   1      42.658  18.615  26.382  1.00  0.00     0.275 C 
BRANCH   2   3
ATOM      3  O   UNL A   1      43.359  18.415  25.142  1.00  0.00    -0.458 OA
BRANCH   3   4
ATOM      4  C   UNL A   1      44.675  18.700  25.161  1.00  0.00     0.355 C 
ATOM      5  O   UNL A   1      45.597  17.952  25.455  1.00  0.00    -0.245 OA
BRANCH   4   6
ATOM      6  C   UNL A   1      44.962  20.085  24.659  1.00  0.00     0.154 C 
ATOM      7  C   UNL A   1      45.622  22.210  24.611  1.00  0.00     0.111 C 
ATOM      8  N   UNL A   1      44.804  22.014  23.619  1.00  0.00    -0.151 NA
ATOM      9  C   UNL A   1      45.908  20.971  25.391  1.00  0.00     0.128 C 
ATOM     10  N   UNL A   1      44.378  20.647  23.644  1.00  0.00    -0.147 NA
BRANCH   7  11
ATOM     11  C   UNL A   1      46.145  23.515  25.048  1.00  0.00     0.139 C 
ATOM     12  C   UNL A   1      47.253  26.772  24.615  1.00  0.00     0.053 C 
ATOM     13  C   UNL A   1      47.421  25.343  25.112  1.00  0.00     0.174 C 
ATOM     14  C   UNL A   1      46.795  25.150  26.500  1.00  0.00     0.076 C 
ATOM     15  O   UNL A   1      46.811  24.393  24.200  1.00  0.00    -0.489 OA
ATOM     16  C   UNL A   1      46.121  23.849  26.334  1.00  0.00     0.025 C 
ENDBRANCH   7  11
ENDBRANCH   4   6
ENDBRANCH   3   4
ENDBRANCH   2   3
ENDBRANCH   1   2
BRANCH   1  17
ATOM     17  O   UNL A   1      41.785  20.869  26.088  1.00  0.00    -0.458 OA
BRANCH  17  18
ATOM     18  C   UNL A   1      40.801  21.729  26.438  1.00  0.00     0.338 C 
ATOM     19  O   UNL A   1      39.610  21.498  26.506  1.00  0.00    -0.246 OA
BRANCH  18  20
ATOM     20  C   UNL A   1      41.341  23.083  26.527  1.00  0.00     0.060 A 
ATOM     21  C   UNL A   1      42.514  23.241  27.275  1.00  0.00     0.016 A 
ATOM     22  C   UNL A   1      40.504  24.155  26.201  1.00  0.00     0.016 A 
ATOM     23  C   UNL A   1      42.739  24.451  27.884  1.00  0.00     0.010 A 
ATOM     24  C   UNL A   1      40.714  25.351  26.831  1.00  0.00     0.010 A 
ATOM     25  C   UNL A   1      41.778  25.448  27.727  1.00  0.00    -0.014 A 
BRANCH  25  26
ATOM     26  C   UNL A   1      41.941  26.681  28.459  1.00  0.00     0.031 A 
ATOM     27  C   UNL A   1      43.136  27.432  28.012  1.00  0.00     0.074 A 
ATOM     28  C   UNL A   1      40.974  27.104  29.295  1.00  0.00     0.049 A 
ATOM     29  N   UNL A   1      44.213  27.688  28.676  1.00  0.00    -0.248 NA
ATOM     30  C   UNL A   1      43.245  27.723  26.569  1.00  0.00     0.031 C 
ATOM     31  C   UNL A   1      39.659  26.497  29.534  1.00  0.00     0.029 A 
ATOM     32  N   UNL A   1      40.908  28.259  30.001  1.00  0.00    -0.354 N 
ATOM     33  C   UNL A   1      45.012  28.414  27.799  1.00  0.00     0.074 A 
ATOM     34  C   UNL A   1      44.501  28.158  26.482  1.00  0.00     0.031 C 
ATOM     35  C   UNL A   1      38.849  27.407  30.121  1.00  0.00     0.029 A 
ATOM     36  C   UNL A   1      39.617  28.604  30.403  1.00  0.00     0.049 A 
ATOM     37  H   UNL A   1      41.698  28.806  30.214  1.00  0.00     0.167 HD
ATOM     38  C   UNL A   1      45.807  29.422  28.247  1.00  0.00     0.037 A 
ATOM     39  C   UNL A   1      39.237  29.846  30.800  1.00  0.00     0.037 A 
ATOM     40  C   UNL A   1      46.031  29.304  29.667  1.00  0.00     0.049 A 
ATOM     41  C   UNL A   1      40.487  30.573  31.174  1.00  0.00     0.074 A 
ATOM     42  C   UNL A   1      46.577  28.330  30.480  1.00  0.00     0.029 A 
ATOM     43  N   UNL A   1      45.299  30.121  30.496  1.00  0.00    -0.354 N 
ATOM     44  N   UNL A   1      41.250  30.221  32.178  1.00  0.00    -0.248 NA
ATOM     45  C   UNL A   1      41.153  31.344  30.132  1.00  0.00     0.031 C 
ATOM     46  C   UNL A   1      45.768  28.332  31.654  1.00  0.00     0.029 A 
ATOM     47  C   UNL A   1      44.825  29.352  31.528  1.00  0.00     0.049 A 
ATOM     48  H   UNL A   1      45.143  31.085  30.372  1.00  0.00     0.167 HD
ATOM     49  C   UNL A   1      42.552  30.359  31.708  1.00  0.00     0.074 A 
ATOM     50  C   UNL A   1      42.427  31.109  30.459  1.00  0.00     0.031 C 
ATOM     51  C   UNL A   1      43.574  29.603  32.213  1.00  0.00     0.037 A 
BRANCH  38  52
ATOM     52  C   UNL A   1      46.010  30.724  27.499  1.00  0.00     0.058 A 
ATOM     53  C   UNL A   1      47.328  31.174  27.282  1.00  0.00     0.135 A 
ATOM     54  C   UNL A   1      44.997  31.679  27.251  1.00  0.00     0.135 A 
ATOM     55  F   UNL A   1      48.372  30.351  27.468  1.00  0.00    -0.206 F 
ATOM     56  C   UNL A   1      47.620  32.499  26.953  1.00  0.00     0.059 A 
ATOM     57  C   UNL A   1      45.263  32.987  26.869  1.00  0.00     0.059 A 
ATOM     58  F   UNL A   1      43.697  31.438  27.452  1.00  0.00    -0.206 F 
ATOM     59  C   UNL A   1      46.577  33.402  26.774  1.00  0.00     0.060 A 
BRANCH  59  60
ATOM     60  S   UNL A   1      46.945  35.138  26.483  1.00  0.00     0.124 S 
ATOM     61  O   UNL A   1      46.047  35.784  27.433  1.00  0.00    -0.237 OA
ATOM     62  O   UNL A   1      48.368  35.199  26.799  1.00  0.00    -0.237 OA
ATOM     63  O   UNL A   1      46.613  35.320  25.073  1.00  0.00    -0.744 OA
ENDBRANCH  59  60
ENDBRANCH  38  52
BRANCH  39  64
ATOM     64  C   UNL A   1      37.964  30.540  30.452  1.00  0.00     0.058 A 
ATOM     65  C   UNL A   1      37.137  31.103  31.441  1.00  0.00     0.135 A 
ATOM     66  C   UNL A   1      37.659  30.894  29.121  1.00  0.00     0.135 A 
ATOM     67  F   UNL A   1      37.371  30.846  32.738  1.00  0.00    -0.206 F 
ATOM     68  C   UNL A   1      36.094  31.987  31.132  1.00  0.00     0.059 A 
ATOM     69  C   UNL A   1      36.620  31.761  28.787  1.00  0.00     0.059 A 
ATOM     70  F   UNL A   1      38.421  30.479  28.098  1.00  0.00    -0.206 F 
ATOM     71  C   UNL A   1      35.853  32.322  29.799  1.00  0.00     0.060 A 
BRANCH  71  72
ATOM     72  S   UNL A   1      34.614  33.578  29.396  1.00  0.00     0.124 S 
ATOM     73  O   UNL A   1      33.970  33.792  30.687  1.00  0.00    -0.237 OA
ATOM     74  O   UNL A   1      35.437  34.678  28.904  1.00  0.00    -0.237 OA
ATOM     75  O   UNL A   1      33.785  32.925  28.386  1.00  0.00    -0.744 OA
ENDBRANCH  71  72
ENDBRANCH  39  64
BRANCH  51  76
ATOM     76  C   UNL A   1      43.322  28.797  33.461  1.00  0.00     0.058 A 
ATOM     77  C   UNL A   1      43.335  29.325  34.766  1.00  0.00     0.135 A 
ATOM     78  C   UNL A   1      42.877  27.475  33.312  1.00  0.00     0.135 A 
ATOM     79  F   UNL A   1      43.642  30.611  34.983  1.00  0.00    -0.206 F 
ATOM     80  C   UNL A   1      42.960  28.560  35.874  1.00  0.00     0.059 A 
ATOM     81  C   UNL A   1      42.470  26.706  34.397  1.00  0.00     0.059 A 
ATOM     82  F   UNL A   1      42.777  26.936  32.086  1.00  0.00    -0.206 F 
ATOM     83  C   UNL A   1      42.527  27.250  35.677  1.00  0.00     0.060 A 
BRANCH  83  84
ATOM     84  S   UNL A   1      41.976  26.280  37.098  1.00  0.00     0.124 S 
ATOM     85  O   UNL A   1      41.961  24.925  36.557  1.00  0.00    -0.237 OA
ATOM     86  O   UNL A   1      43.010  26.556  38.092  1.00  0.00    -0.237 OA
ATOM     87  O   UNL A   1      40.663  26.843  37.407  1.00  0.00    -0.744 OA
ENDBRANCH  83  84
ENDBRANCH  51  76
ENDBRANCH  25  26
ENDBRANCH  18  20
ENDBRANCH  17  18
ENDBRANCH   1  17
TORSDOF 15
ENDMDL
MODEL 2
REMARK VINA RESULT:     -11.1      1.509      3.142
REMARK SMILES C[C@H]1CC=C(C2=NN=C(C(=O)OCCOC(=O)c3ccc(-c4c5nc(c(-c6c(F)cc(S(=O)(=O)[O-])cc6F)c6ccc([nH]6)c(-c6c(F)cc(S(=O)(=O)[O-])cc6F)c6nc(c(-c7c(F)cc(S(=O)(=O)[O-])cc7F)c7ccc4[nH]7)C=C6)C=C5)cc3)C2)O1
REMARK SMILES IDX 14 1 13 2 12 3 10 4 11 5 9 6 6 7 7 8 84 9 8 10 5 11 1 12
REMARK SMILES IDX 2 13 3 14 85 15 4 16 15 17 16 18 17 19 18 20 19 21 83 22
REMARK SMILES IDX 20 23 82 24 21 25 22 26 23 27 76 28 24 29 81 30 75 31 77 32
REMARK SMILES IDX 25 33 80 34 74 35 73 36 26 38 60 39 39 40 59 41 40 42 43 43
REMARK SMILES IDX 58 44 78 45 41 46 42 47 57 49 79 50 44 51 27 52 28 53 37 54
REMARK SMILES IDX 29 55 30 56 36 57 38 58 31 59 32 60 33 61 34 62 35 63 61 64
REMARK SMILES IDX 62 65 71 66 63 67 64 68 70 69 72 70 65 71 66 72 67 73 68 74
REMARK SMILES IDX 69 75 45 76 46 77 55 78 47 79 48 80 54 81 56 82 49 83 50 84
REMARK SMILES IDX 51 85 52 86 53 87
REMARK H PARENT 77 37 43 48
REMARK Flexibility Score: inf
ROOT
ATOM      1  C   UNL A   1      44.843  20.757  24.272  1.00  0.00     0.275 C 
ENDROOT
BRANCH   1   2
ATOM      2  C   UNL A   1      44.653  19.392  24.920  1.00  0.00     0.275 C 
BRANCH   2   3
ATOM      3  O   UNL A   1      43.288  18.947  24.827  1.00  0.00    -0.458 OA
BRANCH   3   4
ATOM      4  C   UNL A   1      42.731  18.527  25.978  1.00  0.00     0.355 C 
ATOM      5  O   UNL A   1      42.895  17.453  26.540  1.00  0.00    -0.245 OA
BRANCH   4   6
ATOM      6  C   UNL A   1      41.903  19.596  26.631  1.00  0.00     0.154 C 
ATOM      7  C   UNL A   1      40.405  21.218  26.911  1.00  0.00     0.111 C 
ATOM      8  N   UNL A   1      41.269  21.289  27.881  1.00  0.00    -0.151 NA
ATOM      9  C   UNL A   1      40.641  20.064  25.996  1.00  0.00     0.128 C 
ATOM     10  N   UNL A   1      42.235  20.245  27.706  1.00  0.00    -0.147 NA
BRANCH   7  11
ATOM     11  C   UNL A   1      39.359  22.212  26.620  1.00  0.00     0.139 C 
ATOM     12  C   UNL A   1      36.163  23.278  25.798  1.00  0.00     0.053 C 
ATOM     13  C   UNL A   1      37.668  23.228  25.578  1.00  0.00     0.174 C 
ATOM     14  C   UNL A   1      38.400  24.273  26.431  1.00  0.00     0.076 C 
ATOM     15  O   UNL A   1      38.205  21.919  25.901  1.00  0.00    -0.489 OA
ATOM     16  C   UNL A   1      39.550  23.493  26.921  1.00  0.00     0.025 C 
ENDBRANCH   7  11
ENDBRANCH   4   6
ENDBRANCH   3   4
ENDBRANCH   2   3
ENDBRANCH   1   2
BRANCH   1  17
ATOM     17  O   UNL A   1      43.807  21.660  24.653  1.00  0.00    -0.458 OA
BRANCH  17  18
ATOM     18  C   UNL A   1      44.163  22.964  24.618  1.00  0.00     0.338 C 
ATOM     19  O   UNL A   1      45.071  23.463  23.980  1.00  0.00    -0.246 OA
BRANCH  18  20
ATOM     20  C   UNL A   1      43.428  23.702  25.640  1.00  0.00     0.060 A 
ATOM     21  C   UNL A   1      42.601  24.739  25.191  1.00  0.00     0.016 A 
ATOM     22  C   UNL A   1      43.851  23.596  26.970  1.00  0.00     0.016 A 
ATOM     23  C   UNL A   1      42.369  25.798  26.035  1.00  0.00     0.010 A 
ATOM     24  C   UNL A   1      43.644  24.665  27.798  1.00  0.00     0.010 A 
ATOM     25  C   UNL A   1      42.981  25.780  27.286  1.00  0.00    -0.014 A 
BRANCH  25  26
ATOM     26  C   UNL A   1      42.847  26.941  28.133  1.00  0.00     0.031 A 
ATOM     27  C   UNL A   1      43.951  27.905  27.922  1.00  0.00     0.074 A 
ATOM     28  C   UNL A   1      41.726  27.124  28.857  1.00  0.00     0.049 A 
ATOM     29  N   UNL A   1      44.879  28.250  28.750  1.00  0.00    -0.248 NA
ATOM     30  C   UNL A   1      44.192  28.357  26.538  1.00  0.00     0.031 C 
ATOM     31  C   UNL A   1      40.509  26.305  28.857  1.00  0.00     0.029 A 
ATOM     32  N   UNL A   1      41.384  28.177  29.639  1.00  0.00    -0.354 N 
ATOM     33  C   UNL A   1      45.652  29.176  28.057  1.00  0.00     0.074 A 
ATOM     34  C   UNL A   1      45.360  28.983  26.665  1.00  0.00     0.031 C 
ATOM     35  C   UNL A   1      39.494  27.017  29.396  1.00  0.00     0.029 A 
ATOM     36  C   UNL A   1      40.014  28.280  29.881  1.00  0.00     0.049 A 
ATOM     37  H   UNL A   1      42.042  28.812  30.005  1.00  0.00     0.167 HD
ATOM     38  C   UNL A   1      46.209  30.240  28.694  1.00  0.00     0.037 A 
ATOM     39  C   UNL A   1      39.389  29.403  30.322  1.00  0.00     0.037 A 
ATOM     40  C   UNL A   1      46.268  30.010  30.117  1.00  0.00     0.049 A 
ATOM     41  C   UNL A   1      40.447  30.267  30.927  1.00  0.00     0.074 A 
ATOM     42  C   UNL A   1      46.859  29.051  30.916  1.00  0.00     0.029 A 
ATOM     43  N   UNL A   1      45.314  30.618  30.899  1.00  0.00    -0.354 N 
ATOM     44  N   UNL A   1      41.124  29.933  31.996  1.00  0.00    -0.248 NA
ATOM     45  C   UNL A   1      41.104  31.234  30.056  1.00  0.00     0.031 C 
ATOM     46  C   UNL A   1      45.920  28.809  31.960  1.00  0.00     0.029 A 
ATOM     47  C   UNL A   1      44.846  29.683  31.787  1.00  0.00     0.049 A 
ATOM     48  H   UNL A   1      45.020  31.555  30.834  1.00  0.00     0.167 HD
ATOM     49  C   UNL A   1      42.435  30.313  31.727  1.00  0.00     0.074 A 
ATOM     50  C   UNL A   1      42.348  31.160  30.539  1.00  0.00     0.031 C 
ATOM     51  C   UNL A   1      43.495  29.671  32.307  1.00  0.00     0.037 A 
BRANCH  38  52
ATOM     52  C   UNL A   1      46.290  31.628  28.092  1.00  0.00     0.058 A 
ATOM     53  C   UNL A   1      47.521  32.313  28.147  1.00  0.00     0.135 A 
ATOM     54  C   UNL A   1      45.173  32.420  27.737  1.00  0.00     0.135 A 
ATOM     55  F   UNL A   1      48.653  31.661  28.456  1.00  0.00    -0.206 F 
ATOM     56  C   UNL A   1      47.615  33.694  27.974  1.00  0.00     0.059 A 
ATOM     57  C   UNL A   1      45.254  33.787  27.506  1.00  0.00     0.059 A 
ATOM     58  F   UNL A   1      43.925  31.945  27.685  1.00  0.00    -0.206 F 
ATOM     59  C   UNL A   1      46.468  34.424  27.678  1.00  0.00     0.060 A 
BRANCH  59  60
ATOM     60  S   UNL A   1      46.554  36.217  27.586  1.00  0.00     0.124 S 
ATOM     61  O   UNL A   1      47.629  36.404  26.619  1.00  0.00    -0.237 OA
ATOM     62  O   UNL A   1      45.211  36.558  27.128  1.00  0.00    -0.237 OA
ATOM     63  O   UNL A   1      46.861  36.609  28.958  1.00  0.00    -0.744 OA
ENDBRANCH  59  60
ENDBRANCH  38  52
BRANCH  39  64
ATOM     64  C   UNL A   1      38.074  29.930  29.856  1.00  0.00     0.058 A 
ATOM     65  C   UNL A   1      37.115  30.419  30.761  1.00  0.00     0.135 A 
ATOM     66  C   UNL A   1      37.833  30.205  28.494  1.00  0.00     0.135 A 
ATOM     67  F   UNL A   1      37.277  30.231  32.080  1.00  0.00    -0.206 F 
ATOM     68  C   UNL A   1      36.002  31.163  30.343  1.00  0.00     0.059 A 
ATOM     69  C   UNL A   1      36.728  30.931  28.052  1.00  0.00     0.059 A 
ATOM     70  F   UNL A   1      38.713  29.853  27.546  1.00  0.00    -0.206 F 
ATOM     71  C   UNL A   1      35.826  31.427  28.984  1.00  0.00     0.060 A 
BRANCH  71  72
ATOM     72  S   UNL A   1      34.483  32.514  28.444  1.00  0.00     0.124 S 
ATOM     73  O   UNL A   1      33.986  33.033  29.714  1.00  0.00    -0.237 OA
ATOM     74  O   UNL A   1      35.183  33.471  27.594  1.00  0.00    -0.237 OA
ATOM     75  O   UNL A   1      33.576  31.609  27.743  1.00  0.00    -0.744 OA
ENDBRANCH  71  72
ENDBRANCH  39  64
BRANCH  51  76
ATOM     76  C   UNL A   1      43.222  28.711  33.437  1.00  0.00     0.058 A 
ATOM     77  C   UNL A   1      42.966  29.098  34.766  1.00  0.00     0.135 A 
ATOM     78  C   UNL A   1      43.041  27.357  33.121  1.00  0.00     0.135 A 
ATOM     79  F   UNL A   1      43.011  30.388  35.126  1.00  0.00    -0.206 F 
ATOM     80  C   UNL A   1      42.585  28.174  35.742  1.00  0.00     0.059 A 
ATOM     81  C   UNL A   1      42.632  26.425  34.068  1.00  0.00     0.059 A 
ATOM     82  F   UNL A   1      43.202  26.937  31.855  1.00  0.00    -0.206 F 
ATOM     83  C   UNL A   1      42.420  26.837  35.381  1.00  0.00     0.060 A 
BRANCH  83  84
ATOM     84  S   UNL A   1      41.861  25.651  36.624  1.00  0.00     0.124 S 
ATOM     85  O   UNL A   1      41.554  24.479  35.811  1.00  0.00    -0.237 OA
ATOM     86  O   UNL A   1      43.026  25.532  37.496  1.00  0.00    -0.237 OA
ATOM     87  O   UNL A   1      40.706  26.309  37.229  1.00  0.00    -0.744 OA
ENDBRANCH  83  84
ENDBRANCH  51  76
ENDBRANCH  25  26
ENDBRANCH  18  20
ENDBRANCH  17  18
ENDBRANCH   1  17
TORSDOF 15
ENDMDL
MODEL 3
REMARK VINA RESULT:     -11.0      2.962     11.646
REMARK SMILES C[C@H]1CC=C(C2=NN=C(C(=O)OCCOC(=O)c3ccc(-c4c5nc(c(-c6c(F)cc(S(=O)(=O)[O-])cc6F)c6ccc([nH]6)c(-c6c(F)cc(S(=O)(=O)[O-])cc6F)c6nc(c(-c7c(F)cc(S(=O)(=O)[O-])cc7F)c7ccc4[nH]7)C=C6)C=C5)cc3)C2)O1
REMARK SMILES IDX 14 1 13 2 12 3 10 4 11 5 9 6 6 7 7 8 84 9 8 10 5 11 1 12
REMARK SMILES IDX 2 13 3 14 85 15 4 16 15 17 16 18 17 19 18 20 19 21 83 22
REMARK SMILES IDX 20 23 82 24 21 25 22 26 23 27 76 28 24 29 81 30 75 31 77 32
REMARK SMILES IDX 25 33 80 34 74 35 73 36 26 38 60 39 39 40 59 41 40 42 43 43
REMARK SMILES IDX 58 44 78 45 41 46 42 47 57 49 79 50 44 51 27 52 28 53 37 54
REMARK SMILES IDX 29 55 30 56 36 57 38 58 31 59 32 60 33 61 34 62 35 63 61 64
REMARK SMILES IDX 62 65 71 66 63 67 64 68 70 69 72 70 65 71 66 72 67 73 68 74
REMARK SMILES IDX 69 75 45 76 46 77 55 78 47 79 48 80 54 81 56 82 49 83 50 84
REMARK SMILES IDX 51 85 52 86 53 87
REMARK H PARENT 77 37 43 48
REMARK Flexibility Score: inf
ROOT
ATOM      1  C   UNL A   1      33.866  33.297  27.794  1.00  0.00     0.275 C 
ENDROOT
BRANCH   1   2
ATOM      2  C   UNL A   1      33.956  34.589  28.595  1.00  0.00     0.275 C 
BRANCH   2   3
ATOM      3  O   UNL A   1      33.026  34.598  29.692  1.00  0.00    -0.458 OA
BRANCH   3   4
ATOM      4  C   UNL A   1      33.333  35.420  30.713  1.00  0.00     0.355 C 
ATOM      5  O   UNL A   1      33.110  36.619  30.800  1.00  0.00    -0.245 OA
BRANCH   4   6
ATOM      6  C   UNL A   1      33.929  34.681  31.876  1.00  0.00     0.154 C 
ATOM      7  C   UNL A   1      35.398  33.598  33.150  1.00  0.00     0.111 C 
ATOM      8  N   UNL A   1      34.202  33.321  33.580  1.00  0.00    -0.151 NA
ATOM      9  C   UNL A   1      35.406  34.580  32.028  1.00  0.00     0.128 C 
ATOM     10  N   UNL A   1      33.253  34.018  32.765  1.00  0.00    -0.147 NA
BRANCH   7  11
ATOM     11  C   UNL A   1      36.642  32.948  33.595  1.00  0.00     0.139 C 
ATOM     12  C   UNL A   1      38.564  30.816  35.541  1.00  0.00     0.053 C 
ATOM     13  C   UNL A   1      38.232  32.184  34.959  1.00  0.00     0.174 C 
ATOM     14  C   UNL A   1      38.849  32.372  33.568  1.00  0.00     0.076 C 
ATOM     15  O   UNL A   1      36.797  32.376  34.853  1.00  0.00    -0.489 OA
ATOM     16  C   UNL A   1      37.735  33.009  32.841  1.00  0.00     0.025 C 
ENDBRANCH   7  11
ENDBRANCH   4   6
ENDBRANCH   3   4
ENDBRANCH   2   3
ENDBRANCH   1   2
BRANCH   1  17
ATOM     17  O   UNL A   1      35.131  32.640  27.729  1.00  0.00    -0.458 OA
BRANCH  17  18
ATOM     18  C   UNL A   1      35.056  31.290  27.683  1.00  0.00     0.338 C 
ATOM     19  O   UNL A   1      34.177  30.618  27.177  1.00  0.00    -0.246 OA
BRANCH  18  20
ATOM     20  C   UNL A   1      36.095  30.711  28.529  1.00  0.00     0.060 A 
ATOM     21  C   UNL A   1      36.893  31.612  29.245  1.00  0.00     0.016 A 
ATOM     22  C   UNL A   1      36.472  29.383  28.304  1.00  0.00     0.016 A 
ATOM     23  C   UNL A   1      38.178  31.239  29.555  1.00  0.00     0.010 A 
ATOM     24  C   UNL A   1      37.761  29.023  28.587  1.00  0.00     0.010 A 
ATOM     25  C   UNL A   1      38.613  29.985  29.129  1.00  0.00    -0.014 A 
BRANCH  25  26
ATOM     26  C   UNL A   1      39.995  29.630  29.339  1.00  0.00     0.031 A 
ATOM     27  C   UNL A   1      40.310  29.479  30.779  1.00  0.00     0.074 A 
ATOM     28  C   UNL A   1      40.779  29.311  28.292  1.00  0.00     0.049 A 
ATOM     29  N   UNL A   1      41.093  30.204  31.505  1.00  0.00    -0.248 NA
ATOM     30  C   UNL A   1      39.461  28.557  31.559  1.00  0.00     0.031 C 
ATOM     31  C   UNL A   1      40.395  29.192  26.881  1.00  0.00     0.029 A 
ATOM     32  N   UNL A   1      42.064  28.879  28.294  1.00  0.00    -0.354 N 
ATOM     33  C   UNL A   1      41.030  29.639  32.775  1.00  0.00     0.074 A 
ATOM     34  C   UNL A   1      39.835  28.844  32.804  1.00  0.00     0.031 C 
ATOM     35  C   UNL A   1      41.342  28.489  26.220  1.00  0.00     0.029 A 
ATOM     36  C   UNL A   1      42.440  28.216  27.126  1.00  0.00     0.049 A 
ATOM     37  H   UNL A   1      42.678  29.020  29.051  1.00  0.00     0.167 HD
ATOM     38  C   UNL A   1      42.127  29.598  33.577  1.00  0.00     0.037 A 
ATOM     39  C   UNL A   1      43.521  27.401  27.013  1.00  0.00     0.037 A 
ATOM     40  C   UNL A   1      43.113  30.558  33.145  1.00  0.00     0.049 A 
ATOM     41  C   UNL A   1      44.427  27.738  28.152  1.00  0.00     0.074 A 
ATOM     42  C   UNL A   1      43.118  31.929  32.981  1.00  0.00     0.029 A 
ATOM     43  N   UNL A   1      44.184  30.087  32.423  1.00  0.00    -0.354 N 
ATOM     44  N   UNL A   1      45.015  28.901  28.283  1.00  0.00    -0.248 NA
ATOM     45  C   UNL A   1      44.259  26.987  29.389  1.00  0.00     0.031 C 
ATOM     46  C   UNL A   1      43.885  32.158  31.801  1.00  0.00     0.029 A 
ATOM     47  C   UNL A   1      44.368  30.927  31.354  1.00  0.00     0.049 A 
ATOM     48  H   UNL A   1      44.722  29.290  32.633  1.00  0.00     0.167 HD
ATOM     49  C   UNL A   1      44.914  29.205  29.636  1.00  0.00     0.074 A 
ATOM     50  C   UNL A   1      44.488  27.961  30.275  1.00  0.00     0.031 C 
ATOM     51  C   UNL A   1      44.894  30.501  30.074  1.00  0.00     0.037 A 
BRANCH  38  52
ATOM     52  C   UNL A   1      42.476  28.415  34.458  1.00  0.00     0.058 A 
ATOM     53  C   UNL A   1      42.673  28.639  35.836  1.00  0.00     0.135 A 
ATOM     54  C   UNL A   1      42.910  27.156  33.983  1.00  0.00     0.135 A 
ATOM     55  F   UNL A   1      42.285  29.792  36.403  1.00  0.00    -0.206 F 
ATOM     56  C   UNL A   1      43.347  27.730  36.651  1.00  0.00     0.059 A 
ATOM     57  C   UNL A   1      43.534  26.213  34.789  1.00  0.00     0.059 A 
ATOM     58  F   UNL A   1      42.846  26.796  32.697  1.00  0.00    -0.206 F 
ATOM     59  C   UNL A   1      43.795  26.530  36.109  1.00  0.00     0.060 A 
BRANCH  59  60
ATOM     60  S   UNL A   1      44.781  25.412  37.114  1.00  0.00     0.124 S 
ATOM     61  O   UNL A   1      44.131  25.546  38.413  1.00  0.00    -0.237 OA
ATOM     62  O   UNL A   1      44.587  24.140  36.426  1.00  0.00    -0.237 OA
ATOM     63  O   UNL A   1      46.126  25.972  37.018  1.00  0.00    -0.744 OA
ENDBRANCH  59  60
ENDBRANCH  38  52
BRANCH  39  64
ATOM     64  C   UNL A   1      43.585  26.106  26.276  1.00  0.00     0.058 A 
ATOM     65  C   UNL A   1      44.641  25.812  25.395  1.00  0.00     0.135 A 
ATOM     66  C   UNL A   1      42.748  25.023  26.618  1.00  0.00     0.135 A 
ATOM     67  F   UNL A   1      45.506  26.773  25.038  1.00  0.00    -0.206 F 
ATOM     68  C   UNL A   1      44.871  24.517  24.909  1.00  0.00     0.059 A 
ATOM     69  C   UNL A   1      42.948  23.730  26.138  1.00  0.00     0.059 A 
ATOM     70  F   UNL A   1      41.753  25.166  27.506  1.00  0.00    -0.206 F 
ATOM     71  C   UNL A   1      44.026  23.478  25.300  1.00  0.00     0.060 A 
BRANCH  71  72
ATOM     72  S   UNL A   1      44.400  21.777  24.806  1.00  0.00     0.124 S 
ATOM     73  O   UNL A   1      45.645  21.521  25.523  1.00  0.00    -0.237 OA
ATOM     74  O   UNL A   1      43.228  21.052  25.284  1.00  0.00    -0.237 OA
ATOM     75  O   UNL A   1      44.525  21.866  23.353  1.00  0.00    -0.744 OA
ENDBRANCH  71  72
ENDBRANCH  39  64
BRANCH  51  76
ATOM     76  C   UNL A   1      45.237  31.595  29.096  1.00  0.00     0.058 A 
ATOM     77  C   UNL A   1      46.549  31.968  28.747  1.00  0.00     0.135 A 
ATOM     78  C   UNL A   1      44.194  32.165  28.353  1.00  0.00     0.135 A 
ATOM     79  F   UNL A   1      47.607  31.389  29.333  1.00  0.00    -0.206 F 
ATOM     80  C   UNL A   1      46.807  32.894  27.733  1.00  0.00     0.059 A 
ATOM     81  C   UNL A   1      44.428  33.066  27.319  1.00  0.00     0.059 A 
ATOM     82  F   UNL A   1      42.923  31.798  28.591  1.00  0.00    -0.206 F 
ATOM     83  C   UNL A   1      45.737  33.437  27.023  1.00  0.00     0.060 A 
BRANCH  83  84
ATOM     84  S   UNL A   1      46.069  34.583  25.667  1.00  0.00     0.124 S 
ATOM     85  O   UNL A   1      45.744  35.872  26.268  1.00  0.00    -0.237 OA
ATOM     86  O   UNL A   1      47.483  34.349  25.391  1.00  0.00    -0.237 OA
ATOM     87  O   UNL A   1      45.157  34.139  24.614  1.00  0.00    -0.744 OA
ENDBRANCH  83  84
ENDBRANCH  51  76
ENDBRANCH  25  26
ENDBRANCH  18  20
ENDBRANCH  17  18
ENDBRANCH   1  17
TORSDOF 15
ENDMDL
