MODEL 1
REMARK VINA RESULT:      -9.6      0.000      0.000
REMARK SMILES C[C@H]1CC[C@@](CCOCCO)(C(=O)OCCOC(=O)c2ccc(-c3c4nc(c(-c5c(F)cc(S(=O)(=O)[O-])cc5F)c5ccc([nH]5)c(-c5c(F)cc(S(=O)(=O)[O-])cc5F)c5nc(c(-c6c(F)cc(S(=O)(=O)[O-])cc6F)c6ccc3[nH]6)C=C5)C=C4)cc2)C1
REMARK SMILES IDX 14 1 12 2 13 3 5 4 1 5 2 6 3 7 86 8 4 9 6 10 7 11 8 12 9 13
REMARK SMILES IDX 10 14 11 15 15 17 16 18 17 19 18 20 19 21 20 22 21 23 85 24
REMARK SMILES IDX 22 25 84 26 23 27 24 28 25 29 78 30 26 31 83 32 77 33 79 34
REMARK SMILES IDX 27 35 82 36 76 37 75 38 28 40 62 41 41 42 61 43 42 44 45 45
REMARK SMILES IDX 60 46 80 47 43 48 44 49 59 51 81 52 46 53 29 54 30 55 39 56
REMARK SMILES IDX 31 57 32 58 38 59 40 60 33 61 34 62 35 63 36 64 37 65 63 66
REMARK SMILES IDX 64 67 73 68 65 69 66 70 72 71 74 72 67 73 68 74 69 75 70 76
REMARK SMILES IDX 71 77 47 78 48 79 57 80 49 81 50 82 56 83 58 84 51 85 52 86
REMARK SMILES IDX 53 87 54 88 55 89
REMARK H PARENT 11 16 79 39 45 50
REMARK Flexibility Score: inf
ROOT
ATOM      1  O   UNL A   1      32.578  27.069  25.253  1.00  0.00    -0.462 OA
ENDROOT
BRANCH   1   2
ATOM      2  C   UNL A   1      31.508  26.608  25.949  1.00  0.00     0.312 C 
ATOM      3  O   UNL A   1      31.103  27.113  26.990  1.00  0.00    -0.252 OA
BRANCH   2   4
ATOM      4  C   UNL A   1      30.870  25.353  25.324  1.00  0.00     0.070 C 
ATOM      5  C   UNL A   1      32.346  21.812  25.547  1.00  0.00     0.007 C 
ATOM      6  C   UNL A   1      31.358  22.941  25.298  1.00  0.00    -0.013 C 
ATOM      7  C   UNL A   1      30.476  23.198  26.504  1.00  0.00     0.004 C 
ATOM      8  C   UNL A   1      32.005  24.308  25.064  1.00  0.00     0.022 C 
ATOM      9  C   UNL A   1      29.883  24.575  26.237  1.00  0.00     0.019 C 
BRANCH   4  10
ATOM     10  C   UNL A   1      30.275  25.792  23.953  1.00  0.00     0.047 C 
BRANCH  10  11
ATOM     11  C   UNL A   1      28.946  26.554  23.917  1.00  0.00     0.161 C 
BRANCH  11  12
ATOM     12  O   UNL A   1      28.951  27.743  23.140  1.00  0.00    -0.379 OA
BRANCH  12  13
ATOM     13  C   UNL A   1      29.953  28.710  23.456  1.00  0.00     0.188 C 
BRANCH  13  14
ATOM     14  C   UNL A   1      31.032  28.912  22.393  1.00  0.00     0.184 C 
BRANCH  14  15
ATOM     15  O   UNL A   1      30.782  30.043  21.566  1.00  0.00    -0.394 OA
ATOM     16  H   UNL A   1      29.858  30.319  21.666  1.00  0.00     0.210 HD
ENDBRANCH  14  15
ENDBRANCH  13  14
ENDBRANCH  12  13
ENDBRANCH  11  12
ENDBRANCH  10  11
ENDBRANCH   4  10
ENDBRANCH   2   4
ENDBRANCH   1   2
BRANCH   1  17
ATOM     17  C   UNL A   1      33.785  27.332  25.998  1.00  0.00     0.274 C 
BRANCH  17  18
ATOM     18  C   UNL A   1      33.827  28.808  26.392  1.00  0.00     0.275 C 
BRANCH  18  19
ATOM     19  O   UNL A   1      34.276  28.890  27.754  1.00  0.00    -0.458 OA
BRANCH  19  20
ATOM     20  C   UNL A   1      34.810  30.072  28.126  1.00  0.00     0.338 C 
ATOM     21  O   UNL A   1      34.227  31.118  28.380  1.00  0.00    -0.246 OA
BRANCH  20  22
ATOM     22  C   UNL A   1      36.235  29.845  28.373  1.00  0.00     0.060 A 
ATOM     23  C   UNL A   1      37.114  30.088  27.317  1.00  0.00     0.016 A 
ATOM     24  C   UNL A   1      36.705  29.354  29.587  1.00  0.00     0.016 A 
ATOM     25  C   UNL A   1      38.464  29.788  27.443  1.00  0.00     0.010 A 
ATOM     26  C   UNL A   1      38.076  29.116  29.734  1.00  0.00     0.010 A 
ATOM     27  C   UNL A   1      38.966  29.307  28.657  1.00  0.00    -0.014 A 
BRANCH  27  28
ATOM     28  C   UNL A   1      40.401  28.933  28.777  1.00  0.00     0.031 A 
ATOM     29  C   UNL A   1      41.387  29.953  29.277  1.00  0.00     0.074 A 
ATOM     30  C   UNL A   1      40.823  27.691  28.468  1.00  0.00     0.049 A 
ATOM     31  N   UNL A   1      42.693  29.934  29.232  1.00  0.00    -0.248 NA
ATOM     32  C   UNL A   1      40.824  31.165  29.895  1.00  0.00     0.031 C 
ATOM     33  C   UNL A   1      39.967  26.582  28.042  1.00  0.00     0.029 A 
ATOM     34  N   UNL A   1      42.086  27.150  28.467  1.00  0.00    -0.354 N 
ATOM     35  C   UNL A   1      43.106  31.160  29.742  1.00  0.00     0.074 A 
ATOM     36  C   UNL A   1      41.912  31.891  30.105  1.00  0.00     0.031 C 
ATOM     37  C   UNL A   1      40.721  25.489  27.851  1.00  0.00     0.029 A 
ATOM     38  C   UNL A   1      42.124  25.840  28.051  1.00  0.00     0.049 A 
ATOM     39  H   UNL A   1      42.887  27.653  28.740  1.00  0.00     0.167 HD
ATOM     40  C   UNL A   1      44.369  31.630  29.882  1.00  0.00     0.037 A 
ATOM     41  C   UNL A   1      43.171  25.027  27.809  1.00  0.00     0.037 A 
ATOM     42  C   UNL A   1      45.548  30.863  29.576  1.00  0.00     0.049 A 
ATOM     43  C   UNL A   1      44.564  25.566  27.976  1.00  0.00     0.074 A 
ATOM     44  C   UNL A   1      46.875  31.247  29.659  1.00  0.00     0.029 A 
ATOM     45  N   UNL A   1      45.541  29.541  29.157  1.00  0.00    -0.354 N 
ATOM     46  N   UNL A   1      44.944  26.765  28.349  1.00  0.00    -0.248 NA
ATOM     47  C   UNL A   1      45.672  24.652  27.665  1.00  0.00     0.031 C 
ATOM     48  C   UNL A   1      47.670  30.161  29.274  1.00  0.00     0.029 A 
ATOM     49  C   UNL A   1      46.839  29.091  28.983  1.00  0.00     0.049 A 
ATOM     50  H   UNL A   1      44.731  29.000  29.005  1.00  0.00     0.167 HD
ATOM     51  C   UNL A   1      46.333  26.752  28.315  1.00  0.00     0.074 A 
ATOM     52  C   UNL A   1      46.727  25.416  27.911  1.00  0.00     0.031 C 
ATOM     53  C   UNL A   1      47.204  27.755  28.583  1.00  0.00     0.037 A 
BRANCH  40  54
ATOM     54  C   UNL A   1      44.531  33.053  30.337  1.00  0.00     0.058 A 
ATOM     55  C   UNL A   1      44.687  33.392  31.689  1.00  0.00     0.135 A 
ATOM     56  C   UNL A   1      44.528  34.097  29.396  1.00  0.00     0.135 A 
ATOM     57  F   UNL A   1      44.674  32.436  32.632  1.00  0.00    -0.206 F 
ATOM     58  C   UNL A   1      44.806  34.718  32.097  1.00  0.00     0.059 A 
ATOM     59  C   UNL A   1      44.670  35.427  29.779  1.00  0.00     0.059 A 
ATOM     60  F   UNL A   1      44.379  33.829  28.090  1.00  0.00    -0.206 F 
ATOM     61  C   UNL A   1      44.790  35.729  31.134  1.00  0.00     0.060 A 
BRANCH  61  62
ATOM     62  S   UNL A   1      44.930  37.447  31.674  1.00  0.00     0.124 S 
ATOM     63  O   UNL A   1      43.563  37.729  32.099  1.00  0.00    -0.237 OA
ATOM     64  O   UNL A   1      45.920  37.362  32.743  1.00  0.00    -0.237 OA
ATOM     65  O   UNL A   1      45.371  38.145  30.470  1.00  0.00    -0.744 OA
ENDBRANCH  61  62
ENDBRANCH  40  54
BRANCH  41  66
ATOM     66  C   UNL A   1      42.933  23.638  27.330  1.00  0.00     0.058 A 
ATOM     67  C   UNL A   1      43.121  23.294  25.985  1.00  0.00     0.135 A 
ATOM     68  C   UNL A   1      42.545  22.621  28.217  1.00  0.00     0.135 A 
ATOM     69  F   UNL A   1      43.477  24.233  25.095  1.00  0.00    -0.206 F 
ATOM     70  C   UNL A   1      42.938  21.990  25.533  1.00  0.00     0.059 A 
ATOM     71  C   UNL A   1      42.382  21.306  27.796  1.00  0.00     0.059 A 
ATOM     72  F   UNL A   1      42.361  22.897  29.517  1.00  0.00    -0.206 F 
ATOM     73  C   UNL A   1      42.574  21.001  26.449  1.00  0.00     0.060 A 
BRANCH  73  74
ATOM     74  S   UNL A   1      42.415  19.295  25.876  1.00  0.00     0.124 S 
ATOM     75  O   UNL A   1      43.193  19.326  24.643  1.00  0.00    -0.237 OA
ATOM     76  O   UNL A   1      42.999  18.540  26.981  1.00  0.00    -0.237 OA
ATOM     77  O   UNL A   1      40.973  19.132  25.711  1.00  0.00    -0.744 OA
ENDBRANCH  73  74
ENDBRANCH  41  66
BRANCH  53  78
ATOM     78  C   UNL A   1      48.667  27.439  28.466  1.00  0.00     0.058 A 
ATOM     79  C   UNL A   1      49.392  26.921  29.549  1.00  0.00     0.135 A 
ATOM     80  C   UNL A   1      49.338  27.619  27.247  1.00  0.00     0.135 A 
ATOM     81  F   UNL A   1      48.794  26.739  30.737  1.00  0.00    -0.206 F 
ATOM     82  C   UNL A   1      50.743  26.613  29.435  1.00  0.00     0.059 A 
ATOM     83  C   UNL A   1      50.684  27.298  27.103  1.00  0.00     0.059 A 
ATOM     84  F   UNL A   1      48.684  28.102  26.179  1.00  0.00    -0.206 F 
ATOM     85  C   UNL A   1      51.381  26.806  28.207  1.00  0.00     0.060 A 
BRANCH  85  86
ATOM     86  S   UNL A   1      53.128  26.379  28.060  1.00  0.00     0.124 S 
ATOM     87  O   UNL A   1      53.081  25.275  27.106  1.00  0.00    -0.237 OA
ATOM     88  O   UNL A   1      53.716  27.621  27.565  1.00  0.00    -0.237 OA
ATOM     89  O   UNL A   1      53.504  26.016  29.423  1.00  0.00    -0.744 OA
ENDBRANCH  85  86
ENDBRANCH  53  78
ENDBRANCH  27  28
ENDBRANCH  20  22
ENDBRANCH  19  20
ENDBRANCH  18  19
ENDBRANCH  17  18
ENDBRANCH   1  17
TORSDOF 20
ENDMDL
MODEL 2
REMARK VINA RESULT:      -9.5      1.216      2.724
REMARK SMILES C[C@H]1CC[C@@](CCOCCO)(C(=O)OCCOC(=O)c2ccc(-c3c4nc(c(-c5c(F)cc(S(=O)(=O)[O-])cc5F)c5ccc([nH]5)c(-c5c(F)cc(S(=O)(=O)[O-])cc5F)c5nc(c(-c6c(F)cc(S(=O)(=O)[O-])cc6F)c6ccc3[nH]6)C=C5)C=C4)cc2)C1
REMARK SMILES IDX 14 1 12 2 13 3 5 4 1 5 2 6 3 7 86 8 4 9 6 10 7 11 8 12 9 13
REMARK SMILES IDX 10 14 11 15 15 17 16 18 17 19 18 20 19 21 20 22 21 23 85 24
REMARK SMILES IDX 22 25 84 26 23 27 24 28 25 29 78 30 26 31 83 32 77 33 79 34
REMARK SMILES IDX 27 35 82 36 76 37 75 38 28 40 62 41 41 42 61 43 42 44 45 45
REMARK SMILES IDX 60 46 80 47 43 48 44 49 59 51 81 52 46 53 29 54 30 55 39 56
REMARK SMILES IDX 31 57 32 58 38 59 40 60 33 61 34 62 35 63 36 64 37 65 63 66
REMARK SMILES IDX 64 67 73 68 65 69 66 70 72 71 74 72 67 73 68 74 69 75 70 76
REMARK SMILES IDX 71 77 47 78 48 79 57 80 49 81 50 82 56 83 58 84 51 85 52 86
REMARK SMILES IDX 53 87 54 88 55 89
REMARK H PARENT 11 16 79 39 45 50
REMARK Flexibility Score: inf
ROOT
ATOM      1  O   UNL A   1      31.731  28.971  26.207  1.00  0.00    -0.462 OA
ENDROOT
BRANCH   1   2
ATOM      2  C   UNL A   1      31.489  27.756  26.759  1.00  0.00     0.312 C 
ATOM      3  O   UNL A   1      31.024  27.598  27.883  1.00  0.00    -0.252 OA
BRANCH   2   4
ATOM      4  C   UNL A   1      31.897  26.580  25.851  1.00  0.00     0.070 C 
ATOM      5  C   UNL A   1      33.270  26.957  22.281  1.00  0.00     0.007 C 
ATOM      6  C   UNL A   1      32.901  26.332  23.617  1.00  0.00    -0.013 C 
ATOM      7  C   UNL A   1      34.046  26.398  24.609  1.00  0.00     0.004 C 
ATOM      8  C   UNL A   1      31.775  27.051  24.363  1.00  0.00     0.022 C 
ATOM      9  C   UNL A   1      33.382  26.135  25.953  1.00  0.00     0.019 C 
BRANCH   4  10
ATOM     10  C   UNL A   1      30.861  25.445  26.099  1.00  0.00     0.047 C 
BRANCH  10  11
ATOM     11  C   UNL A   1      31.334  24.105  26.674  1.00  0.00     0.161 C 
BRANCH  11  12
ATOM     12  O   UNL A   1      31.040  22.967  25.877  1.00  0.00    -0.379 OA
BRANCH  12  13
ATOM     13  C   UNL A   1      32.043  22.561  24.945  1.00  0.00     0.188 C 
BRANCH  13  14
ATOM     14  C   UNL A   1      32.077  21.066  24.624  1.00  0.00     0.184 C 
BRANCH  14  15
ATOM     15  O   UNL A   1      32.122  20.256  25.792  1.00  0.00    -0.394 OA
ATOM     16  H   UNL A   1      32.796  19.567  25.683  1.00  0.00     0.210 HD
ENDBRANCH  14  15
ENDBRANCH  13  14
ENDBRANCH  12  13
ENDBRANCH  11  12
ENDBRANCH  10  11
ENDBRANCH   4  10
ENDBRANCH   2   4
ENDBRANCH   1   2
BRANCH   1  17
ATOM     17  C   UNL A   1      32.232  30.004  27.080  1.00  0.00     0.274 C 
BRANCH  17  18
ATOM     18  C   UNL A   1      33.741  30.147  26.883  1.00  0.00     0.275 C 
BRANCH  18  19
ATOM     19  O   UNL A   1      34.392  29.586  28.035  1.00  0.00    -0.458 OA
BRANCH  19  20
ATOM     20  C   UNL A   1      35.149  30.439  28.755  1.00  0.00     0.338 C 
ATOM     21  O   UNL A   1      34.777  31.354  29.478  1.00  0.00    -0.246 OA
BRANCH  20  22
ATOM     22  C   UNL A   1      36.531  29.959  28.683  1.00  0.00     0.060 A 
ATOM     23  C   UNL A   1      37.105  29.484  29.862  1.00  0.00     0.016 A 
ATOM     24  C   UNL A   1      37.273  30.019  27.508  1.00  0.00     0.016 A 
ATOM     25  C   UNL A   1      38.445  29.119  29.894  1.00  0.00     0.010 A 
ATOM     26  C   UNL A   1      38.604  29.586  27.526  1.00  0.00     0.010 A 
ATOM     27  C   UNL A   1      39.210  29.155  28.724  1.00  0.00    -0.014 A 
BRANCH  27  28
ATOM     28  C   UNL A   1      40.658  28.817  28.767  1.00  0.00     0.031 A 
ATOM     29  C   UNL A   1      41.647  29.871  29.182  1.00  0.00     0.074 A 
ATOM     30  C   UNL A   1      41.091  27.577  28.463  1.00  0.00     0.049 A 
ATOM     31  N   UNL A   1      42.948  29.881  29.059  1.00  0.00    -0.248 NA
ATOM     32  C   UNL A   1      41.093  31.086  29.802  1.00  0.00     0.031 C 
ATOM     33  C   UNL A   1      40.238  26.439  28.117  1.00  0.00     0.029 A 
ATOM     34  N   UNL A   1      42.364  27.066  28.400  1.00  0.00    -0.354 N 
ATOM     35  C   UNL A   1      43.362  31.128  29.513  1.00  0.00     0.074 A 
ATOM     36  C   UNL A   1      42.174  31.842  29.929  1.00  0.00     0.031 C 
ATOM     37  C   UNL A   1      41.006  25.359  27.908  1.00  0.00     0.029 A 
ATOM     38  C   UNL A   1      42.409  25.745  28.015  1.00  0.00     0.049 A 
ATOM     39  H   UNL A   1      43.168  27.593  28.611  1.00  0.00     0.167 HD
ATOM     40  C   UNL A   1      44.619  31.631  29.565  1.00  0.00     0.037 A 
ATOM     41  C   UNL A   1      43.459  24.951  27.730  1.00  0.00     0.037 A 
ATOM     42  C   UNL A   1      45.796  30.883  29.208  1.00  0.00     0.049 A 
ATOM     43  C   UNL A   1      44.847  25.525  27.800  1.00  0.00     0.074 A 
ATOM     44  C   UNL A   1      47.115  31.299  29.201  1.00  0.00     0.029 A 
ATOM     45  N   UNL A   1      45.796  29.550  28.822  1.00  0.00    -0.354 N 
ATOM     46  N   UNL A   1      45.218  26.741  28.120  1.00  0.00    -0.248 NA
ATOM     47  C   UNL A   1      45.955  24.628  27.445  1.00  0.00     0.031 C 
ATOM     48  C   UNL A   1      47.912  30.221  28.795  1.00  0.00     0.029 A 
ATOM     49  C   UNL A   1      47.091  29.125  28.582  1.00  0.00     0.049 A 
ATOM     50  H   UNL A   1      44.992  28.988  28.733  1.00  0.00     0.167 HD
ATOM     51  C   UNL A   1      46.603  26.759  28.003  1.00  0.00     0.074 A 
ATOM     52  C   UNL A   1      47.005  25.423  27.609  1.00  0.00     0.031 C 
ATOM     53  C   UNL A   1      47.464  27.788  28.193  1.00  0.00     0.037 A 
BRANCH  40  54
ATOM     54  C   UNL A   1      44.773  33.068  29.974  1.00  0.00     0.058 A 
ATOM     55  C   UNL A   1      44.642  34.124  29.061  1.00  0.00     0.135 A 
ATOM     56  C   UNL A   1      45.058  33.391  31.312  1.00  0.00     0.135 A 
ATOM     57  F   UNL A   1      44.392  33.870  27.766  1.00  0.00    -0.206 F 
ATOM     58  C   UNL A   1      44.817  35.449  29.450  1.00  0.00     0.059 A 
ATOM     59  C   UNL A   1      45.214  34.710  31.729  1.00  0.00     0.059 A 
ATOM     60  F   UNL A   1      45.197  32.420  32.227  1.00  0.00    -0.206 F 
ATOM     61  C   UNL A   1      45.110  35.731  30.786  1.00  0.00     0.060 A 
BRANCH  61  62
ATOM     62  S   UNL A   1      45.350  37.451  31.280  1.00  0.00     0.124 S 
ATOM     63  O   UNL A   1      45.209  37.359  32.730  1.00  0.00    -0.237 OA
ATOM     64  O   UNL A   1      46.697  37.735  30.793  1.00  0.00    -0.237 OA
ATOM     65  O   UNL A   1      44.276  38.156  30.588  1.00  0.00    -0.744 OA
ENDBRANCH  61  62
ENDBRANCH  40  54
BRANCH  41  66
ATOM     66  C   UNL A   1      43.227  23.545  27.301  1.00  0.00     0.058 A 
ATOM     67  C   UNL A   1      42.847  22.560  28.223  1.00  0.00     0.135 A 
ATOM     68  C   UNL A   1      43.348  23.167  25.954  1.00  0.00     0.135 A 
ATOM     69  F   UNL A   1      42.732  22.868  29.524  1.00  0.00    -0.206 F 
ATOM     70  C   UNL A   1      42.591  21.251  27.827  1.00  0.00     0.059 A 
ATOM     71  C   UNL A   1      43.072  21.872  25.529  1.00  0.00     0.059 A 
ATOM     72  F   UNL A   1      43.701  24.075  25.030  1.00  0.00    -0.206 F 
ATOM     73  C   UNL A   1      42.700  20.918  26.476  1.00  0.00     0.060 A 
BRANCH  73  74
ATOM     74  S   UNL A   1      42.289  19.238  25.953  1.00  0.00     0.124 S 
ATOM     75  O   UNL A   1      40.848  19.338  25.751  1.00  0.00    -0.237 OA
ATOM     76  O   UNL A   1      43.093  19.083  24.745  1.00  0.00    -0.237 OA
ATOM     77  O   UNL A   1      42.714  18.422  27.086  1.00  0.00    -0.744 OA
ENDBRANCH  73  74
ENDBRANCH  41  66
BRANCH  53  78
ATOM     78  C   UNL A   1      48.924  27.502  27.996  1.00  0.00     0.058 A 
ATOM     79  C   UNL A   1      49.719  27.002  29.039  1.00  0.00     0.135 A 
ATOM     80  C   UNL A   1      49.524  27.694  26.743  1.00  0.00     0.135 A 
ATOM     81  F   UNL A   1      49.191  26.809  30.257  1.00  0.00    -0.206 F 
ATOM     82  C   UNL A   1      51.068  26.721  28.851  1.00  0.00     0.059 A 
ATOM     83  C   UNL A   1      50.866  27.401  26.525  1.00  0.00     0.059 A 
ATOM     84  F   UNL A   1      48.802  28.162  25.712  1.00  0.00    -0.206 F 
ATOM     85  C   UNL A   1      51.633  26.925  27.590  1.00  0.00     0.060 A 
BRANCH  85  86
ATOM     86  S   UNL A   1      53.378  26.535  27.346  1.00  0.00     0.124 S 
ATOM     87  O   UNL A   1      53.915  26.744  28.687  1.00  0.00    -0.237 OA
ATOM     88  O   UNL A   1      53.331  25.148  26.891  1.00  0.00    -0.237 OA
ATOM     89  O   UNL A   1      53.804  27.503  26.340  1.00  0.00    -0.744 OA
ENDBRANCH  85  86
ENDBRANCH  53  78
ENDBRANCH  27  28
ENDBRANCH  20  22
ENDBRANCH  19  20
ENDBRANCH  18  19
ENDBRANCH  17  18
ENDBRANCH   1  17
TORSDOF 20
ENDMDL
MODEL 3
REMARK VINA RESULT:      -9.5      6.033     11.411
REMARK SMILES C[C@H]1CC[C@@](CCOCCO)(C(=O)OCCOC(=O)c2ccc(-c3c4nc(c(-c5c(F)cc(S(=O)(=O)[O-])cc5F)c5ccc([nH]5)c(-c5c(F)cc(S(=O)(=O)[O-])cc5F)c5nc(c(-c6c(F)cc(S(=O)(=O)[O-])cc6F)c6ccc3[nH]6)C=C5)C=C4)cc2)C1
REMARK SMILES IDX 14 1 12 2 13 3 5 4 1 5 2 6 3 7 86 8 4 9 6 10 7 11 8 12 9 13
REMARK SMILES IDX 10 14 11 15 15 17 16 18 17 19 18 20 19 21 20 22 21 23 85 24
REMARK SMILES IDX 22 25 84 26 23 27 24 28 25 29 78 30 26 31 83 32 77 33 79 34
REMARK SMILES IDX 27 35 82 36 76 37 75 38 28 40 62 41 41 42 61 43 42 44 45 45
REMARK SMILES IDX 60 46 80 47 43 48 44 49 59 51 81 52 46 53 29 54 30 55 39 56
REMARK SMILES IDX 31 57 32 58 38 59 40 60 33 61 34 62 35 63 36 64 37 65 63 66
REMARK SMILES IDX 64 67 73 68 65 69 66 70 72 71 74 72 67 73 68 74 69 75 70 76
REMARK SMILES IDX 71 77 47 78 48 79 57 80 49 81 50 82 56 83 58 84 51 85 52 86
REMARK SMILES IDX 53 87 54 88 55 89
REMARK H PARENT 11 16 79 39 45 50
REMARK Flexibility Score: inf
ROOT
ATOM      1  O   UNL A   1      37.085  23.492  25.571  1.00  0.00    -0.462 OA
ENDROOT
BRANCH   1   2
ATOM      2  C   UNL A   1      36.375  23.354  24.424  1.00  0.00     0.312 C 
ATOM      3  O   UNL A   1      36.856  22.958  23.367  1.00  0.00    -0.252 OA
BRANCH   2   4
ATOM      4  C   UNL A   1      34.903  23.784  24.562  1.00  0.00     0.070 C 
ATOM      5  C   UNL A   1      33.708  27.430  24.794  1.00  0.00     0.007 C 
ATOM      6  C   UNL A   1      33.678  25.919  24.627  1.00  0.00    -0.013 C 
ATOM      7  C   UNL A   1      33.769  25.508  23.171  1.00  0.00     0.004 C 
ATOM      8  C   UNL A   1      34.870  25.189  25.252  1.00  0.00     0.022 C 
ATOM      9  C   UNL A   1      34.146  24.034  23.228  1.00  0.00     0.019 C 
BRANCH   4  10
ATOM     10  C   UNL A   1      34.223  22.751  25.508  1.00  0.00     0.047 C 
BRANCH  10  11
ATOM     11  C   UNL A   1      32.766  22.347  25.262  1.00  0.00     0.161 C 
BRANCH  11  12
ATOM     12  O   UNL A   1      32.584  21.073  24.661  1.00  0.00    -0.379 OA
BRANCH  12  13
ATOM     13  C   UNL A   1      33.349  19.995  25.202  1.00  0.00     0.188 C 
BRANCH  13  14
ATOM     14  C   UNL A   1      32.646  18.637  25.229  1.00  0.00     0.184 C 
BRANCH  14  15
ATOM     15  O   UNL A   1      32.592  18.075  26.535  1.00  0.00    -0.394 OA
ATOM     16  H   UNL A   1      33.306  17.427  26.639  1.00  0.00     0.210 HD
ENDBRANCH  14  15
ENDBRANCH  13  14
ENDBRANCH  12  13
ENDBRANCH  11  12
ENDBRANCH  10  11
ENDBRANCH   4  10
ENDBRANCH   2   4
ENDBRANCH   1   2
BRANCH   1  17
ATOM     17  C   UNL A   1      37.829  22.343  26.028  1.00  0.00     0.274 C 
BRANCH  17  18
ATOM     18  C   UNL A   1      39.236  22.780  26.435  1.00  0.00     0.275 C 
BRANCH  18  19
ATOM     19  O   UNL A   1      39.203  24.194  26.694  1.00  0.00    -0.458 OA
BRANCH  19  20
ATOM     20  C   UNL A   1      40.363  24.854  26.498  1.00  0.00     0.338 C 
ATOM     21  O   UNL A   1      41.110  24.797  25.529  1.00  0.00    -0.246 OA
BRANCH  20  22
ATOM     22  C   UNL A   1      40.495  25.829  27.582  1.00  0.00     0.060 A 
ATOM     23  C   UNL A   1      39.561  25.767  28.615  1.00  0.00     0.016 A 
ATOM     24  C   UNL A   1      41.472  26.819  27.568  1.00  0.00     0.016 A 
ATOM     25  C   UNL A   1      39.556  26.729  29.617  1.00  0.00     0.010 A 
ATOM     26  C   UNL A   1      41.508  27.748  28.615  1.00  0.00     0.010 A 
ATOM     27  C   UNL A   1      40.536  27.727  29.636  1.00  0.00    -0.014 A 
BRANCH  27  28
ATOM     28  C   UNL A   1      40.500  28.790  30.677  1.00  0.00     0.031 A 
ATOM     29  C   UNL A   1      41.491  28.746  31.806  1.00  0.00     0.074 A 
ATOM     30  C   UNL A   1      39.610  29.800  30.607  1.00  0.00     0.049 A 
ATOM     31  N   UNL A   1      41.493  29.407  32.934  1.00  0.00    -0.248 NA
ATOM     32  C   UNL A   1      42.624  27.818  31.652  1.00  0.00     0.031 C 
ATOM     33  C   UNL A   1      38.640  30.008  29.530  1.00  0.00     0.029 A 
ATOM     34  N   UNL A   1      39.378  30.847  31.465  1.00  0.00    -0.354 N 
ATOM     35  C   UNL A   1      42.577  28.922  33.655  1.00  0.00     0.074 A 
ATOM     36  C   UNL A   1      43.221  27.922  32.832  1.00  0.00     0.031 C 
ATOM     37  C   UNL A   1      37.942  31.127  29.774  1.00  0.00     0.029 A 
ATOM     38  C   UNL A   1      38.347  31.667  31.068  1.00  0.00     0.049 A 
ATOM     39  H   UNL A   1      39.901  30.998  32.285  1.00  0.00     0.167 HD
ATOM     40  C   UNL A   1      42.988  29.276  34.897  1.00  0.00     0.037 A 
ATOM     41  C   UNL A   1      37.760  32.704  31.696  1.00  0.00     0.037 A 
ATOM     42  C   UNL A   1      42.375  30.319  35.677  1.00  0.00     0.049 A 
ATOM     43  C   UNL A   1      38.234  33.085  33.071  1.00  0.00     0.074 A 
ATOM     44  C   UNL A   1      42.694  30.746  36.954  1.00  0.00     0.029 A 
ATOM     45  N   UNL A   1      41.334  31.123  35.237  1.00  0.00    -0.354 N 
ATOM     46  N   UNL A   1      39.187  32.544  33.792  1.00  0.00    -0.248 NA
ATOM     47  C   UNL A   1      37.537  34.199  33.729  1.00  0.00     0.031 C 
ATOM     48  C   UNL A   1      41.834  31.797  37.293  1.00  0.00     0.029 A 
ATOM     49  C   UNL A   1      41.002  32.047  36.213  1.00  0.00     0.049 A 
ATOM     50  H   UNL A   1      40.894  31.048  34.359  1.00  0.00     0.167 HD
ATOM     51  C   UNL A   1      39.203  33.248  34.990  1.00  0.00     0.074 A 
ATOM     52  C   UNL A   1      38.183  34.273  34.885  1.00  0.00     0.031 C 
ATOM     53  C   UNL A   1      39.983  33.059  36.082  1.00  0.00     0.037 A 
BRANCH  40  54
ATOM     54  C   UNL A   1      44.118  28.491  35.502  1.00  0.00     0.058 A 
ATOM     55  C   UNL A   1      45.459  28.871  35.345  1.00  0.00     0.135 A 
ATOM     56  C   UNL A   1      43.848  27.335  36.254  1.00  0.00     0.135 A 
ATOM     57  F   UNL A   1      45.774  29.955  34.618  1.00  0.00    -0.206 F 
ATOM     58  C   UNL A   1      46.496  28.117  35.887  1.00  0.00     0.059 A 
ATOM     59  C   UNL A   1      44.868  26.579  36.825  1.00  0.00     0.059 A 
ATOM     60  F   UNL A   1      42.583  26.925  36.432  1.00  0.00    -0.206 F 
ATOM     61  C   UNL A   1      46.190  26.969  36.620  1.00  0.00     0.060 A 
BRANCH  61  62
ATOM     62  S   UNL A   1      47.542  25.988  37.307  1.00  0.00     0.124 S 
ATOM     63  O   UNL A   1      48.004  25.265  36.127  1.00  0.00    -0.237 OA
ATOM     64  O   UNL A   1      48.449  27.013  37.816  1.00  0.00    -0.237 OA
ATOM     65  O   UNL A   1      46.887  25.175  38.326  1.00  0.00    -0.744 OA
ENDBRANCH  61  62
ENDBRANCH  40  54
BRANCH  41  66
ATOM     66  C   UNL A   1      36.625  33.414  31.047  1.00  0.00     0.058 A 
ATOM     67  C   UNL A   1      36.834  34.266  29.954  1.00  0.00     0.135 A 
ATOM     68  C   UNL A   1      35.305  33.228  31.488  1.00  0.00     0.135 A 
ATOM     69  F   UNL A   1      38.079  34.489  29.505  1.00  0.00    -0.206 F 
ATOM     70  C   UNL A   1      35.775  34.907  29.316  1.00  0.00     0.059 A 
ATOM     71  C   UNL A   1      34.228  33.836  30.850  1.00  0.00     0.059 A 
ATOM     72  F   UNL A   1      35.050  32.416  32.525  1.00  0.00    -0.206 F 
ATOM     73  C   UNL A   1      34.474  34.680  29.768  1.00  0.00     0.060 A 
BRANCH  73  74
ATOM     74  S   UNL A   1      33.096  35.448  28.889  1.00  0.00     0.124 S 
ATOM     75  O   UNL A   1      33.785  36.450  28.082  1.00  0.00    -0.237 OA
ATOM     76  O   UNL A   1      32.527  34.321  28.157  1.00  0.00    -0.237 OA
ATOM     77  O   UNL A   1      32.261  35.968  29.967  1.00  0.00    -0.744 OA
ENDBRANCH  73  74
ENDBRANCH  41  66
BRANCH  53  78
ATOM     78  C   UNL A   1      39.775  33.991  37.240  1.00  0.00     0.058 A 
ATOM     79  C   UNL A   1      38.960  33.638  38.326  1.00  0.00     0.135 A 
ATOM     80  C   UNL A   1      40.428  35.232  37.280  1.00  0.00     0.135 A 
ATOM     81  F   UNL A   1      38.309  32.465  38.329  1.00  0.00    -0.206 F 
ATOM     82  C   UNL A   1      38.781  34.496  39.406  1.00  0.00     0.059 A 
ATOM     83  C   UNL A   1      40.281  36.097  38.359  1.00  0.00     0.059 A 
ATOM     84  F   UNL A   1      41.226  35.609  36.268  1.00  0.00    -0.206 F 
ATOM     85  C   UNL A   1      39.446  35.724  39.413  1.00  0.00     0.060 A 
BRANCH  85  86
ATOM     86  S   UNL A   1      39.230  36.821  40.829  1.00  0.00     0.124 S 
ATOM     87  O   UNL A   1      38.557  37.963  40.217  1.00  0.00    -0.237 OA
ATOM     88  O   UNL A   1      38.414  36.014  41.732  1.00  0.00    -0.237 OA
ATOM     89  O   UNL A   1      40.597  37.065  41.280  1.00  0.00    -0.744 OA
ENDBRANCH  85  86
ENDBRANCH  53  78
ENDBRANCH  27  28
ENDBRANCH  20  22
ENDBRANCH  19  20
ENDBRANCH  18  19
ENDBRANCH  17  18
ENDBRANCH   1  17
TORSDOF 20
ENDMDL
