MODEL 1
REMARK VINA RESULT:     -10.7      0.000      0.000
REMARK SMILES CC[N@H+](C[C@H]1CCCO1)[C@@H](C)c1ccc(C(=O)OCCOC(=O)c2ccc(-c3c4nc(c(-c5c(F)cc(S(=O)(=O)[O-])cc5F)c5ccc([nH]5)c(-c5c(F)cc(S(=O)(=O)[O-])cc5F)c5nc(c(-c6c(F)cc(S(=O)(=O)[O-])cc6F)c6ccc3[nH]6)C=C5)C=C4)cc2)o1
REMARK SMILES IDX 19 1 18 2 16 3 17 4 15 5 12 6 13 7 90 8 14 9 10 10 11 11
REMARK SMILES IDX 3 12 2 14 1 15 4 16 5 17 6 18 9 19 7 20 8 21 20 22 21 23
REMARK SMILES IDX 22 24 23 25 24 26 25 27 89 28 26 29 88 30 27 31 28 32 29 33
REMARK SMILES IDX 82 34 30 35 87 36 81 37 83 38 31 39 86 40 80 41 79 42 32 44
REMARK SMILES IDX 66 45 45 46 65 47 46 48 49 49 64 50 84 51 47 52 48 53 63 55
REMARK SMILES IDX 85 56 50 57 33 58 34 59 43 60 35 61 36 62 42 63 44 64 37 65
REMARK SMILES IDX 38 66 39 67 40 68 41 69 67 70 68 71 77 72 69 73 70 74 76 75
REMARK SMILES IDX 78 76 71 77 72 78 73 79 74 80 75 81 51 82 52 83 61 84 53 85
REMARK SMILES IDX 54 86 60 87 62 88 55 89 56 90 57 91 58 92 59 93
REMARK H PARENT 3 13 83 43 49 54
REMARK Flexibility Score: inf
ROOT
ATOM      1  C   UNL A   1      42.424  21.892  25.973  1.00  0.00     0.275 C 
ENDROOT
BRANCH   1   2
ATOM      2  O   UNL A   1      41.065  21.665  25.558  1.00  0.00    -0.456 OA
BRANCH   2   3
ATOM      3  C   UNL A   1      40.156  21.647  26.575  1.00  0.00     0.374 C 
ATOM      4  O   UNL A   1      40.355  21.127  27.668  1.00  0.00    -0.242 OA
BRANCH   3   5
ATOM      5  C   UNL A   1      38.992  22.423  26.226  1.00  0.00     0.212 A 
ATOM      6  C   UNL A   1      36.976  22.595  25.329  1.00  0.00     0.162 A 
ATOM      7  C   UNL A   1      37.257  23.820  25.899  1.00  0.00     0.053 A 
ATOM      8  O   UNL A   1      38.065  21.792  25.454  1.00  0.00    -0.448 OA
ATOM      9  C   UNL A   1      38.531  23.690  26.525  1.00  0.00     0.059 A 
BRANCH   6  10
ATOM     10  C   UNL A   1      35.862  21.979  24.529  1.00  0.00     0.248 C 
ATOM     11  C   UNL A   1      35.516  23.082  23.491  1.00  0.00     0.084 C 
BRANCH  10  12
ATOM     12  N   UNL A   1      34.658  21.540  25.282  1.00  0.00    -0.324 N 
ATOM     13  H   UNL A   1      33.985  22.256  25.005  1.00  0.00     0.348 HD
BRANCH  12  14
ATOM     14  C   UNL A   1      34.660  21.586  26.765  1.00  0.00     0.259 C 
ATOM     15  C   UNL A   1      33.901  22.645  27.553  1.00  0.00     0.071 C 
ENDBRANCH  12  14
BRANCH  12  16
ATOM     16  C   UNL A   1      34.302  20.139  24.896  1.00  0.00     0.295 C 
BRANCH  16  17
ATOM     17  C   UNL A   1      32.795  19.876  24.692  1.00  0.00     0.173 C 
ATOM     18  C   UNL A   1      32.382  19.525  23.273  1.00  0.00     0.040 C 
ATOM     19  O   UNL A   1      32.432  18.710  25.465  1.00  0.00    -0.372 OA
ATOM     20  C   UNL A   1      32.653  18.046  23.184  1.00  0.00     0.031 C 
ATOM     21  C   UNL A   1      32.423  17.562  24.601  1.00  0.00     0.161 C 
ENDBRANCH  16  17
ENDBRANCH  12  16
ENDBRANCH  10  12
ENDBRANCH   6  10
ENDBRANCH   3   5
ENDBRANCH   2   3
ENDBRANCH   1   2
BRANCH   1  22
ATOM     22  C   UNL A   1      42.879  23.325  25.663  1.00  0.00     0.275 C 
BRANCH  22  23
ATOM     23  O   UNL A   1      42.496  24.263  26.688  1.00  0.00    -0.458 OA
BRANCH  23  24
ATOM     24  C   UNL A   1      42.068  25.471  26.246  1.00  0.00     0.338 C 
ATOM     25  O   UNL A   1      41.935  25.817  25.084  1.00  0.00    -0.246 OA
BRANCH  24  26
ATOM     26  C   UNL A   1      41.694  26.324  27.390  1.00  0.00     0.060 A 
ATOM     27  C   UNL A   1      42.446  27.474  27.634  1.00  0.00     0.016 A 
ATOM     28  C   UNL A   1      40.678  25.954  28.271  1.00  0.00     0.016 A 
ATOM     29  C   UNL A   1      42.203  28.255  28.761  1.00  0.00     0.010 A 
ATOM     30  C   UNL A   1      40.420  26.749  29.395  1.00  0.00     0.010 A 
ATOM     31  C   UNL A   1      41.187  27.899  29.655  1.00  0.00    -0.014 A 
BRANCH  31  32
ATOM     32  C   UNL A   1      40.946  28.716  30.872  1.00  0.00     0.031 A 
ATOM     33  C   UNL A   1      39.851  29.745  30.879  1.00  0.00     0.074 A 
ATOM     34  C   UNL A   1      41.704  28.529  31.969  1.00  0.00     0.049 A 
ATOM     35  N   UNL A   1      39.572  30.649  31.782  1.00  0.00    -0.248 NA
ATOM     36  C   UNL A   1      38.953  29.760  29.713  1.00  0.00     0.031 C 
ATOM     37  C   UNL A   1      42.758  27.522  32.107  1.00  0.00     0.029 A 
ATOM     38  N   UNL A   1      41.709  29.184  33.176  1.00  0.00    -0.354 N 
ATOM     39  C   UNL A   1      38.488  31.361  31.284  1.00  0.00     0.074 A 
ATOM     40  C   UNL A   1      38.163  30.787  29.994  1.00  0.00     0.031 C 
ATOM     41  C   UNL A   1      43.309  27.628  33.327  1.00  0.00     0.029 A 
ATOM     42  C   UNL A   1      42.689  28.744  34.036  1.00  0.00     0.049 A 
ATOM     43  H   UNL A   1      41.073  29.899  33.405  1.00  0.00     0.167 HD
ATOM     44  C   UNL A   1      37.827  32.399  31.851  1.00  0.00     0.037 A 
ATOM     45  C   UNL A   1      43.071  29.212  35.240  1.00  0.00     0.037 A 
ATOM     46  C   UNL A   1      38.142  32.946  33.146  1.00  0.00     0.049 A 
ATOM     47  C   UNL A   1      42.361  30.402  35.825  1.00  0.00     0.074 A 
ATOM     48  C   UNL A   1      37.529  33.994  33.810  1.00  0.00     0.029 A 
ATOM     49  N   UNL A   1      39.155  32.486  33.975  1.00  0.00    -0.354 N 
ATOM     50  N   UNL A   1      41.357  31.086  35.331  1.00  0.00    -0.248 NA
ATOM     51  C   UNL A   1      42.841  30.894  37.126  1.00  0.00     0.031 C 
ATOM     52  C   UNL A   1      38.193  34.191  35.025  1.00  0.00     0.029 A 
ATOM     53  C   UNL A   1      39.195  33.240  35.137  1.00  0.00     0.049 A 
ATOM     54  H   UNL A   1      39.756  31.735  33.768  1.00  0.00     0.167 HD
ATOM     55  C   UNL A   1      41.072  32.073  36.267  1.00  0.00     0.074 A 
ATOM     56  C   UNL A   1      42.005  31.896  37.360  1.00  0.00     0.031 C 
ATOM     57  C   UNL A   1      40.121  33.039  36.223  1.00  0.00     0.037 A 
BRANCH  44  58
ATOM     58  C   UNL A   1      36.717  33.033  31.062  1.00  0.00     0.058 A 
ATOM     59  C   UNL A   1      35.366  32.819  31.376  1.00  0.00     0.135 A 
ATOM     60  C   UNL A   1      37.011  33.894  29.992  1.00  0.00     0.135 A 
ATOM     61  F   UNL A   1      35.028  31.993  32.378  1.00  0.00    -0.206 F 
ATOM     62  C   UNL A   1      34.345  33.413  30.640  1.00  0.00     0.059 A 
ATOM     63  C   UNL A   1      36.008  34.517  29.256  1.00  0.00     0.059 A 
ATOM     64  F   UNL A   1      38.288  34.133  29.650  1.00  0.00    -0.206 F 
ATOM     65  C   UNL A   1      34.677  34.257  29.578  1.00  0.00     0.060 A 
BRANCH  65  66
ATOM     66  S   UNL A   1      33.345  35.016  28.624  1.00  0.00     0.124 S 
ATOM     67  O   UNL A   1      32.815  33.865  27.900  1.00  0.00    -0.237 OA
ATOM     68  O   UNL A   1      32.481  35.560  29.667  1.00  0.00    -0.237 OA
ATOM     69  O   UNL A   1      34.035  36.008  27.806  1.00  0.00    -0.744 OA
ENDBRANCH  65  66
ENDBRANCH  44  58
BRANCH  45  70
ATOM     70  C   UNL A   1      44.206  28.570  35.956  1.00  0.00     0.058 A 
ATOM     71  C   UNL A   1      43.990  27.527  36.866  1.00  0.00     0.135 A 
ATOM     72  C   UNL A   1      45.531  28.978  35.728  1.00  0.00     0.135 A 
ATOM     73  F   UNL A   1      42.742  27.110  37.125  1.00  0.00    -0.206 F 
ATOM     74  C   UNL A   1      45.046  26.910  37.532  1.00  0.00     0.059 A 
ATOM     75  C   UNL A   1      46.605  28.362  36.363  1.00  0.00     0.059 A 
ATOM     76  F   UNL A   1      45.790  29.967  34.860  1.00  0.00    -0.206 F 
ATOM     77  C   UNL A   1      46.351  27.334  37.270  1.00  0.00     0.060 A 
BRANCH  77  78
ATOM     78  S   UNL A   1      47.721  26.493  38.095  1.00  0.00     0.124 S 
ATOM     79  O   UNL A   1      47.466  26.821  39.492  1.00  0.00    -0.237 OA
ATOM     80  O   UNL A   1      47.501  25.100  37.716  1.00  0.00    -0.237 OA
ATOM     81  O   UNL A   1      48.900  27.116  37.503  1.00  0.00    -0.744 OA
ENDBRANCH  77  78
ENDBRANCH  45  70
BRANCH  57  82
ATOM     82  C   UNL A   1      40.011  33.961  37.404  1.00  0.00     0.058 A 
ATOM     83  C   UNL A   1      40.649  35.210  37.422  1.00  0.00     0.135 A 
ATOM     84  C   UNL A   1      39.189  33.625  38.491  1.00  0.00     0.135 A 
ATOM     85  F   UNL A   1      41.454  35.574  36.411  1.00  0.00    -0.206 F 
ATOM     86  C   UNL A   1      40.479  36.094  38.483  1.00  0.00     0.059 A 
ATOM     87  C   UNL A   1      38.987  34.502  39.552  1.00  0.00     0.059 A 
ATOM     88  F   UNL A   1      38.551  32.443  38.515  1.00  0.00    -0.206 F 
ATOM     89  C   UNL A   1      39.640  35.734  39.541  1.00  0.00     0.060 A 
BRANCH  89  90
ATOM     90  S   UNL A   1      39.373  36.917  40.877  1.00  0.00     0.124 S 
ATOM     91  O   UNL A   1      38.609  36.119  41.829  1.00  0.00    -0.237 OA
ATOM     92  O   UNL A   1      40.735  37.252  41.279  1.00  0.00    -0.237 OA
ATOM     93  O   UNL A   1      38.634  37.999  40.230  1.00  0.00    -0.744 OA
ENDBRANCH  89  90
ENDBRANCH  57  82
ENDBRANCH  31  32
ENDBRANCH  24  26
ENDBRANCH  23  24
ENDBRANCH  22  23
ENDBRANCH   1  22
TORSDOF 19
ENDMDL
MODEL 2
REMARK VINA RESULT:     -10.6      0.971      8.511
REMARK SMILES CC[N@H+](C[C@H]1CCCO1)[C@@H](C)c1ccc(C(=O)OCCOC(=O)c2ccc(-c3c4nc(c(-c5c(F)cc(S(=O)(=O)[O-])cc5F)c5ccc([nH]5)c(-c5c(F)cc(S(=O)(=O)[O-])cc5F)c5nc(c(-c6c(F)cc(S(=O)(=O)[O-])cc6F)c6ccc3[nH]6)C=C5)C=C4)cc2)o1
REMARK SMILES IDX 19 1 18 2 16 3 17 4 15 5 12 6 13 7 90 8 14 9 10 10 11 11
REMARK SMILES IDX 3 12 2 14 1 15 4 16 5 17 6 18 9 19 7 20 8 21 20 22 21 23
REMARK SMILES IDX 22 24 23 25 24 26 25 27 89 28 26 29 88 30 27 31 28 32 29 33
REMARK SMILES IDX 82 34 30 35 87 36 81 37 83 38 31 39 86 40 80 41 79 42 32 44
REMARK SMILES IDX 66 45 45 46 65 47 46 48 49 49 64 50 84 51 47 52 48 53 63 55
REMARK SMILES IDX 85 56 50 57 33 58 34 59 43 60 35 61 36 62 42 63 44 64 37 65
REMARK SMILES IDX 38 66 39 67 40 68 41 69 67 70 68 71 77 72 69 73 70 74 76 75
REMARK SMILES IDX 78 76 71 77 72 78 73 79 74 80 75 81 51 82 52 83 61 84 53 85
REMARK SMILES IDX 54 86 60 87 62 88 55 89 56 90 57 91 58 92 59 93
REMARK H PARENT 3 13 83 43 49 54
REMARK Flexibility Score: inf
ROOT
ATOM      1  C   UNL A   1      42.757  21.696  25.968  1.00  0.00     0.275 C 
ENDROOT
BRANCH   1   2
ATOM      2  O   UNL A   1      41.378  21.355  25.738  1.00  0.00    -0.456 OA
BRANCH   2   3
ATOM      3  C   UNL A   1      40.554  21.572  26.803  1.00  0.00     0.374 C 
ATOM      4  O   UNL A   1      40.809  21.231  27.954  1.00  0.00    -0.242 OA
BRANCH   3   5
ATOM      5  C   UNL A   1      39.411  22.356  26.406  1.00  0.00     0.212 A 
ATOM      6  C   UNL A   1      37.454  22.553  25.391  1.00  0.00     0.162 A 
ATOM      7  C   UNL A   1      37.695  23.760  26.014  1.00  0.00     0.053 A 
ATOM      8  O   UNL A   1      38.535  21.747  25.560  1.00  0.00    -0.448 OA
ATOM      9  C   UNL A   1      38.929  23.613  26.713  1.00  0.00     0.059 A 
BRANCH   6  10
ATOM     10  C   UNL A   1      36.393  21.959  24.506  1.00  0.00     0.248 C 
ATOM     11  C   UNL A   1      36.335  22.947  23.308  1.00  0.00     0.084 C 
BRANCH  10  12
ATOM     12  N   UNL A   1      35.051  21.754  25.111  1.00  0.00    -0.324 N 
ATOM     13  H   UNL A   1      35.303  21.558  26.080  1.00  0.00     0.348 HD
BRANCH  12  14
ATOM     14  C   UNL A   1      34.227  20.590  24.698  1.00  0.00     0.259 C 
ATOM     15  C   UNL A   1      32.866  20.744  24.032  1.00  0.00     0.071 C 
ENDBRANCH  12  14
BRANCH  12  16
ATOM     16  C   UNL A   1      34.208  22.973  24.898  1.00  0.00     0.295 C 
BRANCH  16  17
ATOM     17  C   UNL A   1      33.935  23.812  26.165  1.00  0.00     0.173 C 
ATOM     18  C   UNL A   1      32.481  24.179  26.401  1.00  0.00     0.040 C 
ATOM     19  O   UNL A   1      34.292  23.017  27.317  1.00  0.00    -0.372 OA
ATOM     20  C   UNL A   1      31.918  22.961  27.086  1.00  0.00     0.031 C 
ATOM     21  C   UNL A   1      33.105  22.410  27.851  1.00  0.00     0.161 C 
ENDBRANCH  16  17
ENDBRANCH  12  16
ENDBRANCH  10  12
ENDBRANCH   6  10
ENDBRANCH   3   5
ENDBRANCH   2   3
ENDBRANCH   1   2
BRANCH   1  22
ATOM     22  C   UNL A   1      43.084  23.105  25.456  1.00  0.00     0.275 C 
BRANCH  22  23
ATOM     23  O   UNL A   1      42.972  24.110  26.484  1.00  0.00    -0.458 OA
BRANCH  23  24
ATOM     24  C   UNL A   1      42.305  25.237  26.132  1.00  0.00     0.338 C 
ATOM     25  O   UNL A   1      41.795  25.473  25.049  1.00  0.00    -0.246 OA
BRANCH  24  26
ATOM     26  C   UNL A   1      42.199  26.144  27.290  1.00  0.00     0.060 A 
ATOM     27  C   UNL A   1      41.261  25.849  28.280  1.00  0.00     0.016 A 
ATOM     28  C   UNL A   1      42.944  27.321  27.361  1.00  0.00     0.016 A 
ATOM     29  C   UNL A   1      41.045  26.729  29.337  1.00  0.00     0.010 A 
ATOM     30  C   UNL A   1      42.742  28.198  28.435  1.00  0.00     0.010 A 
ATOM     31  C   UNL A   1      41.784  27.914  29.426  1.00  0.00    -0.014 A 
BRANCH  31  32
ATOM     32  C   UNL A   1      41.536  28.866  30.539  1.00  0.00     0.031 A 
ATOM     33  C   UNL A   1      42.401  28.826  31.766  1.00  0.00     0.074 A 
ATOM     34  C   UNL A   1      40.540  29.767  30.444  1.00  0.00     0.049 A 
ATOM     35  N   UNL A   1      42.264  29.469  32.896  1.00  0.00    -0.248 NA
ATOM     36  C   UNL A   1      43.577  27.943  31.714  1.00  0.00     0.031 C 
ATOM     37  C   UNL A   1      39.667  29.944  29.281  1.00  0.00     0.029 A 
ATOM     38  N   UNL A   1      40.087  30.700  31.344  1.00  0.00    -0.354 N 
ATOM     39  C   UNL A   1      43.314  29.049  33.703  1.00  0.00     0.074 A 
ATOM     40  C   UNL A   1      44.078  28.089  32.934  1.00  0.00     0.031 C 
ATOM     41  C   UNL A   1      38.785  30.922  29.540  1.00  0.00     0.029 A 
ATOM     42  C   UNL A   1      38.989  31.402  30.904  1.00  0.00     0.049 A 
ATOM     43  H   UNL A   1      40.508  30.852  32.221  1.00  0.00     0.167 HD
ATOM     44  C   UNL A   1      43.610  29.429  34.969  1.00  0.00     0.037 A 
ATOM     45  C   UNL A   1      38.211  32.300  31.540  1.00  0.00     0.037 A 
ATOM     46  C   UNL A   1      42.857  30.404  35.717  1.00  0.00     0.049 A 
ATOM     47  C   UNL A   1      38.524  32.664  32.966  1.00  0.00     0.074 A 
ATOM     48  C   UNL A   1      43.079  30.859  37.005  1.00  0.00     0.029 A 
ATOM     49  N   UNL A   1      41.740  31.075  35.243  1.00  0.00    -0.354 N 
ATOM     50  N   UNL A   1      39.503  32.236  33.728  1.00  0.00    -0.248 NA
ATOM     51  C   UNL A   1      37.623  33.622  33.624  1.00  0.00     0.031 C 
ATOM     52  C   UNL A   1      42.076  31.780  37.322  1.00  0.00     0.029 A 
ATOM     53  C   UNL A   1      41.252  31.930  36.218  1.00  0.00     0.049 A 
ATOM     54  H   UNL A   1      41.352  30.962  34.346  1.00  0.00     0.167 HD
ATOM     55  C   UNL A   1      39.347  32.888  34.946  1.00  0.00     0.074 A 
ATOM     56  C   UNL A   1      38.185  33.742  34.820  1.00  0.00     0.031 C 
ATOM     57  C   UNL A   1      40.101  32.786  36.068  1.00  0.00     0.037 A 
BRANCH  44  58
ATOM     58  C   UNL A   1      44.779  28.766  35.641  1.00  0.00     0.058 A 
ATOM     59  C   UNL A   1      46.084  29.272  35.530  1.00  0.00     0.135 A 
ATOM     60  C   UNL A   1      44.586  27.621  36.431  1.00  0.00     0.135 A 
ATOM     61  F   UNL A   1      46.326  30.354  34.774  1.00  0.00    -0.206 F 
ATOM     62  C   UNL A   1      47.159  28.651  36.158  1.00  0.00     0.059 A 
ATOM     63  C   UNL A   1      45.643  26.996  37.086  1.00  0.00     0.059 A 
ATOM     64  F   UNL A   1      43.358  27.096  36.569  1.00  0.00    -0.206 F 
ATOM     65  C   UNL A   1      46.929  27.510  36.930  1.00  0.00     0.060 A 
BRANCH  65  66
ATOM     66  S   UNL A   1      48.334  26.708  37.733  1.00  0.00     0.124 S 
ATOM     67  O   UNL A   1      49.457  27.304  37.015  1.00  0.00    -0.237 OA
ATOM     68  O   UNL A   1      48.180  27.122  39.124  1.00  0.00    -0.237 OA
ATOM     69  O   UNL A   1      48.107  25.290  37.476  1.00  0.00    -0.744 OA
ENDBRANCH  65  66
ENDBRANCH  44  58
BRANCH  45  70
ATOM     70  C   UNL A   1      37.041  32.891  30.839  1.00  0.00     0.058 A 
ATOM     71  C   UNL A   1      35.742  32.418  31.073  1.00  0.00     0.135 A 
ATOM     72  C   UNL A   1      37.197  33.954  29.934  1.00  0.00     0.135 A 
ATOM     73  F   UNL A   1      35.543  31.397  31.921  1.00  0.00    -0.206 F 
ATOM     74  C   UNL A   1      34.638  32.973  30.433  1.00  0.00     0.059 A 
ATOM     75  C   UNL A   1      36.107  34.540  29.299  1.00  0.00     0.059 A 
ATOM     76  F   UNL A   1      38.419  34.447  29.682  1.00  0.00    -0.206 F 
ATOM     77  C   UNL A   1      34.832  34.037  29.549  1.00  0.00     0.060 A 
BRANCH  77  78
ATOM     78  S   UNL A   1      33.389  34.788  28.763  1.00  0.00     0.124 S 
ATOM     79  O   UNL A   1      33.019  33.767  27.792  1.00  0.00    -0.237 OA
ATOM     80  O   UNL A   1      32.477  34.958  29.890  1.00  0.00    -0.237 OA
ATOM     81  O   UNL A   1      33.920  36.029  28.206  1.00  0.00    -0.744 OA
ENDBRANCH  77  78
ENDBRANCH  45  70
BRANCH  57  82
ATOM     82  C   UNL A   1      39.722  33.644  37.242  1.00  0.00     0.058 A 
ATOM     83  C   UNL A   1      38.835  33.188  38.228  1.00  0.00     0.135 A 
ATOM     84  C   UNL A   1      40.319  34.901  37.422  1.00  0.00     0.135 A 
ATOM     85  F   UNL A   1      38.231  31.996  38.097  1.00  0.00    -0.206 F 
ATOM     86  C   UNL A   1      38.550  33.954  39.354  1.00  0.00     0.059 A 
ATOM     87  C   UNL A   1      40.065  35.675  38.550  1.00  0.00     0.059 A 
ATOM     88  F   UNL A   1      41.180  35.378  36.508  1.00  0.00    -0.206 F 
ATOM     89  C   UNL A   1      39.175  35.193  39.510  1.00  0.00     0.060 A 
BRANCH  89  90
ATOM     90  S   UNL A   1      38.849  36.147  41.008  1.00  0.00     0.124 S 
ATOM     91  O   UNL A   1      38.525  37.458  40.458  1.00  0.00    -0.237 OA
ATOM     92  O   UNL A   1      37.737  35.419  41.610  1.00  0.00    -0.237 OA
ATOM     93  O   UNL A   1      40.110  36.068  41.741  1.00  0.00    -0.744 OA
ENDBRANCH  89  90
ENDBRANCH  57  82
ENDBRANCH  31  32
ENDBRANCH  24  26
ENDBRANCH  23  24
ENDBRANCH  22  23
ENDBRANCH   1  22
TORSDOF 19
ENDMDL
MODEL 3
REMARK VINA RESULT:     -10.3      0.984      2.308
REMARK SMILES CC[N@H+](C[C@H]1CCCO1)[C@@H](C)c1ccc(C(=O)OCCOC(=O)c2ccc(-c3c4nc(c(-c5c(F)cc(S(=O)(=O)[O-])cc5F)c5ccc([nH]5)c(-c5c(F)cc(S(=O)(=O)[O-])cc5F)c5nc(c(-c6c(F)cc(S(=O)(=O)[O-])cc6F)c6ccc3[nH]6)C=C5)C=C4)cc2)o1
REMARK SMILES IDX 19 1 18 2 16 3 17 4 15 5 12 6 13 7 90 8 14 9 10 10 11 11
REMARK SMILES IDX 3 12 2 14 1 15 4 16 5 17 6 18 9 19 7 20 8 21 20 22 21 23
REMARK SMILES IDX 22 24 23 25 24 26 25 27 89 28 26 29 88 30 27 31 28 32 29 33
REMARK SMILES IDX 82 34 30 35 87 36 81 37 83 38 31 39 86 40 80 41 79 42 32 44
REMARK SMILES IDX 66 45 45 46 65 47 46 48 49 49 64 50 84 51 47 52 48 53 63 55
REMARK SMILES IDX 85 56 50 57 33 58 34 59 43 60 35 61 36 62 42 63 44 64 37 65
REMARK SMILES IDX 38 66 39 67 40 68 41 69 67 70 68 71 77 72 69 73 70 74 76 75
REMARK SMILES IDX 78 76 71 77 72 78 73 79 74 80 75 81 51 82 52 83 61 84 53 85
REMARK SMILES IDX 54 86 60 87 62 88 55 89 56 90 57 91 58 92 59 93
REMARK H PARENT 3 13 83 43 49 54
REMARK Flexibility Score: inf
ROOT
ATOM      1  C   UNL A   1      42.721  21.623  26.001  1.00  0.00     0.275 C 
ENDROOT
BRANCH   1   2
ATOM      2  O   UNL A   1      41.356  21.254  25.736  1.00  0.00    -0.456 OA
BRANCH   2   3
ATOM      3  C   UNL A   1      40.503  21.445  26.784  1.00  0.00     0.374 C 
ATOM      4  O   UNL A   1      40.731  21.081  27.933  1.00  0.00    -0.242 OA
BRANCH   3   5
ATOM      5  C   UNL A   1      39.367  22.231  26.374  1.00  0.00     0.212 A 
ATOM      6  C   UNL A   1      37.455  22.450  25.279  1.00  0.00     0.162 A 
ATOM      7  C   UNL A   1      37.646  23.628  25.973  1.00  0.00     0.053 A 
ATOM      8  O   UNL A   1      38.542  21.653  25.457  1.00  0.00    -0.448 OA
ATOM      9  C   UNL A   1      38.849  23.463  26.721  1.00  0.00     0.059 A 
BRANCH   6  10
ATOM     10  C   UNL A   1      36.446  21.887  24.316  1.00  0.00     0.248 C 
ATOM     11  C   UNL A   1      36.496  22.884  23.125  1.00  0.00     0.084 C 
BRANCH  10  12
ATOM     12  N   UNL A   1      35.061  21.709  24.822  1.00  0.00    -0.324 N 
ATOM     13  H   UNL A   1      35.150  22.084  25.768  1.00  0.00     0.348 HD
BRANCH  12  14
ATOM     14  C   UNL A   1      34.517  20.342  25.016  1.00  0.00     0.259 C 
ATOM     15  C   UNL A   1      33.283  19.839  24.279  1.00  0.00     0.071 C 
ENDBRANCH  12  14
BRANCH  12  16
ATOM     16  C   UNL A   1      34.099  22.431  23.931  1.00  0.00     0.295 C 
BRANCH  16  17
ATOM     17  C   UNL A   1      33.165  23.431  24.645  1.00  0.00     0.173 C 
ATOM     18  C   UNL A   1      33.736  24.076  25.896  1.00  0.00     0.040 C 
ATOM     19  O   UNL A   1      32.925  24.541  23.752  1.00  0.00    -0.372 OA
ATOM     20  C   UNL A   1      34.553  25.222  25.358  1.00  0.00     0.031 C 
ATOM     21  C   UNL A   1      33.813  25.616  24.096  1.00  0.00     0.161 C 
ENDBRANCH  16  17
ENDBRANCH  12  16
ENDBRANCH  10  12
ENDBRANCH   6  10
ENDBRANCH   3   5
ENDBRANCH   2   3
ENDBRANCH   1   2
BRANCH   1  22
ATOM     22  C   UNL A   1      42.995  23.085  25.624  1.00  0.00     0.275 C 
BRANCH  22  23
ATOM     23  O   UNL A   1      42.403  24.019  26.551  1.00  0.00    -0.458 OA
BRANCH  23  24
ATOM     24  C   UNL A   1      42.518  25.328  26.217  1.00  0.00     0.338 C 
ATOM     25  O   UNL A   1      42.858  25.777  25.135  1.00  0.00    -0.246 OA
BRANCH  24  26
ATOM     26  C   UNL A   1      42.089  26.176  27.345  1.00  0.00     0.060 A 
ATOM     27  C   UNL A   1      42.756  27.382  27.559  1.00  0.00     0.016 A 
ATOM     28  C   UNL A   1      41.106  25.751  28.240  1.00  0.00     0.016 A 
ATOM     29  C   UNL A   1      42.463  28.167  28.672  1.00  0.00     0.010 A 
ATOM     30  C   UNL A   1      40.797  26.550  29.349  1.00  0.00     0.010 A 
ATOM     31  C   UNL A   1      41.480  27.758  29.579  1.00  0.00    -0.014 A 
BRANCH  31  32
ATOM     32  C   UNL A   1      41.186  28.581  30.781  1.00  0.00     0.031 A 
ATOM     33  C   UNL A   1      40.071  29.587  30.745  1.00  0.00     0.074 A 
ATOM     34  C   UNL A   1      41.915  28.421  31.901  1.00  0.00     0.049 A 
ATOM     35  N   UNL A   1      39.746  30.493  31.630  1.00  0.00    -0.248 NA
ATOM     36  C   UNL A   1      39.207  29.571  29.554  1.00  0.00     0.031 C 
ATOM     37  C   UNL A   1      42.985  27.437  32.080  1.00  0.00     0.029 A 
ATOM     38  N   UNL A   1      41.871  29.087  33.101  1.00  0.00    -0.354 N 
ATOM     39  C   UNL A   1      38.662  31.177  31.094  1.00  0.00     0.074 A 
ATOM     40  C   UNL A   1      38.388  30.585  29.801  1.00  0.00     0.031 C 
ATOM     41  C   UNL A   1      43.498  27.566  33.314  1.00  0.00     0.029 A 
ATOM     42  C   UNL A   1      42.834  28.676  33.994  1.00  0.00     0.049 A 
ATOM     43  H   UNL A   1      41.214  29.791  33.304  1.00  0.00     0.167 HD
ATOM     44  C   UNL A   1      37.963  32.206  31.631  1.00  0.00     0.037 A 
ATOM     45  C   UNL A   1      43.171  29.163  35.204  1.00  0.00     0.037 A 
ATOM     46  C   UNL A   1      38.229  32.772  32.929  1.00  0.00     0.049 A 
ATOM     47  C   UNL A   1      42.419  30.344  35.756  1.00  0.00     0.074 A 
ATOM     48  C   UNL A   1      37.575  33.814  33.563  1.00  0.00     0.029 A 
ATOM     49  N   UNL A   1      39.227  32.342  33.792  1.00  0.00    -0.354 N 
ATOM     50  N   UNL A   1      41.416  31.001  35.225  1.00  0.00    -0.248 NA
ATOM     51  C   UNL A   1      42.850  30.858  37.065  1.00  0.00     0.031 C 
ATOM     52  C   UNL A   1      38.199  34.037  34.795  1.00  0.00     0.029 A 
ATOM     53  C   UNL A   1      39.216  33.107  34.946  1.00  0.00     0.049 A 
ATOM     54  H   UNL A   1      39.849  31.602  33.610  1.00  0.00     0.167 HD
ATOM     55  C   UNL A   1      41.083  31.992  36.142  1.00  0.00     0.074 A 
ATOM     56  C   UNL A   1      41.987  31.845  37.264  1.00  0.00     0.031 C 
ATOM     57  C   UNL A   1      40.114  32.937  36.061  1.00  0.00     0.037 A 
BRANCH  44  58
ATOM     58  C   UNL A   1      36.865  32.810  30.803  1.00  0.00     0.058 A 
ATOM     59  C   UNL A   1      37.121  33.783  29.824  1.00  0.00     0.135 A 
ATOM     60  C   UNL A   1      35.536  32.387  30.973  1.00  0.00     0.135 A 
ATOM     61  F   UNL A   1      38.370  34.234  29.632  1.00  0.00    -0.206 F 
ATOM     62  C   UNL A   1      36.096  34.334  29.061  1.00  0.00     0.059 A 
ATOM     63  C   UNL A   1      34.498  32.907  30.206  1.00  0.00     0.059 A 
ATOM     64  F   UNL A   1      35.236  31.459  31.896  1.00  0.00    -0.206 F 
ATOM     65  C   UNL A   1      34.787  33.893  29.263  1.00  0.00     0.060 A 
BRANCH  65  66
ATOM     66  S   UNL A   1      33.463  34.621  28.273  1.00  0.00     0.124 S 
ATOM     67  O   UNL A   1      32.792  33.429  27.765  1.00  0.00    -0.237 OA
ATOM     68  O   UNL A   1      32.719  35.394  29.263  1.00  0.00    -0.237 OA
ATOM     69  O   UNL A   1      34.180  35.411  27.277  1.00  0.00    -0.744 OA
ENDBRANCH  65  66
ENDBRANCH  44  58
BRANCH  45  70
ATOM     70  C   UNL A   1      44.297  28.553  35.959  1.00  0.00     0.058 A 
ATOM     71  C   UNL A   1      45.606  29.035  35.822  1.00  0.00     0.135 A 
ATOM     72  C   UNL A   1      44.082  27.486  36.847  1.00  0.00     0.135 A 
ATOM     73  F   UNL A   1      45.864  30.045  34.977  1.00  0.00    -0.206 F 
ATOM     74  C   UNL A   1      46.665  28.479  36.534  1.00  0.00     0.059 A 
ATOM     75  C   UNL A   1      45.119  26.930  37.587  1.00  0.00     0.059 A 
ATOM     76  F   UNL A   1      42.845  26.994  37.020  1.00  0.00    -0.206 F 
ATOM     77  C   UNL A   1      46.410  27.428  37.418  1.00  0.00     0.060 A 
BRANCH  77  78
ATOM     78  S   UNL A   1      47.780  26.748  38.379  1.00  0.00     0.124 S 
ATOM     79  O   UNL A   1      48.624  27.923  38.557  1.00  0.00    -0.237 OA
ATOM     80  O   UNL A   1      47.104  26.260  39.577  1.00  0.00    -0.237 OA
ATOM     81  O   UNL A   1      48.317  25.709  37.506  1.00  0.00    -0.744 OA
ENDBRANCH  77  78
ENDBRANCH  45  70
BRANCH  57  82
ATOM     82  C   UNL A   1      39.950  33.867  37.228  1.00  0.00     0.058 A 
ATOM     83  C   UNL A   1      39.131  33.541  38.319  1.00  0.00     0.135 A 
ATOM     84  C   UNL A   1      40.689  35.060  37.293  1.00  0.00     0.135 A 
ATOM     85  F   UNL A   1      38.398  32.416  38.301  1.00  0.00    -0.206 F 
ATOM     86  C   UNL A   1      39.045  34.368  39.434  1.00  0.00     0.059 A 
ATOM     87  C   UNL A   1      40.635  35.892  38.407  1.00  0.00     0.059 A 
ATOM     88  F   UNL A   1      41.493  35.412  36.277  1.00  0.00    -0.206 F 
ATOM     89  C   UNL A   1      39.807  35.539  39.472  1.00  0.00     0.060 A 
BRANCH  89  90
ATOM     90  S   UNL A   1      39.740  36.570  40.953  1.00  0.00     0.124 S 
ATOM     91  O   UNL A   1      38.698  37.526  40.598  1.00  0.00    -0.237 OA
ATOM     92  O   UNL A   1      39.391  35.606  41.992  1.00  0.00    -0.237 OA
ATOM     93  O   UNL A   1      41.090  37.118  41.045  1.00  0.00    -0.744 OA
ENDBRANCH  89  90
ENDBRANCH  57  82
ENDBRANCH  31  32
ENDBRANCH  24  26
ENDBRANCH  23  24
ENDBRANCH  22  23
ENDBRANCH   1  22
TORSDOF 19
ENDMDL
