MODEL 1
REMARK VINA RESULT:     -11.5      0.000      0.000
REMARK SMILES CC(C)Cc1cc2c(cc1Cl)C=C(C(=O)OCCOC(=O)c1ccc(-c3c4nc(c(-c5c(F)cc(S(=O)(=O)[O-])cc5F)c5ccc([nH]5)c(-c5c(F)cc(S(=O)(=O)[O-])cc5F)c5nc(c(-c6c(F)cc(S(=O)(=O)[O-])cc6F)c6ccc3[nH]6)C=C5)C=C4)cc1)[C@@H](C(F)(F)F)O2
REMARK SMILES IDX 18 1 17 2 16 3 14 4 15 5 13 6 5 7 6 8 10 9 7 10 9 11 11 12
REMARK SMILES IDX 8 13 93 14 12 15 88 16 4 17 2 18 1 19 3 20 89 21 90 22 91 23
REMARK SMILES IDX 92 24 19 25 20 26 21 27 22 28 23 29 87 30 24 31 86 32 25 33
REMARK SMILES IDX 26 34 27 35 80 36 28 37 85 38 79 39 81 40 29 41 84 42 78 43
REMARK SMILES IDX 77 44 30 46 64 47 43 48 63 49 44 50 47 51 62 52 82 53 45 54
REMARK SMILES IDX 46 55 61 57 83 58 48 59 31 60 32 61 41 62 33 63 34 64 40 65
REMARK SMILES IDX 42 66 35 67 36 68 37 69 38 70 39 71 65 72 66 73 75 74 67 75
REMARK SMILES IDX 68 76 74 77 76 78 69 79 70 80 71 81 72 82 73 83 49 84 50 85
REMARK SMILES IDX 59 86 51 87 52 88 58 89 60 90 53 91 54 92 55 93 56 94 57 95
REMARK H PARENT 81 45 47 56
REMARK Flexibility Score: inf
ROOT
ATOM      1  C   UNL A   1      32.425  28.761  27.231  1.00  0.00     0.275 C 
ENDROOT
BRANCH   1   2
ATOM      2  C   UNL A   1      32.288  27.913  25.967  1.00  0.00     0.275 C 
BRANCH   2   3
ATOM      3  O   UNL A   1      33.571  27.412  25.535  1.00  0.00    -0.459 OA
BRANCH   3   4
ATOM      4  C   UNL A   1      33.558  26.693  24.390  1.00  0.00     0.338 C 
ATOM      5  O   UNL A   1      33.632  27.131  23.253  1.00  0.00    -0.246 OA
BRANCH   4   6
ATOM      6  C   UNL A   1      33.453  25.253  24.685  1.00  0.00     0.087 C 
ATOM      7  C   UNL A   1      34.404  20.335  24.835  1.00  0.00    -0.025 A 
ATOM      8  C   UNL A   1      33.226  21.110  24.888  1.00  0.00     0.052 A 
ATOM      9  C   UNL A   1      35.645  20.987  24.921  1.00  0.00     0.045 A 
ATOM     10  C   UNL A   1      33.285  22.500  24.924  1.00  0.00     0.128 A 
ATOM     11  C   UNL A   1      35.701  22.379  24.986  1.00  0.00     0.032 A 
ATOM     12  Cl  UNL A   1      37.147  20.138  24.891  1.00  0.00    -0.084 Cl
ATOM     13  C   UNL A   1      34.523  23.131  24.952  1.00  0.00     0.019 A 
ATOM     14  O   UNL A   1      32.094  23.171  24.911  1.00  0.00    -0.475 OA
ATOM     15  C   UNL A   1      34.589  24.573  24.866  1.00  0.00     0.027 C 
ATOM     16  C   UNL A   1      32.105  24.599  24.619  1.00  0.00     0.316 C 
BRANCH   7  17
ATOM     17  C   UNL A   1      34.277  18.850  24.585  1.00  0.00     0.040 C 
BRANCH  17  18
ATOM     18  C   UNL A   1      32.819  18.424  24.301  1.00  0.00    -0.013 C 
ATOM     19  C   UNL A   1      32.584  18.051  22.833  1.00  0.00     0.008 C 
ATOM     20  C   UNL A   1      32.435  17.249  25.200  1.00  0.00     0.008 C 
ENDBRANCH  17  18
ENDBRANCH   7  17
BRANCH  16  21
ATOM     21  C   UNL A   1      31.424  24.837  23.263  1.00  0.00     0.430 C 
ATOM     22  F   UNL A   1      32.310  24.723  22.243  1.00  0.00    -0.167 F 
ATOM     23  F   UNL A   1      30.452  23.922  23.026  1.00  0.00    -0.167 F 
ATOM     24  F   UNL A   1      30.861  26.062  23.174  1.00  0.00    -0.167 F 
ENDBRANCH  16  21
ENDBRANCH   4   6
ENDBRANCH   3   4
ENDBRANCH   2   3
ENDBRANCH   1   2
BRANCH   1  25
ATOM     25  O   UNL A   1      33.791  28.777  27.682  1.00  0.00    -0.458 OA
BRANCH  25  26
ATOM     26  C   UNL A   1      34.326  30.004  27.869  1.00  0.00     0.338 C 
ATOM     27  O   UNL A   1      33.751  31.078  27.826  1.00  0.00    -0.246 OA
BRANCH  26  28
ATOM     28  C   UNL A   1      35.741  29.868  28.241  1.00  0.00     0.060 A 
ATOM     29  C   UNL A   1      36.115  29.346  29.474  1.00  0.00     0.016 A 
ATOM     30  C   UNL A   1      36.702  30.127  27.272  1.00  0.00     0.016 A 
ATOM     31  C   UNL A   1      37.471  29.098  29.724  1.00  0.00     0.010 A 
ATOM     32  C   UNL A   1      38.018  29.721  27.461  1.00  0.00     0.010 A 
ATOM     33  C   UNL A   1      38.435  29.241  28.705  1.00  0.00    -0.014 A 
BRANCH  33  34
ATOM     34  C   UNL A   1      39.875  28.918  28.922  1.00  0.00     0.031 A 
ATOM     35  C   UNL A   1      40.806  29.940  29.541  1.00  0.00     0.074 A 
ATOM     36  C   UNL A   1      40.366  27.730  28.515  1.00  0.00     0.049 A 
ATOM     37  N   UNL A   1      42.096  29.866  29.747  1.00  0.00    -0.248 NA
ATOM     38  C   UNL A   1      40.220  31.232  29.938  1.00  0.00     0.031 C 
ATOM     39  C   UNL A   1      39.601  26.687  27.826  1.00  0.00     0.029 A 
ATOM     40  N   UNL A   1      41.624  27.191  28.627  1.00  0.00    -0.354 N 
ATOM     41  C   UNL A   1      42.473  31.103  30.264  1.00  0.00     0.074 A 
ATOM     42  C   UNL A   1      41.293  31.936  30.267  1.00  0.00     0.031 C 
ATOM     43  C   UNL A   1      40.382  25.612  27.643  1.00  0.00     0.029 A 
ATOM     44  C   UNL A   1      41.718  25.903  28.152  1.00  0.00     0.049 A 
ATOM     45  H   UNL A   1      42.387  27.680  29.011  1.00  0.00     0.167 HD
ATOM     46  C   UNL A   1      43.679  31.500  30.738  1.00  0.00     0.037 A 
ATOM     47  C   UNL A   1      42.759  25.048  28.135  1.00  0.00     0.037 A 
ATOM     48  C   UNL A   1      44.837  30.648  30.793  1.00  0.00     0.049 A 
ATOM     49  C   UNL A   1      44.075  25.490  28.711  1.00  0.00     0.074 A 
ATOM     50  C   UNL A   1      46.089  30.927  31.312  1.00  0.00     0.029 A 
ATOM     51  N   UNL A   1      44.879  29.341  30.329  1.00  0.00    -0.354 N 
ATOM     52  N   UNL A   1      44.397  26.650  29.235  1.00  0.00    -0.248 NA
ATOM     53  C   UNL A   1      45.167  24.508  28.703  1.00  0.00     0.031 C 
ATOM     54  C   UNL A   1      46.897  29.799  31.134  1.00  0.00     0.029 A 
ATOM     55  C   UNL A   1      46.135  28.802  30.548  1.00  0.00     0.049 A 
ATOM     56  H   UNL A   1      44.126  28.866  29.907  1.00  0.00     0.167 HD
ATOM     57  C   UNL A   1      45.722  26.529  29.637  1.00  0.00     0.074 A 
ATOM     58  C   UNL A   1      46.135  25.178  29.313  1.00  0.00     0.031 C 
ATOM     59  C   UNL A   1      46.526  27.453  30.221  1.00  0.00     0.037 A 
BRANCH  46  60
ATOM     60  C   UNL A   1      43.798  32.905  31.271  1.00  0.00     0.058 A 
ATOM     61  C   UNL A   1      43.562  33.200  32.625  1.00  0.00     0.135 A 
ATOM     62  C   UNL A   1      44.192  33.963  30.435  1.00  0.00     0.135 A 
ATOM     63  F   UNL A   1      43.167  32.234  33.469  1.00  0.00    -0.206 F 
ATOM     64  C   UNL A   1      43.684  34.493  33.123  1.00  0.00     0.059 A 
ATOM     65  C   UNL A   1      44.353  35.259  30.920  1.00  0.00     0.059 A 
ATOM     66  F   UNL A   1      44.433  33.742  29.134  1.00  0.00    -0.206 F 
ATOM     67  C   UNL A   1      44.084  35.517  32.264  1.00  0.00     0.060 A 
BRANCH  67  68
ATOM     68  S   UNL A   1      44.259  37.182  32.936  1.00  0.00     0.124 S 
ATOM     69  O   UNL A   1      45.554  37.093  33.605  1.00  0.00    -0.237 OA
ATOM     70  O   UNL A   1      44.224  38.008  31.734  1.00  0.00    -0.237 OA
ATOM     71  O   UNL A   1      43.106  37.318  33.820  1.00  0.00    -0.744 OA
ENDBRANCH  67  68
ENDBRANCH  46  60
BRANCH  47  72
ATOM     72  C   UNL A   1      42.573  23.669  27.608  1.00  0.00     0.058 A 
ATOM     73  C   UNL A   1      42.686  23.404  26.235  1.00  0.00     0.135 A 
ATOM     74  C   UNL A   1      42.327  22.582  28.463  1.00  0.00     0.135 A 
ATOM     75  F   UNL A   1      42.915  24.410  25.376  1.00  0.00    -0.206 F 
ATOM     76  C   UNL A   1      42.560  22.116  25.726  1.00  0.00     0.059 A 
ATOM     77  C   UNL A   1      42.222  21.281  27.981  1.00  0.00     0.059 A 
ATOM     78  F   UNL A   1      42.228  22.779  29.787  1.00  0.00    -0.206 F 
ATOM     79  C   UNL A   1      42.337  21.059  26.609  1.00  0.00     0.060 A 
BRANCH  79  80
ATOM     80  S   UNL A   1      42.249  19.382  25.942  1.00  0.00     0.124 S 
ATOM     81  O   UNL A   1      42.790  18.597  27.044  1.00  0.00    -0.237 OA
ATOM     82  O   UNL A   1      40.820  19.230  25.690  1.00  0.00    -0.237 OA
ATOM     83  O   UNL A   1      43.084  19.451  24.746  1.00  0.00    -0.744 OA
ENDBRANCH  79  80
ENDBRANCH  47  72
BRANCH  59  84
ATOM     84  C   UNL A   1      47.922  27.025  30.576  1.00  0.00     0.058 A 
ATOM     85  C   UNL A   1      49.004  27.244  29.709  1.00  0.00     0.135 A 
ATOM     86  C   UNL A   1      48.185  26.426  31.819  1.00  0.00     0.135 A 
ATOM     87  F   UNL A   1      48.805  27.810  28.510  1.00  0.00    -0.206 F 
ATOM     88  C   UNL A   1      50.294  26.850  30.047  1.00  0.00     0.059 A 
ATOM     89  C   UNL A   1      49.472  26.052  32.190  1.00  0.00     0.059 A 
ATOM     90  F   UNL A   1      47.188  26.208  32.691  1.00  0.00    -0.206 F 
ATOM     91  C   UNL A   1      50.518  26.254  31.291  1.00  0.00     0.060 A 
BRANCH  91  92
ATOM     92  S   UNL A   1      52.199  25.756  31.718  1.00  0.00     0.124 S 
ATOM     93  O   UNL A   1      52.903  25.992  30.462  1.00  0.00    -0.237 OA
ATOM     94  O   UNL A   1      52.526  26.669  32.809  1.00  0.00    -0.237 OA
ATOM     95  O   UNL A   1      52.053  24.355  32.103  1.00  0.00    -0.744 OA
ENDBRANCH  91  92
ENDBRANCH  59  84
ENDBRANCH  33  34
ENDBRANCH  26  28
ENDBRANCH  25  26
ENDBRANCH   1  25
TORSDOF 17
ENDMDL
MODEL 2
REMARK VINA RESULT:     -11.4      5.044     10.514
REMARK SMILES CC(C)Cc1cc2c(cc1Cl)C=C(C(=O)OCCOC(=O)c1ccc(-c3c4nc(c(-c5c(F)cc(S(=O)(=O)[O-])cc5F)c5ccc([nH]5)c(-c5c(F)cc(S(=O)(=O)[O-])cc5F)c5nc(c(-c6c(F)cc(S(=O)(=O)[O-])cc6F)c6ccc3[nH]6)C=C5)C=C4)cc1)[C@@H](C(F)(F)F)O2
REMARK SMILES IDX 18 1 17 2 16 3 14 4 15 5 13 6 5 7 6 8 10 9 7 10 9 11 11 12
REMARK SMILES IDX 8 13 93 14 12 15 88 16 4 17 2 18 1 19 3 20 89 21 90 22 91 23
REMARK SMILES IDX 92 24 19 25 20 26 21 27 22 28 23 29 87 30 24 31 86 32 25 33
REMARK SMILES IDX 26 34 27 35 80 36 28 37 85 38 79 39 81 40 29 41 84 42 78 43
REMARK SMILES IDX 77 44 30 46 64 47 43 48 63 49 44 50 47 51 62 52 82 53 45 54
REMARK SMILES IDX 46 55 61 57 83 58 48 59 31 60 32 61 41 62 33 63 34 64 40 65
REMARK SMILES IDX 42 66 35 67 36 68 37 69 38 70 39 71 65 72 66 73 75 74 67 75
REMARK SMILES IDX 68 76 74 77 76 78 69 79 70 80 71 81 72 82 73 83 49 84 50 85
REMARK SMILES IDX 59 86 51 87 52 88 58 89 60 90 53 91 54 92 55 93 56 94 57 95
REMARK H PARENT 81 45 47 56
REMARK Flexibility Score: inf
ROOT
ATOM      1  C   UNL A   1      39.266  22.941  26.429  1.00  0.00     0.275 C 
ENDROOT
BRANCH   1   2
ATOM      2  C   UNL A   1      37.978  22.473  25.752  1.00  0.00     0.275 C 
BRANCH   2   3
ATOM      3  O   UNL A   1      37.186  23.596  25.308  1.00  0.00    -0.459 OA
BRANCH   3   4
ATOM      4  C   UNL A   1      35.897  23.593  25.714  1.00  0.00     0.338 C 
ATOM      5  O   UNL A   1      35.436  22.999  26.676  1.00  0.00    -0.246 OA
BRANCH   4   6
ATOM      6  C   UNL A   1      35.075  24.437  24.829  1.00  0.00     0.087 C 
ATOM      7  C   UNL A   1      31.601  27.652  23.183  1.00  0.00    -0.025 A 
ATOM      8  C   UNL A   1      32.255  26.539  22.616  1.00  0.00     0.052 A 
ATOM      9  C   UNL A   1      32.062  28.153  24.411  1.00  0.00     0.045 A 
ATOM     10  C   UNL A   1      33.274  25.883  23.301  1.00  0.00     0.128 A 
ATOM     11  C   UNL A   1      33.103  27.512  25.082  1.00  0.00     0.032 A 
ATOM     12  Cl  UNL A   1      31.353  29.524  25.184  1.00  0.00    -0.084 Cl
ATOM     13  C   UNL A   1      33.681  26.358  24.542  1.00  0.00     0.019 A 
ATOM     14  O   UNL A   1      33.810  24.776  22.703  1.00  0.00    -0.475 OA
ATOM     15  C   UNL A   1      34.652  25.610  25.308  1.00  0.00     0.027 C 
ATOM     16  C   UNL A   1      34.631  23.880  23.508  1.00  0.00     0.316 C 
BRANCH   7  17
ATOM     17  C   UNL A   1      30.369  28.190  22.492  1.00  0.00     0.040 C 
BRANCH  17  18
ATOM     18  C   UNL A   1      29.118  28.142  23.398  1.00  0.00    -0.013 C 
ATOM     19  C   UNL A   1      27.919  28.883  22.794  1.00  0.00     0.008 C 
ATOM     20  C   UNL A   1      28.736  26.690  23.684  1.00  0.00     0.008 C 
ENDBRANCH  17  18
ENDBRANCH   7  17
BRANCH  16  21
ATOM     21  C   UNL A   1      33.896  22.542  23.673  1.00  0.00     0.430 C 
ATOM     22  F   UNL A   1      33.000  22.598  24.690  1.00  0.00    -0.167 F 
ATOM     23  F   UNL A   1      33.189  22.221  22.562  1.00  0.00    -0.167 F 
ATOM     24  F   UNL A   1      34.737  21.517  23.933  1.00  0.00    -0.167 F 
ENDBRANCH  16  21
ENDBRANCH   4   6
ENDBRANCH   3   4
ENDBRANCH   2   3
ENDBRANCH   1   2
BRANCH   1  25
ATOM     25  O   UNL A   1      39.278  24.374  26.556  1.00  0.00    -0.458 OA
BRANCH  25  26
ATOM     26  C   UNL A   1      40.504  24.940  26.617  1.00  0.00     0.338 C 
ATOM     27  O   UNL A   1      41.407  24.845  25.804  1.00  0.00    -0.246 OA
BRANCH  26  28
ATOM     28  C   UNL A   1      40.582  25.805  27.803  1.00  0.00     0.060 A 
ATOM     29  C   UNL A   1      41.567  26.778  27.921  1.00  0.00     0.016 A 
ATOM     30  C   UNL A   1      39.555  25.734  28.737  1.00  0.00     0.016 A 
ATOM     31  C   UNL A   1      41.512  27.674  28.997  1.00  0.00     0.010 A 
ATOM     32  C   UNL A   1      39.411  26.726  29.699  1.00  0.00     0.010 A 
ATOM     33  C   UNL A   1      40.410  27.688  29.875  1.00  0.00    -0.014 A 
BRANCH  33  34
ATOM     34  C   UNL A   1      40.291  28.674  30.988  1.00  0.00     0.031 A 
ATOM     35  C   UNL A   1      41.196  28.579  32.197  1.00  0.00     0.074 A 
ATOM     36  C   UNL A   1      39.335  29.624  30.944  1.00  0.00     0.049 A 
ATOM     37  N   UNL A   1      41.199  29.303  33.289  1.00  0.00    -0.248 NA
ATOM     38  C   UNL A   1      42.203  27.503  32.204  1.00  0.00     0.031 C 
ATOM     39  C   UNL A   1      38.339  29.777  29.879  1.00  0.00     0.029 A 
ATOM     40  N   UNL A   1      39.045  30.650  31.810  1.00  0.00    -0.354 N 
ATOM     41  C   UNL A   1      42.175  28.750  34.113  1.00  0.00     0.074 A 
ATOM     42  C   UNL A   1      42.691  27.585  33.433  1.00  0.00     0.031 C 
ATOM     43  C   UNL A   1      37.599  30.871  30.118  1.00  0.00     0.029 A 
ATOM     44  C   UNL A   1      38.029  31.470  31.377  1.00  0.00     0.049 A 
ATOM     45  H   UNL A   1      39.521  30.784  32.661  1.00  0.00     0.167 HD
ATOM     46  C   UNL A   1      42.637  29.194  35.308  1.00  0.00     0.037 A 
ATOM     47  C   UNL A   1      37.506  32.584  31.925  1.00  0.00     0.037 A 
ATOM     48  C   UNL A   1      42.166  30.390  35.952  1.00  0.00     0.049 A 
ATOM     49  C   UNL A   1      38.067  33.088  33.225  1.00  0.00     0.074 A 
ATOM     50  C   UNL A   1      42.609  30.966  37.131  1.00  0.00     0.029 A 
ATOM     51  N   UNL A   1      41.157  31.208  35.463  1.00  0.00    -0.354 N 
ATOM     52  N   UNL A   1      39.021  32.574  33.966  1.00  0.00    -0.248 NA
ATOM     53  C   UNL A   1      37.489  34.327  33.762  1.00  0.00     0.031 C 
ATOM     54  C   UNL A   1      41.848  32.114  37.369  1.00  0.00     0.029 A 
ATOM     55  C   UNL A   1      40.962  32.280  36.316  1.00  0.00     0.049 A 
ATOM     56  H   UNL A   1      40.654  31.048  34.632  1.00  0.00     0.167 HD
ATOM     57  C   UNL A   1      39.171  33.438  35.045  1.00  0.00     0.074 A 
ATOM     58  C   UNL A   1      38.223  34.517  34.850  1.00  0.00     0.031 C 
ATOM     59  C   UNL A   1      40.016  33.346  36.103  1.00  0.00     0.037 A 
BRANCH  46  60
ATOM     60  C   UNL A   1      43.734  28.404  35.975  1.00  0.00     0.058 A 
ATOM     61  C   UNL A   1      43.449  27.323  36.826  1.00  0.00     0.135 A 
ATOM     62  C   UNL A   1      45.085  28.699  35.731  1.00  0.00     0.135 A 
ATOM     63  F   UNL A   1      42.176  27.003  37.110  1.00  0.00    -0.206 F 
ATOM     64  C   UNL A   1      44.459  26.584  37.433  1.00  0.00     0.059 A 
ATOM     65  C   UNL A   1      46.114  27.952  36.301  1.00  0.00     0.059 A 
ATOM     66  F   UNL A   1      45.420  29.719  34.926  1.00  0.00    -0.206 F 
ATOM     67  C   UNL A   1      45.790  26.903  37.161  1.00  0.00     0.060 A 
BRANCH  67  68
ATOM     68  S   UNL A   1      47.085  25.915  37.940  1.00  0.00     0.124 S 
ATOM     69  O   UNL A   1      46.409  24.633  38.116  1.00  0.00    -0.237 OA
ATOM     70  O   UNL A   1      48.142  25.940  36.934  1.00  0.00    -0.237 OA
ATOM     71  O   UNL A   1      47.377  26.644  39.170  1.00  0.00    -0.744 OA
ENDBRANCH  67  68
ENDBRANCH  46  60
BRANCH  47  72
ATOM     72  C   UNL A   1      36.435  33.327  31.208  1.00  0.00     0.058 A 
ATOM     73  C   UNL A   1      36.719  34.034  30.030  1.00  0.00     0.135 A 
ATOM     74  C   UNL A   1      35.104  33.309  31.652  1.00  0.00     0.135 A 
ATOM     75  F   UNL A   1      37.978  34.086  29.567  1.00  0.00    -0.206 F 
ATOM     76  C   UNL A   1      35.725  34.698  29.319  1.00  0.00     0.059 A 
ATOM     77  C   UNL A   1      34.087  33.944  30.945  1.00  0.00     0.059 A 
ATOM     78  F   UNL A   1      34.776  32.632  32.764  1.00  0.00    -0.206 F 
ATOM     79  C   UNL A   1      34.410  34.641  29.780  1.00  0.00     0.060 A 
BRANCH  79  80
ATOM     80  S   UNL A   1      33.119  35.445  28.807  1.00  0.00     0.124 S 
ATOM     81  O   UNL A   1      32.283  36.028  29.850  1.00  0.00    -0.237 OA
ATOM     82  O   UNL A   1      33.888  36.390  28.003  1.00  0.00    -0.237 OA
ATOM     83  O   UNL A   1      32.521  34.342  28.061  1.00  0.00    -0.744 OA
ENDBRANCH  79  80
ENDBRANCH  47  72
BRANCH  59  84
ATOM     84  C   UNL A   1      39.976  34.458  37.113  1.00  0.00     0.058 A 
ATOM     85  C   UNL A   1      40.801  35.587  37.000  1.00  0.00     0.135 A 
ATOM     86  C   UNL A   1      39.069  34.410  38.185  1.00  0.00     0.135 A 
ATOM     87  F   UNL A   1      41.686  35.680  35.996  1.00  0.00    -0.206 F 
ATOM     88  C   UNL A   1      40.755  36.616  37.935  1.00  0.00     0.059 A 
ATOM     89  C   UNL A   1      38.985  35.441  39.114  1.00  0.00     0.059 A 
ATOM     90  F   UNL A   1      38.247  33.359  38.330  1.00  0.00    -0.206 F 
ATOM     91  C   UNL A   1      39.843  36.532  38.990  1.00  0.00     0.060 A 
BRANCH  91  92
ATOM     92  S   UNL A   1      39.789  37.878  40.191  1.00  0.00     0.124 S 
ATOM     93  O   UNL A   1      39.440  37.165  41.415  1.00  0.00    -0.237 OA
ATOM     94  O   UNL A   1      41.148  38.406  40.129  1.00  0.00    -0.237 OA
ATOM     95  O   UNL A   1      38.754  38.764  39.664  1.00  0.00    -0.744 OA
ENDBRANCH  91  92
ENDBRANCH  59  84
ENDBRANCH  33  34
ENDBRANCH  26  28
ENDBRANCH  25  26
ENDBRANCH   1  25
TORSDOF 17
ENDMDL
MODEL 3
REMARK VINA RESULT:     -11.4      4.978     10.511
REMARK SMILES CC(C)Cc1cc2c(cc1Cl)C=C(C(=O)OCCOC(=O)c1ccc(-c3c4nc(c(-c5c(F)cc(S(=O)(=O)[O-])cc5F)c5ccc([nH]5)c(-c5c(F)cc(S(=O)(=O)[O-])cc5F)c5nc(c(-c6c(F)cc(S(=O)(=O)[O-])cc6F)c6ccc3[nH]6)C=C5)C=C4)cc1)[C@@H](C(F)(F)F)O2
REMARK SMILES IDX 18 1 17 2 16 3 14 4 15 5 13 6 5 7 6 8 10 9 7 10 9 11 11 12
REMARK SMILES IDX 8 13 93 14 12 15 88 16 4 17 2 18 1 19 3 20 89 21 90 22 91 23
REMARK SMILES IDX 92 24 19 25 20 26 21 27 22 28 23 29 87 30 24 31 86 32 25 33
REMARK SMILES IDX 26 34 27 35 80 36 28 37 85 38 79 39 81 40 29 41 84 42 78 43
REMARK SMILES IDX 77 44 30 46 64 47 43 48 63 49 44 50 47 51 62 52 82 53 45 54
REMARK SMILES IDX 46 55 61 57 83 58 48 59 31 60 32 61 41 62 33 63 34 64 40 65
REMARK SMILES IDX 42 66 35 67 36 68 37 69 38 70 39 71 65 72 66 73 75 74 67 75
REMARK SMILES IDX 68 76 74 77 76 78 69 79 70 80 71 81 72 82 73 83 49 84 50 85
REMARK SMILES IDX 59 86 51 87 52 88 58 89 60 90 53 91 54 92 55 93 56 94 57 95
REMARK H PARENT 81 45 47 56
REMARK Flexibility Score: inf
ROOT
ATOM      1  C   UNL A   1      40.549  22.818  26.068  1.00  0.00     0.275 C 
ENDROOT
BRANCH   1   2
ATOM      2  C   UNL A   1      39.233  22.331  26.675  1.00  0.00     0.275 C 
BRANCH   2   3
ATOM      3  O   UNL A   1      38.103  22.992  26.066  1.00  0.00    -0.459 OA
BRANCH   3   4
ATOM      4  C   UNL A   1      37.417  22.254  25.164  1.00  0.00     0.338 C 
ATOM      5  O   UNL A   1      37.778  21.205  24.655  1.00  0.00    -0.246 OA
BRANCH   4   6
ATOM      6  C   UNL A   1      36.120  22.883  24.861  1.00  0.00     0.087 C 
ATOM      7  C   UNL A   1      32.019  25.747  25.179  1.00  0.00    -0.025 A 
ATOM      8  C   UNL A   1      32.297  24.491  24.600  1.00  0.00     0.052 A 
ATOM      9  C   UNL A   1      33.088  26.522  25.654  1.00  0.00     0.045 A 
ATOM     10  C   UNL A   1      33.592  23.980  24.587  1.00  0.00     0.128 A 
ATOM     11  C   UNL A   1      34.389  26.021  25.614  1.00  0.00     0.032 A 
ATOM     12  Cl  UNL A   1      32.866  28.083  26.359  1.00  0.00    -0.084 Cl
ATOM     13  C   UNL A   1      34.631  24.738  25.113  1.00  0.00     0.019 A 
ATOM     14  O   UNL A   1      33.760  22.729  24.061  1.00  0.00    -0.475 OA
ATOM     15  C   UNL A   1      35.954  24.162  25.212  1.00  0.00     0.027 C 
ATOM     16  C   UNL A   1      35.012  22.029  24.319  1.00  0.00     0.316 C 
BRANCH   7  17
ATOM     17  C   UNL A   1      30.573  26.153  25.352  1.00  0.00     0.040 C 
BRANCH  17  18
ATOM     18  C   UNL A   1      29.928  26.615  24.027  1.00  0.00    -0.013 C 
ATOM     19  C   UNL A   1      28.401  26.479  24.030  1.00  0.00     0.008 C 
ATOM     20  C   UNL A   1      30.317  28.064  23.736  1.00  0.00     0.008 C 
ENDBRANCH  17  18
ENDBRANCH   7  17
BRANCH  16  21
ATOM     21  C   UNL A   1      34.731  20.821  25.225  1.00  0.00     0.430 C 
ATOM     22  F   UNL A   1      33.409  20.520  25.245  1.00  0.00    -0.167 F 
ATOM     23  F   UNL A   1      35.368  19.708  24.784  1.00  0.00    -0.167 F 
ATOM     24  F   UNL A   1      35.116  21.032  26.503  1.00  0.00    -0.167 F 
ENDBRANCH  16  21
ENDBRANCH   4   6
ENDBRANCH   3   4
ENDBRANCH   2   3
ENDBRANCH   1   2
BRANCH   1  25
ATOM     25  O   UNL A   1      41.246  23.670  26.994  1.00  0.00    -0.458 OA
BRANCH  25  26
ATOM     26  C   UNL A   1      41.556  24.901  26.528  1.00  0.00     0.338 C 
ATOM     27  O   UNL A   1      42.018  25.186  25.437  1.00  0.00    -0.246 OA
BRANCH  26  28
ATOM     28  C   UNL A   1      41.160  25.911  27.519  1.00  0.00     0.060 A 
ATOM     29  C   UNL A   1      40.091  25.694  28.380  1.00  0.00     0.016 A 
ATOM     30  C   UNL A   1      41.975  27.024  27.684  1.00  0.00     0.016 A 
ATOM     31  C   UNL A   1      39.845  26.618  29.404  1.00  0.00     0.010 A 
ATOM     32  C   UNL A   1      41.831  27.841  28.799  1.00  0.00     0.010 A 
ATOM     33  C   UNL A   1      40.738  27.680  29.654  1.00  0.00    -0.014 A 
BRANCH  33  34
ATOM     34  C   UNL A   1      40.538  28.640  30.779  1.00  0.00     0.031 A 
ATOM     35  C   UNL A   1      41.403  28.559  32.019  1.00  0.00     0.074 A 
ATOM     36  C   UNL A   1      39.545  29.550  30.717  1.00  0.00     0.049 A 
ATOM     37  N   UNL A   1      41.336  29.261  33.122  1.00  0.00    -0.248 NA
ATOM     38  C   UNL A   1      42.453  27.525  32.044  1.00  0.00     0.031 C 
ATOM     39  C   UNL A   1      38.582  29.682  29.619  1.00  0.00     0.029 A 
ATOM     40  N   UNL A   1      39.182  30.546  31.590  1.00  0.00    -0.354 N 
ATOM     41  C   UNL A   1      42.305  28.734  33.971  1.00  0.00     0.074 A 
ATOM     42  C   UNL A   1      42.893  27.604  33.290  1.00  0.00     0.031 C 
ATOM     43  C   UNL A   1      37.790  30.739  29.850  1.00  0.00     0.029 A 
ATOM     44  C   UNL A   1      38.149  31.331  31.134  1.00  0.00     0.049 A 
ATOM     45  H   UNL A   1      39.621  30.684  32.460  1.00  0.00     0.167 HD
ATOM     46  C   UNL A   1      42.705  29.174  35.190  1.00  0.00     0.037 A 
ATOM     47  C   UNL A   1      37.560  32.413  31.682  1.00  0.00     0.037 A 
ATOM     48  C   UNL A   1      42.162  30.337  35.838  1.00  0.00     0.049 A 
ATOM     49  C   UNL A   1      38.053  32.915  33.011  1.00  0.00     0.074 A 
ATOM     50  C   UNL A   1      42.538  30.908  37.041  1.00  0.00     0.029 A 
ATOM     51  N   UNL A   1      41.137  31.122  35.326  1.00  0.00    -0.354 N 
ATOM     52  N   UNL A   1      39.000  32.426  33.777  1.00  0.00    -0.248 NA
ATOM     53  C   UNL A   1      37.404  34.118  33.547  1.00  0.00     0.031 C 
ATOM     54  C   UNL A   1      41.721  32.020  37.272  1.00  0.00     0.029 A 
ATOM     55  C   UNL A   1      40.868  32.169  36.190  1.00  0.00     0.049 A 
ATOM     56  H   UNL A   1      40.671  30.957  34.474  1.00  0.00     0.167 HD
ATOM     57  C   UNL A   1      39.075  33.275  34.875  1.00  0.00     0.074 A 
ATOM     58  C   UNL A   1      38.090  34.318  34.664  1.00  0.00     0.031 C 
ATOM     59  C   UNL A   1      39.885  33.199  35.961  1.00  0.00     0.037 A 
BRANCH  46  60
ATOM     60  C   UNL A   1      43.809  28.417  35.883  1.00  0.00     0.058 A 
ATOM     61  C   UNL A   1      43.534  27.368  36.776  1.00  0.00     0.135 A 
ATOM     62  C   UNL A   1      45.158  28.712  35.623  1.00  0.00     0.135 A 
ATOM     63  F   UNL A   1      42.265  27.050  37.076  1.00  0.00    -0.206 F 
ATOM     64  C   UNL A   1      44.552  26.659  37.406  1.00  0.00     0.059 A 
ATOM     65  C   UNL A   1      46.193  27.993  36.217  1.00  0.00     0.059 A 
ATOM     66  F   UNL A   1      45.483  29.703  34.778  1.00  0.00    -0.206 F 
ATOM     67  C   UNL A   1      45.879  26.976  37.118  1.00  0.00     0.060 A 
BRANCH  67  68
ATOM     68  S   UNL A   1      47.184  26.028  37.929  1.00  0.00     0.124 S 
ATOM     69  O   UNL A   1      47.118  24.762  37.204  1.00  0.00    -0.237 OA
ATOM     70  O   UNL A   1      48.366  26.843  37.672  1.00  0.00    -0.237 OA
ATOM     71  O   UNL A   1      46.753  25.975  39.322  1.00  0.00    -0.744 OA
ENDBRANCH  67  68
ENDBRANCH  46  60
BRANCH  47  72
ATOM     72  C   UNL A   1      36.485  33.124  30.940  1.00  0.00     0.058 A 
ATOM     73  C   UNL A   1      35.144  33.012  31.338  1.00  0.00     0.135 A 
ATOM     74  C   UNL A   1      36.775  33.965  29.853  1.00  0.00     0.135 A 
ATOM     75  F   UNL A   1      34.816  32.216  32.367  1.00  0.00    -0.206 F 
ATOM     76  C   UNL A   1      34.129  33.703  30.686  1.00  0.00     0.059 A 
ATOM     77  C   UNL A   1      35.779  34.687  29.201  1.00  0.00     0.059 A 
ATOM     78  F   UNL A   1      38.043  34.121  29.444  1.00  0.00    -0.206 F 
ATOM     79  C   UNL A   1      34.457  34.546  29.623  1.00  0.00     0.060 A 
BRANCH  79  80
ATOM     80  S   UNL A   1      33.138  35.494  28.835  1.00  0.00     0.124 S 
ATOM     81  O   UNL A   1      33.896  36.425  28.009  1.00  0.00    -0.237 OA
ATOM     82  O   UNL A   1      32.404  34.455  28.118  1.00  0.00    -0.237 OA
ATOM     83  O   UNL A   1      32.426  36.086  29.964  1.00  0.00    -0.744 OA
ENDBRANCH  79  80
ENDBRANCH  47  72
BRANCH  59  84
ATOM     84  C   UNL A   1      39.763  34.288  36.989  1.00  0.00     0.058 A 
ATOM     85  C   UNL A   1      38.998  34.121  38.154  1.00  0.00     0.135 A 
ATOM     86  C   UNL A   1      40.454  35.499  36.824  1.00  0.00     0.135 A 
ATOM     87  F   UNL A   1      38.316  32.983  38.357  1.00  0.00    -0.206 F 
ATOM     88  C   UNL A   1      38.894  35.131  39.104  1.00  0.00     0.059 A 
ATOM     89  C   UNL A   1      40.389  36.511  37.776  1.00  0.00     0.059 A 
ATOM     90  F   UNL A   1      41.212  35.704  35.735  1.00  0.00    -0.206 F 
ATOM     91  C   UNL A   1      39.594  36.324  38.904  1.00  0.00     0.060 A 
BRANCH  91  92
ATOM     92  S   UNL A   1      39.456  37.623  40.150  1.00  0.00     0.124 S 
ATOM     93  O   UNL A   1      40.823  38.130  40.197  1.00  0.00    -0.237 OA
ATOM     94  O   UNL A   1      38.467  38.518  39.558  1.00  0.00    -0.237 OA
ATOM     95  O   UNL A   1      39.010  36.906  41.342  1.00  0.00    -0.744 OA
ENDBRANCH  91  92
ENDBRANCH  59  84
ENDBRANCH  33  34
ENDBRANCH  26  28
ENDBRANCH  25  26
ENDBRANCH   1  25
TORSDOF 17
ENDMDL
