MODEL 1
REMARK VINA RESULT:     -12.0      0.000      0.000
REMARK SMILES CCC(CC)(NC(=O)N[C@@H](C)[C@@H]1CCCO1)C(=O)OCCOC(=O)c1ccc(-c2c3nc(c(-c4c(F)cc(S(=O)(=O)[O-])cc4F)c4ccc([nH]4)c(-c4c(F)cc(S(=O)(=O)[O-])cc4F)c4nc(c(-c5c(F)cc(S(=O)(=O)[O-])cc5F)c5ccc2[nH]5)C=C4)C=C3)cc1
REMARK SMILES IDX 20 1 19 2 17 3 18 4 3 5 2 6 1 7 4 8 5 9 6 10 7 11 8 13 9 14
REMARK SMILES IDX 10 16 11 17 12 18 13 19 16 20 14 21 15 22 21 23 22 24 23 25
REMARK SMILES IDX 24 26 25 27 26 28 90 29 27 30 89 31 28 32 29 33 30 34 83 35
REMARK SMILES IDX 31 36 88 37 82 38 84 39 32 40 87 41 81 42 80 43 33 45 67 46
REMARK SMILES IDX 46 47 66 48 47 49 50 50 65 51 85 52 48 53 49 54 64 56 86 57
REMARK SMILES IDX 51 58 34 59 35 60 44 61 36 62 37 63 43 64 45 65 38 66 39 67
REMARK SMILES IDX 40 68 41 69 42 70 68 71 69 72 78 73 70 74 71 75 77 76 79 77
REMARK SMILES IDX 72 78 73 79 74 80 75 81 76 82 52 83 53 84 62 85 54 86 55 87
REMARK SMILES IDX 61 88 63 89 56 90 57 91 58 92 59 93 60 94
REMARK H PARENT 6 12 9 15 84 44 50 55
REMARK Flexibility Score: inf
ROOT
ATOM      1  C   UNL A   1      31.680  27.455  26.887  1.00  0.00     0.274 C 
ENDROOT
BRANCH   1   2
ATOM      2  O   UNL A   1      31.576  25.723  26.634  1.00  0.00    -0.460 OA
BRANCH   2   3
ATOM      3  C   UNL A   1      31.741  24.336  26.380  1.00  0.00     0.332 C 
ATOM      4  O   UNL A   1      30.694  23.672  26.447  1.00  0.00    -0.249 OA
BRANCH   3   5
ATOM      5  C   UNL A   1      33.201  23.423  25.814  1.00  0.00     0.139 C 
BRANCH   5   6
ATOM      6  C   UNL A   1      34.307  23.145  26.939  1.00  0.00     0.037 C 
ATOM      7  C   UNL A   1      35.330  22.048  26.779  1.00  0.00     0.007 C 
ENDBRANCH   5   6
BRANCH   5   8
ATOM      8  C   UNL A   1      33.835  24.376  24.744  1.00  0.00     0.037 C 
ATOM      9  C   UNL A   1      34.640  25.576  25.266  1.00  0.00     0.007 C 
ENDBRANCH   5   8
BRANCH   5  10
ATOM     10  N   UNL A   1      33.153  22.044  25.122  1.00  0.00    -0.322 N 
ATOM     11  C   UNL A   1      32.214  21.497  24.278  1.00  0.00     0.316 C 
ATOM     12  H   UNL A   1      33.921  21.460  25.317  1.00  0.00     0.166 HD
ATOM     13  O   UNL A   1      32.088  20.283  24.183  1.00  0.00    -0.249 OA
ATOM     14  N   UNL A   1      31.587  22.343  23.397  1.00  0.00    -0.333 N 
ATOM     15  H   UNL A   1      30.759  22.067  22.941  1.00  0.00     0.165 HD
BRANCH  14  16
ATOM     16  C   UNL A   1      32.158  23.637  23.153  1.00  0.00     0.109 C 
ATOM     17  C   UNL A   1      33.602  23.095  22.440  1.00  0.00     0.034 C 
BRANCH  16  18
ATOM     18  C   UNL A   1      31.306  25.211  23.442  1.00  0.00     0.140 C 
ATOM     19  C   UNL A   1      29.782  25.565  23.542  1.00  0.00     0.036 C 
ATOM     20  O   UNL A   1      31.645  26.261  22.501  1.00  0.00    -0.376 OA
ATOM     21  C   UNL A   1      29.828  27.044  23.853  1.00  0.00     0.031 C 
ATOM     22  C   UNL A   1      30.997  27.466  23.004  1.00  0.00     0.160 C 
ENDBRANCH  16  18
ENDBRANCH  14  16
ENDBRANCH   5  10
ENDBRANCH   3   5
ENDBRANCH   2   3
ENDBRANCH   1   2
BRANCH   1  23
ATOM     23  C   UNL A   1      33.058  28.597  27.066  1.00  0.00     0.275 C 
BRANCH  23  24
ATOM     24  O   UNL A   1      33.100  29.911  27.820  1.00  0.00    -0.458 OA
BRANCH  24  25
ATOM     25  C   UNL A   1      34.177  30.814  27.825  1.00  0.00     0.338 C 
ATOM     26  O   UNL A   1      34.014  32.025  27.861  1.00  0.00    -0.246 OA
BRANCH  25  27
ATOM     27  C   UNL A   1      35.577  30.173  28.146  1.00  0.00     0.060 A 
ATOM     28  C   UNL A   1      36.573  30.057  27.143  1.00  0.00     0.016 A 
ATOM     29  C   UNL A   1      35.988  29.743  29.406  1.00  0.00     0.016 A 
ATOM     30  C   UNL A   1      37.947  29.820  27.398  1.00  0.00     0.010 A 
ATOM     31  C   UNL A   1      37.354  29.358  29.647  1.00  0.00     0.010 A 
ATOM     32  C   UNL A   1      38.376  29.473  28.671  1.00  0.00    -0.014 A 
BRANCH  32  33
ATOM     33  C   UNL A   1      39.777  28.947  28.883  1.00  0.00     0.031 A 
ATOM     34  C   UNL A   1      40.769  29.930  29.440  1.00  0.00     0.074 A 
ATOM     35  C   UNL A   1      40.227  27.685  28.673  1.00  0.00     0.049 A 
ATOM     36  N   UNL A   1      42.075  29.888  29.454  1.00  0.00    -0.248 NA
ATOM     37  C   UNL A   1      40.191  31.129  30.063  1.00  0.00     0.031 C 
ATOM     38  C   UNL A   1      39.417  26.515  28.373  1.00  0.00     0.029 A 
ATOM     39  N   UNL A   1      41.516  27.172  28.675  1.00  0.00    -0.354 N 
ATOM     40  C   UNL A   1      42.475  31.092  30.018  1.00  0.00     0.074 A 
ATOM     41  C   UNL A   1      41.275  31.828  30.347  1.00  0.00     0.031 C 
ATOM     42  C   UNL A   1      40.208  25.451  28.136  1.00  0.00     0.029 A 
ATOM     43  C   UNL A   1      41.607  25.856  28.259  1.00  0.00     0.049 A 
ATOM     44  H   UNL A   1      42.301  27.700  28.949  1.00  0.00     0.167 HD
ATOM     45  C   UNL A   1      43.727  31.558  30.227  1.00  0.00     0.037 A 
ATOM     46  C   UNL A   1      42.679  25.072  27.986  1.00  0.00     0.037 A 
ATOM     47  C   UNL A   1      44.928  30.825  29.946  1.00  0.00     0.049 A 
ATOM     48  C   UNL A   1      44.077  25.634  28.138  1.00  0.00     0.074 A 
ATOM     49  C   UNL A   1      46.238  31.242  30.089  1.00  0.00     0.029 A 
ATOM     50  N   UNL A   1      44.970  29.519  29.484  1.00  0.00    -0.354 N 
ATOM     51  N   UNL A   1      44.448  26.820  28.561  1.00  0.00    -0.248 NA
ATOM     52  C   UNL A   1      45.205  24.760  27.767  1.00  0.00     0.031 C 
ATOM     53  C   UNL A   1      47.076  30.200  29.679  1.00  0.00     0.029 A 
ATOM     54  C   UNL A   1      46.286  29.117  29.332  1.00  0.00     0.049 A 
ATOM     55  H   UNL A   1      44.181  28.961  29.292  1.00  0.00     0.167 HD
ATOM     56  C   UNL A   1      45.842  26.816  28.543  1.00  0.00     0.074 A 
ATOM     57  C   UNL A   1      46.254  25.514  28.069  1.00  0.00     0.031 C 
ATOM     58  C   UNL A   1      46.699  27.807  28.893  1.00  0.00     0.037 A 
BRANCH  45  59
ATOM     59  C   UNL A   1      43.836  32.974  30.710  1.00  0.00     0.058 A 
ATOM     60  C   UNL A   1      43.841  34.065  29.830  1.00  0.00     0.135 A 
ATOM     61  C   UNL A   1      44.002  33.226  32.081  1.00  0.00     0.135 A 
ATOM     62  F   UNL A   1      43.723  33.870  28.508  1.00  0.00    -0.206 F 
ATOM     63  C   UNL A   1      44.060  35.359  30.289  1.00  0.00     0.059 A 
ATOM     64  C   UNL A   1      44.185  34.515  32.565  1.00  0.00     0.059 A 
ATOM     65  F   UNL A   1      44.012  32.212  32.961  1.00  0.00    -0.206 F 
ATOM     66  C   UNL A   1      44.238  35.571  31.658  1.00  0.00     0.060 A 
BRANCH  66  67
ATOM     67  S   UNL A   1      44.556  37.249  32.236  1.00  0.00     0.124 S 
ATOM     68  O   UNL A   1      46.012  37.248  32.343  1.00  0.00    -0.237 OA
ATOM     69  O   UNL A   1      43.999  38.062  31.161  1.00  0.00    -0.237 OA
ATOM     70  O   UNL A   1      43.834  37.312  33.504  1.00  0.00    -0.744 OA
ENDBRANCH  66  67
ENDBRANCH  45  59
BRANCH  46  71
ATOM     71  C   UNL A   1      42.511  23.665  27.491  1.00  0.00     0.058 A 
ATOM     72  C   UNL A   1      42.398  22.582  28.380  1.00  0.00     0.135 A 
ATOM     73  C   UNL A   1      42.541  23.364  26.119  1.00  0.00     0.135 A 
ATOM     74  F   UNL A   1      42.403  22.801  29.704  1.00  0.00    -0.206 F 
ATOM     75  C   UNL A   1      42.331  21.262  27.934  1.00  0.00     0.059 A 
ATOM     76  C   UNL A   1      42.451  22.053  25.647  1.00  0.00     0.059 A 
ATOM     77  F   UNL A   1      42.665  24.350  25.217  1.00  0.00    -0.206 F 
ATOM     78  C   UNL A   1      42.353  21.007  26.563  1.00  0.00     0.060 A 
BRANCH  78  79
ATOM     79  S   UNL A   1      42.215  19.297  25.990  1.00  0.00     0.124 S 
ATOM     80  O   UNL A   1      43.084  19.301  24.819  1.00  0.00    -0.237 OA
ATOM     81  O   UNL A   1      42.705  18.548  27.144  1.00  0.00    -0.237 OA
ATOM     82  O   UNL A   1      40.789  19.148  25.717  1.00  0.00    -0.744 OA
ENDBRANCH  78  79
ENDBRANCH  46  71
BRANCH  58  83
ATOM     83  C   UNL A   1      48.179  27.529  28.851  1.00  0.00     0.058 A 
ATOM     84  C   UNL A   1      48.949  27.755  27.700  1.00  0.00     0.135 A 
ATOM     85  C   UNL A   1      48.854  27.138  30.021  1.00  0.00     0.135 A 
ATOM     86  F   UNL A   1      48.357  28.128  26.555  1.00  0.00    -0.206 F 
ATOM     87  C   UNL A   1      50.332  27.597  27.707  1.00  0.00     0.059 A 
ATOM     88  C   UNL A   1      50.239  26.999  30.057  1.00  0.00     0.059 A 
ATOM     89  F   UNL A   1      48.170  26.921  31.156  1.00  0.00    -0.206 F 
ATOM     90  C   UNL A   1      50.970  27.226  28.893  1.00  0.00     0.060 A 
BRANCH  90  91
ATOM     91  S   UNL A   1      52.772  27.091  28.907  1.00  0.00     0.124 S 
ATOM     92  O   UNL A   1      53.041  26.597  27.561  1.00  0.00    -0.237 OA
ATOM     93  O   UNL A   1      53.188  28.465  29.172  1.00  0.00    -0.237 OA
ATOM     94  O   UNL A   1      53.036  26.146  29.988  1.00  0.00    -0.744 OA
ENDBRANCH  90  91
ENDBRANCH  58  83
ENDBRANCH  32  33
ENDBRANCH  25  27
ENDBRANCH  24  25
ENDBRANCH  23  24
ENDBRANCH   1  23
TORSDOF 19
ENDMDL
MODEL 2
REMARK VINA RESULT:     -11.8      4.005      8.972
REMARK SMILES CCC(CC)(NC(=O)N[C@@H](C)[C@@H]1CCCO1)C(=O)OCCOC(=O)c1ccc(-c2c3nc(c(-c4c(F)cc(S(=O)(=O)[O-])cc4F)c4ccc([nH]4)c(-c4c(F)cc(S(=O)(=O)[O-])cc4F)c4nc(c(-c5c(F)cc(S(=O)(=O)[O-])cc5F)c5ccc2[nH]5)C=C4)C=C3)cc1
REMARK SMILES IDX 20 1 19 2 17 3 18 4 3 5 2 6 1 7 4 8 5 9 6 10 7 11 8 13 9 14
REMARK SMILES IDX 10 16 11 17 12 18 13 19 16 20 14 21 15 22 21 23 22 24 23 25
REMARK SMILES IDX 24 26 25 27 26 28 90 29 27 30 89 31 28 32 29 33 30 34 83 35
REMARK SMILES IDX 31 36 88 37 82 38 84 39 32 40 87 41 81 42 80 43 33 45 67 46
REMARK SMILES IDX 46 47 66 48 47 49 50 50 65 51 85 52 48 53 49 54 64 56 86 57
REMARK SMILES IDX 51 58 34 59 35 60 44 61 36 62 37 63 43 64 45 65 38 66 39 67
REMARK SMILES IDX 40 68 41 69 42 70 68 71 69 72 78 73 70 74 71 75 77 76 79 77
REMARK SMILES IDX 72 78 73 79 74 80 75 81 76 82 52 83 53 84 62 85 54 86 55 87
REMARK SMILES IDX 61 88 63 89 56 90 57 91 58 92 59 93 60 94
REMARK H PARENT 6 12 9 15 84 44 50 55
REMARK Flexibility Score: inf
ROOT
ATOM      1  C   UNL A   1      33.079  27.247  24.795  1.00  0.00     0.274 C 
ENDROOT
BRANCH   1   2
ATOM      2  O   UNL A   1      33.849  25.767  24.256  1.00  0.00    -0.460 OA
BRANCH   2   3
ATOM      3  C   UNL A   1      34.261  24.455  23.903  1.00  0.00     0.332 C 
ATOM      4  O   UNL A   1      34.525  24.304  22.699  1.00  0.00    -0.249 OA
BRANCH   3   5
ATOM      5  C   UNL A   1      34.619  23.025  24.957  1.00  0.00     0.139 C 
BRANCH   5   6
ATOM      6  C   UNL A   1      33.728  22.918  26.284  1.00  0.00     0.037 C 
ATOM      7  C   UNL A   1      34.321  22.466  27.594  1.00  0.00     0.007 C 
ENDBRANCH   5   6
BRANCH   5   8
ATOM      8  C   UNL A   1      36.105  23.259  25.396  1.00  0.00     0.037 C 
ATOM      9  C   UNL A   1      37.165  22.314  24.809  1.00  0.00     0.007 C 
ENDBRANCH   5   8
BRANCH   5  10
ATOM     10  N   UNL A   1      34.584  21.557  24.479  1.00  0.00    -0.322 N 
ATOM     11  C   UNL A   1      33.594  20.607  24.576  1.00  0.00     0.316 C 
ATOM     12  H   UNL A   1      35.406  21.253  24.031  1.00  0.00     0.166 HD
ATOM     13  O   UNL A   1      33.868  19.413  24.566  1.00  0.00    -0.249 OA
ATOM     14  N   UNL A   1      32.294  21.033  24.463  1.00  0.00    -0.333 N 
ATOM     15  H   UNL A   1      31.551  20.456  24.751  1.00  0.00     0.165 HD
BRANCH  14  16
ATOM     16  C   UNL A   1      32.038  22.337  23.919  1.00  0.00     0.109 C 
ATOM     17  C   UNL A   1      32.470  21.980  22.314  1.00  0.00     0.034 C 
BRANCH  16  18
ATOM     18  C   UNL A   1      31.301  23.713  24.841  1.00  0.00     0.140 C 
ATOM     19  C   UNL A   1      30.405  23.741  26.126  1.00  0.00     0.036 C 
ATOM     20  O   UNL A   1      30.460  24.587  24.049  1.00  0.00    -0.376 OA
ATOM     21  C   UNL A   1      30.225  25.225  26.346  1.00  0.00     0.031 C 
ATOM     22  C   UNL A   1      30.114  25.701  24.923  1.00  0.00     0.160 C 
ENDBRANCH  16  18
ENDBRANCH  14  16
ENDBRANCH   5  10
ENDBRANCH   3   5
ENDBRANCH   2   3
ENDBRANCH   1   2
BRANCH   1  23
ATOM     23  C   UNL A   1      33.412  28.392  26.142  1.00  0.00     0.275 C 
BRANCH  23  24
ATOM     24  O   UNL A   1      34.056  29.762  26.075  1.00  0.00    -0.458 OA
BRANCH  24  25
ATOM     25  C   UNL A   1      34.072  30.708  27.114  1.00  0.00     0.338 C 
ATOM     26  O   UNL A   1      33.063  31.291  27.483  1.00  0.00    -0.246 OA
BRANCH  25  27
ATOM     27  C   UNL A   1      35.373  30.700  27.998  1.00  0.00     0.060 A 
ATOM     28  C   UNL A   1      35.690  29.589  28.821  1.00  0.00     0.016 A 
ATOM     29  C   UNL A   1      36.338  31.704  28.005  1.00  0.00     0.016 A 
ATOM     30  C   UNL A   1      36.971  29.338  29.375  1.00  0.00     0.010 A 
ATOM     31  C   UNL A   1      37.592  31.521  28.690  1.00  0.00     0.010 A 
ATOM     32  C   UNL A   1      37.965  30.303  29.312  1.00  0.00    -0.014 A 
BRANCH  32  33
ATOM     33  C   UNL A   1      39.220  30.154  30.139  1.00  0.00     0.031 A 
ATOM     34  C   UNL A   1      40.214  29.139  29.648  1.00  0.00     0.074 A 
ATOM     35  C   UNL A   1      39.573  30.861  31.242  1.00  0.00     0.049 A 
ATOM     36  N   UNL A   1      41.213  28.572  30.271  1.00  0.00    -0.248 NA
ATOM     37  C   UNL A   1      40.040  28.704  28.255  1.00  0.00     0.031 C 
ATOM     38  C   UNL A   1      38.904  32.044  31.763  1.00  0.00     0.029 A 
ATOM     39  N   UNL A   1      40.607  30.671  32.147  1.00  0.00    -0.354 N 
ATOM     40  C   UNL A   1      41.738  27.658  29.368  1.00  0.00     0.074 A 
ATOM     41  C   UNL A   1      40.959  27.762  28.154  1.00  0.00     0.031 C 
ATOM     42  C   UNL A   1      39.473  32.425  32.923  1.00  0.00     0.029 A 
ATOM     43  C   UNL A   1      40.561  31.506  33.250  1.00  0.00     0.049 A 
ATOM     44  H   UNL A   1      41.314  29.999  32.017  1.00  0.00     0.167 HD
ATOM     45  C   UNL A   1      42.764  26.792  29.533  1.00  0.00     0.037 A 
ATOM     46  C   UNL A   1      41.285  31.521  34.396  1.00  0.00     0.037 A 
ATOM     47  C   UNL A   1      43.575  26.704  30.714  1.00  0.00     0.049 A 
ATOM     48  C   UNL A   1      42.372  30.488  34.609  1.00  0.00     0.074 A 
ATOM     49  C   UNL A   1      44.606  25.823  30.980  1.00  0.00     0.029 A 
ATOM     50  N   UNL A   1      43.461  27.534  31.817  1.00  0.00    -0.354 N 
ATOM     51  N   UNL A   1      42.786  29.546  33.795  1.00  0.00    -0.248 NA
ATOM     52  C   UNL A   1      43.086  30.510  35.899  1.00  0.00     0.031 C 
ATOM     53  C   UNL A   1      45.096  26.098  32.261  1.00  0.00     0.029 A 
ATOM     54  C   UNL A   1      44.403  27.183  32.769  1.00  0.00     0.049 A 
ATOM     55  H   UNL A   1      42.807  28.265  31.911  1.00  0.00     0.167 HD
ATOM     56  C   UNL A   1      43.827  28.896  34.457  1.00  0.00     0.074 A 
ATOM     57  C   UNL A   1      43.984  29.548  35.738  1.00  0.00     0.031 C 
ATOM     58  C   UNL A   1      44.584  27.854  34.032  1.00  0.00     0.037 A 
BRANCH  45  59
ATOM     59  C   UNL A   1      42.992  25.813  28.421  1.00  0.00     0.058 A 
ATOM     60  C   UNL A   1      42.157  24.705  28.216  1.00  0.00     0.135 A 
ATOM     61  C   UNL A   1      44.111  25.963  27.586  1.00  0.00     0.135 A 
ATOM     62  F   UNL A   1      41.097  24.500  29.013  1.00  0.00    -0.206 F 
ATOM     63  C   UNL A   1      42.454  23.748  27.254  1.00  0.00     0.059 A 
ATOM     64  C   UNL A   1      44.405  25.037  26.593  1.00  0.00     0.059 A 
ATOM     65  F   UNL A   1      44.944  27.003  27.749  1.00  0.00    -0.206 F 
ATOM     66  C   UNL A   1      43.585  23.920  26.452  1.00  0.00     0.060 A 
BRANCH  66  67
ATOM     67  S   UNL A   1      43.978  22.654  25.231  1.00  0.00     0.124 S 
ATOM     68  O   UNL A   1      44.247  23.465  24.048  1.00  0.00    -0.237 OA
ATOM     69  O   UNL A   1      45.135  21.994  25.825  1.00  0.00    -0.237 OA
ATOM     70  O   UNL A   1      42.761  21.848  25.175  1.00  0.00    -0.744 OA
ENDBRANCH  66  67
ENDBRANCH  45  59
BRANCH  46  71
ATOM     71  C   UNL A   1      41.003  32.515  35.484  1.00  0.00     0.058 A 
ATOM     72  C   UNL A   1      39.971  32.309  36.417  1.00  0.00     0.135 A 
ATOM     73  C   UNL A   1      41.704  33.730  35.564  1.00  0.00     0.135 A 
ATOM     74  F   UNL A   1      39.239  31.186  36.367  1.00  0.00    -0.206 F 
ATOM     75  C   UNL A   1      39.641  33.266  37.378  1.00  0.00     0.059 A 
ATOM     76  C   UNL A   1      41.408  34.692  36.532  1.00  0.00     0.059 A 
ATOM     77  F   UNL A   1      42.688  33.997  34.693  1.00  0.00    -0.206 F 
ATOM     78  C   UNL A   1      40.369  34.454  37.431  1.00  0.00     0.060 A 
BRANCH  78  79
ATOM     79  S   UNL A   1      39.968  35.668  38.711  1.00  0.00     0.124 S 
ATOM     80  O   UNL A   1      39.615  36.838  37.915  1.00  0.00    -0.237 OA
ATOM     81  O   UNL A   1      38.866  35.018  39.413  1.00  0.00    -0.237 OA
ATOM     82  O   UNL A   1      41.209  35.775  39.473  1.00  0.00    -0.744 OA
ENDBRANCH  78  79
ENDBRANCH  46  71
BRANCH  58  83
ATOM     83  C   UNL A   1      45.706  27.371  34.914  1.00  0.00     0.058 A 
ATOM     84  C   UNL A   1      45.526  26.353  35.863  1.00  0.00     0.135 A 
ATOM     85  C   UNL A   1      47.010  27.860  34.723  1.00  0.00     0.135 A 
ATOM     86  F   UNL A   1      44.302  25.850  36.088  1.00  0.00    -0.206 F 
ATOM     87  C   UNL A   1      46.595  25.842  36.595  1.00  0.00     0.059 A 
ATOM     88  C   UNL A   1      48.098  27.346  35.425  1.00  0.00     0.059 A 
ATOM     89  F   UNL A   1      47.245  28.825  33.818  1.00  0.00    -0.206 F 
ATOM     90  C   UNL A   1      47.879  26.340  36.363  1.00  0.00     0.060 A 
BRANCH  90  91
ATOM     91  S   UNL A   1      49.267  25.622  37.269  1.00  0.00     0.124 S 
ATOM     92  O   UNL A   1      48.840  24.234  37.413  1.00  0.00    -0.237 OA
ATOM     93  O   UNL A   1      50.387  25.849  36.360  1.00  0.00    -0.237 OA
ATOM     94  O   UNL A   1      49.307  26.397  38.505  1.00  0.00    -0.744 OA
ENDBRANCH  90  91
ENDBRANCH  58  83
ENDBRANCH  32  33
ENDBRANCH  25  27
ENDBRANCH  24  25
ENDBRANCH  23  24
ENDBRANCH   1  23
TORSDOF 19
ENDMDL
MODEL 3
REMARK VINA RESULT:     -11.5      2.659      8.918
REMARK SMILES CCC(CC)(NC(=O)N[C@@H](C)[C@@H]1CCCO1)C(=O)OCCOC(=O)c1ccc(-c2c3nc(c(-c4c(F)cc(S(=O)(=O)[O-])cc4F)c4ccc([nH]4)c(-c4c(F)cc(S(=O)(=O)[O-])cc4F)c4nc(c(-c5c(F)cc(S(=O)(=O)[O-])cc5F)c5ccc2[nH]5)C=C4)C=C3)cc1
REMARK SMILES IDX 20 1 19 2 17 3 18 4 3 5 2 6 1 7 4 8 5 9 6 10 7 11 8 13 9 14
REMARK SMILES IDX 10 16 11 17 12 18 13 19 16 20 14 21 15 22 21 23 22 24 23 25
REMARK SMILES IDX 24 26 25 27 26 28 90 29 27 30 89 31 28 32 29 33 30 34 83 35
REMARK SMILES IDX 31 36 88 37 82 38 84 39 32 40 87 41 81 42 80 43 33 45 67 46
REMARK SMILES IDX 46 47 66 48 47 49 50 50 65 51 85 52 48 53 49 54 64 56 86 57
REMARK SMILES IDX 51 58 34 59 35 60 44 61 36 62 37 63 43 64 45 65 38 66 39 67
REMARK SMILES IDX 40 68 41 69 42 70 68 71 69 72 78 73 70 74 71 75 77 76 79 77
REMARK SMILES IDX 72 78 73 79 74 80 75 81 76 82 52 83 53 84 62 85 54 86 55 87
REMARK SMILES IDX 61 88 63 89 56 90 57 91 58 92 59 93 60 94
REMARK H PARENT 6 12 9 15 84 44 50 55
REMARK Flexibility Score: inf
ROOT
ATOM      1  C   UNL A   1      35.618  23.674  25.001  1.00  0.00     0.274 C 
ENDROOT
BRANCH   1   2
ATOM      2  O   UNL A   1      34.597  25.084  24.801  1.00  0.00    -0.460 OA
BRANCH   2   3
ATOM      3  C   UNL A   1      33.600  26.096  24.776  1.00  0.00     0.332 C 
ATOM      4  O   UNL A   1      33.539  26.783  25.809  1.00  0.00    -0.249 OA
BRANCH   3   5
ATOM      5  C   UNL A   1      32.529  26.640  23.421  1.00  0.00     0.139 C 
BRANCH   5   6
ATOM      6  C   UNL A   1      32.160  25.509  22.348  1.00  0.00     0.037 C 
ATOM      7  C   UNL A   1      32.723  25.539  20.950  1.00  0.00     0.007 C 
ENDBRANCH   5   6
BRANCH   5   8
ATOM      8  C   UNL A   1      33.389  27.729  22.691  1.00  0.00     0.037 C 
ATOM      9  C   UNL A   1      33.006  29.198  22.928  1.00  0.00     0.007 C 
ENDBRANCH   5   8
BRANCH   5  10
ATOM     10  N   UNL A   1      31.148  27.304  23.612  1.00  0.00    -0.322 N 
ATOM     11  C   UNL A   1      29.884  26.761  23.602  1.00  0.00     0.316 C 
ATOM     12  H   UNL A   1      31.178  28.276  23.766  1.00  0.00     0.166 HD
ATOM     13  O   UNL A   1      28.909  27.447  23.320  1.00  0.00    -0.249 OA
ATOM     14  N   UNL A   1      29.733  25.502  24.126  1.00  0.00    -0.333 N 
ATOM     15  H   UNL A   1      28.921  24.976  23.941  1.00  0.00     0.165 HD
BRANCH  14  16
ATOM     16  C   UNL A   1      30.778  24.964  24.950  1.00  0.00     0.109 C 
ATOM     17  C   UNL A   1      30.634  26.079  26.224  1.00  0.00     0.034 C 
BRANCH  16  18
ATOM     18  C   UNL A   1      31.692  23.439  24.592  1.00  0.00     0.140 C 
ATOM     19  C   UNL A   1      31.773  22.556  23.300  1.00  0.00     0.036 C 
ATOM     20  O   UNL A   1      31.425  22.348  25.507  1.00  0.00    -0.376 OA
ATOM     21  C   UNL A   1      32.764  21.492  23.714  1.00  0.00     0.031 C 
ATOM     22  C   UNL A   1      32.369  21.295  25.153  1.00  0.00     0.160 C 
ENDBRANCH  16  18
ENDBRANCH  14  16
ENDBRANCH   5  10
ENDBRANCH   3   5
ENDBRANCH   2   3
ENDBRANCH   1   2
BRANCH   1  23
ATOM     23  C   UNL A   1      37.143  23.373  25.905  1.00  0.00     0.275 C 
BRANCH  23  24
ATOM     24  O   UNL A   1      37.972  22.104  25.958  1.00  0.00    -0.458 OA
BRANCH  24  25
ATOM     25  C   UNL A   1      39.315  22.023  26.364  1.00  0.00     0.338 C 
ATOM     26  O   UNL A   1      40.017  21.054  26.112  1.00  0.00    -0.246 OA
BRANCH  25  27
ATOM     27  C   UNL A   1      39.948  23.384  26.833  1.00  0.00     0.060 A 
ATOM     28  C   UNL A   1      39.766  24.572  26.081  1.00  0.00     0.016 A 
ATOM     29  C   UNL A   1      40.658  23.566  28.019  1.00  0.00     0.016 A 
ATOM     30  C   UNL A   1      39.994  25.881  26.577  1.00  0.00     0.010 A 
ATOM     31  C   UNL A   1      41.026  24.885  28.465  1.00  0.00     0.010 A 
ATOM     32  C   UNL A   1      40.625  26.070  27.797  1.00  0.00    -0.014 A 
BRANCH  32  33
ATOM     33  C   UNL A   1      41.120  27.442  28.191  1.00  0.00     0.031 A 
ATOM     34  C   UNL A   1      42.605  27.657  28.091  1.00  0.00     0.074 A 
ATOM     35  C   UNL A   1      40.379  28.510  28.577  1.00  0.00     0.049 A 
ATOM     36  N   UNL A   1      43.356  28.585  28.623  1.00  0.00    -0.248 NA
ATOM     37  C   UNL A   1      43.334  26.675  27.277  1.00  0.00     0.031 C 
ATOM     38  C   UNL A   1      38.929  28.624  28.520  1.00  0.00     0.029 A 
ATOM     39  N   UNL A   1      40.760  29.730  29.115  1.00  0.00    -0.354 N 
ATOM     40  C   UNL A   1      44.657  28.251  28.269  1.00  0.00     0.074 A 
ATOM     41  C   UNL A   1      44.586  27.051  27.465  1.00  0.00     0.031 C 
ATOM     42  C   UNL A   1      38.533  29.788  29.072  1.00  0.00     0.029 A 
ATOM     43  C   UNL A   1      39.708  30.521  29.540  1.00  0.00     0.049 A 
ATOM     44  H   UNL A   1      41.701  30.010  29.189  1.00  0.00     0.167 HD
ATOM     45  C   UNL A   1      45.812  28.871  28.597  1.00  0.00     0.037 A 
ATOM     46  C   UNL A   1      39.681  31.682  30.239  1.00  0.00     0.037 A 
ATOM     47  C   UNL A   1      45.900  30.085  29.357  1.00  0.00     0.049 A 
ATOM     48  C   UNL A   1      40.982  32.321  30.680  1.00  0.00     0.074 A 
ATOM     49  C   UNL A   1      47.036  30.756  29.771  1.00  0.00     0.029 A 
ATOM     50  N   UNL A   1      44.814  30.821  29.803  1.00  0.00    -0.354 N 
ATOM     51  N   UNL A   1      42.213  31.935  30.442  1.00  0.00    -0.248 NA
ATOM     52  C   UNL A   1      40.895  33.549  31.492  1.00  0.00     0.031 C 
ATOM     53  C   UNL A   1      46.637  31.882  30.498  1.00  0.00     0.029 A 
ATOM     54  C   UNL A   1      45.254  31.938  30.492  1.00  0.00     0.049 A 
ATOM     55  H   UNL A   1      43.870  30.584  29.653  1.00  0.00     0.167 HD
ATOM     56  C   UNL A   1      43.038  32.888  31.038  1.00  0.00     0.074 A 
ATOM     57  C   UNL A   1      42.172  33.871  31.649  1.00  0.00     0.031 C 
ATOM     58  C   UNL A   1      44.393  32.939  31.071  1.00  0.00     0.037 A 
BRANCH  45  59
ATOM     59  C   UNL A   1      47.078  28.173  28.195  1.00  0.00     0.058 A 
ATOM     60  C   UNL A   1      47.695  28.399  26.957  1.00  0.00     0.135 A 
ATOM     61  C   UNL A   1      47.640  27.213  29.051  1.00  0.00     0.135 A 
ATOM     62  F   UNL A   1      47.172  29.280  26.090  1.00  0.00    -0.206 F 
ATOM     63  C   UNL A   1      48.800  27.657  26.557  1.00  0.00     0.059 A 
ATOM     64  C   UNL A   1      48.767  26.487  28.687  1.00  0.00     0.059 A 
ATOM     65  F   UNL A   1      47.080  26.956  30.243  1.00  0.00    -0.206 F 
ATOM     66  C   UNL A   1      49.323  26.698  27.427  1.00  0.00     0.060 A 
BRANCH  66  67
ATOM     67  S   UNL A   1      50.735  25.718  26.883  1.00  0.00     0.124 S 
ATOM     68  O   UNL A   1      50.402  24.404  27.424  1.00  0.00    -0.237 OA
ATOM     69  O   UNL A   1      50.664  25.844  25.431  1.00  0.00    -0.237 OA
ATOM     70  O   UNL A   1      51.872  26.385  27.511  1.00  0.00    -0.744 OA
ENDBRANCH  66  67
ENDBRANCH  45  59
BRANCH  46  71
ATOM     71  C   UNL A   1      38.385  32.329  30.628  1.00  0.00     0.058 A 
ATOM     72  C   UNL A   1      37.734  32.004  31.832  1.00  0.00     0.135 A 
ATOM     73  C   UNL A   1      37.727  33.225  29.769  1.00  0.00     0.135 A 
ATOM     74  F   UNL A   1      38.292  31.124  32.677  1.00  0.00    -0.206 F 
ATOM     75  C   UNL A   1      36.485  32.531  32.164  1.00  0.00     0.059 A 
ATOM     76  C   UNL A   1      36.489  33.786  30.090  1.00  0.00     0.059 A 
ATOM     77  F   UNL A   1      38.286  33.564  28.597  1.00  0.00    -0.206 F 
ATOM     78  C   UNL A   1      35.872  33.426  31.287  1.00  0.00     0.060 A 
BRANCH  78  79
ATOM     79  S   UNL A   1      34.277  34.145  31.748  1.00  0.00     0.124 S 
ATOM     80  O   UNL A   1      34.682  35.401  32.369  1.00  0.00    -0.237 OA
ATOM     81  O   UNL A   1      33.609  34.259  30.456  1.00  0.00    -0.237 OA
ATOM     82  O   UNL A   1      33.709  33.149  32.653  1.00  0.00    -0.744 OA
ENDBRANCH  78  79
ENDBRANCH  46  71
BRANCH  58  83
ATOM     83  C   UNL A   1      45.055  34.122  31.727  1.00  0.00     0.058 A 
ATOM     84  C   UNL A   1      45.260  35.334  31.050  1.00  0.00     0.135 A 
ATOM     85  C   UNL A   1      45.386  34.075  33.092  1.00  0.00     0.135 A 
ATOM     86  F   UNL A   1      44.963  35.437  29.745  1.00  0.00    -0.206 F 
ATOM     87  C   UNL A   1      45.774  36.453  31.700  1.00  0.00     0.059 A 
ATOM     88  C   UNL A   1      45.877  35.188  33.768  1.00  0.00     0.059 A 
ATOM     89  F   UNL A   1      45.199  32.945  33.794  1.00  0.00    -0.206 F 
ATOM     90  C   UNL A   1      46.072  36.373  33.062  1.00  0.00     0.060 A 
BRANCH  90  91
ATOM     91  S   UNL A   1      46.674  37.851  33.909  1.00  0.00     0.124 S 
ATOM     92  O   UNL A   1      47.083  38.689  32.787  1.00  0.00    -0.237 OA
ATOM     93  O   UNL A   1      45.491  38.300  34.637  1.00  0.00    -0.237 OA
ATOM     94  O   UNL A   1      47.760  37.348  34.745  1.00  0.00    -0.744 OA
ENDBRANCH  90  91
ENDBRANCH  58  83
ENDBRANCH  32  33
ENDBRANCH  25  27
ENDBRANCH  24  25
ENDBRANCH  23  24
ENDBRANCH   1  23
TORSDOF 19
ENDMDL
