MODEL 1
REMARK VINA RESULT:      -9.3      0.000      0.000
REMARK SMILES CCC1(CC)C[NH+]([C@H](C)CCC(=O)OCCOC(=O)c2ccc(-c3c4nc(c(-c5c(F)cc(S(=O)(=O)[O-])cc5F)c5ccc([nH]5)c(-c5c(F)cc(S(=O)(=O)[O-])cc5F)c5nc(c(-c6c(F)cc(S(=O)(=O)[O-])cc6F)c6ccc3[nH]6)C=C5)C=C4)cc2)C1
REMARK SMILES IDX 15 1 14 2 12 3 13 4 11 5 10 6 8 7 9 8 7 9 3 10 6 11 86 12
REMARK SMILES IDX 2 14 1 15 4 16 5 17 16 18 17 19 18 20 19 21 20 22 21 23
REMARK SMILES IDX 85 24 22 25 84 26 23 27 24 28 25 29 78 30 26 31 83 32 77 33
REMARK SMILES IDX 79 34 27 35 82 36 76 37 75 38 28 40 62 41 41 42 61 43 42 44
REMARK SMILES IDX 45 45 60 46 80 47 43 48 44 49 59 51 81 52 46 53 29 54 30 55
REMARK SMILES IDX 39 56 31 57 32 58 38 59 40 60 33 61 34 62 35 63 36 64 37 65
REMARK SMILES IDX 63 66 64 67 73 68 65 69 66 70 72 71 74 72 67 73 68 74 69 75
REMARK SMILES IDX 70 76 71 77 47 78 48 79 57 80 49 81 50 82 56 83 58 84 51 85
REMARK SMILES IDX 52 86 53 87 54 88 55 89
REMARK H PARENT 7 13 79 39 45 50
REMARK Flexibility Score: inf
ROOT
ATOM      1  C   UNL A   1      31.756  30.126  26.437  1.00  0.00     0.274 C 
ENDROOT
BRANCH   1   2
ATOM      2  O   UNL A   1      31.284  29.143  25.498  1.00  0.00    -0.462 OA
BRANCH   2   3
ATOM      3  C   UNL A   1      31.409  27.842  25.849  1.00  0.00     0.306 C 
ATOM      4  O   UNL A   1      31.275  27.413  26.989  1.00  0.00    -0.252 OA
BRANCH   3   5
ATOM      5  C   UNL A   1      31.804  26.948  24.695  1.00  0.00     0.129 C 
BRANCH   5   6
ATOM      6  C   UNL A   1      30.900  25.748  24.387  1.00  0.00     0.076 C 
BRANCH   6   7
ATOM      7  C   UNL A   1      31.488  24.344  24.682  1.00  0.00     0.181 C 
ATOM      8  C   UNL A   1      31.170  23.358  23.547  1.00  0.00     0.075 C 
BRANCH   7   9
ATOM      9  N   UNL A   1      32.896  24.506  25.090  1.00  0.00    -0.331 N 
ATOM     10  C   UNL A   1      34.715  23.390  25.038  1.00  0.00     0.068 C 
ATOM     11  C   UNL A   1      33.892  24.274  24.044  1.00  0.00     0.275 C 
ATOM     12  C   UNL A   1      33.417  23.413  25.918  1.00  0.00     0.275 C 
ATOM     13  H   UNL A   1      32.822  25.443  25.486  1.00  0.00     0.348 HD
BRANCH  10  14
ATOM     14  C   UNL A   1      35.214  22.103  24.345  1.00  0.00     0.015 C 
ATOM     15  C   UNL A   1      35.443  20.924  25.273  1.00  0.00     0.005 C 
ENDBRANCH  10  14
BRANCH  10  16
ATOM     16  C   UNL A   1      35.887  24.163  25.692  1.00  0.00     0.015 C 
ATOM     17  C   UNL A   1      37.249  23.648  25.234  1.00  0.00     0.005 C 
ENDBRANCH  10  16
ENDBRANCH   7   9
ENDBRANCH   6   7
ENDBRANCH   5   6
ENDBRANCH   3   5
ENDBRANCH   2   3
ENDBRANCH   1   2
BRANCH   1  18
ATOM     18  C   UNL A   1      33.282  30.236  26.395  1.00  0.00     0.275 C 
BRANCH  18  19
ATOM     19  O   UNL A   1      33.868  29.743  27.613  1.00  0.00    -0.458 OA
BRANCH  19  20
ATOM     20  C   UNL A   1      34.616  30.643  28.294  1.00  0.00     0.338 C 
ATOM     21  O   UNL A   1      34.244  31.689  28.792  1.00  0.00    -0.246 OA
BRANCH  20  22
ATOM     22  C   UNL A   1      35.977  30.119  28.450  1.00  0.00     0.060 A 
ATOM     23  C   UNL A   1      36.399  29.714  29.719  1.00  0.00     0.016 A 
ATOM     24  C   UNL A   1      36.855  30.107  27.367  1.00  0.00     0.016 A 
ATOM     25  C   UNL A   1      37.713  29.299  29.916  1.00  0.00     0.010 A 
ATOM     26  C   UNL A   1      38.171  29.688  27.565  1.00  0.00     0.010 A 
ATOM     27  C   UNL A   1      38.610  29.295  28.843  1.00  0.00    -0.014 A 
BRANCH  27  28
ATOM     28  C   UNL A   1      40.034  28.950  29.054  1.00  0.00     0.031 A 
ATOM     29  C   UNL A   1      40.979  30.009  29.543  1.00  0.00     0.074 A 
ATOM     30  C   UNL A   1      40.475  27.707  28.784  1.00  0.00     0.049 A 
ATOM     31  N   UNL A   1      42.282  29.983  29.616  1.00  0.00    -0.248 NA
ATOM     32  C   UNL A   1      40.371  31.268  30.004  1.00  0.00     0.031 C 
ATOM     33  C   UNL A   1      39.635  26.586  28.361  1.00  0.00     0.029 A 
ATOM     34  N   UNL A   1      41.744  27.187  28.808  1.00  0.00    -0.354 N 
ATOM     35  C   UNL A   1      42.656  31.232  30.101  1.00  0.00     0.074 A 
ATOM     36  C   UNL A   1      41.441  31.992  30.300  1.00  0.00     0.031 C 
ATOM     37  C   UNL A   1      40.416  25.512  28.149  1.00  0.00     0.029 A 
ATOM     38  C   UNL A   1      41.810  25.886  28.368  1.00  0.00     0.049 A 
ATOM     39  H   UNL A   1      42.530  27.696  29.110  1.00  0.00     0.167 HD
ATOM     40  C   UNL A   1      43.903  31.696  30.352  1.00  0.00     0.037 A 
ATOM     41  C   UNL A   1      42.880  25.102  28.130  1.00  0.00     0.037 A 
ATOM     42  C   UNL A   1      45.100  30.919  30.163  1.00  0.00     0.049 A 
ATOM     43  C   UNL A   1      44.259  25.657  28.366  1.00  0.00     0.074 A 
ATOM     44  C   UNL A   1      46.414  31.295  30.377  1.00  0.00     0.029 A 
ATOM     45  N   UNL A   1      45.126  29.604  29.720  1.00  0.00    -0.354 N 
ATOM     46  N   UNL A   1      44.605  26.848  28.792  1.00  0.00    -0.248 NA
ATOM     47  C   UNL A   1      45.394  24.769  28.079  1.00  0.00     0.031 C 
ATOM     48  C   UNL A   1      47.236  30.216  30.036  1.00  0.00     0.029 A 
ATOM     49  C   UNL A   1      46.433  29.155  29.649  1.00  0.00     0.049 A 
ATOM     50  H   UNL A   1      44.331  29.069  29.491  1.00  0.00     0.167 HD
ATOM     51  C   UNL A   1      45.993  26.842  28.855  1.00  0.00     0.074 A 
ATOM     52  C   UNL A   1      46.425  25.530  28.421  1.00  0.00     0.031 C 
ATOM     53  C   UNL A   1      46.835  27.832  29.241  1.00  0.00     0.037 A 
BRANCH  40  54
ATOM     54  C   UNL A   1      44.036  33.115  30.825  1.00  0.00     0.058 A 
ATOM     55  C   UNL A   1      44.187  34.183  29.927  1.00  0.00     0.135 A 
ATOM     56  C   UNL A   1      43.983  33.414  32.196  1.00  0.00     0.135 A 
ATOM     57  F   UNL A   1      44.263  33.950  28.607  1.00  0.00    -0.206 F 
ATOM     58  C   UNL A   1      44.305  35.496  30.373  1.00  0.00     0.059 A 
ATOM     59  C   UNL A   1      44.076  34.722  32.664  1.00  0.00     0.059 A 
ATOM     60  F   UNL A   1      43.842  32.429  33.097  1.00  0.00    -0.206 F 
ATOM     61  C   UNL A   1      44.251  35.755  31.744  1.00  0.00     0.060 A 
BRANCH  61  62
ATOM     62  S   UNL A   1      44.404  37.462  32.309  1.00  0.00     0.124 S 
ATOM     63  O   UNL A   1      43.573  37.447  33.508  1.00  0.00    -0.237 OA
ATOM     64  O   UNL A   1      45.840  37.592  32.536  1.00  0.00    -0.237 OA
ATOM     65  O   UNL A   1      43.878  38.239  31.191  1.00  0.00    -0.744 OA
ENDBRANCH  61  62
ENDBRANCH  40  54
BRANCH  41  66
ATOM     66  C   UNL A   1      42.687  23.721  27.616  1.00  0.00     0.058 A 
ATOM     67  C   UNL A   1      42.678  23.457  26.240  1.00  0.00     0.135 A 
ATOM     68  C   UNL A   1      42.518  22.636  28.492  1.00  0.00     0.135 A 
ATOM     69  F   UNL A   1      42.827  24.462  25.364  1.00  0.00    -0.206 F 
ATOM     70  C   UNL A   1      42.498  22.168  25.746  1.00  0.00     0.059 A 
ATOM     71  C   UNL A   1      42.360  21.335  28.023  1.00  0.00     0.059 A 
ATOM     72  F   UNL A   1      42.530  22.834  29.819  1.00  0.00    -0.206 F 
ATOM     73  C   UNL A   1      42.341  21.113  26.647  1.00  0.00     0.060 A 
BRANCH  73  74
ATOM     74  S   UNL A   1      42.154  19.438  25.999  1.00  0.00     0.124 S 
ATOM     75  O   UNL A   1      42.629  18.635  27.121  1.00  0.00    -0.237 OA
ATOM     76  O   UNL A   1      40.720  19.369  25.728  1.00  0.00    -0.237 OA
ATOM     77  O   UNL A   1      43.007  19.439  24.816  1.00  0.00    -0.744 OA
ENDBRANCH  73  74
ENDBRANCH  41  66
BRANCH  53  78
ATOM     78  C   UNL A   1      48.304  27.525  29.271  1.00  0.00     0.058 A 
ATOM     79  C   UNL A   1      49.101  27.621  28.122  1.00  0.00     0.135 A 
ATOM     80  C   UNL A   1      48.935  27.222  30.489  1.00  0.00     0.135 A 
ATOM     81  F   UNL A   1      48.544  27.900  26.933  1.00  0.00    -0.206 F 
ATOM     82  C   UNL A   1      50.478  27.426  28.178  1.00  0.00     0.059 A 
ATOM     83  C   UNL A   1      50.311  27.043  30.571  1.00  0.00     0.059 A 
ATOM     84  F   UNL A   1      48.214  27.127  31.618  1.00  0.00    -0.206 F 
ATOM     85  C   UNL A   1      51.075  27.145  29.409  1.00  0.00     0.060 A 
BRANCH  85  86
ATOM     86  S   UNL A   1      52.870  26.966  29.484  1.00  0.00     0.124 S 
ATOM     87  O   UNL A   1      53.260  28.198  30.162  1.00  0.00    -0.237 OA
ATOM     88  O   UNL A   1      53.031  25.738  30.257  1.00  0.00    -0.237 OA
ATOM     89  O   UNL A   1      53.260  26.871  28.081  1.00  0.00    -0.744 OA
ENDBRANCH  85  86
ENDBRANCH  53  78
ENDBRANCH  27  28
ENDBRANCH  20  22
ENDBRANCH  19  20
ENDBRANCH  18  19
ENDBRANCH   1  18
TORSDOF 19
ENDMDL
MODEL 2
REMARK VINA RESULT:      -9.3      4.180     10.903
REMARK SMILES CCC1(CC)C[NH+]([C@H](C)CCC(=O)OCCOC(=O)c2ccc(-c3c4nc(c(-c5c(F)cc(S(=O)(=O)[O-])cc5F)c5ccc([nH]5)c(-c5c(F)cc(S(=O)(=O)[O-])cc5F)c5nc(c(-c6c(F)cc(S(=O)(=O)[O-])cc6F)c6ccc3[nH]6)C=C5)C=C4)cc2)C1
REMARK SMILES IDX 15 1 14 2 12 3 13 4 11 5 10 6 8 7 9 8 7 9 3 10 6 11 86 12
REMARK SMILES IDX 2 14 1 15 4 16 5 17 16 18 17 19 18 20 19 21 20 22 21 23
REMARK SMILES IDX 85 24 22 25 84 26 23 27 24 28 25 29 78 30 26 31 83 32 77 33
REMARK SMILES IDX 79 34 27 35 82 36 76 37 75 38 28 40 62 41 41 42 61 43 42 44
REMARK SMILES IDX 45 45 60 46 80 47 43 48 44 49 59 51 81 52 46 53 29 54 30 55
REMARK SMILES IDX 39 56 31 57 32 58 38 59 40 60 33 61 34 62 35 63 36 64 37 65
REMARK SMILES IDX 63 66 64 67 73 68 65 69 66 70 72 71 74 72 67 73 68 74 69 75
REMARK SMILES IDX 70 76 71 77 47 78 48 79 57 80 49 81 50 82 56 83 58 84 51 85
REMARK SMILES IDX 52 86 53 87 54 88 55 89
REMARK H PARENT 7 13 79 39 45 50
REMARK Flexibility Score: inf
ROOT
ATOM      1  C   UNL A   1      41.217  20.966  27.685  1.00  0.00     0.274 C 
ENDROOT
BRANCH   1   2
ATOM      2  O   UNL A   1      42.539  21.530  27.611  1.00  0.00    -0.462 OA
BRANCH   2   3
ATOM      3  C   UNL A   1      42.744  22.709  28.243  1.00  0.00     0.306 C 
ATOM      4  O   UNL A   1      42.054  23.136  29.161  1.00  0.00    -0.252 OA
BRANCH   3   5
ATOM      5  C   UNL A   1      43.890  23.507  27.660  1.00  0.00     0.129 C 
BRANCH   5   6
ATOM      6  C   UNL A   1      43.765  23.963  26.201  1.00  0.00     0.076 C 
BRANCH   6   7
ATOM      7  C   UNL A   1      44.872  23.484  25.227  1.00  0.00     0.181 C 
ATOM      8  C   UNL A   1      44.277  22.683  24.060  1.00  0.00     0.075 C 
BRANCH   7   9
ATOM      9  N   UNL A   1      45.743  24.633  24.912  1.00  0.00    -0.331 N 
ATOM     10  C   UNL A   1      46.465  26.400  25.865  1.00  0.00     0.068 C 
ATOM     11  C   UNL A   1      46.834  24.880  25.853  1.00  0.00     0.275 C 
ATOM     12  C   UNL A   1      45.135  25.942  25.171  1.00  0.00     0.275 C 
ATOM     13  H   UNL A   1      45.981  24.371  23.955  1.00  0.00     0.348 HD
BRANCH  10  14
ATOM     14  C   UNL A   1      46.490  26.961  27.304  1.00  0.00     0.015 C 
ATOM     15  C   UNL A   1      45.502  28.082  27.570  1.00  0.00     0.005 C 
ENDBRANCH  10  14
BRANCH  10  16
ATOM     16  C   UNL A   1      47.364  27.239  24.922  1.00  0.00     0.015 C 
ATOM     17  C   UNL A   1      48.545  27.869  25.657  1.00  0.00     0.005 C 
ENDBRANCH  10  16
ENDBRANCH   7   9
ENDBRANCH   6   7
ENDBRANCH   5   6
ENDBRANCH   3   5
ENDBRANCH   2   3
ENDBRANCH   1   2
BRANCH   1  18
ATOM     18  C   UNL A   1      40.533  20.992  26.318  1.00  0.00     0.275 C 
BRANCH  18  19
ATOM     19  O   UNL A   1      40.410  22.339  25.828  1.00  0.00    -0.458 OA
BRANCH  19  20
ATOM     20  C   UNL A   1      39.227  22.941  26.094  1.00  0.00     0.338 C 
ATOM     21  O   UNL A   1      38.111  22.508  25.871  1.00  0.00    -0.246 OA
BRANCH  20  22
ATOM     22  C   UNL A   1      39.473  24.194  26.814  1.00  0.00     0.060 A 
ATOM     23  C   UNL A   1      40.302  25.154  26.226  1.00  0.00     0.016 A 
ATOM     24  C   UNL A   1      38.956  24.383  28.095  1.00  0.00     0.016 A 
ATOM     25  C   UNL A   1      40.627  26.313  26.924  1.00  0.00     0.010 A 
ATOM     26  C   UNL A   1      39.281  25.547  28.792  1.00  0.00     0.010 A 
ATOM     27  C   UNL A   1      40.129  26.511  28.216  1.00  0.00    -0.014 A 
BRANCH  27  28
ATOM     28  C   UNL A   1      40.541  27.691  29.010  1.00  0.00     0.031 A 
ATOM     29  C   UNL A   1      41.840  27.648  29.762  1.00  0.00     0.074 A 
ATOM     30  C   UNL A   1      39.747  28.775  29.073  1.00  0.00     0.049 A 
ATOM     31  N   UNL A   1      42.304  28.477  30.658  1.00  0.00    -0.248 NA
ATOM     32  C   UNL A   1      42.731  26.513  29.468  1.00  0.00     0.031 C 
ATOM     33  C   UNL A   1      38.493  28.948  28.337  1.00  0.00     0.029 A 
ATOM     34  N   UNL A   1      39.868  29.927  29.806  1.00  0.00    -0.354 N 
ATOM     35  C   UNL A   1      43.526  27.951  31.060  1.00  0.00     0.074 A 
ATOM     36  C   UNL A   1      43.729  26.727  30.314  1.00  0.00     0.031 C 
ATOM     37  C   UNL A   1      37.952  30.132  28.669  1.00  0.00     0.029 A 
ATOM     38  C   UNL A   1      38.791  30.772  29.679  1.00  0.00     0.049 A 
ATOM     39  H   UNL A   1      40.649  30.129  30.370  1.00  0.00     0.167 HD
ATOM     40  C   UNL A   1      44.394  28.447  31.974  1.00  0.00     0.037 A 
ATOM     41  C   UNL A   1      38.497  31.912  30.335  1.00  0.00     0.037 A 
ATOM     42  C   UNL A   1      44.182  29.673  32.696  1.00  0.00     0.049 A 
ATOM     43  C   UNL A   1      39.451  32.417  31.385  1.00  0.00     0.074 A 
ATOM     44  C   UNL A   1      44.991  30.263  33.651  1.00  0.00     0.029 A 
ATOM     45  N   UNL A   1      43.081  30.504  32.536  1.00  0.00    -0.354 N 
ATOM     46  N   UNL A   1      40.587  31.896  31.783  1.00  0.00    -0.248 NA
ATOM     47  C   UNL A   1      39.081  33.656  32.082  1.00  0.00     0.031 C 
ATOM     48  C   UNL A   1      44.366  31.434  34.089  1.00  0.00     0.029 A 
ATOM     49  C   UNL A   1      43.187  31.596  33.378  1.00  0.00     0.049 A 
ATOM     50  H   UNL A   1      42.335  30.340  31.915  1.00  0.00     0.167 HD
ATOM     51  C   UNL A   1      41.082  32.759  32.753  1.00  0.00     0.074 A 
ATOM     52  C   UNL A   1      40.122  33.835  32.884  1.00  0.00     0.031 C 
ATOM     53  C   UNL A   1      42.230  32.671  33.469  1.00  0.00     0.037 A 
BRANCH  40  54
ATOM     54  C   UNL A   1      45.630  27.646  32.266  1.00  0.00     0.058 A 
ATOM     55  C   UNL A   1      45.659  26.672  33.276  1.00  0.00     0.135 A 
ATOM     56  C   UNL A   1      46.795  27.837  31.506  1.00  0.00     0.135 A 
ATOM     57  F   UNL A   1      44.579  26.463  34.045  1.00  0.00    -0.206 F 
ATOM     58  C   UNL A   1      46.808  25.931  33.538  1.00  0.00     0.059 A 
ATOM     59  C   UNL A   1      47.948  27.092  31.735  1.00  0.00     0.059 A 
ATOM     60  F   UNL A   1      46.821  28.758  30.530  1.00  0.00    -0.206 F 
ATOM     61  C   UNL A   1      47.948  26.151  32.764  1.00  0.00     0.060 A 
BRANCH  61  62
ATOM     62  S   UNL A   1      49.432  25.182  33.113  1.00  0.00     0.124 S 
ATOM     63  O   UNL A   1      48.867  24.019  33.787  1.00  0.00    -0.237 OA
ATOM     64  O   UNL A   1      49.971  24.941  31.778  1.00  0.00    -0.237 OA
ATOM     65  O   UNL A   1      50.228  26.071  33.954  1.00  0.00    -0.744 OA
ENDBRANCH  61  62
ENDBRANCH  40  54
BRANCH  41  66
ATOM     66  C   UNL A   1      37.233  32.635  30.036  1.00  0.00     0.058 A 
ATOM     67  C   UNL A   1      36.036  32.293  30.679  1.00  0.00     0.135 A 
ATOM     68  C   UNL A   1      37.201  33.690  29.109  1.00  0.00     0.135 A 
ATOM     69  F   UNL A   1      36.015  31.286  31.566  1.00  0.00    -0.206 F 
ATOM     70  C   UNL A   1      34.846  32.962  30.408  1.00  0.00     0.059 A 
ATOM     71  C   UNL A   1      36.028  34.389  28.839  1.00  0.00     0.059 A 
ATOM     72  F   UNL A   1      38.323  34.064  28.475  1.00  0.00    -0.206 F 
ATOM     73  C   UNL A   1      34.854  34.011  29.486  1.00  0.00     0.060 A 
BRANCH  73  74
ATOM     74  S   UNL A   1      33.316  34.904  29.174  1.00  0.00     0.124 S 
ATOM     75  O   UNL A   1      32.660  34.029  28.207  1.00  0.00    -0.237 OA
ATOM     76  O   UNL A   1      32.711  34.954  30.502  1.00  0.00    -0.237 OA
ATOM     77  O   UNL A   1      33.773  36.189  28.654  1.00  0.00    -0.744 OA
ENDBRANCH  73  74
ENDBRANCH  41  66
BRANCH  53  78
ATOM     78  C   UNL A   1      42.548  33.792  34.416  1.00  0.00     0.058 A 
ATOM     79  C   UNL A   1      42.074  33.798  35.735  1.00  0.00     0.135 A 
ATOM     80  C   UNL A   1      43.417  34.822  34.021  1.00  0.00     0.135 A 
ATOM     81  F   UNL A   1      41.235  32.839  36.158  1.00  0.00    -0.206 F 
ATOM     82  C   UNL A   1      42.450  34.792  36.634  1.00  0.00     0.059 A 
ATOM     83  C   UNL A   1      43.822  35.813  34.908  1.00  0.00     0.059 A 
ATOM     84  F   UNL A   1      43.903  34.853  32.770  1.00  0.00    -0.206 F 
ATOM     85  C   UNL A   1      43.331  35.791  36.212  1.00  0.00     0.060 A 
BRANCH  85  86
ATOM     86  S   UNL A   1      43.870  37.034  37.406  1.00  0.00     0.124 S 
ATOM     87  O   UNL A   1      45.163  36.500  37.822  1.00  0.00    -0.237 OA
ATOM     88  O   UNL A   1      43.916  38.248  36.596  1.00  0.00    -0.237 OA
ATOM     89  O   UNL A   1      42.823  37.006  38.422  1.00  0.00    -0.744 OA
ENDBRANCH  85  86
ENDBRANCH  53  78
ENDBRANCH  27  28
ENDBRANCH  20  22
ENDBRANCH  19  20
ENDBRANCH  18  19
ENDBRANCH   1  18
TORSDOF 19
ENDMDL
MODEL 3
REMARK VINA RESULT:      -9.2      5.349     10.856
REMARK SMILES CCC1(CC)C[NH+]([C@H](C)CCC(=O)OCCOC(=O)c2ccc(-c3c4nc(c(-c5c(F)cc(S(=O)(=O)[O-])cc5F)c5ccc([nH]5)c(-c5c(F)cc(S(=O)(=O)[O-])cc5F)c5nc(c(-c6c(F)cc(S(=O)(=O)[O-])cc6F)c6ccc3[nH]6)C=C5)C=C4)cc2)C1
REMARK SMILES IDX 15 1 14 2 12 3 13 4 11 5 10 6 8 7 9 8 7 9 3 10 6 11 86 12
REMARK SMILES IDX 2 14 1 15 4 16 5 17 16 18 17 19 18 20 19 21 20 22 21 23
REMARK SMILES IDX 85 24 22 25 84 26 23 27 24 28 25 29 78 30 26 31 83 32 77 33
REMARK SMILES IDX 79 34 27 35 82 36 76 37 75 38 28 40 62 41 41 42 61 43 42 44
REMARK SMILES IDX 45 45 60 46 80 47 43 48 44 49 59 51 81 52 46 53 29 54 30 55
REMARK SMILES IDX 39 56 31 57 32 58 38 59 40 60 33 61 34 62 35 63 36 64 37 65
REMARK SMILES IDX 63 66 64 67 73 68 65 69 66 70 72 71 74 72 67 73 68 74 69 75
REMARK SMILES IDX 70 76 71 77 47 78 48 79 57 80 49 81 50 82 56 83 58 84 51 85
REMARK SMILES IDX 52 86 53 87 54 88 55 89
REMARK H PARENT 7 13 79 39 45 50
REMARK Flexibility Score: inf
ROOT
ATOM      1  C   UNL A   1      38.090  21.807  25.634  1.00  0.00     0.274 C 
ENDROOT
BRANCH   1   2
ATOM      2  O   UNL A   1      37.164  22.901  25.773  1.00  0.00    -0.462 OA
BRANCH   2   3
ATOM      3  C   UNL A   1      36.560  23.347  24.647  1.00  0.00     0.306 C 
ATOM      4  O   UNL A   1      37.116  23.470  23.562  1.00  0.00    -0.252 OA
BRANCH   3   5
ATOM      5  C   UNL A   1      35.120  23.756  24.865  1.00  0.00     0.129 C 
BRANCH   5   6
ATOM      6  C   UNL A   1      34.079  22.637  24.996  1.00  0.00     0.076 C 
BRANCH   6   7
ATOM      7  C   UNL A   1      34.064  21.857  26.336  1.00  0.00     0.181 C 
ATOM      8  C   UNL A   1      32.930  22.344  27.250  1.00  0.00     0.075 C 
BRANCH   7   9
ATOM      9  N   UNL A   1      34.146  20.415  26.034  1.00  0.00    -0.331 N 
ATOM     10  C   UNL A   1      33.190  18.990  24.765  1.00  0.00     0.068 C 
ATOM     11  C   UNL A   1      34.313  20.069  24.624  1.00  0.00     0.275 C 
ATOM     12  C   UNL A   1      32.867  19.704  26.124  1.00  0.00     0.275 C 
ATOM     13  H   UNL A   1      34.898  20.178  26.682  1.00  0.00     0.348 HD
BRANCH  10  14
ATOM     14  C   UNL A   1      32.224  19.040  23.561  1.00  0.00     0.015 C 
ATOM     15  C   UNL A   1      32.602  18.137  22.401  1.00  0.00     0.005 C 
ENDBRANCH  10  14
BRANCH  10  16
ATOM     16  C   UNL A   1      33.757  17.563  24.969  1.00  0.00     0.015 C 
ATOM     17  C   UNL A   1      32.714  16.599  25.528  1.00  0.00     0.005 C 
ENDBRANCH  10  16
ENDBRANCH   7   9
ENDBRANCH   6   7
ENDBRANCH   5   6
ENDBRANCH   3   5
ENDBRANCH   2   3
ENDBRANCH   1   2
BRANCH   1  18
ATOM     18  C   UNL A   1      39.453  22.165  26.229  1.00  0.00     0.275 C 
BRANCH  18  19
ATOM     19  O   UNL A   1      39.445  23.496  26.774  1.00  0.00    -0.458 OA
BRANCH  19  20
ATOM     20  C   UNL A   1      40.657  24.093  26.849  1.00  0.00     0.338 C 
ATOM     21  O   UNL A   1      41.669  23.792  26.243  1.00  0.00    -0.246 OA
BRANCH  20  22
ATOM     22  C   UNL A   1      40.564  25.270  27.719  1.00  0.00     0.060 A 
ATOM     23  C   UNL A   1      41.635  26.167  27.752  1.00  0.00     0.016 A 
ATOM     24  C   UNL A   1      39.462  25.440  28.556  1.00  0.00     0.016 A 
ATOM     25  C   UNL A   1      41.614  27.243  28.635  1.00  0.00     0.010 A 
ATOM     26  C   UNL A   1      39.441  26.521  29.438  1.00  0.00     0.010 A 
ATOM     27  C   UNL A   1      40.522  27.419  29.492  1.00  0.00    -0.014 A 
BRANCH  27  28
ATOM     28  C   UNL A   1      40.527  28.500  30.503  1.00  0.00     0.031 A 
ATOM     29  C   UNL A   1      41.478  28.415  31.661  1.00  0.00     0.074 A 
ATOM     30  C   UNL A   1      39.668  29.531  30.394  1.00  0.00     0.049 A 
ATOM     31  N   UNL A   1      41.525  29.138  32.747  1.00  0.00    -0.248 NA
ATOM     32  C   UNL A   1      42.512  27.369  31.585  1.00  0.00     0.031 C 
ATOM     33  C   UNL A   1      38.741  29.745  29.282  1.00  0.00     0.029 A 
ATOM     34  N   UNL A   1      39.424  30.580  31.242  1.00  0.00    -0.354 N 
ATOM     35  C   UNL A   1      42.570  28.616  33.501  1.00  0.00     0.074 A 
ATOM     36  C   UNL A   1      43.127  27.512  32.750  1.00  0.00     0.031 C 
ATOM     37  C   UNL A   1      38.017  30.850  29.524  1.00  0.00     0.029 A 
ATOM     38  C   UNL A   1      38.389  31.387  30.830  1.00  0.00     0.049 A 
ATOM     39  H   UNL A   1      39.938  30.740  32.066  1.00  0.00     0.167 HD
ATOM     40  C   UNL A   1      43.016  29.024  34.713  1.00  0.00     0.037 A 
ATOM     41  C   UNL A   1      37.786  32.417  31.457  1.00  0.00     0.037 A 
ATOM     42  C   UNL A   1      42.459  30.135  35.439  1.00  0.00     0.049 A 
ATOM     43  C   UNL A   1      38.264  32.819  32.826  1.00  0.00     0.074 A 
ATOM     44  C   UNL A   1      42.828  30.627  36.678  1.00  0.00     0.029 A 
ATOM     45  N   UNL A   1      41.415  30.931  34.987  1.00  0.00    -0.354 N 
ATOM     46  N   UNL A   1      39.230  32.300  33.546  1.00  0.00    -0.248 NA
ATOM     47  C   UNL A   1      37.567  33.938  33.475  1.00  0.00     0.031 C 
ATOM     48  C   UNL A   1      41.990  31.703  36.988  1.00  0.00     0.029 A 
ATOM     49  C   UNL A   1      41.124  31.906  35.924  1.00  0.00     0.049 A 
ATOM     50  H   UNL A   1      40.951  30.818  34.125  1.00  0.00     0.167 HD
ATOM     51  C   UNL A   1      39.278  33.048  34.716  1.00  0.00     0.074 A 
ATOM     52  C   UNL A   1      38.242  34.055  34.611  1.00  0.00     0.031 C 
ATOM     53  C   UNL A   1      40.105  32.916  35.782  1.00  0.00     0.037 A 
BRANCH  40  54
ATOM     54  C   UNL A   1      44.138  28.247  35.340  1.00  0.00     0.058 A 
ATOM     55  C   UNL A   1      43.897  27.140  36.168  1.00  0.00     0.135 A 
ATOM     56  C   UNL A   1      45.473  28.598  35.087  1.00  0.00     0.135 A 
ATOM     57  F   UNL A   1      42.639  26.773  36.459  1.00  0.00    -0.206 F 
ATOM     58  C   UNL A   1      44.942  26.422  36.743  1.00  0.00     0.059 A 
ATOM     59  C   UNL A   1      46.534  27.881  35.631  1.00  0.00     0.059 A 
ATOM     60  F   UNL A   1      45.758  29.651  34.304  1.00  0.00    -0.206 F 
ATOM     61  C   UNL A   1      46.257  26.802  36.470  1.00  0.00     0.060 A 
BRANCH  61  62
ATOM     62  S   UNL A   1      47.604  25.861  37.220  1.00  0.00     0.124 S 
ATOM     63  O   UNL A   1      46.961  25.343  38.423  1.00  0.00    -0.237 OA
ATOM     64  O   UNL A   1      47.909  24.874  36.190  1.00  0.00    -0.237 OA
ATOM     65  O   UNL A   1      48.638  26.868  37.443  1.00  0.00    -0.744 OA
ENDBRANCH  61  62
ENDBRANCH  40  54
BRANCH  41  66
ATOM     66  C   UNL A   1      36.649  33.117  30.805  1.00  0.00     0.058 A 
ATOM     67  C   UNL A   1      35.327  32.868  31.197  1.00  0.00     0.135 A 
ATOM     68  C   UNL A   1      36.863  34.059  29.785  1.00  0.00     0.135 A 
ATOM     69  F   UNL A   1      35.071  31.970  32.161  1.00  0.00    -0.206 F 
ATOM     70  C   UNL A   1      34.253  33.517  30.595  1.00  0.00     0.059 A 
ATOM     71  C   UNL A   1      35.807  34.738  29.184  1.00  0.00     0.059 A 
ATOM     72  F   UNL A   1      38.110  34.342  29.381  1.00  0.00    -0.206 F 
ATOM     73  C   UNL A   1      34.505  34.452  29.589  1.00  0.00     0.060 A 
BRANCH  73  74
ATOM     74  S   UNL A   1      33.109  35.324  28.845  1.00  0.00     0.124 S 
ATOM     75  O   UNL A   1      32.327  35.684  30.022  1.00  0.00    -0.237 OA
ATOM     76  O   UNL A   1      33.767  36.429  28.154  1.00  0.00    -0.237 OA
ATOM     77  O   UNL A   1      32.513  34.318  27.972  1.00  0.00    -0.744 OA
ENDBRANCH  73  74
ENDBRANCH  41  66
BRANCH  53  78
ATOM     78  C   UNL A   1      39.973  33.915  36.895  1.00  0.00     0.058 A 
ATOM     79  C   UNL A   1      39.058  33.734  37.941  1.00  0.00     0.135 A 
ATOM     80  C   UNL A   1      40.841  35.017  36.959  1.00  0.00     0.135 A 
ATOM     81  F   UNL A   1      38.202  32.700  37.921  1.00  0.00    -0.206 F 
ATOM     82  C   UNL A   1      39.006  34.615  39.017  1.00  0.00     0.059 A 
ATOM     83  C   UNL A   1      40.821  35.898  38.035  1.00  0.00     0.059 A 
ATOM     84  F   UNL A   1      41.740  35.226  35.984  1.00  0.00    -0.206 F 
ATOM     85  C   UNL A   1      39.898  35.690  39.058  1.00  0.00     0.060 A 
BRANCH  85  86
ATOM     86  S   UNL A   1      39.873  36.784  40.494  1.00  0.00     0.124 S 
ATOM     87  O   UNL A   1      41.102  36.398  41.179  1.00  0.00    -0.237 OA
ATOM     88  O   UNL A   1      39.879  38.109  39.878  1.00  0.00    -0.237 OA
ATOM     89  O   UNL A   1      38.633  36.424  41.175  1.00  0.00    -0.744 OA
ENDBRANCH  85  86
ENDBRANCH  53  78
ENDBRANCH  27  28
ENDBRANCH  20  22
ENDBRANCH  19  20
ENDBRANCH  18  19
ENDBRANCH   1  18
TORSDOF 19
ENDMDL
