MODEL 1
REMARK VINA RESULT:     -12.5      0.000      0.000
REMARK SMILES O=C(OCCOC(=O)[C@@H]1[C@H](C(=O)NCc2ccncc2)[C@H]2C=C[C@@H]1O2)c1ccc(-c2c3nc(c(-c4c(F)cc(S(=O)(=O)[O-])cc4F)c4ccc([nH]4)c(-c4c(F)cc(S(=O)(=O)[O-])cc4F)c4nc(c(-c5c(F)cc(S(=O)(=O)[O-])cc5F)c5ccc2[nH]5)C=C4)C=C3)cc1
REMARK SMILES IDX 4 1 3 2 2 3 1 4 26 5 27 6 91 7 28 8 90 9 29 10 30 11 31 12
REMARK SMILES IDX 84 13 32 14 89 15 83 16 85 17 33 18 88 19 82 20 81 21 34 23
REMARK SMILES IDX 68 24 47 25 67 26 48 27 51 28 66 29 86 30 49 31 50 32 65 34
REMARK SMILES IDX 87 35 52 36 35 37 36 38 45 39 37 40 38 41 44 42 46 43 39 44
REMARK SMILES IDX 40 45 41 46 42 47 43 48 69 49 70 50 79 51 71 52 72 53 78 54
REMARK SMILES IDX 80 55 73 56 74 57 75 58 76 59 77 60 53 61 54 62 63 63 55 64
REMARK SMILES IDX 56 65 62 66 64 67 57 68 58 69 59 70 60 71 61 72 5 73 6 74
REMARK SMILES IDX 7 75 8 76 9 77 10 78 24 79 21 80 23 81 25 82 22 83 11 84
REMARK SMILES IDX 12 85 13 86 14 88 15 89 16 90 20 91 17 92 19 93 18 94
REMARK H PARENT 85 22 51 33 13 87
REMARK Flexibility Score: inf
ROOT
ATOM      1  C   UNL A   1      32.220  31.376  27.231  1.00  0.00     0.275 C 
ENDROOT
BRANCH   1   2
ATOM      2  O   UNL A   1      33.542  31.909  27.378  1.00  0.00    -0.458 OA
BRANCH   2   3
ATOM      3  C   UNL A   1      34.248  31.982  28.527  1.00  0.00     0.338 C 
ATOM      4  O   UNL A   1      34.084  32.883  29.340  1.00  0.00    -0.246 OA
BRANCH   3   5
ATOM      5  C   UNL A   1      35.303  31.012  28.810  1.00  0.00     0.060 A 
ATOM      6  C   UNL A   1      36.215  30.217  27.448  1.00  0.00     0.016 A 
ATOM      7  C   UNL A   1      35.965  30.720  30.520  1.00  0.00     0.016 A 
ATOM      8  C   UNL A   1      37.711  29.404  27.660  1.00  0.00     0.010 A 
ATOM      9  C   UNL A   1      37.511  29.747  30.675  1.00  0.00     0.010 A 
ATOM     10  C   UNL A   1      38.396  29.204  29.227  1.00  0.00    -0.014 A 
BRANCH  10  11
ATOM     11  C   UNL A   1      39.872  28.910  29.128  1.00  0.00     0.031 A 
ATOM     12  C   UNL A   1      40.771  30.040  29.446  1.00  0.00     0.074 A 
ATOM     13  C   UNL A   1      40.380  27.661  28.902  1.00  0.00     0.049 A 
ATOM     14  N   UNL A   1      42.067  30.106  29.379  1.00  0.00    -0.248 NA
ATOM     15  C   UNL A   1      40.109  31.261  29.923  1.00  0.00     0.031 C 
ATOM     16  C   UNL A   1      39.625  26.401  28.820  1.00  0.00     0.029 A 
ATOM     17  N   UNL A   1      41.668  27.208  28.690  1.00  0.00    -0.354 N 
ATOM     18  C   UNL A   1      42.376  31.392  29.786  1.00  0.00     0.074 A 
ATOM     19  C   UNL A   1      41.133  32.085  30.033  1.00  0.00     0.031 C 
ATOM     20  C   UNL A   1      40.402  25.383  28.434  1.00  0.00     0.029 A 
ATOM     21  C   UNL A   1      41.753  25.874  28.307  1.00  0.00     0.049 A 
ATOM     22  H   UNL A   1      42.460  27.782  28.800  1.00  0.00     0.167 HD
ATOM     23  C   UNL A   1      43.601  31.930  29.955  1.00  0.00     0.037 A 
ATOM     24  C   UNL A   1      42.794  25.112  27.910  1.00  0.00     0.037 A 
ATOM     25  C   UNL A   1      44.804  31.205  29.666  1.00  0.00     0.049 A 
ATOM     26  C   UNL A   1      44.139  25.768  27.964  1.00  0.00     0.074 A 
ATOM     27  C   UNL A   1      46.110  31.644  29.719  1.00  0.00     0.029 A 
ATOM     28  N   UNL A   1      44.834  29.879  29.241  1.00  0.00    -0.354 N 
ATOM     29  N   UNL A   1      44.415  27.001  28.325  1.00  0.00    -0.248 NA
ATOM     30  C   UNL A   1      45.306  24.964  27.597  1.00  0.00     0.031 C 
ATOM     31  C   UNL A   1      46.921  30.613  29.237  1.00  0.00     0.029 A 
ATOM     32  C   UNL A   1      46.134  29.495  28.983  1.00  0.00     0.049 A 
ATOM     33  H   UNL A   1      44.044  29.300  29.141  1.00  0.00     0.167 HD
ATOM     34  C   UNL A   1      45.791  27.116  28.263  1.00  0.00     0.074 A 
ATOM     35  C   UNL A   1      46.292  25.823  27.827  1.00  0.00     0.031 C 
ATOM     36  C   UNL A   1      46.571  28.185  28.551  1.00  0.00     0.037 A 
BRANCH  23  37
ATOM     37  C   UNL A   1      43.629  33.378  30.348  1.00  0.00     0.058 A 
ATOM     38  C   UNL A   1      43.628  34.411  29.394  1.00  0.00     0.135 A 
ATOM     39  C   UNL A   1      43.826  33.724  31.692  1.00  0.00     0.135 A 
ATOM     40  F   UNL A   1      43.498  34.129  28.087  1.00  0.00    -0.206 F 
ATOM     41  C   UNL A   1      43.890  35.728  29.754  1.00  0.00     0.059 A 
ATOM     42  C   UNL A   1      44.043  35.040  32.079  1.00  0.00     0.059 A 
ATOM     43  F   UNL A   1      43.864  32.773  32.638  1.00  0.00    -0.206 F 
ATOM     44  C   UNL A   1      44.100  36.031  31.100  1.00  0.00     0.060 A 
BRANCH  44  45
ATOM     45  S   UNL A   1      44.460  37.739  31.550  1.00  0.00     0.124 S 
ATOM     46  O   UNL A   1      43.658  38.475  30.578  1.00  0.00    -0.237 OA
ATOM     47  O   UNL A   1      43.993  37.797  32.932  1.00  0.00    -0.237 OA
ATOM     48  O   UNL A   1      45.905  37.838  31.376  1.00  0.00    -0.744 OA
ENDBRANCH  44  45
ENDBRANCH  23  37
BRANCH  24  49
ATOM     49  C   UNL A   1      42.603  23.697  27.441  1.00  0.00     0.058 A 
ATOM     50  C   UNL A   1      42.514  23.355  26.082  1.00  0.00     0.135 A 
ATOM     51  C   UNL A   1      42.529  22.637  28.365  1.00  0.00     0.135 A 
ATOM     52  F   UNL A   1      42.571  24.315  25.145  1.00  0.00    -0.206 F 
ATOM     53  C   UNL A   1      42.359  22.031  25.656  1.00  0.00     0.059 A 
ATOM     54  C   UNL A   1      42.395  21.305  27.966  1.00  0.00     0.059 A 
ATOM     55  F   UNL A   1      42.614  22.888  29.680  1.00  0.00    -0.206 F 
ATOM     56  C   UNL A   1      42.309  21.010  26.607  1.00  0.00     0.060 A 
BRANCH  56  57
ATOM     57  S   UNL A   1      42.173  19.295  26.043  1.00  0.00     0.124 S 
ATOM     58  O   UNL A   1      42.574  18.555  27.235  1.00  0.00    -0.237 OA
ATOM     59  O   UNL A   1      40.762  19.205  25.682  1.00  0.00    -0.237 OA
ATOM     60  O   UNL A   1      43.106  19.232  24.922  1.00  0.00    -0.744 OA
ENDBRANCH  56  57
ENDBRANCH  24  49
BRANCH  36  61
ATOM     61  C   UNL A   1      48.049  27.993  28.444  1.00  0.00     0.058 A 
ATOM     62  C   UNL A   1      48.790  27.392  29.469  1.00  0.00     0.135 A 
ATOM     63  C   UNL A   1      48.693  28.283  27.231  1.00  0.00     0.135 A 
ATOM     64  F   UNL A   1      48.212  27.112  30.650  1.00  0.00    -0.206 F 
ATOM     65  C   UNL A   1      50.127  27.073  29.291  1.00  0.00     0.059 A 
ATOM     66  C   UNL A   1      50.017  27.935  27.017  1.00  0.00     0.059 A 
ATOM     67  F   UNL A   1      48.013  28.853  26.221  1.00  0.00    -0.206 F 
ATOM     68  C   UNL A   1      50.723  27.329  28.054  1.00  0.00     0.060 A 
BRANCH  68  69
ATOM     69  S   UNL A   1      52.428  26.805  27.802  1.00  0.00     0.124 S 
ATOM     70  O   UNL A   1      52.898  27.794  26.837  1.00  0.00    -0.237 OA
ATOM     71  O   UNL A   1      52.984  26.913  29.147  1.00  0.00    -0.237 OA
ATOM     72  O   UNL A   1      52.295  25.443  27.291  1.00  0.00    -0.744 OA
ENDBRANCH  68  69
ENDBRANCH  36  61
ENDBRANCH  10  11
ENDBRANCH   3   5
ENDBRANCH   2   3
ENDBRANCH   1   2
BRANCH   1  73
ATOM     73  C   UNL A   1      32.335  30.041  26.449  1.00  0.00     0.274 C 
BRANCH  73  74
ATOM     74  O   UNL A   1      32.687  28.870  27.274  1.00  0.00    -0.462 OA
BRANCH  74  75
ATOM     75  C   UNL A   1      32.102  27.657  27.049  1.00  0.00     0.312 C 
ATOM     76  O   UNL A   1      31.023  27.374  27.551  1.00  0.00    -0.252 OA
BRANCH  75  77
ATOM     77  C   UNL A   1      32.967  26.691  26.141  1.00  0.00     0.147 C 
ATOM     78  C   UNL A   1      33.525  26.817  24.383  1.00  0.00     0.128 C 
ATOM     79  C   UNL A   1      32.354  25.244  26.218  1.00  0.00     0.157 C 
ATOM     80  C   UNL A   1      33.261  25.040  24.244  1.00  0.00     0.155 C 
ATOM     81  C   UNL A   1      33.447  24.230  26.349  1.00  0.00     0.004 C 
ATOM     82  O   UNL A   1      31.963  24.928  24.869  1.00  0.00    -0.365 OA
ATOM     83  C   UNL A   1      34.053  24.167  25.161  1.00  0.00     0.004 C 
BRANCH  78  84
ATOM     84  C   UNL A   1      33.214  28.321  22.796  1.00  0.00     0.227 C 
ATOM     85  O   UNL A   1      34.009  28.911  22.004  1.00  0.00    -0.275 OA
ATOM     86  N   UNL A   1      31.867  29.111  22.381  1.00  0.00    -0.352 N 
ATOM     87  H   UNL A   1      32.105  29.974  21.972  1.00  0.00     0.163 HD
BRANCH  86  88
ATOM     88  C   UNL A   1      30.279  28.956  22.417  1.00  0.00     0.151 C 
BRANCH  88  89
ATOM     89  C   UNL A   1      29.373  30.203  22.377  1.00  0.00    -0.026 A 
ATOM     90  C   UNL A   1      29.144  30.987  23.534  1.00  0.00     0.025 A 
ATOM     91  C   UNL A   1      28.734  30.640  21.224  1.00  0.00     0.025 A 
ATOM     92  C   UNL A   1      28.632  32.281  23.411  1.00  0.00     0.111 A 
ATOM     93  C   UNL A   1      28.112  31.893  21.227  1.00  0.00     0.111 A 
ATOM     94  N   UNL A   1      28.106  32.753  22.269  1.00  0.00    -0.265 NA
ENDBRANCH  88  89
ENDBRANCH  86  88
ENDBRANCH  78  84
ENDBRANCH  75  77
ENDBRANCH  74  75
ENDBRANCH  73  74
ENDBRANCH   1  73
TORSDOF 17
ENDMDL
MODEL 2
REMARK VINA RESULT:     -12.3      1.902      3.411
REMARK SMILES O=C(OCCOC(=O)[C@@H]1[C@H](C(=O)NCc2ccncc2)[C@H]2C=C[C@@H]1O2)c1ccc(-c2c3nc(c(-c4c(F)cc(S(=O)(=O)[O-])cc4F)c4ccc([nH]4)c(-c4c(F)cc(S(=O)(=O)[O-])cc4F)c4nc(c(-c5c(F)cc(S(=O)(=O)[O-])cc5F)c5ccc2[nH]5)C=C4)C=C3)cc1
REMARK SMILES IDX 4 1 3 2 2 3 1 4 26 5 27 6 91 7 28 8 90 9 29 10 30 11 31 12
REMARK SMILES IDX 84 13 32 14 89 15 83 16 85 17 33 18 88 19 82 20 81 21 34 23
REMARK SMILES IDX 68 24 47 25 67 26 48 27 51 28 66 29 86 30 49 31 50 32 65 34
REMARK SMILES IDX 87 35 52 36 35 37 36 38 45 39 37 40 38 41 44 42 46 43 39 44
REMARK SMILES IDX 40 45 41 46 42 47 43 48 69 49 70 50 79 51 71 52 72 53 78 54
REMARK SMILES IDX 80 55 73 56 74 57 75 58 76 59 77 60 53 61 54 62 63 63 55 64
REMARK SMILES IDX 56 65 62 66 64 67 57 68 58 69 59 70 60 71 61 72 5 73 6 74
REMARK SMILES IDX 7 75 8 76 9 77 10 78 24 79 21 80 23 81 25 82 22 83 11 84
REMARK SMILES IDX 12 85 13 86 14 88 15 89 16 90 20 91 17 92 19 93 18 94
REMARK H PARENT 85 22 51 33 13 87
REMARK Flexibility Score: inf
ROOT
ATOM      1  C   UNL A   1      33.392  31.205  27.135  1.00  0.00     0.275 C 
ENDROOT
BRANCH   1   2
ATOM      2  O   UNL A   1      33.460  31.941  28.363  1.00  0.00    -0.458 OA
BRANCH   2   3
ATOM      3  C   UNL A   1      34.564  32.135  29.116  1.00  0.00     0.338 C 
ATOM      4  O   UNL A   1      34.785  33.192  29.692  1.00  0.00    -0.246 OA
BRANCH   3   5
ATOM      5  C   UNL A   1      35.588  31.097  29.210  1.00  0.00     0.060 A 
ATOM      6  C   UNL A   1      36.495  30.559  27.724  1.00  0.00     0.016 A 
ATOM      7  C   UNL A   1      36.218  30.454  30.833  1.00  0.00     0.016 A 
ATOM      8  C   UNL A   1      37.965  29.676  27.783  1.00  0.00     0.010 A 
ATOM      9  C   UNL A   1      37.734  29.423  30.805  1.00  0.00     0.010 A 
ATOM     10  C   UNL A   1      38.623  29.150  29.285  1.00  0.00    -0.014 A 
BRANCH  10  11
ATOM     11  C   UNL A   1      40.091  28.837  29.141  1.00  0.00     0.031 A 
ATOM     12  C   UNL A   1      41.015  29.952  29.441  1.00  0.00     0.074 A 
ATOM     13  C   UNL A   1      40.576  27.583  28.892  1.00  0.00     0.049 A 
ATOM     14  N   UNL A   1      42.309  30.002  29.337  1.00  0.00    -0.248 NA
ATOM     15  C   UNL A   1      40.384  31.179  29.946  1.00  0.00     0.031 C 
ATOM     16  C   UNL A   1      39.802  26.334  28.823  1.00  0.00     0.029 A 
ATOM     17  N   UNL A   1      41.851  27.114  28.640  1.00  0.00    -0.354 N 
ATOM     18  C   UNL A   1      42.647  31.281  29.744  1.00  0.00     0.074 A 
ATOM     19  C   UNL A   1      41.421  31.988  30.031  1.00  0.00     0.031 C 
ATOM     20  C   UNL A   1      40.553  25.309  28.407  1.00  0.00     0.029 A 
ATOM     21  C   UNL A   1      41.906  25.782  28.245  1.00  0.00     0.049 A 
ATOM     22  H   UNL A   1      42.654  27.677  28.730  1.00  0.00     0.167 HD
ATOM     23  C   UNL A   1      43.884  31.801  29.881  1.00  0.00     0.037 A 
ATOM     24  C   UNL A   1      42.925  25.009  27.812  1.00  0.00     0.037 A 
ATOM     25  C   UNL A   1      45.068  31.062  29.553  1.00  0.00     0.049 A 
ATOM     26  C   UNL A   1      44.280  25.647  27.833  1.00  0.00     0.074 A 
ATOM     27  C   UNL A   1      46.381  31.483  29.570  1.00  0.00     0.029 A 
ATOM     28  N   UNL A   1      45.067  29.739  29.118  1.00  0.00    -0.354 N 
ATOM     29  N   UNL A   1      44.583  26.873  28.194  1.00  0.00    -0.248 NA
ATOM     30  C   UNL A   1      45.425  24.830  27.426  1.00  0.00     0.031 C 
ATOM     31  C   UNL A   1      47.163  30.445  29.059  1.00  0.00     0.029 A 
ATOM     32  C   UNL A   1      46.354  29.339  28.820  1.00  0.00     0.049 A 
ATOM     33  H   UNL A   1      44.266  29.171  29.036  1.00  0.00     0.167 HD
ATOM     34  C   UNL A   1      45.958  26.970  28.093  1.00  0.00     0.074 A 
ATOM     35  C   UNL A   1      46.428  25.674  27.633  1.00  0.00     0.031 C 
ATOM     36  C   UNL A   1      46.760  28.027  28.366  1.00  0.00     0.037 A 
BRANCH  23  37
ATOM     37  C   UNL A   1      43.942  33.245  30.283  1.00  0.00     0.058 A 
ATOM     38  C   UNL A   1      43.898  34.286  29.339  1.00  0.00     0.135 A 
ATOM     39  C   UNL A   1      44.212  33.579  31.617  1.00  0.00     0.135 A 
ATOM     40  F   UNL A   1      43.698  34.015  28.038  1.00  0.00    -0.206 F 
ATOM     41  C   UNL A   1      44.188  35.598  29.695  1.00  0.00     0.059 A 
ATOM     42  C   UNL A   1      44.460  34.890  32.003  1.00  0.00     0.059 A 
ATOM     43  F   UNL A   1      44.293  32.620  32.553  1.00  0.00    -0.206 F 
ATOM     44  C   UNL A   1      44.471  35.889  31.030  1.00  0.00     0.060 A 
BRANCH  44  45
ATOM     45  S   UNL A   1      44.866  37.591  31.474  1.00  0.00     0.124 S 
ATOM     46  O   UNL A   1      46.151  37.429  32.147  1.00  0.00    -0.237 OA
ATOM     47  O   UNL A   1      44.912  38.245  30.170  1.00  0.00    -0.237 OA
ATOM     48  O   UNL A   1      43.753  37.985  32.331  1.00  0.00    -0.744 OA
ENDBRANCH  44  45
ENDBRANCH  23  37
BRANCH  24  49
ATOM     49  C   UNL A   1      42.701  23.601  27.340  1.00  0.00     0.058 A 
ATOM     50  C   UNL A   1      42.733  23.244  25.981  1.00  0.00     0.135 A 
ATOM     51  C   UNL A   1      42.472  22.560  28.260  1.00  0.00     0.135 A 
ATOM     52  F   UNL A   1      42.941  24.184  25.047  1.00  0.00    -0.206 F 
ATOM     53  C   UNL A   1      42.546  21.925  25.555  1.00  0.00     0.059 A 
ATOM     54  C   UNL A   1      42.302  21.232  27.862  1.00  0.00     0.059 A 
ATOM     55  F   UNL A   1      42.435  22.826  29.576  1.00  0.00    -0.206 F 
ATOM     56  C   UNL A   1      42.339  20.922  26.505  1.00  0.00     0.060 A 
BRANCH  56  57
ATOM     57  S   UNL A   1      42.162  19.209  25.946  1.00  0.00     0.124 S 
ATOM     58  O   UNL A   1      43.034  19.184  24.776  1.00  0.00    -0.237 OA
ATOM     59  O   UNL A   1      42.633  18.461  27.107  1.00  0.00    -0.237 OA
ATOM     60  O   UNL A   1      40.734  19.089  25.667  1.00  0.00    -0.744 OA
ENDBRANCH  56  57
ENDBRANCH  24  49
BRANCH  36  61
ATOM     61  C   UNL A   1      48.232  27.815  28.214  1.00  0.00     0.058 A 
ATOM     62  C   UNL A   1      49.000  27.233  29.230  1.00  0.00     0.135 A 
ATOM     63  C   UNL A   1      48.838  28.068  26.973  1.00  0.00     0.135 A 
ATOM     64  F   UNL A   1      48.460  26.988  30.435  1.00  0.00    -0.206 F 
ATOM     65  C   UNL A   1      50.327  26.894  29.015  1.00  0.00     0.059 A 
ATOM     66  C   UNL A   1      50.150  27.700  26.725  1.00  0.00     0.059 A 
ATOM     67  F   UNL A   1      48.131  28.619  25.973  1.00  0.00    -0.206 F 
ATOM     68  C   UNL A   1      50.885  27.112  27.753  1.00  0.00     0.060 A 
BRANCH  68  69
ATOM     69  S   UNL A   1      52.575  26.564  27.458  1.00  0.00     0.124 S 
ATOM     70  O   UNL A   1      53.185  26.781  28.766  1.00  0.00    -0.237 OA
ATOM     71  O   UNL A   1      52.382  25.170  27.069  1.00  0.00    -0.237 OA
ATOM     72  O   UNL A   1      53.039  27.449  26.393  1.00  0.00    -0.744 OA
ENDBRANCH  68  69
ENDBRANCH  36  61
ENDBRANCH  10  11
ENDBRANCH   3   5
ENDBRANCH   2   3
ENDBRANCH   1   2
BRANCH   1  73
ATOM     73  C   UNL A   1      32.163  30.262  27.219  1.00  0.00     0.274 C 
BRANCH  73  74
ATOM     74  O   UNL A   1      32.314  28.983  26.499  1.00  0.00    -0.462 OA
BRANCH  74  75
ATOM     75  C   UNL A   1      31.534  27.908  26.815  1.00  0.00     0.312 C 
ATOM     76  O   UNL A   1      31.287  27.629  27.981  1.00  0.00    -0.252 OA
BRANCH  75  77
ATOM     77  C   UNL A   1      31.046  27.082  25.556  1.00  0.00     0.147 C 
ATOM     78  C   UNL A   1      30.634  25.294  25.334  1.00  0.00     0.128 C 
ATOM     79  C   UNL A   1      32.016  27.377  24.353  1.00  0.00     0.157 C 
ATOM     80  C   UNL A   1      31.376  25.397  23.696  1.00  0.00     0.155 C 
ATOM     81  C   UNL A   1      31.229  27.574  23.095  1.00  0.00     0.004 C 
ATOM     82  O   UNL A   1      32.596  26.104  24.016  1.00  0.00    -0.365 OA
ATOM     83  C   UNL A   1      30.771  26.372  22.741  1.00  0.00     0.004 C 
BRANCH  78  84
ATOM     84  C   UNL A   1      30.668  23.549  26.686  1.00  0.00     0.227 C 
ATOM     85  O   UNL A   1      29.844  23.109  27.542  1.00  0.00    -0.275 OA
ATOM     86  N   UNL A   1      31.860  22.495  26.969  1.00  0.00    -0.352 N 
ATOM     87  H   UNL A   1      31.759  22.120  27.875  1.00  0.00     0.163 HD
BRANCH  86  88
ATOM     88  C   UNL A   1      33.146  21.860  26.269  1.00  0.00     0.151 C 
BRANCH  88  89
ATOM     89  C   UNL A   1      33.516  22.245  24.823  1.00  0.00    -0.026 A 
ATOM     90  C   UNL A   1      32.715  21.849  23.725  1.00  0.00     0.025 A 
ATOM     91  C   UNL A   1      34.638  22.998  24.501  1.00  0.00     0.025 A 
ATOM     92  C   UNL A   1      32.853  22.489  22.492  1.00  0.00     0.111 A 
ATOM     93  C   UNL A   1      34.779  23.482  23.197  1.00  0.00     0.111 A 
ATOM     94  N   UNL A   1      33.880  23.305  22.204  1.00  0.00    -0.265 NA
ENDBRANCH  88  89
ENDBRANCH  86  88
ENDBRANCH  78  84
ENDBRANCH  75  77
ENDBRANCH  74  75
ENDBRANCH  73  74
ENDBRANCH   1  73
TORSDOF 17
ENDMDL
MODEL 3
REMARK VINA RESULT:     -12.1      5.482     10.266
REMARK SMILES O=C(OCCOC(=O)[C@@H]1[C@H](C(=O)NCc2ccncc2)[C@H]2C=C[C@@H]1O2)c1ccc(-c2c3nc(c(-c4c(F)cc(S(=O)(=O)[O-])cc4F)c4ccc([nH]4)c(-c4c(F)cc(S(=O)(=O)[O-])cc4F)c4nc(c(-c5c(F)cc(S(=O)(=O)[O-])cc5F)c5ccc2[nH]5)C=C4)C=C3)cc1
REMARK SMILES IDX 4 1 3 2 2 3 1 4 26 5 27 6 91 7 28 8 90 9 29 10 30 11 31 12
REMARK SMILES IDX 84 13 32 14 89 15 83 16 85 17 33 18 88 19 82 20 81 21 34 23
REMARK SMILES IDX 68 24 47 25 67 26 48 27 51 28 66 29 86 30 49 31 50 32 65 34
REMARK SMILES IDX 87 35 52 36 35 37 36 38 45 39 37 40 38 41 44 42 46 43 39 44
REMARK SMILES IDX 40 45 41 46 42 47 43 48 69 49 70 50 79 51 71 52 72 53 78 54
REMARK SMILES IDX 80 55 73 56 74 57 75 58 76 59 77 60 53 61 54 62 63 63 55 64
REMARK SMILES IDX 56 65 62 66 64 67 57 68 58 69 59 70 60 71 61 72 5 73 6 74
REMARK SMILES IDX 7 75 8 76 9 77 10 78 24 79 21 80 23 81 25 82 22 83 11 84
REMARK SMILES IDX 12 85 13 86 14 88 15 89 16 90 20 91 17 92 19 93 18 94
REMARK H PARENT 85 22 51 33 13 87
REMARK Flexibility Score: inf
ROOT
ATOM      1  C   UNL A   1      38.769  22.441  26.185  1.00  0.00     0.275 C 
ENDROOT
BRANCH   1   2
ATOM      2  O   UNL A   1      40.073  23.028  26.281  1.00  0.00    -0.458 OA
BRANCH   2   3
ATOM      3  C   UNL A   1      40.699  23.394  27.420  1.00  0.00     0.338 C 
ATOM      4  O   UNL A   1      41.254  22.584  28.151  1.00  0.00    -0.246 OA
BRANCH   3   5
ATOM      5  C   UNL A   1      40.672  24.785  27.866  1.00  0.00     0.060 A 
ATOM      6  C   UNL A   1      39.229  25.435  28.770  1.00  0.00     0.016 A 
ATOM      7  C   UNL A   1      42.160  25.891  27.792  1.00  0.00     0.016 A 
ATOM      8  C   UNL A   1      39.261  26.889  29.681  1.00  0.00     0.010 A 
ATOM      9  C   UNL A   1      42.079  27.482  28.702  1.00  0.00     0.010 A 
ATOM     10  C   UNL A   1      40.664  27.887  29.707  1.00  0.00    -0.014 A 
BRANCH  10  11
ATOM     11  C   UNL A   1      40.639  28.808  30.900  1.00  0.00     0.031 A 
ATOM     12  C   UNL A   1      39.610  29.869  30.868  1.00  0.00     0.074 A 
ATOM     13  C   UNL A   1      41.404  28.617  32.018  1.00  0.00     0.049 A 
ATOM     14  N   UNL A   1      39.397  30.837  31.708  1.00  0.00    -0.248 NA
ATOM     15  C   UNL A   1      38.680  29.814  29.732  1.00  0.00     0.031 C 
ATOM     16  C   UNL A   1      42.282  27.472  32.303  1.00  0.00     0.029 A 
ATOM     17  N   UNL A   1      41.591  29.380  33.155  1.00  0.00    -0.354 N 
ATOM     18  C   UNL A   1      38.316  31.526  31.185  1.00  0.00     0.074 A 
ATOM     19  C   UNL A   1      37.964  30.904  29.930  1.00  0.00     0.031 C 
ATOM     20  C   UNL A   1      43.007  27.669  33.410  1.00  0.00     0.029 A 
ATOM     21  C   UNL A   1      42.606  28.927  33.990  1.00  0.00     0.049 A 
ATOM     22  H   UNL A   1      41.050  30.178  33.357  1.00  0.00     0.167 HD
ATOM     23  C   UNL A   1      37.669  32.577  31.729  1.00  0.00     0.037 A 
ATOM     24  C   UNL A   1      43.157  29.447  35.108  1.00  0.00     0.037 A 
ATOM     25  C   UNL A   1      38.081  33.175  32.965  1.00  0.00     0.049 A 
ATOM     26  C   UNL A   1      42.519  30.700  35.625  1.00  0.00     0.074 A 
ATOM     27  C   UNL A   1      37.568  34.288  33.599  1.00  0.00     0.029 A 
ATOM     28  N   UNL A   1      39.137  32.710  33.745  1.00  0.00    -0.354 N 
ATOM     29  N   UNL A   1      41.510  31.360  35.102  1.00  0.00    -0.248 NA
ATOM     30  C   UNL A   1      43.044  31.270  36.868  1.00  0.00     0.031 C 
ATOM     31  C   UNL A   1      38.372  34.547  34.711  1.00  0.00     0.029 A 
ATOM     32  C   UNL A   1      39.322  33.539  34.832  1.00  0.00     0.049 A 
ATOM     33  H   UNL A   1      39.671  31.906  33.550  1.00  0.00     0.167 HD
ATOM     34  C   UNL A   1      41.254  32.407  35.967  1.00  0.00     0.074 A 
ATOM     35  C   UNL A   1      42.217  32.292  37.049  1.00  0.00     0.031 C 
ATOM     36  C   UNL A   1      40.303  33.368  35.882  1.00  0.00     0.037 A 
BRANCH  23  37
ATOM     37  C   UNL A   1      36.564  33.162  30.900  1.00  0.00     0.058 A 
ATOM     38  C   UNL A   1      36.818  34.009  29.807  1.00  0.00     0.135 A 
ATOM     39  C   UNL A   1      35.234  33.001  31.312  1.00  0.00     0.135 A 
ATOM     40  F   UNL A   1      38.079  34.241  29.406  1.00  0.00    -0.206 F 
ATOM     41  C   UNL A   1      35.797  34.729  29.197  1.00  0.00     0.059 A 
ATOM     42  C   UNL A   1      34.193  33.675  30.687  1.00  0.00     0.059 A 
ATOM     43  F   UNL A   1      34.940  32.226  32.367  1.00  0.00    -0.206 F 
ATOM     44  C   UNL A   1      34.487  34.557  29.647  1.00  0.00     0.060 A 
BRANCH  44  45
ATOM     45  S   UNL A   1      33.176  35.512  28.862  1.00  0.00     0.124 S 
ATOM     46  O   UNL A   1      33.942  36.481  28.085  1.00  0.00    -0.237 OA
ATOM     47  O   UNL A   1      32.474  34.491  28.089  1.00  0.00    -0.237 OA
ATOM     48  O   UNL A   1      32.432  36.060  29.991  1.00  0.00    -0.744 OA
ENDBRANCH  44  45
ENDBRANCH  23  37
BRANCH  24  49
ATOM     49  C   UNL A   1      44.336  28.803  35.780  1.00  0.00     0.058 A 
ATOM     50  C   UNL A   1      45.662  29.170  35.498  1.00  0.00     0.135 A 
ATOM     51  C   UNL A   1      44.152  27.805  36.757  1.00  0.00     0.135 A 
ATOM     52  F   UNL A   1      45.914  30.110  34.574  1.00  0.00    -0.206 F 
ATOM     53  C   UNL A   1      46.751  28.579  36.147  1.00  0.00     0.059 A 
ATOM     54  C   UNL A   1      45.221  27.214  37.434  1.00  0.00     0.059 A 
ATOM     55  F   UNL A   1      42.911  27.409  37.083  1.00  0.00    -0.206 F 
ATOM     56  C   UNL A   1      46.520  27.606  37.121  1.00  0.00     0.060 A 
BRANCH  56  57
ATOM     57  S   UNL A   1      47.934  26.894  38.001  1.00  0.00     0.124 S 
ATOM     58  O   UNL A   1      47.553  25.489  38.093  1.00  0.00    -0.237 OA
ATOM     59  O   UNL A   1      49.038  27.197  37.096  1.00  0.00    -0.237 OA
ATOM     60  O   UNL A   1      47.949  27.625  39.265  1.00  0.00    -0.744 OA
ENDBRANCH  56  57
ENDBRANCH  24  49
BRANCH  36  61
ATOM     61  C   UNL A   1      40.230  34.349  37.009  1.00  0.00     0.058 A 
ATOM     62  C   UNL A   1      40.968  35.538  36.998  1.00  0.00     0.135 A 
ATOM     63  C   UNL A   1      39.291  34.149  38.033  1.00  0.00     0.135 A 
ATOM     64  F   UNL A   1      41.886  35.759  36.042  1.00  0.00    -0.206 F 
ATOM     65  C   UNL A   1      40.769  36.510  37.965  1.00  0.00     0.059 A 
ATOM     66  C   UNL A   1      39.046  35.125  38.986  1.00  0.00     0.059 A 
ATOM     67  F   UNL A   1      38.558  33.023  38.072  1.00  0.00    -0.206 F 
ATOM     68  C   UNL A   1      39.791  36.302  38.941  1.00  0.00     0.060 A 
BRANCH  68  69
ATOM     69  S   UNL A   1      39.466  37.623  40.123  1.00  0.00     0.124 S 
ATOM     70  O   UNL A   1      39.131  36.864  41.323  1.00  0.00    -0.237 OA
ATOM     71  O   UNL A   1      40.743  38.329  40.152  1.00  0.00    -0.237 OA
ATOM     72  O   UNL A   1      38.361  38.359  39.515  1.00  0.00    -0.744 OA
ENDBRANCH  68  69
ENDBRANCH  36  61
ENDBRANCH  10  11
ENDBRANCH   3   5
ENDBRANCH   2   3
ENDBRANCH   1   2
BRANCH   1  73
ATOM     73  C   UNL A   1      37.771  23.571  25.821  1.00  0.00     0.274 C 
BRANCH  73  74
ATOM     74  O   UNL A   1      36.683  23.166  24.909  1.00  0.00    -0.462 OA
BRANCH  74  75
ATOM     75  C   UNL A   1      35.423  22.940  25.384  1.00  0.00     0.312 C 
ATOM     76  O   UNL A   1      35.182  22.991  26.582  1.00  0.00    -0.252 OA
BRANCH  75  77
ATOM     77  C   UNL A   1      34.372  22.582  24.256  1.00  0.00     0.147 C 
ATOM     78  C   UNL A   1      33.495  23.624  23.006  1.00  0.00     0.128 C 
ATOM     79  C   UNL A   1      33.208  21.741  24.900  1.00  0.00     0.157 C 
ATOM     80  C   UNL A   1      32.046  22.582  23.256  1.00  0.00     0.155 C 
ATOM     81  C   UNL A   1      32.842  20.600  24.004  1.00  0.00     0.004 C 
ATOM     82  O   UNL A   1      32.020  22.528  24.700  1.00  0.00    -0.365 OA
ATOM     83  C   UNL A   1      32.203  21.127  22.958  1.00  0.00     0.004 C 
BRANCH  78  84
ATOM     84  C   UNL A   1      33.498  25.787  22.562  1.00  0.00     0.227 C 
ATOM     85  O   UNL A   1      33.777  26.449  21.518  1.00  0.00    -0.275 OA
ATOM     86  N   UNL A   1      33.257  27.038  23.556  1.00  0.00    -0.352 N 
ATOM     87  H   UNL A   1      33.722  27.831  23.204  1.00  0.00     0.163 HD
BRANCH  86  88
ATOM     88  C   UNL A   1      32.517  27.414  24.920  1.00  0.00     0.151 C 
BRANCH  88  89
ATOM     89  C   UNL A   1      32.942  28.661  25.719  1.00  0.00    -0.026 A 
ATOM     90  C   UNL A   1      32.125  29.816  25.777  1.00  0.00     0.025 A 
ATOM     91  C   UNL A   1      34.132  28.736  26.432  1.00  0.00     0.025 A 
ATOM     92  C   UNL A   1      32.339  30.775  26.769  1.00  0.00     0.111 A 
ATOM     93  C   UNL A   1      34.336  29.814  27.300  1.00  0.00     0.111 A 
ATOM     94  N   UNL A   1      33.440  30.797  27.539  1.00  0.00    -0.265 NA
ENDBRANCH  88  89
ENDBRANCH  86  88
ENDBRANCH  78  84
ENDBRANCH  75  77
ENDBRANCH  74  75
ENDBRANCH  73  74
ENDBRANCH   1  73
TORSDOF 17
ENDMDL
