MODEL 1
REMARK VINA RESULT:      -9.9      0.000      0.000
REMARK SMILES CC[C@@H](NC(=O)c1cscc1C)C(=O)OCCOC(=O)c1ccc(-c2c3nc(c(-c4c(F)cc(S(=O)(=O)[O-])cc4F)c4ccc([nH]4)c(-c4c(F)cc(S(=O)(=O)[O-])cc4F)c4nc(c(-c5c(F)cc(S(=O)(=O)[O-])cc5F)c5ccc2[nH]5)C=C4)C=C3)cc1
REMARK SMILES IDX 17 1 16 2 15 3 13 4 14 5 3 6 2 7 1 8 4 9 5 10 6 12 7 13 8 14
REMARK SMILES IDX 11 15 9 16 10 17 12 18 18 19 19 20 20 21 21 22 22 23 86 24
REMARK SMILES IDX 23 25 85 26 24 27 25 28 26 29 79 30 27 31 84 32 78 33 80 34
REMARK SMILES IDX 28 35 83 36 77 37 76 38 29 40 63 41 42 42 62 43 43 44 46 45
REMARK SMILES IDX 61 46 81 47 44 48 45 49 60 51 82 52 47 53 30 54 31 55 40 56
REMARK SMILES IDX 32 57 33 58 39 59 41 60 34 61 35 62 36 63 37 64 38 65 64 66
REMARK SMILES IDX 65 67 74 68 66 69 67 70 73 71 75 72 68 73 69 74 70 75 71 76
REMARK SMILES IDX 72 77 48 78 49 79 58 80 50 81 51 82 57 83 59 84 52 85 53 86
REMARK SMILES IDX 54 87 55 88 56 89
REMARK H PARENT 4 11 80 39 46 50
REMARK Flexibility Score: inf
ROOT
ATOM      1  C   UNL A   1      39.872  20.502  26.013  1.00  0.00     0.275 C 
ENDROOT
BRANCH   1   2
ATOM      2  C   UNL A   1      41.106  19.662  26.383  1.00  0.00     0.274 C 
BRANCH   2   3
ATOM      3  O   UNL A   1      41.971  19.373  25.265  1.00  0.00    -0.461 OA
BRANCH   3   4
ATOM      4  C   UNL A   1      43.276  19.179  25.599  1.00  0.00     0.328 C 
ATOM      5  O   UNL A   1      43.706  18.147  26.101  1.00  0.00    -0.250 OA
BRANCH   4   6
ATOM      6  C   UNL A   1      44.177  20.386  25.303  1.00  0.00     0.192 C 
BRANCH   6   7
ATOM      7  C   UNL A   1      45.251  19.997  24.268  1.00  0.00     0.033 C 
ATOM      8  C   UNL A   1      46.636  19.831  24.878  1.00  0.00     0.007 C 
ENDBRANCH   6   7
BRANCH   6   9
ATOM      9  N   UNL A   1      43.477  21.601  24.872  1.00  0.00    -0.339 N 
ATOM     10  C   UNL A   1      43.401  22.841  25.452  1.00  0.00     0.253 C 
ATOM     11  H   UNL A   1      42.981  21.511  24.026  1.00  0.00     0.164 HD
ATOM     12  O   UNL A   1      42.963  23.771  24.777  1.00  0.00    -0.269 OA
BRANCH  10  13
ATOM     13  C   UNL A   1      43.688  22.995  26.869  1.00  0.00     0.053 A 
ATOM     14  C   UNL A   1      42.788  22.726  27.884  1.00  0.00     0.079 A 
ATOM     15  C   UNL A   1      44.980  23.377  27.405  1.00  0.00    -0.028 A 
ATOM     16  S   UNL A   1      43.436  23.021  29.440  1.00  0.00    -0.151 S 
ATOM     17  C   UNL A   1      44.948  23.462  28.784  1.00  0.00     0.069 A 
ATOM     18  C   UNL A   1      46.201  23.646  26.587  1.00  0.00     0.046 C 
ENDBRANCH  10  13
ENDBRANCH   6   9
ENDBRANCH   4   6
ENDBRANCH   3   4
ENDBRANCH   2   3
ENDBRANCH   1   2
BRANCH   1  19
ATOM     19  O   UNL A   1      39.714  21.669  26.843  1.00  0.00    -0.458 OA
BRANCH  19  20
ATOM     20  C   UNL A   1      38.939  22.649  26.317  1.00  0.00     0.338 C 
ATOM     21  O   UNL A   1      37.945  22.492  25.628  1.00  0.00    -0.246 OA
BRANCH  20  22
ATOM     22  C   UNL A   1      39.352  23.974  26.822  1.00  0.00     0.060 A 
ATOM     23  C   UNL A   1      39.978  24.846  25.924  1.00  0.00     0.016 A 
ATOM     24  C   UNL A   1      39.207  24.330  28.163  1.00  0.00     0.016 A 
ATOM     25  C   UNL A   1      40.464  26.077  26.358  1.00  0.00     0.010 A 
ATOM     26  C   UNL A   1      39.711  25.561  28.604  1.00  0.00     0.010 A 
ATOM     27  C   UNL A   1      40.355  26.433  27.707  1.00  0.00    -0.014 A 
BRANCH  27  28
ATOM     28  C   UNL A   1      41.006  27.676  28.190  1.00  0.00     0.031 A 
ATOM     29  C   UNL A   1      42.502  27.795  28.126  1.00  0.00     0.074 A 
ATOM     30  C   UNL A   1      40.263  28.702  28.644  1.00  0.00     0.049 A 
ATOM     31  N   UNL A   1      43.277  28.756  28.557  1.00  0.00    -0.248 NA
ATOM     32  C   UNL A   1      43.221  26.681  27.488  1.00  0.00     0.031 C 
ATOM     33  C   UNL A   1      38.801  28.726  28.699  1.00  0.00     0.029 A 
ATOM     34  N   UNL A   1      40.639  29.919  29.154  1.00  0.00    -0.354 N 
ATOM     35  C   UNL A   1      44.574  28.362  28.255  1.00  0.00     0.074 A 
ATOM     36  C   UNL A   1      44.483  27.065  27.618  1.00  0.00     0.031 C 
ATOM     37  C   UNL A   1      38.406  29.897  29.226  1.00  0.00     0.029 A 
ATOM     38  C   UNL A   1      39.582  30.685  29.583  1.00  0.00     0.049 A 
ATOM     39  H   UNL A   1      41.577  30.215  29.207  1.00  0.00     0.167 HD
ATOM     40  C   UNL A   1      45.734  29.022  28.487  1.00  0.00     0.037 A 
ATOM     41  C   UNL A   1      39.569  31.874  30.218  1.00  0.00     0.037 A 
ATOM     42  C   UNL A   1      45.816  30.311  29.122  1.00  0.00     0.049 A 
ATOM     43  C   UNL A   1      40.874  32.560  30.529  1.00  0.00     0.074 A 
ATOM     44  C   UNL A   1      46.945  31.058  29.413  1.00  0.00     0.029 A 
ATOM     45  N   UNL A   1      44.726  31.044  29.569  1.00  0.00    -0.354 N 
ATOM     46  N   UNL A   1      42.096  32.168  30.253  1.00  0.00    -0.248 NA
ATOM     47  C   UNL A   1      40.800  33.844  31.237  1.00  0.00     0.031 C 
ATOM     48  C   UNL A   1      46.538  32.226  30.069  1.00  0.00     0.029 A 
ATOM     49  C   UNL A   1      45.155  32.227  30.147  1.00  0.00     0.049 A 
ATOM     50  H   UNL A   1      43.785  30.763  29.488  1.00  0.00     0.167 HD
ATOM     51  C   UNL A   1      42.934  33.166  30.739  1.00  0.00     0.074 A 
ATOM     52  C   UNL A   1      42.080  34.185  31.314  1.00  0.00     0.031 C 
ATOM     53  C   UNL A   1      44.289  33.233  30.711  1.00  0.00     0.037 A 
BRANCH  40  54
ATOM     54  C   UNL A   1      47.010  28.339  28.081  1.00  0.00     0.058 A 
ATOM     55  C   UNL A   1      47.573  28.523  26.808  1.00  0.00     0.135 A 
ATOM     56  C   UNL A   1      47.684  27.498  28.981  1.00  0.00     0.135 A 
ATOM     57  F   UNL A   1      46.959  29.301  25.903  1.00  0.00    -0.206 F 
ATOM     58  C   UNL A   1      48.745  27.875  26.432  1.00  0.00     0.059 A 
ATOM     59  C   UNL A   1      48.870  26.858  28.634  1.00  0.00     0.059 A 
ATOM     60  F   UNL A   1      47.187  27.286  30.209  1.00  0.00    -0.206 F 
ATOM     61  C   UNL A   1      49.384  27.039  27.351  1.00  0.00     0.060 A 
BRANCH  61  62
ATOM     62  S   UNL A   1      50.896  26.193  26.845  1.00  0.00     0.124 S 
ATOM     63  O   UNL A   1      50.624  24.827  27.281  1.00  0.00    -0.237 OA
ATOM     64  O   UNL A   1      50.908  26.407  25.402  1.00  0.00    -0.237 OA
ATOM     65  O   UNL A   1      51.942  26.892  27.587  1.00  0.00    -0.744 OA
ENDBRANCH  61  62
ENDBRANCH  40  54
BRANCH  41  66
ATOM     66  C   UNL A   1      38.274  32.476  30.634  1.00  0.00     0.058 A 
ATOM     67  C   UNL A   1      37.743  32.249  31.912  1.00  0.00     0.135 A 
ATOM     68  C   UNL A   1      37.547  33.300  29.761  1.00  0.00     0.135 A 
ATOM     69  F   UNL A   1      38.395  31.458  32.778  1.00  0.00    -0.206 F 
ATOM     70  C   UNL A   1      36.534  32.811  32.309  1.00  0.00     0.059 A 
ATOM     71  C   UNL A   1      36.347  33.892  30.142  1.00  0.00     0.059 A 
ATOM     72  F   UNL A   1      38.014  33.553  28.528  1.00  0.00    -0.206 F 
ATOM     73  C   UNL A   1      35.844  33.634  31.416  1.00  0.00     0.060 A 
BRANCH  73  74
ATOM     74  S   UNL A   1      34.301  34.401  31.956  1.00  0.00     0.124 S 
ATOM     75  O   UNL A   1      33.597  34.568  30.691  1.00  0.00    -0.237 OA
ATOM     76  O   UNL A   1      33.756  33.395  32.863  1.00  0.00    -0.237 OA
ATOM     77  O   UNL A   1      34.746  35.635  32.598  1.00  0.00    -0.744 OA
ENDBRANCH  73  74
ENDBRANCH  41  66
BRANCH  53  78
ATOM     78  C   UNL A   1      44.934  34.460  31.294  1.00  0.00     0.058 A 
ATOM     79  C   UNL A   1      45.166  35.608  30.520  1.00  0.00     0.135 A 
ATOM     80  C   UNL A   1      45.272  34.506  32.656  1.00  0.00     0.135 A 
ATOM     81  F   UNL A   1      44.866  35.613  29.213  1.00  0.00    -0.206 F 
ATOM     82  C   UNL A   1      45.729  36.753  31.074  1.00  0.00     0.059 A 
ATOM     83  C   UNL A   1      45.815  35.649  33.235  1.00  0.00     0.059 A 
ATOM     84  F   UNL A   1      45.060  33.438  33.442  1.00  0.00    -0.206 F 
ATOM     85  C   UNL A   1      46.050  36.765  32.433  1.00  0.00     0.060 A 
BRANCH  85  86
ATOM     86  S   UNL A   1      46.747  38.269  33.148  1.00  0.00     0.124 S 
ATOM     87  O   UNL A   1      47.769  38.616  32.167  1.00  0.00    -0.237 OA
ATOM     88  O   UNL A   1      45.591  39.158  33.200  1.00  0.00    -0.237 OA
ATOM     89  O   UNL A   1      47.248  37.827  34.447  1.00  0.00    -0.744 OA
ENDBRANCH  85  86
ENDBRANCH  53  78
ENDBRANCH  27  28
ENDBRANCH  20  22
ENDBRANCH  19  20
ENDBRANCH   1  19
TORSDOF 17
ENDMDL
MODEL 2
REMARK VINA RESULT:      -9.6      0.714      8.624
REMARK SMILES CC[C@@H](NC(=O)c1cscc1C)C(=O)OCCOC(=O)c1ccc(-c2c3nc(c(-c4c(F)cc(S(=O)(=O)[O-])cc4F)c4ccc([nH]4)c(-c4c(F)cc(S(=O)(=O)[O-])cc4F)c4nc(c(-c5c(F)cc(S(=O)(=O)[O-])cc5F)c5ccc2[nH]5)C=C4)C=C3)cc1
REMARK SMILES IDX 17 1 16 2 15 3 13 4 14 5 3 6 2 7 1 8 4 9 5 10 6 12 7 13 8 14
REMARK SMILES IDX 11 15 9 16 10 17 12 18 18 19 19 20 20 21 21 22 22 23 86 24
REMARK SMILES IDX 23 25 85 26 24 27 25 28 26 29 79 30 27 31 84 32 78 33 80 34
REMARK SMILES IDX 28 35 83 36 77 37 76 38 29 40 63 41 42 42 62 43 43 44 46 45
REMARK SMILES IDX 61 46 81 47 44 48 45 49 60 51 82 52 47 53 30 54 31 55 40 56
REMARK SMILES IDX 32 57 33 58 39 59 41 60 34 61 35 62 36 63 37 64 38 65 64 66
REMARK SMILES IDX 65 67 74 68 66 69 67 70 73 71 75 72 68 73 69 74 70 75 71 76
REMARK SMILES IDX 72 77 48 78 49 79 58 80 50 81 51 82 57 83 59 84 52 85 53 86
REMARK SMILES IDX 54 87 55 88 56 89
REMARK H PARENT 4 11 80 39 46 50
REMARK Flexibility Score: inf
ROOT
ATOM      1  C   UNL A   1      39.850  20.802  25.974  1.00  0.00     0.275 C 
ENDROOT
BRANCH   1   2
ATOM      2  C   UNL A   1      40.950  19.825  26.424  1.00  0.00     0.274 C 
BRANCH   2   3
ATOM      3  O   UNL A   1      41.772  19.336  25.345  1.00  0.00    -0.461 OA
BRANCH   3   4
ATOM      4  C   UNL A   1      43.065  19.091  25.689  1.00  0.00     0.328 C 
ATOM      5  O   UNL A   1      43.461  18.024  26.146  1.00  0.00    -0.250 OA
BRANCH   4   6
ATOM      6  C   UNL A   1      44.002  20.287  25.469  1.00  0.00     0.192 C 
BRANCH   6   7
ATOM      7  C   UNL A   1      45.136  19.893  24.503  1.00  0.00     0.033 C 
ATOM      8  C   UNL A   1      46.419  19.490  25.219  1.00  0.00     0.007 C 
ENDBRANCH   6   7
BRANCH   6   9
ATOM      9  N   UNL A   1      43.350  21.517  25.007  1.00  0.00    -0.339 N 
ATOM     10  C   UNL A   1      43.328  22.775  25.552  1.00  0.00     0.253 C 
ATOM     11  H   UNL A   1      42.847  21.425  24.166  1.00  0.00     0.164 HD
ATOM     12  O   UNL A   1      42.925  23.703  24.854  1.00  0.00    -0.269 OA
BRANCH  10  13
ATOM     13  C   UNL A   1      43.628  22.956  26.964  1.00  0.00     0.053 A 
ATOM     14  C   UNL A   1      42.734  22.715  27.991  1.00  0.00     0.079 A 
ATOM     15  C   UNL A   1      44.928  23.338  27.481  1.00  0.00    -0.028 A 
ATOM     16  S   UNL A   1      43.398  23.037  29.535  1.00  0.00    -0.151 S 
ATOM     17  C   UNL A   1      44.908  23.452  28.858  1.00  0.00     0.069 A 
ATOM     18  C   UNL A   1      46.144  23.580  26.648  1.00  0.00     0.046 C 
ENDBRANCH  10  13
ENDBRANCH   6   9
ENDBRANCH   4   6
ENDBRANCH   3   4
ENDBRANCH   2   3
ENDBRANCH   1   2
BRANCH   1  19
ATOM     19  O   UNL A   1      39.612  21.859  26.924  1.00  0.00    -0.458 OA
BRANCH  19  20
ATOM     20  C   UNL A   1      38.866  22.892  26.462  1.00  0.00     0.338 C 
ATOM     21  O   UNL A   1      37.824  22.806  25.834  1.00  0.00    -0.246 OA
BRANCH  20  22
ATOM     22  C   UNL A   1      39.389  24.181  26.957  1.00  0.00     0.060 A 
ATOM     23  C   UNL A   1      39.963  25.053  26.023  1.00  0.00     0.016 A 
ATOM     24  C   UNL A   1      39.395  24.503  28.314  1.00  0.00     0.016 A 
ATOM     25  C   UNL A   1      40.546  26.247  26.438  1.00  0.00     0.010 A 
ATOM     26  C   UNL A   1      39.997  25.696  28.734  1.00  0.00     0.010 A 
ATOM     27  C   UNL A   1      40.589  26.566  27.800  1.00  0.00    -0.014 A 
BRANCH  27  28
ATOM     28  C   UNL A   1      41.341  27.764  28.246  1.00  0.00     0.031 A 
ATOM     29  C   UNL A   1      40.594  28.920  28.848  1.00  0.00     0.074 A 
ATOM     30  C   UNL A   1      42.683  27.800  28.150  1.00  0.00     0.049 A 
ATOM     31  N   UNL A   1      41.042  30.085  29.237  1.00  0.00    -0.248 NA
ATOM     32  C   UNL A   1      39.147  28.735  29.041  1.00  0.00     0.031 C 
ATOM     33  C   UNL A   1      43.522  26.717  27.638  1.00  0.00     0.029 A 
ATOM     34  N   UNL A   1      43.574  28.793  28.472  1.00  0.00    -0.354 N 
ATOM     35  C   UNL A   1      39.935  30.779  29.708  1.00  0.00     0.074 A 
ATOM     36  C   UNL A   1      38.789  29.909  29.542  1.00  0.00     0.031 C 
ATOM     37  C   UNL A   1      44.807  27.111  27.669  1.00  0.00     0.029 A 
ATOM     38  C   UNL A   1      44.877  28.484  28.163  1.00  0.00     0.049 A 
ATOM     39  H   UNL A   1      43.306  29.646  28.886  1.00  0.00     0.167 HD
ATOM     40  C   UNL A   1      39.879  32.027  30.232  1.00  0.00     0.037 A 
ATOM     41  C   UNL A   1      45.994  29.234  28.242  1.00  0.00     0.037 A 
ATOM     42  C   UNL A   1      41.022  32.886  30.393  1.00  0.00     0.049 A 
ATOM     43  C   UNL A   1      45.899  30.645  28.764  1.00  0.00     0.074 A 
ATOM     44  C   UNL A   1      41.069  34.173  30.903  1.00  0.00     0.029 A 
ATOM     45  N   UNL A   1      42.322  32.549  30.042  1.00  0.00    -0.354 N 
ATOM     46  N   UNL A   1      44.843  31.296  29.191  1.00  0.00    -0.248 NA
ATOM     47  C   UNL A   1      47.145  31.422  28.812  1.00  0.00     0.031 C 
ATOM     48  C   UNL A   1      42.391  34.625  30.827  1.00  0.00     0.029 A 
ATOM     49  C   UNL A   1      43.176  33.606  30.310  1.00  0.00     0.049 A 
ATOM     50  H   UNL A   1      42.597  31.685  29.659  1.00  0.00     0.167 HD
ATOM     51  C   UNL A   1      45.299  32.552  29.575  1.00  0.00     0.074 A 
ATOM     52  C   UNL A   1      46.728  32.566  29.341  1.00  0.00     0.031 C 
ATOM     53  C   UNL A   1      44.598  33.601  30.075  1.00  0.00     0.037 A 
BRANCH  40  54
ATOM     54  C   UNL A   1      38.528  32.546  30.636  1.00  0.00     0.058 A 
ATOM     55  C   UNL A   1      37.994  32.301  31.911  1.00  0.00     0.135 A 
ATOM     56  C   UNL A   1      37.762  33.309  29.740  1.00  0.00     0.135 A 
ATOM     57  F   UNL A   1      38.677  31.561  32.800  1.00  0.00    -0.206 F 
ATOM     58  C   UNL A   1      36.735  32.770  32.274  1.00  0.00     0.059 A 
ATOM     59  C   UNL A   1      36.511  33.808  30.090  1.00  0.00     0.059 A 
ATOM     60  F   UNL A   1      38.225  33.569  28.508  1.00  0.00    -0.206 F 
ATOM     61  C   UNL A   1      35.998  33.519  31.353  1.00  0.00     0.060 A 
BRANCH  61  62
ATOM     62  S   UNL A   1      34.361  34.108  31.831  1.00  0.00     0.124 S 
ATOM     63  O   UNL A   1      33.706  34.231  30.533  1.00  0.00    -0.237 OA
ATOM     64  O   UNL A   1      33.875  33.030  32.686  1.00  0.00    -0.237 OA
ATOM     65  O   UNL A   1      34.639  35.368  32.515  1.00  0.00    -0.744 OA
ENDBRANCH  61  62
ENDBRANCH  40  54
BRANCH  41  66
ATOM     66  C   UNL A   1      47.294  28.677  27.784  1.00  0.00     0.058 A 
ATOM     67  C   UNL A   1      47.672  28.727  26.434  1.00  0.00     0.135 A 
ATOM     68  C   UNL A   1      48.190  28.092  28.693  1.00  0.00     0.135 A 
ATOM     69  F   UNL A   1      46.844  29.265  25.526  1.00  0.00    -0.206 F 
ATOM     70  C   UNL A   1      48.888  28.209  25.999  1.00  0.00     0.059 A 
ATOM     71  C   UNL A   1      49.421  27.589  28.285  1.00  0.00     0.059 A 
ATOM     72  F   UNL A   1      47.878  28.025  29.996  1.00  0.00    -0.206 F 
ATOM     73  C   UNL A   1      49.758  27.644  26.934  1.00  0.00     0.060 A 
BRANCH  73  74
ATOM     74  S   UNL A   1      51.356  27.022  26.369  1.00  0.00     0.124 S 
ATOM     75  O   UNL A   1      51.563  27.802  25.155  1.00  0.00    -0.237 OA
ATOM     76  O   UNL A   1      52.229  27.346  27.494  1.00  0.00    -0.237 OA
ATOM     77  O   UNL A   1      51.109  25.596  26.170  1.00  0.00    -0.744 OA
ENDBRANCH  73  74
ENDBRANCH  41  66
BRANCH  53  78
ATOM     78  C   UNL A   1      45.369  34.842  30.432  1.00  0.00     0.058 A 
ATOM     79  C   UNL A   1      45.943  35.013  31.701  1.00  0.00     0.135 A 
ATOM     80  C   UNL A   1      45.581  35.847  29.474  1.00  0.00     0.135 A 
ATOM     81  F   UNL A   1      45.765  34.085  32.653  1.00  0.00    -0.206 F 
ATOM     82  C   UNL A   1      46.686  36.147  32.014  1.00  0.00     0.059 A 
ATOM     83  C   UNL A   1      46.338  36.978  29.758  1.00  0.00     0.059 A 
ATOM     84  F   UNL A   1      45.061  35.726  28.242  1.00  0.00    -0.206 F 
ATOM     85  C   UNL A   1      46.879  37.124  31.035  1.00  0.00     0.060 A 
BRANCH  85  86
ATOM     86  S   UNL A   1      47.875  38.574  31.441  1.00  0.00     0.124 S 
ATOM     87  O   UNL A   1      46.847  39.557  31.766  1.00  0.00    -0.237 OA
ATOM     88  O   UNL A   1      48.678  38.101  32.564  1.00  0.00    -0.237 OA
ATOM     89  O   UNL A   1      48.620  38.829  30.211  1.00  0.00    -0.744 OA
ENDBRANCH  85  86
ENDBRANCH  53  78
ENDBRANCH  27  28
ENDBRANCH  20  22
ENDBRANCH  19  20
ENDBRANCH   1  19
TORSDOF 17
ENDMDL
MODEL 3
REMARK VINA RESULT:      -9.4      4.888      6.030
REMARK SMILES CC[C@@H](NC(=O)c1cscc1C)C(=O)OCCOC(=O)c1ccc(-c2c3nc(c(-c4c(F)cc(S(=O)(=O)[O-])cc4F)c4ccc([nH]4)c(-c4c(F)cc(S(=O)(=O)[O-])cc4F)c4nc(c(-c5c(F)cc(S(=O)(=O)[O-])cc5F)c5ccc2[nH]5)C=C4)C=C3)cc1
REMARK SMILES IDX 17 1 16 2 15 3 13 4 14 5 3 6 2 7 1 8 4 9 5 10 6 12 7 13 8 14
REMARK SMILES IDX 11 15 9 16 10 17 12 18 18 19 19 20 20 21 21 22 22 23 86 24
REMARK SMILES IDX 23 25 85 26 24 27 25 28 26 29 79 30 27 31 84 32 78 33 80 34
REMARK SMILES IDX 28 35 83 36 77 37 76 38 29 40 63 41 42 42 62 43 43 44 46 45
REMARK SMILES IDX 61 46 81 47 44 48 45 49 60 51 82 52 47 53 30 54 31 55 40 56
REMARK SMILES IDX 32 57 33 58 39 59 41 60 34 61 35 62 36 63 37 64 38 65 64 66
REMARK SMILES IDX 65 67 74 68 66 69 67 70 73 71 75 72 68 73 69 74 70 75 71 76
REMARK SMILES IDX 72 77 48 78 49 79 58 80 50 81 51 82 57 83 59 84 52 85 53 86
REMARK SMILES IDX 54 87 55 88 56 89
REMARK H PARENT 4 11 80 39 46 50
REMARK Flexibility Score: inf
ROOT
ATOM      1  C   UNL A   1      40.410  21.740  27.251  1.00  0.00     0.275 C 
ENDROOT
BRANCH   1   2
ATOM      2  C   UNL A   1      41.331  20.533  27.497  1.00  0.00     0.274 C 
BRANCH   2   3
ATOM      3  O   UNL A   1      41.418  19.627  26.377  1.00  0.00    -0.461 OA
BRANCH   3   4
ATOM      4  C   UNL A   1      42.635  19.041  26.222  1.00  0.00     0.328 C 
ATOM      5  O   UNL A   1      42.846  17.847  26.400  1.00  0.00    -0.250 OA
BRANCH   4   6
ATOM      6  C   UNL A   1      43.746  20.018  25.811  1.00  0.00     0.192 C 
BRANCH   6   7
ATOM      7  C   UNL A   1      44.890  19.251  25.122  1.00  0.00     0.033 C 
ATOM      8  C   UNL A   1      44.759  19.217  23.605  1.00  0.00     0.007 C 
ENDBRANCH   6   7
BRANCH   6   9
ATOM      9  N   UNL A   1      43.314  21.140  24.970  1.00  0.00    -0.339 N 
ATOM     10  C   UNL A   1      43.800  22.418  24.869  1.00  0.00     0.253 C 
ATOM     11  H   UNL A   1      42.549  20.944  24.382  1.00  0.00     0.164 HD
ATOM     12  O   UNL A   1      43.436  23.104  23.915  1.00  0.00    -0.269 OA
BRANCH  10  13
ATOM     13  C   UNL A   1      44.597  22.977  25.950  1.00  0.00     0.053 A 
ATOM     14  C   UNL A   1      44.197  23.024  27.273  1.00  0.00     0.079 A 
ATOM     15  C   UNL A   1      45.945  23.486  25.793  1.00  0.00    -0.028 A 
ATOM     16  S   UNL A   1      45.362  23.754  28.291  1.00  0.00    -0.151 S 
ATOM     17  C   UNL A   1      46.442  23.970  26.989  1.00  0.00     0.069 A 
ATOM     18  C   UNL A   1      46.715  23.493  24.513  1.00  0.00     0.046 C 
ENDBRANCH  10  13
ENDBRANCH   6   9
ENDBRANCH   4   6
ENDBRANCH   3   4
ENDBRANCH   2   3
ENDBRANCH   1   2
BRANCH   1  19
ATOM     19  O   UNL A   1      40.827  22.921  27.964  1.00  0.00    -0.458 OA
BRANCH  19  20
ATOM     20  C   UNL A   1      40.879  24.054  27.221  1.00  0.00     0.338 C 
ATOM     21  O   UNL A   1      40.949  24.118  26.005  1.00  0.00    -0.246 OA
BRANCH  20  22
ATOM     22  C   UNL A   1      40.676  25.247  28.067  1.00  0.00     0.060 A 
ATOM     23  C   UNL A   1      41.779  26.079  28.295  1.00  0.00     0.016 A 
ATOM     24  C   UNL A   1      39.457  25.509  28.693  1.00  0.00     0.016 A 
ATOM     25  C   UNL A   1      41.672  27.174  29.149  1.00  0.00     0.010 A 
ATOM     26  C   UNL A   1      39.354  26.599  29.566  1.00  0.00     0.010 A 
ATOM     27  C   UNL A   1      40.465  27.428  29.810  1.00  0.00    -0.014 A 
BRANCH  27  28
ATOM     28  C   UNL A   1      40.402  28.504  30.829  1.00  0.00     0.031 A 
ATOM     29  C   UNL A   1      41.323  28.449  32.014  1.00  0.00     0.074 A 
ATOM     30  C   UNL A   1      39.556  29.540  30.675  1.00  0.00     0.049 A 
ATOM     31  N   UNL A   1      41.386  29.240  33.053  1.00  0.00    -0.248 NA
ATOM     32  C   UNL A   1      42.308  27.356  32.028  1.00  0.00     0.031 C 
ATOM     33  C   UNL A   1      38.656  29.733  29.538  1.00  0.00     0.029 A 
ATOM     34  N   UNL A   1      39.312  30.620  31.486  1.00  0.00    -0.354 N 
ATOM     35  C   UNL A   1      42.406  28.737  33.851  1.00  0.00     0.074 A 
ATOM     36  C   UNL A   1      42.923  27.561  33.184  1.00  0.00     0.031 C 
ATOM     37  C   UNL A   1      37.948  30.859  29.731  1.00  0.00     0.029 A 
ATOM     38  C   UNL A   1      38.314  31.442  31.019  1.00  0.00     0.049 A 
ATOM     39  H   UNL A   1      39.805  30.790  32.321  1.00  0.00     0.167 HD
ATOM     40  C   UNL A   1      42.868  29.213  35.032  1.00  0.00     0.037 A 
ATOM     41  C   UNL A   1      37.741  32.524  31.583  1.00  0.00     0.037 A 
ATOM     42  C   UNL A   1      42.347  30.382  35.691  1.00  0.00     0.049 A 
ATOM     43  C   UNL A   1      38.224  32.997  32.930  1.00  0.00     0.074 A 
ATOM     44  C   UNL A   1      42.740  30.940  36.896  1.00  0.00     0.029 A 
ATOM     45  N   UNL A   1      41.317  31.173  35.202  1.00  0.00    -0.354 N 
ATOM     46  N   UNL A   1      39.178  32.502  33.683  1.00  0.00    -0.248 NA
ATOM     47  C   UNL A   1      37.552  34.170  33.504  1.00  0.00     0.031 C 
ATOM     48  C   UNL A   1      41.922  32.047  37.152  1.00  0.00     0.029 A 
ATOM     49  C   UNL A   1      41.050  32.205  36.087  1.00  0.00     0.049 A 
ATOM     50  H   UNL A   1      40.845  31.023  34.351  1.00  0.00     0.167 HD
ATOM     51  C   UNL A   1      39.232  33.314  34.811  1.00  0.00     0.074 A 
ATOM     52  C   UNL A   1      38.224  34.339  34.635  1.00  0.00     0.031 C 
ATOM     53  C   UNL A   1      40.044  33.220  35.894  1.00  0.00     0.037 A 
BRANCH  40  54
ATOM     54  C   UNL A   1      43.972  28.444  35.702  1.00  0.00     0.058 A 
ATOM     55  C   UNL A   1      43.704  27.421  36.626  1.00  0.00     0.135 A 
ATOM     56  C   UNL A   1      45.315  28.725  35.406  1.00  0.00     0.135 A 
ATOM     57  F   UNL A   1      42.437  27.125  36.958  1.00  0.00    -0.206 F 
ATOM     58  C   UNL A   1      44.730  26.724  37.255  1.00  0.00     0.059 A 
ATOM     59  C   UNL A   1      46.357  28.024  36.007  1.00  0.00     0.059 A 
ATOM     60  F   UNL A   1      45.626  29.695  34.532  1.00  0.00    -0.206 F 
ATOM     61  C   UNL A   1      46.055  27.036  36.943  1.00  0.00     0.060 A 
BRANCH  61  62
ATOM     62  S   UNL A   1      47.377  26.134  37.777  1.00  0.00     0.124 S 
ATOM     63  O   UNL A   1      46.894  26.119  39.154  1.00  0.00    -0.237 OA
ATOM     64  O   UNL A   1      47.364  24.849  37.087  1.00  0.00    -0.237 OA
ATOM     65  O   UNL A   1      48.557  26.959  37.535  1.00  0.00    -0.744 OA
ENDBRANCH  61  62
ENDBRANCH  40  54
BRANCH  41  66
ATOM     66  C   UNL A   1      36.622  33.215  30.889  1.00  0.00     0.058 A 
ATOM     67  C   UNL A   1      35.297  33.077  31.329  1.00  0.00     0.135 A 
ATOM     68  C   UNL A   1      36.859  34.036  29.775  1.00  0.00     0.135 A 
ATOM     69  F   UNL A   1      35.018  32.293  32.381  1.00  0.00    -0.206 F 
ATOM     70  C   UNL A   1      34.246  33.722  30.686  1.00  0.00     0.059 A 
ATOM     71  C   UNL A   1      35.827  34.709  29.130  1.00  0.00     0.059 A 
ATOM     72  F   UNL A   1      38.110  34.205  29.319  1.00  0.00    -0.206 F 
ATOM     73  C   UNL A   1      34.521  34.539  29.588  1.00  0.00     0.060 A 
BRANCH  73  74
ATOM     74  S   UNL A   1      33.158  35.414  28.790  1.00  0.00     0.124 S 
ATOM     75  O   UNL A   1      33.870  36.418  28.009  1.00  0.00    -0.237 OA
ATOM     76  O   UNL A   1      32.512  34.350  28.027  1.00  0.00    -0.237 OA
ATOM     77  O   UNL A   1      32.382  35.925  29.917  1.00  0.00    -0.744 OA
ENDBRANCH  73  74
ENDBRANCH  41  66
BRANCH  53  78
ATOM     78  C   UNL A   1      39.897  34.268  36.962  1.00  0.00     0.058 A 
ATOM     79  C   UNL A   1      40.515  35.522  36.853  1.00  0.00     0.135 A 
ATOM     80  C   UNL A   1      39.083  34.031  38.082  1.00  0.00     0.135 A 
ATOM     81  F   UNL A   1      41.307  35.796  35.806  1.00  0.00    -0.206 F 
ATOM     82  C   UNL A   1      40.346  36.501  37.828  1.00  0.00     0.059 A 
ATOM     83  C   UNL A   1      38.882  35.003  39.057  1.00  0.00     0.059 A 
ATOM     84  F   UNL A   1      38.461  32.850  38.229  1.00  0.00    -0.206 F 
ATOM     85  C   UNL A   1      39.526  36.232  38.926  1.00  0.00     0.060 A 
BRANCH  85  86
ATOM     86  S   UNL A   1      39.285  37.523  40.166  1.00  0.00     0.124 S 
ATOM     87  O   UNL A   1      38.890  36.741  41.332  1.00  0.00    -0.237 OA
ATOM     88  O   UNL A   1      40.604  38.143  40.235  1.00  0.00    -0.237 OA
ATOM     89  O   UNL A   1      38.237  38.359  39.586  1.00  0.00    -0.744 OA
ENDBRANCH  85  86
ENDBRANCH  53  78
ENDBRANCH  27  28
ENDBRANCH  20  22
ENDBRANCH  19  20
ENDBRANCH   1  19
TORSDOF 17
ENDMDL
