MODEL 1
REMARK VINA RESULT:      -8.7      0.000      0.000
REMARK SMILES NC(=O)C[C@H](NC(=O)C1(c2ccccc2)CCN(C(=O)[C@@H]2CCC[NH2+]2)CC1)C(=O)OCCOC(=O)c1ccc(-c2c3nc(c(-c4c(F)cc(S(=O)(=O)[O-])cc4F)c4ccc([nH]4)c(-c4c(F)cc(S(=O)(=O)[O-])cc4F)c4nc(c(-c5c(F)cc(S(=O)(=O)[O-])cc5F)c5ccc2[nH]5)C=C4)C=C3)cc1
REMARK SMILES IDX 31 1 30 2 28 3 29 4 5 5 4 6 2 7 1 8 3 11 6 12 7 13 8 15 9 16
REMARK SMILES IDX 16 17 27 18 17 19 26 20 18 21 19 22 20 23 10 24 11 25 15 26
REMARK SMILES IDX 12 27 14 28 13 29 21 30 22 31 25 32 23 33 24 34 32 37 33 38
REMARK SMILES IDX 34 39 35 40 36 41 37 42 101 43 38 44 100 45 39 46 40 47
REMARK SMILES IDX 41 48 94 49 42 50 99 51 93 52 95 53 43 54 98 55 92 56 91 57
REMARK SMILES IDX 44 59 78 60 57 61 77 62 58 63 61 64 76 65 96 66 59 67 60 68
REMARK SMILES IDX 75 70 97 71 62 72 45 73 46 74 55 75 47 76 48 77 54 78 56 79
REMARK SMILES IDX 49 80 50 81 51 82 52 83 53 84 79 85 80 86 89 87 81 88 82 89
REMARK SMILES IDX 88 90 90 91 83 92 84 93 85 94 86 95 87 96 63 97 64 98 73 99
REMARK SMILES IDX 65 100 66 101 72 102 74 103 67 104 68 105 69 106 70 107
REMARK SMILES IDX 71 108
REMARK H PARENT 1 9 1 10 6 14 25 35 25 36 95 58 61 69
REMARK Flexibility Score: inf
ROOT
ATOM      1  C   UNL A   1      35.142  32.831  33.069  1.00  0.00     0.274 C 
ENDROOT
BRANCH   1   2
ATOM      2  O   UNL A   1      36.212  32.402  33.936  1.00  0.00    -0.461 OA
BRANCH   2   3
ATOM      3  C   UNL A   1      36.892  33.414  34.546  1.00  0.00     0.329 C 
ATOM      4  O   UNL A   1      36.800  34.598  34.251  1.00  0.00    -0.250 OA
BRANCH   3   5
ATOM      5  C   UNL A   1      37.912  32.904  35.579  1.00  0.00     0.201 C 
BRANCH   5   6
ATOM      6  C   UNL A   1      37.310  33.172  36.965  1.00  0.00     0.136 C 
BRANCH   6   7
ATOM      7  C   UNL A   1      38.019  32.396  38.058  1.00  0.00     0.220 C 
ATOM      8  N   UNL A   1      37.244  31.550  38.794  1.00  0.00    -0.370 N 
ATOM      9  H   UNL A   1      37.645  31.018  39.518  1.00  0.00     0.159 HD
ATOM     10  H   UNL A   1      36.282  31.471  38.599  1.00  0.00     0.159 HD
ATOM     11  O   UNL A   1      39.220  32.489  38.281  1.00  0.00    -0.275 OA
ENDBRANCH   6   7
ENDBRANCH   5   6
BRANCH   5  12
ATOM     12  N   UNL A   1      39.251  33.502  35.490  1.00  0.00    -0.342 N 
ATOM     13  C   UNL A   1      40.367  33.232  34.760  1.00  0.00     0.231 C 
ATOM     14  H   UNL A   1      39.366  34.271  36.094  1.00  0.00     0.164 HD
ATOM     15  O   UNL A   1      41.382  33.796  35.192  1.00  0.00    -0.274 OA
BRANCH  13  16
ATOM     16  C   UNL A   1      40.415  32.376  33.438  1.00  0.00     0.077 C 
ATOM     17  C   UNL A   1      39.596  31.065  33.499  1.00  0.00     0.043 C 
ATOM     18  C   UNL A   1      41.923  31.965  33.231  1.00  0.00     0.043 C 
ATOM     19  C   UNL A   1      40.150  30.083  34.535  1.00  0.00     0.121 C 
ATOM     20  C   UNL A   1      42.418  30.937  34.239  1.00  0.00     0.121 C 
ATOM     21  N   UNL A   1      41.545  29.771  34.248  1.00  0.00    -0.337 N 
ATOM     22  C   UNL A   1      41.910  28.439  34.090  1.00  0.00     0.280 C 
ATOM     23  O   UNL A   1      41.109  27.535  34.361  1.00  0.00    -0.268 OA
BRANCH  16  24
ATOM     24  C   UNL A   1      40.067  33.237  32.191  1.00  0.00    -0.032 A 
ATOM     25  C   UNL A   1      38.954  32.912  31.383  1.00  0.00     0.005 A 
ATOM     26  C   UNL A   1      40.926  34.239  31.714  1.00  0.00     0.005 A 
ATOM     27  C   UNL A   1      38.800  33.445  30.103  1.00  0.00     0.000 A 
ATOM     28  C   UNL A   1      40.757  34.795  30.444  1.00  0.00     0.000 A 
ATOM     29  C   UNL A   1      39.727  34.358  29.623  1.00  0.00     0.000 A 
ENDBRANCH  16  24
BRANCH  22  30
ATOM     30  C   UNL A   1      43.302  28.043  33.555  1.00  0.00     0.272 C 
ATOM     31  C   UNL A   1      43.607  28.381  32.106  1.00  0.00     0.081 C 
ATOM     32  N   UNL A   1      43.611  26.609  33.754  1.00  0.00    -0.336 N 
ATOM     33  C   UNL A   1      44.569  27.284  31.686  1.00  0.00     0.068 C 
ATOM     34  C   UNL A   1      44.157  26.078  32.509  1.00  0.00     0.261 C 
ATOM     35  H   UNL A   1      42.759  26.104  34.000  1.00  0.00     0.346 HD
ATOM     36  H   UNL A   1      44.288  26.499  34.509  1.00  0.00     0.346 HD
ENDBRANCH  22  30
ENDBRANCH  13  16
ENDBRANCH   5  12
ENDBRANCH   3   5
ENDBRANCH   2   3
ENDBRANCH   1   2
BRANCH   1  37
ATOM     37  C   UNL A   1      35.456  32.610  31.590  1.00  0.00     0.275 C 
BRANCH  37  38
ATOM     38  O   UNL A   1      35.845  31.250  31.321  1.00  0.00    -0.458 OA
BRANCH  38  39
ATOM     39  C   UNL A   1      35.854  30.925  30.016  1.00  0.00     0.338 C 
ATOM     40  O   UNL A   1      35.025  31.275  29.167  1.00  0.00    -0.246 OA
BRANCH  39  41
ATOM     41  C   UNL A   1      37.026  30.130  29.650  1.00  0.00     0.060 A 
ATOM     42  C   UNL A   1      37.765  29.531  30.671  1.00  0.00     0.016 A 
ATOM     43  C   UNL A   1      37.547  30.208  28.357  1.00  0.00     0.016 A 
ATOM     44  C   UNL A   1      39.074  29.120  30.427  1.00  0.00     0.010 A 
ATOM     45  C   UNL A   1      38.838  29.726  28.101  1.00  0.00     0.010 A 
ATOM     46  C   UNL A   1      39.640  29.239  29.147  1.00  0.00    -0.014 A 
BRANCH  46  47
ATOM     47  C   UNL A   1      41.085  28.918  28.950  1.00  0.00     0.031 A 
ATOM     48  C   UNL A   1      42.157  29.960  29.175  1.00  0.00     0.074 A 
ATOM     49  C   UNL A   1      41.457  27.656  28.654  1.00  0.00     0.049 A 
ATOM     50  N   UNL A   1      43.460  29.817  29.181  1.00  0.00    -0.248 NA
ATOM     51  C   UNL A   1      41.716  31.333  29.455  1.00  0.00     0.031 C 
ATOM     52  C   UNL A   1      40.543  26.535  28.433  1.00  0.00     0.029 A 
ATOM     53  N   UNL A   1      42.705  27.107  28.493  1.00  0.00    -0.354 N 
ATOM     54  C   UNL A   1      43.983  31.056  29.533  1.00  0.00     0.074 A 
ATOM     55  C   UNL A   1      42.865  31.959  29.676  1.00  0.00     0.031 C 
ATOM     56  C   UNL A   1      41.259  25.430  28.180  1.00  0.00     0.029 A 
ATOM     57  C   UNL A   1      42.679  25.773  28.162  1.00  0.00     0.049 A 
ATOM     58  H   UNL A   1      43.538  27.619  28.603  1.00  0.00     0.167 HD
ATOM     59  C   UNL A   1      45.273  31.414  29.738  1.00  0.00     0.037 A 
ATOM     60  C   UNL A   1      43.676  24.927  27.843  1.00  0.00     0.037 A 
ATOM     61  C   UNL A   1      46.406  30.560  29.499  1.00  0.00     0.049 A 
ATOM     62  C   UNL A   1      45.098  25.410  27.850  1.00  0.00     0.074 A 
ATOM     63  C   UNL A   1      47.752  30.854  29.639  1.00  0.00     0.029 A 
ATOM     64  N   UNL A   1      46.329  29.262  29.022  1.00  0.00    -0.354 N 
ATOM     65  N   UNL A   1      45.569  26.575  28.223  1.00  0.00    -0.248 NA
ATOM     66  C   UNL A   1      46.122  24.468  27.377  1.00  0.00     0.031 C 
ATOM     67  C   UNL A   1      48.490  29.755  29.185  1.00  0.00     0.029 A 
ATOM     68  C   UNL A   1      47.603  28.761  28.808  1.00  0.00     0.049 A 
ATOM     69  H   UNL A   1      45.493  28.769  28.860  1.00  0.00     0.167 HD
ATOM     70  C   UNL A   1      46.944  26.504  28.038  1.00  0.00     0.074 A 
ATOM     71  C   UNL A   1      47.232  25.178  27.531  1.00  0.00     0.031 C 
ATOM     72  C   UNL A   1      47.884  27.452  28.275  1.00  0.00     0.037 A 
BRANCH  59  73
ATOM     73  C   UNL A   1      45.540  32.808  30.229  1.00  0.00     0.058 A 
ATOM     74  C   UNL A   1      45.583  33.095  31.602  1.00  0.00     0.135 A 
ATOM     75  C   UNL A   1      45.820  33.846  29.329  1.00  0.00     0.135 A 
ATOM     76  F   UNL A   1      45.302  32.140  32.503  1.00  0.00    -0.206 F 
ATOM     77  C   UNL A   1      45.900  34.369  32.067  1.00  0.00     0.059 A 
ATOM     78  C   UNL A   1      46.149  35.125  29.771  1.00  0.00     0.059 A 
ATOM     79  F   UNL A   1      45.780  33.621  28.006  1.00  0.00    -0.206 F 
ATOM     80  C   UNL A   1      46.184  35.377  31.142  1.00  0.00     0.060 A 
BRANCH  80  81
ATOM     81  S   UNL A   1      46.613  37.019  31.760  1.00  0.00     0.124 S 
ATOM     82  O   UNL A   1      45.314  37.685  31.746  1.00  0.00    -0.237 OA
ATOM     83  O   UNL A   1      47.159  36.721  33.081  1.00  0.00    -0.237 OA
ATOM     84  O   UNL A   1      47.579  37.509  30.781  1.00  0.00    -0.744 OA
ENDBRANCH  80  81
ENDBRANCH  59  73
BRANCH  60  85
ATOM     85  C   UNL A   1      43.344  23.543  27.419  1.00  0.00     0.058 A 
ATOM     86  C   UNL A   1      43.012  22.551  28.351  1.00  0.00     0.135 A 
ATOM     87  C   UNL A   1      43.323  23.201  26.056  1.00  0.00     0.135 A 
ATOM     88  F   UNL A   1      43.035  22.828  29.663  1.00  0.00    -0.206 F 
ATOM     89  C   UNL A   1      42.660  21.266  27.947  1.00  0.00     0.059 A 
ATOM     90  C   UNL A   1      42.952  21.934  25.628  1.00  0.00     0.059 A 
ATOM     91  F   UNL A   1      43.630  24.120  25.128  1.00  0.00    -0.206 F 
ATOM     92  C   UNL A   1      42.626  20.970  26.582  1.00  0.00     0.060 A 
BRANCH  92  93
ATOM     93  S   UNL A   1      42.086  19.331  26.049  1.00  0.00     0.124 S 
ATOM     94  O   UNL A   1      42.507  18.505  27.175  1.00  0.00    -0.237 OA
ATOM     95  O   UNL A   1      40.646  19.511  25.894  1.00  0.00    -0.237 OA
ATOM     96  O   UNL A   1      42.821  19.131  24.804  1.00  0.00    -0.744 OA
ENDBRANCH  92  93
ENDBRANCH  60  85
BRANCH  72  97
ATOM     97  C   UNL A   1      49.312  27.091  27.987  1.00  0.00     0.058 A 
ATOM     98  C   UNL A   1      50.097  26.406  28.927  1.00  0.00     0.135 A 
ATOM     99  C   UNL A   1      49.900  27.422  26.756  1.00  0.00     0.135 A 
ATOM    100  F   UNL A   1      49.583  26.071  30.121  1.00  0.00    -0.206 F 
ATOM    101  C   UNL A   1      51.427  26.088  28.669  1.00  0.00     0.059 A 
ATOM    102  C   UNL A   1      51.221  27.096  26.467  1.00  0.00     0.059 A 
ATOM    103  F   UNL A   1      49.188  28.068  25.818  1.00  0.00    -0.206 F 
ATOM    104  C   UNL A   1      51.982  26.443  27.437  1.00  0.00     0.060 A 
BRANCH 104 105
ATOM    105  S   UNL A   1      53.708  26.028  27.107  1.00  0.00     0.124 S 
ATOM    106  O   UNL A   1      54.235  25.871  28.458  1.00  0.00    -0.237 OA
ATOM    107  O   UNL A   1      53.596  24.801  26.324  1.00  0.00    -0.237 OA
ATOM    108  O   UNL A   1      54.198  27.189  26.371  1.00  0.00    -0.744 OA
ENDBRANCH 104 105
ENDBRANCH  72  97
ENDBRANCH  46  47
ENDBRANCH  39  41
ENDBRANCH  38  39
ENDBRANCH  37  38
ENDBRANCH   1  37
TORSDOF 20
ENDMDL
MODEL 2
REMARK VINA RESULT:      -8.3      6.328     13.498
REMARK SMILES NC(=O)C[C@H](NC(=O)C1(c2ccccc2)CCN(C(=O)[C@@H]2CCC[NH2+]2)CC1)C(=O)OCCOC(=O)c1ccc(-c2c3nc(c(-c4c(F)cc(S(=O)(=O)[O-])cc4F)c4ccc([nH]4)c(-c4c(F)cc(S(=O)(=O)[O-])cc4F)c4nc(c(-c5c(F)cc(S(=O)(=O)[O-])cc5F)c5ccc2[nH]5)C=C4)C=C3)cc1
REMARK SMILES IDX 31 1 30 2 28 3 29 4 5 5 4 6 2 7 1 8 3 11 6 12 7 13 8 15 9 16
REMARK SMILES IDX 16 17 27 18 17 19 26 20 18 21 19 22 20 23 10 24 11 25 15 26
REMARK SMILES IDX 12 27 14 28 13 29 21 30 22 31 25 32 23 33 24 34 32 37 33 38
REMARK SMILES IDX 34 39 35 40 36 41 37 42 101 43 38 44 100 45 39 46 40 47
REMARK SMILES IDX 41 48 94 49 42 50 99 51 93 52 95 53 43 54 98 55 92 56 91 57
REMARK SMILES IDX 44 59 78 60 57 61 77 62 58 63 61 64 76 65 96 66 59 67 60 68
REMARK SMILES IDX 75 70 97 71 62 72 45 73 46 74 55 75 47 76 48 77 54 78 56 79
REMARK SMILES IDX 49 80 50 81 51 82 52 83 53 84 79 85 80 86 89 87 81 88 82 89
REMARK SMILES IDX 88 90 90 91 83 92 84 93 85 94 86 95 87 96 63 97 64 98 73 99
REMARK SMILES IDX 65 100 66 101 72 102 74 103 67 104 68 105 69 106 70 107
REMARK SMILES IDX 71 108
REMARK H PARENT 1 9 1 10 6 14 25 35 25 36 95 58 61 69
REMARK Flexibility Score: inf
ROOT
ATOM      1  C   UNL A   1      38.091  24.059  25.720  1.00  0.00     0.274 C 
ENDROOT
BRANCH   1   2
ATOM      2  O   UNL A   1      36.909  23.248  25.564  1.00  0.00    -0.461 OA
BRANCH   2   3
ATOM      3  C   UNL A   1      36.301  23.356  24.348  1.00  0.00     0.329 C 
ATOM      4  O   UNL A   1      36.840  23.135  23.272  1.00  0.00    -0.250 OA
BRANCH   3   5
ATOM      5  C   UNL A   1      34.875  23.926  24.447  1.00  0.00     0.201 C 
BRANCH   5   6
ATOM      6  C   UNL A   1      34.278  23.873  23.034  1.00  0.00     0.136 C 
BRANCH   6   7
ATOM      7  C   UNL A   1      33.370  22.674  22.839  1.00  0.00     0.220 C 
ATOM      8  N   UNL A   1      32.602  22.681  21.714  1.00  0.00    -0.370 N 
ATOM      9  H   UNL A   1      31.992  21.931  21.529  1.00  0.00     0.159 HD
ATOM     10  H   UNL A   1      32.658  23.435  21.084  1.00  0.00     0.159 HD
ATOM     11  O   UNL A   1      33.319  21.732  23.619  1.00  0.00    -0.275 OA
ENDBRANCH   6   7
ENDBRANCH   5   6
BRANCH   5  12
ATOM     12  N   UNL A   1      34.777  25.289  24.983  1.00  0.00    -0.342 N 
ATOM     13  C   UNL A   1      33.785  26.221  25.039  1.00  0.00     0.231 C 
ATOM     14  H   UNL A   1      35.616  25.599  25.395  1.00  0.00     0.164 HD
ATOM     15  O   UNL A   1      34.196  27.356  25.318  1.00  0.00    -0.274 OA
BRANCH  13  16
ATOM     16  C   UNL A   1      32.245  25.935  24.866  1.00  0.00     0.077 C 
ATOM     17  C   UNL A   1      31.759  25.929  23.398  1.00  0.00     0.043 C 
ATOM     18  C   UNL A   1      31.492  27.114  25.594  1.00  0.00     0.043 C 
ATOM     19  C   UNL A   1      31.905  27.301  22.733  1.00  0.00     0.121 C 
ATOM     20  C   UNL A   1      31.604  28.446  24.868  1.00  0.00     0.121 C 
ATOM     21  N   UNL A   1      31.170  28.312  23.484  1.00  0.00    -0.337 N 
ATOM     22  C   UNL A   1      30.216  29.072  22.818  1.00  0.00     0.280 C 
ATOM     23  O   UNL A   1      30.118  29.013  21.586  1.00  0.00    -0.268 OA
BRANCH  16  24
ATOM     24  C   UNL A   1      31.816  24.656  25.640  1.00  0.00    -0.032 A 
ATOM     25  C   UNL A   1      32.487  24.275  26.824  1.00  0.00     0.005 A 
ATOM     26  C   UNL A   1      30.891  23.742  25.113  1.00  0.00     0.005 A 
ATOM     27  C   UNL A   1      32.356  22.992  27.357  1.00  0.00     0.000 A 
ATOM     28  C   UNL A   1      30.736  22.467  25.664  1.00  0.00     0.000 A 
ATOM     29  C   UNL A   1      31.508  22.079  26.750  1.00  0.00     0.000 A 
ENDBRANCH  16  24
BRANCH  22  30
ATOM     30  C   UNL A   1      29.237  29.987  23.583  1.00  0.00     0.272 C 
ATOM     31  C   UNL A   1      27.803  30.034  23.086  1.00  0.00     0.081 C 
ATOM     32  N   UNL A   1      29.717  31.383  23.693  1.00  0.00    -0.336 N 
ATOM     33  C   UNL A   1      27.353  31.439  23.443  1.00  0.00     0.068 C 
ATOM     34  C   UNL A   1      28.615  32.278  23.353  1.00  0.00     0.261 C 
ATOM     35  H   UNL A   1      30.493  31.532  23.049  1.00  0.00     0.346 HD
ATOM     36  H   UNL A   1      30.038  31.568  24.643  1.00  0.00     0.346 HD
ENDBRANCH  22  30
ENDBRANCH  13  16
ENDBRANCH   5  12
ENDBRANCH   3   5
ENDBRANCH   2   3
ENDBRANCH   1   2
BRANCH   1  37
ATOM     37  C   UNL A   1      39.034  23.527  26.799  1.00  0.00     0.275 C 
BRANCH  37  38
ATOM     38  O   UNL A   1      40.410  23.841  26.512  1.00  0.00    -0.458 OA
BRANCH  38  39
ATOM     39  C   UNL A   1      40.673  25.158  26.441  1.00  0.00     0.338 C 
ATOM     40  O   UNL A   1      40.740  25.840  25.411  1.00  0.00    -0.246 OA
BRANCH  39  41
ATOM     41  C   UNL A   1      40.817  25.767  27.765  1.00  0.00     0.060 A 
ATOM     42  C   UNL A   1      39.705  25.789  28.607  1.00  0.00     0.016 A 
ATOM     43  C   UNL A   1      41.938  26.546  28.056  1.00  0.00     0.016 A 
ATOM     44  C   UNL A   1      39.666  26.684  29.674  1.00  0.00     0.010 A 
ATOM     45  C   UNL A   1      41.921  27.391  29.175  1.00  0.00     0.010 A 
ATOM     46  C   UNL A   1      40.760  27.519  29.956  1.00  0.00    -0.014 A 
BRANCH  46  47
ATOM     47  C   UNL A   1      40.635  28.560  31.019  1.00  0.00     0.031 A 
ATOM     48  C   UNL A   1      41.563  28.577  32.212  1.00  0.00     0.074 A 
ATOM     49  C   UNL A   1      39.742  29.560  30.877  1.00  0.00     0.049 A 
ATOM     50  N   UNL A   1      41.683  29.482  33.153  1.00  0.00    -0.248 NA
ATOM     51  C   UNL A   1      42.497  27.452  32.358  1.00  0.00     0.031 C 
ATOM     52  C   UNL A   1      38.796  29.697  29.768  1.00  0.00     0.029 A 
ATOM     53  N   UNL A   1      39.488  30.652  31.669  1.00  0.00    -0.354 N 
ATOM     54  C   UNL A   1      42.744  29.071  33.953  1.00  0.00     0.074 A 
ATOM     55  C   UNL A   1      43.200  27.805  33.426  1.00  0.00     0.031 C 
ATOM     56  C   UNL A   1      38.076  30.815  29.944  1.00  0.00     0.029 A 
ATOM     57  C   UNL A   1      38.467  31.444  31.203  1.00  0.00     0.049 A 
ATOM     58  H   UNL A   1      39.990  30.849  32.492  1.00  0.00     0.167 HD
ATOM     59  C   UNL A   1      43.304  29.691  35.018  1.00  0.00     0.037 A 
ATOM     60  C   UNL A   1      37.880  32.531  31.740  1.00  0.00     0.037 A 
ATOM     61  C   UNL A   1      42.799  30.896  35.621  1.00  0.00     0.049 A 
ATOM     62  C   UNL A   1      38.370  33.072  33.051  1.00  0.00     0.074 A 
ATOM     63  C   UNL A   1      43.280  31.572  36.730  1.00  0.00     0.029 A 
ATOM     64  N   UNL A   1      41.671  31.577  35.196  1.00  0.00    -0.354 N 
ATOM     65  N   UNL A   1      39.398  32.687  33.768  1.00  0.00    -0.248 NA
ATOM     66  C   UNL A   1      37.609  34.186  33.636  1.00  0.00     0.031 C 
ATOM     67  C   UNL A   1      42.403  32.626  37.014  1.00  0.00     0.029 A 
ATOM     68  C   UNL A   1      41.405  32.633  36.054  1.00  0.00     0.049 A 
ATOM     69  H   UNL A   1      41.137  31.346  34.402  1.00  0.00     0.167 HD
ATOM     70  C   UNL A   1      39.413  33.517  34.883  1.00  0.00     0.074 A 
ATOM     71  C   UNL A   1      38.299  34.431  34.742  1.00  0.00     0.031 C 
ATOM     72  C   UNL A   1      40.279  33.522  35.927  1.00  0.00     0.037 A 
BRANCH  59  73
ATOM     73  C   UNL A   1      44.526  29.065  35.626  1.00  0.00     0.058 A 
ATOM     74  C   UNL A   1      45.814  29.476  35.247  1.00  0.00     0.135 A 
ATOM     75  C   UNL A   1      44.413  28.099  36.637  1.00  0.00     0.135 A 
ATOM     76  F   UNL A   1      45.975  30.382  34.271  1.00  0.00    -0.206 F 
ATOM     77  C   UNL A   1      46.950  28.952  35.857  1.00  0.00     0.059 A 
ATOM     78  C   UNL A   1      45.535  27.568  37.266  1.00  0.00     0.059 A 
ATOM     79  F   UNL A   1      43.202  27.668  37.024  1.00  0.00    -0.206 F 
ATOM     80  C   UNL A   1      46.800  27.999  36.868  1.00  0.00     0.060 A 
BRANCH  80  81
ATOM     81  S   UNL A   1      48.283  27.343  37.663  1.00  0.00     0.124 S 
ATOM     82  O   UNL A   1      48.935  28.567  38.119  1.00  0.00    -0.237 OA
ATOM     83  O   UNL A   1      47.724  26.494  38.712  1.00  0.00    -0.237 OA
ATOM     84  O   UNL A   1      48.963  26.635  36.583  1.00  0.00    -0.744 OA
ENDBRANCH  80  81
ENDBRANCH  59  73
BRANCH  60  85
ATOM     85  C   UNL A   1      36.708  33.134  31.056  1.00  0.00     0.058 A 
ATOM     86  C   UNL A   1      35.403  32.928  31.521  1.00  0.00     0.135 A 
ATOM     87  C   UNL A   1      36.886  33.960  29.934  1.00  0.00     0.135 A 
ATOM     88  F   UNL A   1      35.185  32.134  32.580  1.00  0.00    -0.206 F 
ATOM     89  C   UNL A   1      34.310  33.529  30.902  1.00  0.00     0.059 A 
ATOM     90  C   UNL A   1      35.815  34.590  29.315  1.00  0.00     0.059 A 
ATOM     91  F   UNL A   1      38.119  34.188  29.455  1.00  0.00    -0.206 F 
ATOM     92  C   UNL A   1      34.528  34.365  29.804  1.00  0.00     0.060 A 
BRANCH  92  93
ATOM     93  S   UNL A   1      33.124  35.216  29.052  1.00  0.00     0.124 S 
ATOM     94  O   UNL A   1      32.256  35.421  30.205  1.00  0.00    -0.237 OA
ATOM     95  O   UNL A   1      33.746  36.416  28.500  1.00  0.00    -0.237 OA
ATOM     96  O   UNL A   1      32.649  34.256  28.062  1.00  0.00    -0.744 OA
ENDBRANCH  92  93
ENDBRANCH  60  85
BRANCH  72  97
ATOM     97  C   UNL A   1      40.055  34.547  37.000  1.00  0.00     0.058 A 
ATOM     98  C   UNL A   1      40.695  35.796  36.964  1.00  0.00     0.135 A 
ATOM     99  C   UNL A   1      39.184  34.286  38.069  1.00  0.00     0.135 A 
ATOM    100  F   UNL A   1      41.542  36.092  35.965  1.00  0.00    -0.206 F 
ATOM    101  C   UNL A   1      40.504  36.739  37.968  1.00  0.00     0.059 A 
ATOM    102  C   UNL A   1      38.960  35.223  39.073  1.00  0.00     0.059 A 
ATOM    103  F   UNL A   1      38.538  33.111  38.144  1.00  0.00    -0.206 F 
ATOM    104  C   UNL A   1      39.639  36.441  39.022  1.00  0.00     0.060 A 
BRANCH 104 105
ATOM    105  S   UNL A   1      39.393  37.669  40.324  1.00  0.00     0.124 S 
ATOM    106  O   UNL A   1      38.170  38.326  39.878  1.00  0.00    -0.237 OA
ATOM    107  O   UNL A   1      39.269  36.843  41.520  1.00  0.00    -0.237 OA
ATOM    108  O   UNL A   1      40.605  38.480  40.254  1.00  0.00    -0.744 OA
ENDBRANCH 104 105
ENDBRANCH  72  97
ENDBRANCH  46  47
ENDBRANCH  39  41
ENDBRANCH  38  39
ENDBRANCH  37  38
ENDBRANCH   1  37
TORSDOF 20
ENDMDL
MODEL 3
REMARK VINA RESULT:      -8.2      5.874     13.000
REMARK SMILES NC(=O)C[C@H](NC(=O)C1(c2ccccc2)CCN(C(=O)[C@@H]2CCC[NH2+]2)CC1)C(=O)OCCOC(=O)c1ccc(-c2c3nc(c(-c4c(F)cc(S(=O)(=O)[O-])cc4F)c4ccc([nH]4)c(-c4c(F)cc(S(=O)(=O)[O-])cc4F)c4nc(c(-c5c(F)cc(S(=O)(=O)[O-])cc5F)c5ccc2[nH]5)C=C4)C=C3)cc1
REMARK SMILES IDX 31 1 30 2 28 3 29 4 5 5 4 6 2 7 1 8 3 11 6 12 7 13 8 15 9 16
REMARK SMILES IDX 16 17 27 18 17 19 26 20 18 21 19 22 20 23 10 24 11 25 15 26
REMARK SMILES IDX 12 27 14 28 13 29 21 30 22 31 25 32 23 33 24 34 32 37 33 38
REMARK SMILES IDX 34 39 35 40 36 41 37 42 101 43 38 44 100 45 39 46 40 47
REMARK SMILES IDX 41 48 94 49 42 50 99 51 93 52 95 53 43 54 98 55 92 56 91 57
REMARK SMILES IDX 44 59 78 60 57 61 77 62 58 63 61 64 76 65 96 66 59 67 60 68
REMARK SMILES IDX 75 70 97 71 62 72 45 73 46 74 55 75 47 76 48 77 54 78 56 79
REMARK SMILES IDX 49 80 50 81 51 82 52 83 53 84 79 85 80 86 89 87 81 88 82 89
REMARK SMILES IDX 88 90 90 91 83 92 84 93 85 94 86 95 87 96 63 97 64 98 73 99
REMARK SMILES IDX 65 100 66 101 72 102 74 103 67 104 68 105 69 106 70 107
REMARK SMILES IDX 71 108
REMARK H PARENT 1 9 1 10 6 14 25 35 25 36 95 58 61 69
REMARK Flexibility Score: inf
ROOT
ATOM      1  C   UNL A   1      37.777  23.547  25.531  1.00  0.00     0.274 C 
ENDROOT
BRANCH   1   2
ATOM      2  O   UNL A   1      36.462  24.077  25.271  1.00  0.00    -0.461 OA
BRANCH   2   3
ATOM      3  C   UNL A   1      35.902  23.662  24.099  1.00  0.00     0.329 C 
ATOM      4  O   UNL A   1      36.528  23.344  23.097  1.00  0.00    -0.250 OA
BRANCH   3   5
ATOM      5  C   UNL A   1      34.366  23.758  24.109  1.00  0.00     0.201 C 
BRANCH   5   6
ATOM      6  C   UNL A   1      33.838  22.480  23.444  1.00  0.00     0.136 C 
BRANCH   6   7
ATOM      7  C   UNL A   1      32.956  22.778  22.247  1.00  0.00     0.220 C 
ATOM      8  N   UNL A   1      31.642  22.440  22.371  1.00  0.00    -0.370 N 
ATOM      9  H   UNL A   1      31.018  22.609  21.630  1.00  0.00     0.159 HD
ATOM     10  H   UNL A   1      31.317  22.029  23.205  1.00  0.00     0.159 HD
ATOM     11  O   UNL A   1      33.367  23.306  21.221  1.00  0.00    -0.275 OA
ENDBRANCH   6   7
ENDBRANCH   5   6
BRANCH   5  12
ATOM     12  N   UNL A   1      33.805  24.939  23.442  1.00  0.00    -0.342 N 
ATOM     13  C   UNL A   1      32.805  25.814  23.737  1.00  0.00     0.231 C 
ATOM     14  H   UNL A   1      34.252  25.145  22.589  1.00  0.00     0.164 HD
ATOM     15  O   UNL A   1      32.457  26.505  22.769  1.00  0.00    -0.274 OA
BRANCH  13  16
ATOM     16  C   UNL A   1      32.174  26.041  25.164  1.00  0.00     0.077 C 
ATOM     17  C   UNL A   1      31.007  27.056  25.190  1.00  0.00     0.043 C 
ATOM     18  C   UNL A   1      33.321  26.637  26.066  1.00  0.00     0.043 C 
ATOM     19  C   UNL A   1      31.461  28.470  24.814  1.00  0.00     0.121 C 
ATOM     20  C   UNL A   1      33.698  28.067  25.706  1.00  0.00     0.121 C 
ATOM     21  N   UNL A   1      32.518  28.921  25.710  1.00  0.00    -0.337 N 
ATOM     22  C   UNL A   1      32.340  30.115  26.401  1.00  0.00     0.280 C 
ATOM     23  O   UNL A   1      31.390  30.859  26.128  1.00  0.00    -0.268 OA
BRANCH  16  24
ATOM     24  C   UNL A   1      31.802  24.691  25.840  1.00  0.00    -0.032 A 
ATOM     25  C   UNL A   1      32.620  24.150  26.858  1.00  0.00     0.005 A 
ATOM     26  C   UNL A   1      30.768  23.874  25.356  1.00  0.00     0.005 A 
ATOM     27  C   UNL A   1      32.508  22.816  27.252  1.00  0.00     0.000 A 
ATOM     28  C   UNL A   1      30.636  22.548  25.772  1.00  0.00     0.000 A 
ATOM     29  C   UNL A   1      31.539  22.008  26.678  1.00  0.00     0.000 A 
ENDBRANCH  16  24
BRANCH  22  30
ATOM     30  C   UNL A   1      33.295  30.539  27.537  1.00  0.00     0.272 C 
ATOM     31  C   UNL A   1      34.187  31.740  27.278  1.00  0.00     0.081 C 
ATOM     32  N   UNL A   1      34.159  29.434  28.009  1.00  0.00    -0.336 N 
ATOM     33  C   UNL A   1      35.422  31.445  28.110  1.00  0.00     0.068 C 
ATOM     34  C   UNL A   1      35.527  29.931  28.115  1.00  0.00     0.261 C 
ATOM     35  H   UNL A   1      34.124  28.661  27.343  1.00  0.00     0.346 HD
ATOM     36  H   UNL A   1      33.836  29.100  28.917  1.00  0.00     0.346 HD
ENDBRANCH  22  30
ENDBRANCH  13  16
ENDBRANCH   5  12
ENDBRANCH   3   5
ENDBRANCH   2   3
ENDBRANCH   1   2
BRANCH   1  37
ATOM     37  C   UNL A   1      38.522  24.323  26.617  1.00  0.00     0.275 C 
BRANCH  37  38
ATOM     38  O   UNL A   1      39.951  24.176  26.498  1.00  0.00    -0.458 OA
BRANCH  38  39
ATOM     39  C   UNL A   1      40.618  25.337  26.386  1.00  0.00     0.338 C 
ATOM     40  O   UNL A   1      40.967  25.886  25.333  1.00  0.00    -0.246 OA
BRANCH  39  41
ATOM     41  C   UNL A   1      40.856  25.968  27.685  1.00  0.00     0.060 A 
ATOM     42  C   UNL A   1      39.861  25.871  28.658  1.00  0.00     0.016 A 
ATOM     43  C   UNL A   1      41.908  26.872  27.840  1.00  0.00     0.016 A 
ATOM     44  C   UNL A   1      39.853  26.764  29.728  1.00  0.00     0.010 A 
ATOM     45  C   UNL A   1      41.934  27.718  28.958  1.00  0.00     0.010 A 
ATOM     46  C   UNL A   1      40.872  27.720  29.878  1.00  0.00    -0.014 A 
BRANCH  46  47
ATOM     47  C   UNL A   1      40.762  28.748  30.955  1.00  0.00     0.031 A 
ATOM     48  C   UNL A   1      41.692  28.737  32.147  1.00  0.00     0.074 A 
ATOM     49  C   UNL A   1      39.882  29.762  30.827  1.00  0.00     0.049 A 
ATOM     50  N   UNL A   1      41.825  29.627  33.099  1.00  0.00    -0.248 NA
ATOM     51  C   UNL A   1      42.611  27.598  32.276  1.00  0.00     0.031 C 
ATOM     52  C   UNL A   1      38.937  29.926  29.722  1.00  0.00     0.029 A 
ATOM     53  N   UNL A   1      39.645  30.846  31.634  1.00  0.00    -0.354 N 
ATOM     54  C   UNL A   1      42.881  29.191  33.892  1.00  0.00     0.074 A 
ATOM     55  C   UNL A   1      43.319  27.926  33.348  1.00  0.00     0.031 C 
ATOM     56  C   UNL A   1      38.232  31.051  29.913  1.00  0.00     0.029 A 
ATOM     57  C   UNL A   1      38.633  31.658  31.180  1.00  0.00     0.049 A 
ATOM     58  H   UNL A   1      40.150  31.026  32.459  1.00  0.00     0.167 HD
ATOM     59  C   UNL A   1      43.450  29.790  34.965  1.00  0.00     0.037 A 
ATOM     60  C   UNL A   1      38.062  32.745  31.732  1.00  0.00     0.037 A 
ATOM     61  C   UNL A   1      42.963  30.993  35.585  1.00  0.00     0.049 A 
ATOM     62  C   UNL A   1      38.560  33.263  33.050  1.00  0.00     0.074 A 
ATOM     63  C   UNL A   1      43.454  31.648  36.702  1.00  0.00     0.029 A 
ATOM     64  N   UNL A   1      41.843  31.695  35.171  1.00  0.00    -0.354 N 
ATOM     65  N   UNL A   1      39.584  32.854  33.761  1.00  0.00    -0.248 NA
ATOM     66  C   UNL A   1      37.815  34.378  33.650  1.00  0.00     0.031 C 
ATOM     67  C   UNL A   1      42.591  32.709  37.001  1.00  0.00     0.029 A 
ATOM     68  C   UNL A   1      41.593  32.742  36.043  1.00  0.00     0.049 A 
ATOM     69  H   UNL A   1      41.305  31.482  34.374  1.00  0.00     0.167 HD
ATOM     70  C   UNL A   1      39.612  33.669  34.886  1.00  0.00     0.074 A 
ATOM     71  C   UNL A   1      38.510  34.600  34.759  1.00  0.00     0.031 C 
ATOM     72  C   UNL A   1      40.478  33.648  35.929  1.00  0.00     0.037 A 
BRANCH  59  73
ATOM     73  C   UNL A   1      44.665  29.139  35.563  1.00  0.00     0.058 A 
ATOM     74  C   UNL A   1      45.958  29.525  35.175  1.00  0.00     0.135 A 
ATOM     75  C   UNL A   1      44.540  28.175  36.574  1.00  0.00     0.135 A 
ATOM     76  F   UNL A   1      46.129  30.430  34.198  1.00  0.00    -0.206 F 
ATOM     77  C   UNL A   1      47.088  28.978  35.775  1.00  0.00     0.059 A 
ATOM     78  C   UNL A   1      45.657  27.621  37.194  1.00  0.00     0.059 A 
ATOM     79  F   UNL A   1      43.324  27.766  36.969  1.00  0.00    -0.206 F 
ATOM     80  C   UNL A   1      46.927  28.027  36.786  1.00  0.00     0.060 A 
BRANCH  80  81
ATOM     81  S   UNL A   1      48.403  27.341  37.569  1.00  0.00     0.124 S 
ATOM     82  O   UNL A   1      48.076  27.485  38.985  1.00  0.00    -0.237 OA
ATOM     83  O   UNL A   1      48.419  25.973  37.058  1.00  0.00    -0.237 OA
ATOM     84  O   UNL A   1      49.477  28.202  37.083  1.00  0.00    -0.744 OA
ENDBRANCH  80  81
ENDBRANCH  59  73
BRANCH  60  85
ATOM     85  C   UNL A   1      36.897  33.374  31.058  1.00  0.00     0.058 A 
ATOM     86  C   UNL A   1      35.585  33.117  31.474  1.00  0.00     0.135 A 
ATOM     87  C   UNL A   1      37.089  34.274  29.997  1.00  0.00     0.135 A 
ATOM     88  F   UNL A   1      35.353  32.252  32.472  1.00  0.00    -0.206 F 
ATOM     89  C   UNL A   1      34.498  33.740  30.866  1.00  0.00     0.059 A 
ATOM     90  C   UNL A   1      36.023  34.926  29.392  1.00  0.00     0.059 A 
ATOM     91  F   UNL A   1      38.329  34.553  29.568  1.00  0.00    -0.206 F 
ATOM     92  C   UNL A   1      34.729  34.649  29.831  1.00  0.00     0.060 A 
BRANCH  92  93
ATOM     93  S   UNL A   1      33.330  35.525  29.099  1.00  0.00     0.124 S 
ATOM     94  O   UNL A   1      33.991  36.331  28.081  1.00  0.00    -0.237 OA
ATOM     95  O   UNL A   1      32.499  34.430  28.606  1.00  0.00    -0.237 OA
ATOM     96  O   UNL A   1      32.773  36.261  30.230  1.00  0.00    -0.744 OA
ENDBRANCH  92  93
ENDBRANCH  60  85
BRANCH  72  97
ATOM     97  C   UNL A   1      40.270  34.662  37.016  1.00  0.00     0.058 A 
ATOM     98  C   UNL A   1      39.371  34.432  38.069  1.00  0.00     0.135 A 
ATOM     99  C   UNL A   1      40.984  35.870  37.014  1.00  0.00     0.135 A 
ATOM    100  F   UNL A   1      38.661  33.294  38.113  1.00  0.00    -0.206 F 
ATOM    101  C   UNL A   1      39.163  35.379  39.066  1.00  0.00     0.059 A 
ATOM    102  C   UNL A   1      40.808  36.823  38.013  1.00  0.00     0.059 A 
ATOM    103  F   UNL A   1      41.865  36.135  36.035  1.00  0.00    -0.206 F 
ATOM    104  C   UNL A   1      39.882  36.575  39.026  1.00  0.00     0.060 A 
BRANCH 104 105
ATOM    105  S   UNL A   1      39.609  37.802  40.323  1.00  0.00     0.124 S 
ATOM    106  O   UNL A   1      38.187  38.085  40.162  1.00  0.00    -0.237 OA
ATOM    107  O   UNL A   1      39.976  37.072  41.533  1.00  0.00    -0.237 OA
ATOM    108  O   UNL A   1      40.513  38.887  39.956  1.00  0.00    -0.744 OA
ENDBRANCH 104 105
ENDBRANCH  72  97
ENDBRANCH  46  47
ENDBRANCH  39  41
ENDBRANCH  38  39
ENDBRANCH  37  38
ENDBRANCH   1  37
TORSDOF 20
ENDMDL
