MODEL 1
REMARK VINA RESULT:     -11.3      0.000      0.000
REMARK SMILES Cc1cccc(Cl)c1Nc1ccccc1CC(=O)OCCOC(=O)c1ccc(-c2c3nc(c(-c4c(F)cc(S(=O)(=O)[O-])cc4F)c4ccc([nH]4)c(-c4c(F)cc(S(=O)(=O)[O-])cc4F)c4nc(c(-c5c(F)cc(S(=O)(=O)[O-])cc5F)c5ccc2[nH]5)C=C4)C=C3)cc1
REMARK SMILES IDX 20 1 19 2 17 3 18 4 16 5 15 6 10 7 11 8 12 9 14 10 13 11
REMARK SMILES IDX 9 12 8 14 1 15 2 16 3 17 4 18 6 19 5 20 7 21 21 22 22 23
REMARK SMILES IDX 23 24 24 25 25 26 26 27 90 28 27 29 89 30 28 31 29 32 30 33
REMARK SMILES IDX 83 34 31 35 88 36 82 37 84 38 32 39 87 40 81 41 80 42 33 44
REMARK SMILES IDX 67 45 46 46 66 47 47 48 50 49 65 50 85 51 48 52 49 53 64 55
REMARK SMILES IDX 86 56 51 57 34 58 35 59 44 60 36 61 37 62 43 63 45 64 38 65
REMARK SMILES IDX 39 66 40 67 41 68 42 69 68 70 69 71 78 72 70 73 71 74 77 75
REMARK SMILES IDX 79 76 72 77 73 78 74 79 75 80 76 81 52 82 53 83 62 84 54 85
REMARK SMILES IDX 55 86 61 87 63 88 56 89 57 90 58 91 59 92 60 93
REMARK H PARENT 9 13 84 43 50 54
REMARK Flexibility Score: inf
ROOT
ATOM      1  C   UNL A   1      34.338  30.267  27.368  1.00  0.00     0.274 C 
ENDROOT
BRANCH   1   2
ATOM      2  O   UNL A   1      32.947  29.942  27.193  1.00  0.00    -0.462 OA
BRANCH   2   3
ATOM      3  C   UNL A   1      32.672  28.613  27.106  1.00  0.00     0.310 C 
ATOM      4  O   UNL A   1      31.679  28.079  27.593  1.00  0.00    -0.252 OA
BRANCH   3   5
ATOM      5  C   UNL A   1      33.753  27.806  26.438  1.00  0.00     0.160 C 
BRANCH   5   6
ATOM      6  C   UNL A   1      33.662  27.555  24.946  1.00  0.00    -0.013 A 
ATOM      7  C   UNL A   1      33.585  26.246  24.418  1.00  0.00     0.042 A 
ATOM      8  C   UNL A   1      33.545  26.075  23.023  1.00  0.00     0.026 A 
ATOM      9  C   UNL A   1      33.514  27.170  22.160  1.00  0.00     0.002 A 
ATOM     10  C   UNL A   1      33.592  28.646  24.060  1.00  0.00     0.006 A 
ATOM     11  C   UNL A   1      33.520  28.456  22.681  1.00  0.00     0.000 A 
BRANCH   7  12
ATOM     12  N   UNL A   1      33.422  25.093  25.217  1.00  0.00    -0.354 N 
ATOM     13  H   UNL A   1      33.183  25.268  26.155  1.00  0.00     0.167 HD
BRANCH  12  14
ATOM     14  C   UNL A   1      33.551  23.723  24.878  1.00  0.00     0.060 A 
ATOM     15  C   UNL A   1      36.016  23.885  25.515  1.00  0.00     0.046 C 
ATOM     16  C   UNL A   1      34.816  23.105  25.043  1.00  0.00    -0.026 A 
ATOM     17  C   UNL A   1      34.947  21.718  24.859  1.00  0.00     0.005 A 
ATOM     18  C   UNL A   1      33.852  20.938  24.495  1.00  0.00     0.002 A 
ATOM     19  C   UNL A   1      32.461  22.916  24.473  1.00  0.00     0.064 A 
ATOM     20  C   UNL A   1      32.615  21.538  24.292  1.00  0.00     0.023 A 
ATOM     21  Cl  UNL A   1      30.899  23.566  24.103  1.00  0.00    -0.082 Cl
ENDBRANCH  12  14
ENDBRANCH   7  12
ENDBRANCH   5   6
ENDBRANCH   3   5
ENDBRANCH   2   3
ENDBRANCH   1   2
BRANCH   1  22
ATOM     22  C   UNL A   1      34.502  31.547  28.185  1.00  0.00     0.275 C 
BRANCH  22  23
ATOM     23  O   UNL A   1      35.884  31.743  28.528  1.00  0.00    -0.458 OA
BRANCH  23  24
ATOM     24  C   UNL A   1      36.279  31.211  29.706  1.00  0.00     0.338 C 
ATOM     25  O   UNL A   1      35.679  31.234  30.767  1.00  0.00    -0.246 OA
BRANCH  24  26
ATOM     26  C   UNL A   1      37.597  30.576  29.547  1.00  0.00     0.060 A 
ATOM     27  C   UNL A   1      38.436  30.387  30.648  1.00  0.00     0.016 A 
ATOM     28  C   UNL A   1      38.036  30.265  28.261  1.00  0.00     0.016 A 
ATOM     29  C   UNL A   1      39.736  29.916  30.460  1.00  0.00     0.010 A 
ATOM     30  C   UNL A   1      39.319  29.747  28.080  1.00  0.00     0.010 A 
ATOM     31  C   UNL A   1      40.188  29.589  29.174  1.00  0.00    -0.014 A 
BRANCH  31  32
ATOM     32  C   UNL A   1      41.576  29.113  28.945  1.00  0.00     0.031 A 
ATOM     33  C   UNL A   1      42.719  30.089  28.996  1.00  0.00     0.074 A 
ATOM     34  C   UNL A   1      41.805  27.822  28.638  1.00  0.00     0.049 A 
ATOM     35  N   UNL A   1      43.964  29.925  28.631  1.00  0.00    -0.248 NA
ATOM     36  C   UNL A   1      42.412  31.433  29.511  1.00  0.00     0.031 C 
ATOM     37  C   UNL A   1      40.788  26.772  28.581  1.00  0.00     0.029 A 
ATOM     38  N   UNL A   1      42.969  27.180  28.294  1.00  0.00    -0.354 N 
ATOM     39  C   UNL A   1      44.582  31.155  28.830  1.00  0.00     0.074 A 
ATOM     40  C   UNL A   1      43.572  32.055  29.345  1.00  0.00     0.031 C 
ATOM     41  C   UNL A   1      41.369  25.618  28.215  1.00  0.00     0.029 A 
ATOM     42  C   UNL A   1      42.785  25.860  27.957  1.00  0.00     0.049 A 
ATOM     43  H   UNL A   1      43.848  27.622  28.287  1.00  0.00     0.167 HD
ATOM     44  C   UNL A   1      45.871  31.500  28.598  1.00  0.00     0.037 A 
ATOM     45  C   UNL A   1      43.651  24.957  27.458  1.00  0.00     0.037 A 
ATOM     46  C   UNL A   1      46.878  30.589  28.120  1.00  0.00     0.049 A 
ATOM     47  C   UNL A   1      45.074  25.363  27.196  1.00  0.00     0.074 A 
ATOM     48  C   UNL A   1      48.221  30.833  27.886  1.00  0.00     0.029 A 
ATOM     49  N   UNL A   1      46.655  29.256  27.806  1.00  0.00    -0.354 N 
ATOM     50  N   UNL A   1      45.642  26.531  27.373  1.00  0.00    -0.248 NA
ATOM     51  C   UNL A   1      45.971  24.332  26.658  1.00  0.00     0.031 C 
ATOM     52  C   UNL A   1      48.803  29.655  27.404  1.00  0.00     0.029 A 
ATOM     53  C   UNL A   1      47.831  28.668  27.368  1.00  0.00     0.049 A 
ATOM     54  H   UNL A   1      45.789  28.796  27.883  1.00  0.00     0.167 HD
ATOM     55  C   UNL A   1      46.966  26.375  26.981  1.00  0.00     0.074 A 
ATOM     56  C   UNL A   1      47.118  24.994  26.568  1.00  0.00     0.031 C 
ATOM     57  C   UNL A   1      47.964  27.291  26.962  1.00  0.00     0.037 A 
BRANCH  44  58
ATOM     58  C   UNL A   1      46.257  32.932  28.831  1.00  0.00     0.058 A 
ATOM     59  C   UNL A   1      46.743  33.379  30.070  1.00  0.00     0.135 A 
ATOM     60  C   UNL A   1      46.153  33.870  27.791  1.00  0.00     0.135 A 
ATOM     61  F   UNL A   1      46.847  32.528  31.102  1.00  0.00    -0.206 F 
ATOM     62  C   UNL A   1      47.085  34.712  30.279  1.00  0.00     0.059 A 
ATOM     63  C   UNL A   1      46.510  35.204  27.971  1.00  0.00     0.059 A 
ATOM     64  F   UNL A   1      45.694  33.496  26.587  1.00  0.00    -0.206 F 
ATOM     65  C   UNL A   1      46.958  35.618  29.224  1.00  0.00     0.060 A 
BRANCH  65  66
ATOM     66  S   UNL A   1      47.393  37.348  29.506  1.00  0.00     0.124 S 
ATOM     67  O   UNL A   1      46.714  38.004  28.393  1.00  0.00    -0.237 OA
ATOM     68  O   UNL A   1      46.831  37.604  30.829  1.00  0.00    -0.237 OA
ATOM     69  O   UNL A   1      48.851  37.346  29.440  1.00  0.00    -0.744 OA
ENDBRANCH  65  66
ENDBRANCH  44  58
BRANCH  45  70
ATOM     70  C   UNL A   1      43.176  23.584  27.149  1.00  0.00     0.058 A 
ATOM     71  C   UNL A   1      42.916  23.192  25.828  1.00  0.00     0.135 A 
ATOM     72  C   UNL A   1      43.018  22.624  28.161  1.00  0.00     0.135 A 
ATOM     73  F   UNL A   1      43.044  24.078  24.828  1.00  0.00    -0.206 F 
ATOM     74  C   UNL A   1      42.516  21.895  25.520  1.00  0.00     0.059 A 
ATOM     75  C   UNL A   1      42.640  21.317  27.875  1.00  0.00     0.059 A 
ATOM     76  F   UNL A   1      43.267  22.949  29.439  1.00  0.00    -0.206 F 
ATOM     77  C   UNL A   1      42.387  20.963  26.551  1.00  0.00     0.060 A 
BRANCH  77  78
ATOM     78  S   UNL A   1      41.948  19.261  26.135  1.00  0.00     0.124 S 
ATOM     79  O   UNL A   1      42.766  19.028  24.951  1.00  0.00    -0.237 OA
ATOM     80  O   UNL A   1      42.344  18.535  27.338  1.00  0.00    -0.237 OA
ATOM     81  O   UNL A   1      40.508  19.335  25.905  1.00  0.00    -0.744 OA
ENDBRANCH  77  78
ENDBRANCH  45  70
BRANCH  57  82
ATOM     82  C   UNL A   1      49.316  26.826  26.503  1.00  0.00     0.058 A 
ATOM     83  C   UNL A   1      50.213  26.198  27.382  1.00  0.00     0.135 A 
ATOM     84  C   UNL A   1      49.700  26.968  25.160  1.00  0.00     0.135 A 
ATOM     85  F   UNL A   1      49.895  26.047  28.676  1.00  0.00    -0.206 F 
ATOM     86  C   UNL A   1      51.453  25.743  26.947  1.00  0.00     0.059 A 
ATOM     87  C   UNL A   1      50.927  26.502  24.701  1.00  0.00     0.059 A 
ATOM     88  F   UNL A   1      48.873  27.555  24.280  1.00  0.00    -0.206 F 
ATOM     89  C   UNL A   1      51.802  25.900  25.604  1.00  0.00     0.060 A 
BRANCH  89  90
ATOM     90  S   UNL A   1      53.400  25.275  25.041  1.00  0.00     0.124 S 
ATOM     91  O   UNL A   1      53.272  23.849  25.318  1.00  0.00    -0.237 OA
ATOM     92  O   UNL A   1      53.408  25.649  23.630  1.00  0.00    -0.237 OA
ATOM     93  O   UNL A   1      54.357  25.995  25.877  1.00  0.00    -0.744 OA
ENDBRANCH  89  90
ENDBRANCH  57  82
ENDBRANCH  31  32
ENDBRANCH  24  26
ENDBRANCH  23  24
ENDBRANCH  22  23
ENDBRANCH   1  22
TORSDOF 17
ENDMDL
MODEL 2
REMARK VINA RESULT:     -11.0      6.791     13.212
REMARK SMILES Cc1cccc(Cl)c1Nc1ccccc1CC(=O)OCCOC(=O)c1ccc(-c2c3nc(c(-c4c(F)cc(S(=O)(=O)[O-])cc4F)c4ccc([nH]4)c(-c4c(F)cc(S(=O)(=O)[O-])cc4F)c4nc(c(-c5c(F)cc(S(=O)(=O)[O-])cc5F)c5ccc2[nH]5)C=C4)C=C3)cc1
REMARK SMILES IDX 20 1 19 2 17 3 18 4 16 5 15 6 10 7 11 8 12 9 14 10 13 11
REMARK SMILES IDX 9 12 8 14 1 15 2 16 3 17 4 18 6 19 5 20 7 21 21 22 22 23
REMARK SMILES IDX 23 24 24 25 25 26 26 27 90 28 27 29 89 30 28 31 29 32 30 33
REMARK SMILES IDX 83 34 31 35 88 36 82 37 84 38 32 39 87 40 81 41 80 42 33 44
REMARK SMILES IDX 67 45 46 46 66 47 47 48 50 49 65 50 85 51 48 52 49 53 64 55
REMARK SMILES IDX 86 56 51 57 34 58 35 59 44 60 36 61 37 62 43 63 45 64 38 65
REMARK SMILES IDX 39 66 40 67 41 68 42 69 68 70 69 71 78 72 70 73 71 74 77 75
REMARK SMILES IDX 79 76 72 77 73 78 74 79 75 80 76 81 52 82 53 83 62 84 54 85
REMARK SMILES IDX 55 86 61 87 63 88 56 89 57 90 58 91 59 92 60 93
REMARK H PARENT 9 13 84 43 50 54
REMARK Flexibility Score: inf
ROOT
ATOM      1  C   UNL A   1      43.456  24.767  25.021  1.00  0.00     0.274 C 
ENDROOT
BRANCH   1   2
ATOM      2  O   UNL A   1      44.774  24.360  24.611  1.00  0.00    -0.462 OA
BRANCH   2   3
ATOM      3  C   UNL A   1      45.796  25.059  25.174  1.00  0.00     0.310 C 
ATOM      4  O   UNL A   1      46.741  25.528  24.545  1.00  0.00    -0.252 OA
BRANCH   3   5
ATOM      5  C   UNL A   1      45.734  25.132  26.676  1.00  0.00     0.160 C 
BRANCH   5   6
ATOM      6  C   UNL A   1      45.560  26.485  27.336  1.00  0.00    -0.013 A 
ATOM      7  C   UNL A   1      45.687  26.650  28.734  1.00  0.00     0.042 A 
ATOM      8  C   UNL A   1      45.473  27.922  29.292  1.00  0.00     0.026 A 
ATOM      9  C   UNL A   1      45.203  29.030  28.489  1.00  0.00     0.002 A 
ATOM     10  C   UNL A   1      45.323  27.622  26.540  1.00  0.00     0.006 A 
ATOM     11  C   UNL A   1      45.146  28.882  27.110  1.00  0.00     0.000 A 
BRANCH   7  12
ATOM     12  N   UNL A   1      46.139  25.631  29.599  1.00  0.00    -0.354 N 
ATOM     13  H   UNL A   1      46.820  25.031  29.216  1.00  0.00     0.167 HD
BRANCH  12  14
ATOM     14  C   UNL A   1      45.766  25.335  30.934  1.00  0.00     0.060 A 
ATOM     15  C   UNL A   1      43.919  23.845  29.997  1.00  0.00     0.046 C 
ATOM     16  C   UNL A   1      44.690  24.437  31.149  1.00  0.00    -0.026 A 
ATOM     17  C   UNL A   1      44.387  24.006  32.452  1.00  0.00     0.005 A 
ATOM     18  C   UNL A   1      45.117  24.465  33.545  1.00  0.00     0.002 A 
ATOM     19  C   UNL A   1      46.470  25.815  32.064  1.00  0.00     0.064 A 
ATOM     20  C   UNL A   1      46.149  25.376  33.352  1.00  0.00     0.023 A 
ATOM     21  Cl  UNL A   1      47.712  27.018  31.954  1.00  0.00    -0.082 Cl
ENDBRANCH  12  14
ENDBRANCH   7  12
ENDBRANCH   5   6
ENDBRANCH   3   5
ENDBRANCH   2   3
ENDBRANCH   1   2
BRANCH   1  22
ATOM     22  C   UNL A   1      42.609  23.559  25.415  1.00  0.00     0.275 C 
BRANCH  22  23
ATOM     23  O   UNL A   1      42.149  23.697  26.771  1.00  0.00    -0.458 OA
BRANCH  23  24
ATOM     24  C   UNL A   1      40.864  24.090  26.919  1.00  0.00     0.338 C 
ATOM     25  O   UNL A   1      39.870  23.569  26.443  1.00  0.00    -0.246 OA
BRANCH  24  26
ATOM     26  C   UNL A   1      40.809  25.296  27.761  1.00  0.00     0.060 A 
ATOM     27  C   UNL A   1      41.874  26.200  27.784  1.00  0.00     0.016 A 
ATOM     28  C   UNL A   1      39.721  25.463  28.616  1.00  0.00     0.016 A 
ATOM     29  C   UNL A   1      41.869  27.260  28.693  1.00  0.00     0.010 A 
ATOM     30  C   UNL A   1      39.694  26.552  29.489  1.00  0.00     0.010 A 
ATOM     31  C   UNL A   1      40.777  27.446  29.551  1.00  0.00    -0.014 A 
BRANCH  31  32
ATOM     32  C   UNL A   1      40.759  28.550  30.545  1.00  0.00     0.031 A 
ATOM     33  C   UNL A   1      41.711  28.522  31.709  1.00  0.00     0.074 A 
ATOM     34  C   UNL A   1      39.858  29.544  30.435  1.00  0.00     0.049 A 
ATOM     35  N   UNL A   1      41.725  29.266  32.784  1.00  0.00    -0.248 NA
ATOM     36  C   UNL A   1      42.777  27.508  31.662  1.00  0.00     0.031 C 
ATOM     37  C   UNL A   1      38.899  29.700  29.341  1.00  0.00     0.029 A 
ATOM     38  N   UNL A   1      39.589  30.600  31.269  1.00  0.00    -0.354 N 
ATOM     39  C   UNL A   1      42.772  28.785  33.563  1.00  0.00     0.074 A 
ATOM     40  C   UNL A   1      43.367  27.683  32.837  1.00  0.00     0.031 C 
ATOM     41  C   UNL A   1      38.140  30.783  29.575  1.00  0.00     0.029 A 
ATOM     42  C   UNL A   1      38.521  31.362  30.859  1.00  0.00     0.049 A 
ATOM     43  H   UNL A   1      40.110  30.792  32.082  1.00  0.00     0.167 HD
ATOM     44  C   UNL A   1      43.193  29.222  34.774  1.00  0.00     0.037 A 
ATOM     45  C   UNL A   1      37.893  32.386  31.468  1.00  0.00     0.037 A 
ATOM     46  C   UNL A   1      42.620  30.342  35.474  1.00  0.00     0.049 A 
ATOM     47  C   UNL A   1      38.368  32.847  32.818  1.00  0.00     0.074 A 
ATOM     48  C   UNL A   1      42.998  30.883  36.691  1.00  0.00     0.029 A 
ATOM     49  N   UNL A   1      41.549  31.096  35.017  1.00  0.00    -0.354 N 
ATOM     50  N   UNL A   1      39.347  32.375  33.551  1.00  0.00    -0.248 NA
ATOM     51  C   UNL A   1      37.646  33.972  33.428  1.00  0.00     0.031 C 
ATOM     52  C   UNL A   1      42.138  31.948  36.983  1.00  0.00     0.029 A 
ATOM     53  C   UNL A   1      41.245  32.091  35.933  1.00  0.00     0.049 A 
ATOM     54  H   UNL A   1      41.076  30.947  34.168  1.00  0.00     0.167 HD
ATOM     55  C   UNL A   1      39.369  33.152  34.703  1.00  0.00     0.074 A 
ATOM     56  C   UNL A   1      38.312  34.134  34.564  1.00  0.00     0.031 C 
ATOM     57  C   UNL A   1      40.189  33.060  35.778  1.00  0.00     0.037 A 
BRANCH  44  58
ATOM     58  C   UNL A   1      44.310  28.464  35.433  1.00  0.00     0.058 A 
ATOM     59  C   UNL A   1      45.659  28.781  35.207  1.00  0.00     0.135 A 
ATOM     60  C   UNL A   1      44.024  27.412  36.319  1.00  0.00     0.135 A 
ATOM     61  F   UNL A   1      45.987  29.767  34.357  1.00  0.00    -0.206 F 
ATOM     62  C   UNL A   1      46.686  28.063  35.812  1.00  0.00     0.059 A 
ATOM     63  C   UNL A   1      45.036  26.694  36.953  1.00  0.00     0.059 A 
ATOM     64  F   UNL A   1      42.752  27.068  36.571  1.00  0.00    -0.206 F 
ATOM     65  C   UNL A   1      46.363  27.017  36.679  1.00  0.00     0.060 A 
BRANCH  65  66
ATOM     66  S   UNL A   1      47.702  26.083  37.451  1.00  0.00     0.124 S 
ATOM     67  O   UNL A   1      47.286  24.708  37.190  1.00  0.00    -0.237 OA
ATOM     68  O   UNL A   1      48.875  26.540  36.712  1.00  0.00    -0.237 OA
ATOM     69  O   UNL A   1      47.646  26.503  38.848  1.00  0.00    -0.744 OA
ENDBRANCH  65  66
ENDBRANCH  44  58
BRANCH  45  70
ATOM     70  C   UNL A   1      36.725  33.023  30.808  1.00  0.00     0.058 A 
ATOM     71  C   UNL A   1      35.424  32.820  31.292  1.00  0.00     0.135 A 
ATOM     72  C   UNL A   1      36.890  33.882  29.710  1.00  0.00     0.135 A 
ATOM     73  F   UNL A   1      35.217  32.000  32.334  1.00  0.00    -0.206 F 
ATOM     74  C   UNL A   1      34.327  33.448  30.712  1.00  0.00     0.059 A 
ATOM     75  C   UNL A   1      35.810  34.537  29.127  1.00  0.00     0.059 A 
ATOM     76  F   UNL A   1      38.117  34.115  29.218  1.00  0.00    -0.206 F 
ATOM     77  C   UNL A   1      34.531  34.310  29.633  1.00  0.00     0.060 A 
BRANCH  77  78
ATOM     78  S   UNL A   1      33.113  35.185  28.937  1.00  0.00     0.124 S 
ATOM     79  O   UNL A   1      32.255  35.332  30.107  1.00  0.00    -0.237 OA
ATOM     80  O   UNL A   1      33.722  36.412  28.433  1.00  0.00    -0.237 OA
ATOM     81  O   UNL A   1      32.628  34.269  27.908  1.00  0.00    -0.744 OA
ENDBRANCH  77  78
ENDBRANCH  45  70
BRANCH  57  82
ATOM     82  C   UNL A   1      39.993  34.062  36.880  1.00  0.00     0.058 A 
ATOM     83  C   UNL A   1      40.618  35.318  36.849  1.00  0.00     0.135 A 
ATOM     84  C   UNL A   1      39.135  33.778  37.954  1.00  0.00     0.135 A 
ATOM     85  F   UNL A   1      41.453  35.632  35.847  1.00  0.00    -0.206 F 
ATOM     86  C   UNL A   1      40.412  36.254  37.856  1.00  0.00     0.059 A 
ATOM     87  C   UNL A   1      38.899  34.708  38.962  1.00  0.00     0.059 A 
ATOM     88  F   UNL A   1      38.508  32.593  38.025  1.00  0.00    -0.206 F 
ATOM     89  C   UNL A   1      39.550  35.940  38.911  1.00  0.00     0.060 A 
BRANCH  89  90
ATOM     90  S   UNL A   1      39.262  37.173  40.197  1.00  0.00     0.124 S 
ATOM     91  O   UNL A   1      38.497  38.181  39.471  1.00  0.00    -0.237 OA
ATOM     92  O   UNL A   1      38.521  36.417  41.202  1.00  0.00    -0.237 OA
ATOM     93  O   UNL A   1      40.611  37.571  40.591  1.00  0.00    -0.744 OA
ENDBRANCH  89  90
ENDBRANCH  57  82
ENDBRANCH  31  32
ENDBRANCH  24  26
ENDBRANCH  23  24
ENDBRANCH  22  23
ENDBRANCH   1  22
TORSDOF 17
ENDMDL
MODEL 3
REMARK VINA RESULT:     -11.0      2.263      3.315
REMARK SMILES Cc1cccc(Cl)c1Nc1ccccc1CC(=O)OCCOC(=O)c1ccc(-c2c3nc(c(-c4c(F)cc(S(=O)(=O)[O-])cc4F)c4ccc([nH]4)c(-c4c(F)cc(S(=O)(=O)[O-])cc4F)c4nc(c(-c5c(F)cc(S(=O)(=O)[O-])cc5F)c5ccc2[nH]5)C=C4)C=C3)cc1
REMARK SMILES IDX 20 1 19 2 17 3 18 4 16 5 15 6 10 7 11 8 12 9 14 10 13 11
REMARK SMILES IDX 9 12 8 14 1 15 2 16 3 17 4 18 6 19 5 20 7 21 21 22 22 23
REMARK SMILES IDX 23 24 24 25 25 26 26 27 90 28 27 29 89 30 28 31 29 32 30 33
REMARK SMILES IDX 83 34 31 35 88 36 82 37 84 38 32 39 87 40 81 41 80 42 33 44
REMARK SMILES IDX 67 45 46 46 66 47 47 48 50 49 65 50 85 51 48 52 49 53 64 55
REMARK SMILES IDX 86 56 51 57 34 58 35 59 44 60 36 61 37 62 43 63 45 64 38 65
REMARK SMILES IDX 39 66 40 67 41 68 42 69 68 70 69 71 78 72 70 73 71 74 77 75
REMARK SMILES IDX 79 76 72 77 73 78 74 79 75 80 76 81 52 82 53 83 62 84 54 85
REMARK SMILES IDX 55 86 61 87 63 88 56 89 57 90 58 91 59 92 60 93
REMARK H PARENT 9 13 84 43 50 54
REMARK Flexibility Score: inf
ROOT
ATOM      1  C   UNL A   1      32.090  28.267  26.456  1.00  0.00     0.274 C 
ENDROOT
BRANCH   1   2
ATOM      2  O   UNL A   1      31.520  27.093  27.060  1.00  0.00    -0.462 OA
BRANCH   2   3
ATOM      3  C   UNL A   1      31.938  25.911  26.533  1.00  0.00     0.310 C 
ATOM      4  O   UNL A   1      31.440  24.820  26.799  1.00  0.00    -0.252 OA
BRANCH   3   5
ATOM      5  C   UNL A   1      33.155  26.029  25.654  1.00  0.00     0.160 C 
BRANCH   5   6
ATOM      6  C   UNL A   1      33.064  25.566  24.215  1.00  0.00    -0.013 A 
ATOM      7  C   UNL A   1      33.297  24.219  23.852  1.00  0.00     0.042 A 
ATOM      8  C   UNL A   1      33.239  23.859  22.494  1.00  0.00     0.026 A 
ATOM      9  C   UNL A   1      32.896  24.788  21.512  1.00  0.00     0.002 A 
ATOM     10  C   UNL A   1      32.684  26.479  23.213  1.00  0.00     0.006 A 
ATOM     11  C   UNL A   1      32.600  26.095  21.875  1.00  0.00     0.000 A 
BRANCH   7  12
ATOM     12  N   UNL A   1      33.464  23.179  24.792  1.00  0.00    -0.354 N 
ATOM     13  H   UNL A   1      32.881  23.235  25.582  1.00  0.00     0.167 HD
BRANCH  12  14
ATOM     14  C   UNL A   1      34.343  22.068  24.774  1.00  0.00     0.060 A 
ATOM     15  C   UNL A   1      36.235  23.661  25.394  1.00  0.00     0.046 C 
ATOM     16  C   UNL A   1      35.708  22.283  25.093  1.00  0.00    -0.026 A 
ATOM     17  C   UNL A   1      36.576  21.186  25.231  1.00  0.00     0.005 A 
ATOM     18  C   UNL A   1      36.121  19.885  25.037  1.00  0.00     0.002 A 
ATOM     19  C   UNL A   1      33.912  20.738  24.547  1.00  0.00     0.064 A 
ATOM     20  C   UNL A   1      34.795  19.662  24.685  1.00  0.00     0.023 A 
ATOM     21  Cl  UNL A   1      32.310  20.349  24.017  1.00  0.00    -0.082 Cl
ENDBRANCH  12  14
ENDBRANCH   7  12
ENDBRANCH   5   6
ENDBRANCH   3   5
ENDBRANCH   2   3
ENDBRANCH   1   2
BRANCH   1  22
ATOM     22  C   UNL A   1      32.617  29.228  27.519  1.00  0.00     0.275 C 
BRANCH  22  23
ATOM     23  O   UNL A   1      33.897  29.751  27.124  1.00  0.00    -0.458 OA
BRANCH  23  24
ATOM     24  C   UNL A   1      34.506  30.556  28.022  1.00  0.00     0.338 C 
ATOM     25  O   UNL A   1      34.056  31.565  28.538  1.00  0.00    -0.246 OA
BRANCH  24  26
ATOM     26  C   UNL A   1      35.856  30.045  28.311  1.00  0.00     0.060 A 
ATOM     27  C   UNL A   1      36.208  29.647  29.602  1.00  0.00     0.016 A 
ATOM     28  C   UNL A   1      36.809  30.068  27.293  1.00  0.00     0.016 A 
ATOM     29  C   UNL A   1      37.530  29.301  29.889  1.00  0.00     0.010 A 
ATOM     30  C   UNL A   1      38.119  29.673  27.570  1.00  0.00     0.010 A 
ATOM     31  C   UNL A   1      38.496  29.309  28.874  1.00  0.00    -0.014 A 
BRANCH  31  32
ATOM     32  C   UNL A   1      39.914  28.972  29.160  1.00  0.00     0.031 A 
ATOM     33  C   UNL A   1      40.838  30.027  29.703  1.00  0.00     0.074 A 
ATOM     34  C   UNL A   1      40.385  27.742  28.882  1.00  0.00     0.049 A 
ATOM     35  N   UNL A   1      42.139  30.002  29.829  1.00  0.00    -0.248 NA
ATOM     36  C   UNL A   1      40.212  31.283  30.146  1.00  0.00     0.031 C 
ATOM     37  C   UNL A   1      39.588  26.623  28.377  1.00  0.00     0.029 A 
ATOM     38  N   UNL A   1      41.658  27.234  28.966  1.00  0.00    -0.354 N 
ATOM     39  C   UNL A   1      42.495  31.252  30.325  1.00  0.00     0.074 A 
ATOM     40  C   UNL A   1      41.271  32.010  30.474  1.00  0.00     0.031 C 
ATOM     41  C   UNL A   1      40.390  25.564  28.188  1.00  0.00     0.029 A 
ATOM     42  C   UNL A   1      41.763  25.944  28.503  1.00  0.00     0.049 A 
ATOM     43  H   UNL A   1      42.420  27.744  29.322  1.00  0.00     0.167 HD
ATOM     44  C   UNL A   1      43.730  31.721  30.623  1.00  0.00     0.037 A 
ATOM     45  C   UNL A   1      42.848  25.169  28.314  1.00  0.00     0.037 A 
ATOM     46  C   UNL A   1      44.939  30.948  30.507  1.00  0.00     0.049 A 
ATOM     47  C   UNL A   1      44.211  25.714  28.639  1.00  0.00     0.074 A 
ATOM     48  C   UNL A   1      46.235  31.322  30.817  1.00  0.00     0.029 A 
ATOM     49  N   UNL A   1      45.001  29.640  30.048  1.00  0.00    -0.354 N 
ATOM     50  N   UNL A   1      44.536  26.900  29.092  1.00  0.00    -0.248 NA
ATOM     51  C   UNL A   1      45.355  24.818  28.418  1.00  0.00     0.031 C 
ATOM     52  C   UNL A   1      47.084  30.250  30.518  1.00  0.00     0.029 A 
ATOM     53  C   UNL A   1      46.314  29.196  30.054  1.00  0.00     0.049 A 
ATOM     54  H   UNL A   1      44.226  29.106  29.761  1.00  0.00     0.167 HD
ATOM     55  C   UNL A   1      45.920  26.892  29.223  1.00  0.00     0.074 A 
ATOM     56  C   UNL A   1      46.370  25.576  28.812  1.00  0.00     0.031 C 
ATOM     57  C   UNL A   1      46.743  27.883  29.643  1.00  0.00     0.037 A 
BRANCH  44  58
ATOM     58  C   UNL A   1      43.837  33.150  31.075  1.00  0.00     0.058 A 
ATOM     59  C   UNL A   1      43.814  34.220  30.166  1.00  0.00     0.135 A 
ATOM     60  C   UNL A   1      43.948  33.452  32.441  1.00  0.00     0.135 A 
ATOM     61  F   UNL A   1      43.726  33.985  28.848  1.00  0.00    -0.206 F 
ATOM     62  C   UNL A   1      43.928  35.539  30.595  1.00  0.00     0.059 A 
ATOM     63  C   UNL A   1      44.041  34.766  32.894  1.00  0.00     0.059 A 
ATOM     64  F   UNL A   1      43.974  32.467  33.352  1.00  0.00    -0.206 F 
ATOM     65  C   UNL A   1      44.048  35.801  31.961  1.00  0.00     0.060 A 
BRANCH  65  66
ATOM     66  S   UNL A   1      44.206  37.515  32.508  1.00  0.00     0.124 S 
ATOM     67  O   UNL A   1      43.067  37.638  33.412  1.00  0.00    -0.237 OA
ATOM     68  O   UNL A   1      45.521  37.525  33.142  1.00  0.00    -0.237 OA
ATOM     69  O   UNL A   1      44.109  38.276  31.267  1.00  0.00    -0.744 OA
ENDBRANCH  65  66
ENDBRANCH  44  58
BRANCH  45  70
ATOM     70  C   UNL A   1      42.681  23.800  27.762  1.00  0.00     0.058 A 
ATOM     71  C   UNL A   1      42.515  22.696  28.610  1.00  0.00     0.135 A 
ATOM     72  C   UNL A   1      42.640  23.576  26.377  1.00  0.00     0.135 A 
ATOM     73  F   UNL A   1      42.557  22.861  29.941  1.00  0.00    -0.206 F 
ATOM     74  C   UNL A   1      42.311  21.416  28.105  1.00  0.00     0.059 A 
ATOM     75  C   UNL A   1      42.416  22.309  25.849  1.00  0.00     0.059 A 
ATOM     76  F   UNL A   1      42.783  24.603  25.525  1.00  0.00    -0.206 F 
ATOM     77  C   UNL A   1      42.257  21.234  26.722  1.00  0.00     0.060 A 
BRANCH  77  78
ATOM     78  S   UNL A   1      41.910  19.584  26.075  1.00  0.00     0.124 S 
ATOM     79  O   UNL A   1      42.304  18.740  27.198  1.00  0.00    -0.237 OA
ATOM     80  O   UNL A   1      40.478  19.653  25.799  1.00  0.00    -0.237 OA
ATOM     81  O   UNL A   1      42.763  19.503  24.893  1.00  0.00    -0.744 OA
ENDBRANCH  77  78
ENDBRANCH  45  70
BRANCH  57  82
ATOM     82  C   UNL A   1      48.212  27.577  29.704  1.00  0.00     0.058 A 
ATOM     83  C   UNL A   1      49.044  27.749  28.587  1.00  0.00     0.135 A 
ATOM     84  C   UNL A   1      48.800  27.152  30.906  1.00  0.00     0.135 A 
ATOM     85  F   UNL A   1      48.527  28.146  27.415  1.00  0.00    -0.206 F 
ATOM     86  C   UNL A   1      50.409  27.492  28.655  1.00  0.00     0.059 A 
ATOM     87  C   UNL A   1      50.167  26.908  31.001  1.00  0.00     0.059 A 
ATOM     88  F   UNL A   1      48.047  26.980  32.004  1.00  0.00    -0.206 F 
ATOM     89  C   UNL A   1      50.962  27.071  29.867  1.00  0.00     0.060 A 
BRANCH  89  90
ATOM     90  S   UNL A   1      52.741  26.771  29.955  1.00  0.00     0.124 S 
ATOM     91  O   UNL A   1      53.242  28.090  30.323  1.00  0.00    -0.237 OA
ATOM     92  O   UNL A   1      52.839  25.745  30.989  1.00  0.00    -0.237 OA
ATOM     93  O   UNL A   1      53.075  26.324  28.605  1.00  0.00    -0.744 OA
ENDBRANCH  89  90
ENDBRANCH  57  82
ENDBRANCH  31  32
ENDBRANCH  24  26
ENDBRANCH  23  24
ENDBRANCH  22  23
ENDBRANCH   1  22
TORSDOF 17
ENDMDL
