MODEL 1
REMARK VINA RESULT:     -11.7      0.000      0.000
REMARK SMILES CCOc1ccc(C(=O)N2CCC(C(=O)OCCOC(=O)c3ccc(-c4c5nc(c(-c6c(F)cc(S(=O)(=O)[O-])cc6F)c6ccc([nH]6)c(-c6c(F)cc(S(=O)(=O)[O-])cc6F)c6nc(c(-c7c(F)cc(S(=O)(=O)[O-])cc7F)c7ccc4[nH]7)C=C6)C=C5)cc3)(c3ccccc3)CC2)cc1OC
REMARK SMILES IDX 17 1 16 2 14 3 15 4 13 5 8 6 9 7 10 8 11 9 95 10 12 11 94 12
REMARK SMILES IDX 7 13 4 14 5 15 97 16 6 17 96 18 3 19 2 20 1 21 98 22 99 23
REMARK SMILES IDX 88 24 89 25 93 26 90 27 92 28 91 29 18 30 19 31 20 32 21 33
REMARK SMILES IDX 22 34 23 35 87 36 24 37 86 38 25 39 26 40 27 41 80 42 28 43
REMARK SMILES IDX 85 44 79 45 81 46 29 47 84 48 78 49 77 50 30 52 64 53 43 54
REMARK SMILES IDX 63 55 44 56 47 57 62 58 82 59 45 60 46 61 61 63 83 64 48 65
REMARK SMILES IDX 31 66 32 67 41 68 33 69 34 70 40 71 42 72 35 73 36 74 37 75
REMARK SMILES IDX 38 76 39 77 65 78 66 79 75 80 67 81 68 82 74 83 76 84 69 85
REMARK SMILES IDX 70 86 71 87 72 88 73 89 49 90 50 91 59 92 51 93 52 94 58 95
REMARK SMILES IDX 60 96 53 97 54 98 55 99 56 100 57 101
REMARK H PARENT 81 51 47 62
REMARK Flexibility Score: inf
ROOT
ATOM      1  C   UNL A   1      37.978  22.103  25.007  1.00  0.00     0.274 C 
ENDROOT
BRANCH   1   2
ATOM      2  O   UNL A   1      36.770  22.868  25.194  1.00  0.00    -0.461 OA
BRANCH   2   3
ATOM      3  C   UNL A   1      35.675  22.200  25.659  1.00  0.00     0.316 C 
ATOM      4  O   UNL A   1      35.745  21.067  26.121  1.00  0.00    -0.251 OA
BRANCH   3   5
ATOM      5  C   UNL A   1      34.343  22.986  25.421  1.00  0.00     0.096 C 
ATOM      6  C   UNL A   1      32.066  26.570  26.481  1.00  0.00     0.253 C 
ATOM      7  O   UNL A   1      31.743  26.792  27.648  1.00  0.00    -0.269 OA
ATOM      8  N   UNL A   1      32.830  25.452  26.116  1.00  0.00    -0.339 N 
ATOM      9  C   UNL A   1      32.529  24.233  26.849  1.00  0.00     0.121 C 
ATOM     10  C   UNL A   1      33.614  25.355  24.886  1.00  0.00     0.121 C 
ATOM     11  C   UNL A   1      33.572  23.121  26.767  1.00  0.00     0.045 C 
ATOM     12  C   UNL A   1      34.797  24.410  25.017  1.00  0.00     0.045 C 
BRANCH   6  13
ATOM     13  C   UNL A   1      31.511  27.471  25.433  1.00  0.00     0.043 A 
ATOM     14  C   UNL A   1      30.301  29.284  23.667  1.00  0.00     0.161 A 
ATOM     15  C   UNL A   1      31.429  29.664  24.409  1.00  0.00     0.051 A 
ATOM     16  C   UNL A   1      29.794  27.988  23.776  1.00  0.00     0.161 A 
ATOM     17  C   UNL A   1      32.034  28.760  25.289  1.00  0.00     0.018 A 
ATOM     18  C   UNL A   1      30.366  27.121  24.710  1.00  0.00     0.064 A 
BRANCH  14  19
ATOM     19  O   UNL A   1      29.715  30.200  22.838  1.00  0.00    -0.490 OA
BRANCH  19  20
ATOM     20  C   UNL A   1      29.102  31.272  23.566  1.00  0.00     0.226 C 
ATOM     21  C   UNL A   1      27.670  31.426  23.085  1.00  0.00     0.049 C 
ENDBRANCH  19  20
ENDBRANCH  14  19
BRANCH  16  22
ATOM     22  O   UNL A   1      28.733  27.430  23.122  1.00  0.00    -0.493 OA
ATOM     23  C   UNL A   1      27.773  26.713  23.884  1.00  0.00     0.278 C 
ENDBRANCH  16  22
ENDBRANCH   6  13
BRANCH   5  24
ATOM     24  C   UNL A   1      33.509  22.354  24.259  1.00  0.00    -0.031 A 
ATOM     25  C   UNL A   1      33.021  21.031  24.355  1.00  0.00     0.005 A 
ATOM     26  C   UNL A   1      33.225  23.028  23.057  1.00  0.00     0.005 A 
ATOM     27  C   UNL A   1      32.275  20.435  23.330  1.00  0.00     0.000 A 
ATOM     28  C   UNL A   1      32.519  22.417  22.009  1.00  0.00     0.000 A 
ATOM     29  C   UNL A   1      32.035  21.123  22.150  1.00  0.00     0.000 A 
ENDBRANCH   5  24
ENDBRANCH   3   5
ENDBRANCH   2   3
ENDBRANCH   1   2
BRANCH   1  30
ATOM     30  C   UNL A   1      38.938  22.357  26.164  1.00  0.00     0.275 C 
BRANCH  30  31
ATOM     31  O   UNL A   1      39.015  23.771  26.403  1.00  0.00    -0.458 OA
BRANCH  31  32
ATOM     32  C   UNL A   1      40.247  24.264  26.670  1.00  0.00     0.338 C 
ATOM     33  O   UNL A   1      41.312  23.885  26.222  1.00  0.00    -0.246 OA
BRANCH  32  34
ATOM     34  C   UNL A   1      40.109  25.391  27.607  1.00  0.00     0.060 A 
ATOM     35  C   UNL A   1      40.910  26.517  27.438  1.00  0.00     0.016 A 
ATOM     36  C   UNL A   1      39.251  25.296  28.702  1.00  0.00     0.016 A 
ATOM     37  C   UNL A   1      40.893  27.536  28.386  1.00  0.00     0.010 A 
ATOM     38  C   UNL A   1      39.186  26.353  29.618  1.00  0.00     0.010 A 
ATOM     39  C   UNL A   1      40.024  27.475  29.483  1.00  0.00    -0.014 A 
BRANCH  39  40
ATOM     40  C   UNL A   1      40.053  28.548  30.515  1.00  0.00     0.031 A 
ATOM     41  C   UNL A   1      41.092  28.507  31.602  1.00  0.00     0.074 A 
ATOM     42  C   UNL A   1      39.194  29.586  30.459  1.00  0.00     0.049 A 
ATOM     43  N   UNL A   1      41.183  29.230  32.689  1.00  0.00    -0.248 NA
ATOM     44  C   UNL A   1      42.173  27.521  31.445  1.00  0.00     0.031 C 
ATOM     45  C   UNL A   1      38.194  29.808  29.413  1.00  0.00     0.029 A 
ATOM     46  N   UNL A   1      39.035  30.662  31.299  1.00  0.00    -0.354 N 
ATOM     47  C   UNL A   1      42.295  28.752  33.371  1.00  0.00     0.074 A 
ATOM     48  C   UNL A   1      42.854  27.683  32.572  1.00  0.00     0.031 C 
ATOM     49  C   UNL A   1      37.554  30.964  29.653  1.00  0.00     0.029 A 
ATOM     50  C   UNL A   1      38.034  31.522  30.913  1.00  0.00     0.049 A 
ATOM     51  H   UNL A   1      39.587  30.803  32.103  1.00  0.00     0.167 HD
ATOM     52  C   UNL A   1      42.800  29.163  34.560  1.00  0.00     0.037 A 
ATOM     53  C   UNL A   1      37.528  32.612  31.524  1.00  0.00     0.037 A 
ATOM     54  C   UNL A   1      42.266  30.253  35.332  1.00  0.00     0.049 A 
ATOM     55  C   UNL A   1      38.065  33.016  32.871  1.00  0.00     0.074 A 
ATOM     56  C   UNL A   1      42.677  30.717  36.570  1.00  0.00     0.029 A 
ATOM     57  N   UNL A   1      41.216  31.066  34.931  1.00  0.00    -0.354 N 
ATOM     58  N   UNL A   1      39.047  32.485  33.559  1.00  0.00    -0.248 NA
ATOM     59  C   UNL A   1      37.401  34.143  33.541  1.00  0.00     0.031 C 
ATOM     60  C   UNL A   1      41.860  31.795  36.927  1.00  0.00     0.029 A 
ATOM     61  C   UNL A   1      40.962  32.024  35.897  1.00  0.00     0.049 A 
ATOM     62  H   UNL A   1      40.724  30.974  34.083  1.00  0.00     0.167 HD
ATOM     63  C   UNL A   1      39.118  33.213  34.742  1.00  0.00     0.074 A 
ATOM     64  C   UNL A   1      38.099  34.238  34.665  1.00  0.00     0.031 C 
ATOM     65  C   UNL A   1      39.944  33.039  35.802  1.00  0.00     0.037 A 
BRANCH  52  66
ATOM     66  C   UNL A   1      43.959  28.391  35.119  1.00  0.00     0.058 A 
ATOM     67  C   UNL A   1      45.286  28.680  34.767  1.00  0.00     0.135 A 
ATOM     68  C   UNL A   1      43.735  27.348  36.034  1.00  0.00     0.135 A 
ATOM     69  F   UNL A   1      45.553  29.652  33.881  1.00  0.00    -0.206 F 
ATOM     70  C   UNL A   1      46.350  27.946  35.283  1.00  0.00     0.059 A 
ATOM     71  C   UNL A   1      44.784  26.615  36.578  1.00  0.00     0.059 A 
ATOM     72  F   UNL A   1      42.484  27.030  36.402  1.00  0.00    -0.206 F 
ATOM     73  C   UNL A   1      46.088  26.910  36.183  1.00  0.00     0.060 A 
BRANCH  73  74
ATOM     74  S   UNL A   1      47.474  25.955  36.834  1.00  0.00     0.124 S 
ATOM     75  O   UNL A   1      48.575  26.443  36.010  1.00  0.00    -0.237 OA
ATOM     76  O   UNL A   1      47.504  26.359  38.236  1.00  0.00    -0.237 OA
ATOM     77  O   UNL A   1      47.075  24.571  36.594  1.00  0.00    -0.744 OA
ENDBRANCH  73  74
ENDBRANCH  52  66
BRANCH  53  78
ATOM     78  C   UNL A   1      36.410  33.369  30.900  1.00  0.00     0.058 A 
ATOM     79  C   UNL A   1      36.622  34.175  29.771  1.00  0.00     0.135 A 
ATOM     80  C   UNL A   1      35.109  33.309  31.424  1.00  0.00     0.135 A 
ATOM     81  F   UNL A   1      37.852  34.278  29.243  1.00  0.00    -0.206 F 
ATOM     82  C   UNL A   1      35.588  34.902  29.190  1.00  0.00     0.059 A 
ATOM     83  C   UNL A   1      34.053  34.004  30.844  1.00  0.00     0.059 A 
ATOM     84  F   UNL A   1      34.851  32.548  32.499  1.00  0.00    -0.206 F 
ATOM     85  C   UNL A   1      34.305  34.808  29.734  1.00  0.00     0.060 A 
BRANCH  85  86
ATOM     86  S   UNL A   1      32.954  35.714  28.950  1.00  0.00     0.124 S 
ATOM     87  O   UNL A   1      32.364  34.686  28.103  1.00  0.00    -0.237 OA
ATOM     88  O   UNL A   1      32.154  36.134  30.097  1.00  0.00    -0.237 OA
ATOM     89  O   UNL A   1      33.641  36.795  28.250  1.00  0.00    -0.744 OA
ENDBRANCH  85  86
ENDBRANCH  53  78
BRANCH  65  90
ATOM     90  C   UNL A   1      39.789  33.985  36.959  1.00  0.00     0.058 A 
ATOM     91  C   UNL A   1      40.553  35.158  37.053  1.00  0.00     0.135 A 
ATOM     92  C   UNL A   1      38.832  33.740  37.957  1.00  0.00     0.135 A 
ATOM     93  F   UNL A   1      41.485  35.431  36.127  1.00  0.00    -0.206 F 
ATOM     94  C   UNL A   1      40.386  36.050  38.106  1.00  0.00     0.059 A 
ATOM     95  C   UNL A   1      38.635  34.628  39.009  1.00  0.00     0.059 A 
ATOM     96  F   UNL A   1      38.072  32.635  37.908  1.00  0.00    -0.206 F 
ATOM     97  C   UNL A   1      39.423  35.777  39.080  1.00  0.00     0.060 A 
BRANCH  97  98
ATOM     98  S   UNL A   1      39.188  36.961  40.424  1.00  0.00     0.124 S 
ATOM     99  O   UNL A   1      40.524  37.535  40.547  1.00  0.00    -0.237 OA
ATOM    100  O   UNL A   1      38.163  37.849  39.885  1.00  0.00    -0.237 OA
ATOM    101  O   UNL A   1      38.758  36.124  41.540  1.00  0.00    -0.744 OA
ENDBRANCH  97  98
ENDBRANCH  65  90
ENDBRANCH  39  40
ENDBRANCH  32  34
ENDBRANCH  31  32
ENDBRANCH  30  31
ENDBRANCH   1  30
TORSDOF 19
ENDMDL
MODEL 2
REMARK VINA RESULT:     -10.7      6.321     13.832
REMARK SMILES CCOc1ccc(C(=O)N2CCC(C(=O)OCCOC(=O)c3ccc(-c4c5nc(c(-c6c(F)cc(S(=O)(=O)[O-])cc6F)c6ccc([nH]6)c(-c6c(F)cc(S(=O)(=O)[O-])cc6F)c6nc(c(-c7c(F)cc(S(=O)(=O)[O-])cc7F)c7ccc4[nH]7)C=C6)C=C5)cc3)(c3ccccc3)CC2)cc1OC
REMARK SMILES IDX 17 1 16 2 14 3 15 4 13 5 8 6 9 7 10 8 11 9 95 10 12 11 94 12
REMARK SMILES IDX 7 13 4 14 5 15 97 16 6 17 96 18 3 19 2 20 1 21 98 22 99 23
REMARK SMILES IDX 88 24 89 25 93 26 90 27 92 28 91 29 18 30 19 31 20 32 21 33
REMARK SMILES IDX 22 34 23 35 87 36 24 37 86 38 25 39 26 40 27 41 80 42 28 43
REMARK SMILES IDX 85 44 79 45 81 46 29 47 84 48 78 49 77 50 30 52 64 53 43 54
REMARK SMILES IDX 63 55 44 56 47 57 62 58 82 59 45 60 46 61 61 63 83 64 48 65
REMARK SMILES IDX 31 66 32 67 41 68 33 69 34 70 40 71 42 72 35 73 36 74 37 75
REMARK SMILES IDX 38 76 39 77 65 78 66 79 75 80 67 81 68 82 74 83 76 84 69 85
REMARK SMILES IDX 70 86 71 87 72 88 73 89 49 90 50 91 59 92 51 93 52 94 58 95
REMARK SMILES IDX 60 96 53 97 54 98 55 99 56 100 57 101
REMARK H PARENT 81 51 47 62
REMARK Flexibility Score: inf
ROOT
ATOM      1  C   UNL A   1      34.987  32.594  31.839  1.00  0.00     0.274 C 
ENDROOT
BRANCH   1   2
ATOM      2  O   UNL A   1      36.246  33.142  32.278  1.00  0.00    -0.461 OA
BRANCH   2   3
ATOM      3  C   UNL A   1      36.673  32.799  33.528  1.00  0.00     0.316 C 
ATOM      4  O   UNL A   1      35.969  32.934  34.522  1.00  0.00    -0.251 OA
BRANCH   3   5
ATOM      5  C   UNL A   1      38.170  32.343  33.550  1.00  0.00     0.096 C 
ATOM      6  C   UNL A   1      41.055  29.628  35.409  1.00  0.00     0.253 C 
ATOM      7  O   UNL A   1      41.265  29.662  36.622  1.00  0.00    -0.269 OA
ATOM      8  N   UNL A   1      40.108  30.457  34.791  1.00  0.00    -0.339 N 
ATOM      9  C   UNL A   1      40.021  31.804  35.331  1.00  0.00     0.121 C 
ATOM     10  C   UNL A   1      39.490  30.179  33.496  1.00  0.00     0.121 C 
ATOM     11  C   UNL A   1      38.769  32.598  34.965  1.00  0.00     0.045 C 
ATOM     12  C   UNL A   1      38.114  30.809  33.355  1.00  0.00     0.045 C 
BRANCH   6  13
ATOM     13  C   UNL A   1      41.935  28.754  34.585  1.00  0.00     0.043 A 
ATOM     14  C   UNL A   1      43.351  26.965  32.953  1.00  0.00     0.161 A 
ATOM     15  C   UNL A   1      42.795  28.132  32.409  1.00  0.00     0.051 A 
ATOM     16  C   UNL A   1      43.233  26.703  34.318  1.00  0.00     0.161 A 
ATOM     17  C   UNL A   1      42.091  29.026  33.222  1.00  0.00     0.018 A 
ATOM     18  C   UNL A   1      42.466  27.569  35.103  1.00  0.00     0.064 A 
BRANCH  14  19
ATOM     19  O   UNL A   1      44.009  26.097  32.126  1.00  0.00    -0.490 OA
BRANCH  19  20
ATOM     20  C   UNL A   1      45.415  26.372  32.063  1.00  0.00     0.226 C 
ATOM     21  C   UNL A   1      45.991  25.667  30.848  1.00  0.00     0.049 C 
ENDBRANCH  19  20
ENDBRANCH  14  19
BRANCH  16  22
ATOM     22  O   UNL A   1      43.724  25.646  35.030  1.00  0.00    -0.493 OA
ATOM     23  C   UNL A   1      43.442  24.333  34.568  1.00  0.00     0.278 C 
ENDBRANCH  16  22
ENDBRANCH   6  13
BRANCH   5  24
ATOM     24  C   UNL A   1      38.980  32.992  32.380  1.00  0.00    -0.031 A 
ATOM     25  C   UNL A   1      39.982  33.954  32.639  1.00  0.00     0.005 A 
ATOM     26  C   UNL A   1      38.748  32.695  31.024  1.00  0.00     0.005 A 
ATOM     27  C   UNL A   1      40.721  34.556  31.613  1.00  0.00     0.000 A 
ATOM     28  C   UNL A   1      39.454  33.332  29.992  1.00  0.00     0.000 A 
ATOM     29  C   UNL A   1      40.448  34.255  30.286  1.00  0.00     0.000 A 
ENDBRANCH   5  24
ENDBRANCH   3   5
ENDBRANCH   2   3
ENDBRANCH   1   2
BRANCH   1  30
ATOM     30  C   UNL A   1      35.128  32.034  30.428  1.00  0.00     0.275 C 
BRANCH  30  31
ATOM     31  O   UNL A   1      35.776  30.754  30.497  1.00  0.00    -0.458 OA
BRANCH  31  32
ATOM     32  C   UNL A   1      36.003  30.136  29.314  1.00  0.00     0.338 C 
ATOM     33  O   UNL A   1      35.190  29.856  28.453  1.00  0.00    -0.246 OA
BRANCH  32  34
ATOM     34  C   UNL A   1      37.444  29.855  29.201  1.00  0.00     0.060 A 
ATOM     35  C   UNL A   1      38.088  30.085  27.988  1.00  0.00     0.016 A 
ATOM     36  C   UNL A   1      38.136  29.281  30.267  1.00  0.00     0.016 A 
ATOM     37  C   UNL A   1      39.415  29.702  27.818  1.00  0.00     0.010 A 
ATOM     38  C   UNL A   1      39.491  28.959  30.114  1.00  0.00     0.010 A 
ATOM     39  C   UNL A   1      40.139  29.145  28.879  1.00  0.00    -0.014 A 
BRANCH  39  40
ATOM     40  C   UNL A   1      41.542  28.695  28.667  1.00  0.00     0.031 A 
ATOM     41  C   UNL A   1      42.674  29.663  28.879  1.00  0.00     0.074 A 
ATOM     42  C   UNL A   1      41.817  27.416  28.340  1.00  0.00     0.049 A 
ATOM     43  N   UNL A   1      43.942  29.534  28.581  1.00  0.00    -0.248 NA
ATOM     44  C   UNL A   1      42.334  30.947  29.511  1.00  0.00     0.031 C 
ATOM     45  C   UNL A   1      40.831  26.345  28.191  1.00  0.00     0.029 A 
ATOM     46  N   UNL A   1      43.018  26.795  28.087  1.00  0.00    -0.354 N 
ATOM     47  C   UNL A   1      44.540  30.736  28.937  1.00  0.00     0.074 A 
ATOM     48  C   UNL A   1      43.499  31.580  29.483  1.00  0.00     0.031 C 
ATOM     49  C   UNL A   1      41.467  25.195  27.911  1.00  0.00     0.029 A 
ATOM     50  C   UNL A   1      42.894  25.462  27.774  1.00  0.00     0.049 A 
ATOM     51  H   UNL A   1      43.883  27.263  28.126  1.00  0.00     0.167 HD
ATOM     52  C   UNL A   1      45.838  31.104  28.813  1.00  0.00     0.037 A 
ATOM     53  C   UNL A   1      43.819  24.565  27.378  1.00  0.00     0.037 A 
ATOM     54  C   UNL A   1      46.878  30.248  28.307  1.00  0.00     0.049 A 
ATOM     55  C   UNL A   1      45.245  25.011  27.191  1.00  0.00     0.074 A 
ATOM     56  C   UNL A   1      48.215  30.542  28.099  1.00  0.00     0.029 A 
ATOM     57  N   UNL A   1      46.702  28.919  27.949  1.00  0.00    -0.354 N 
ATOM     58  N   UNL A   1      45.778  26.186  27.425  1.00  0.00    -0.248 NA
ATOM     59  C   UNL A   1      46.186  24.020  26.650  1.00  0.00     0.031 C 
ATOM     60  C   UNL A   1      48.842  29.398  27.593  1.00  0.00     0.029 A 
ATOM     61  C   UNL A   1      47.903  28.382  27.518  1.00  0.00     0.049 A 
ATOM     62  H   UNL A   1      45.849  28.430  27.996  1.00  0.00     0.167 HD
ATOM     63  C   UNL A   1      47.115  26.076  27.061  1.00  0.00     0.074 A 
ATOM     64  C   UNL A   1      47.317  24.712  26.615  1.00  0.00     0.031 C 
ATOM     65  C   UNL A   1      48.086  27.021  27.080  1.00  0.00     0.037 A 
BRANCH  52  66
ATOM     66  C   UNL A   1      46.192  32.515  29.183  1.00  0.00     0.058 A 
ATOM     67  C   UNL A   1      46.098  33.572  28.265  1.00  0.00     0.135 A 
ATOM     68  C   UNL A   1      46.623  32.815  30.486  1.00  0.00     0.135 A 
ATOM     69  F   UNL A   1      45.712  33.336  27.001  1.00  0.00    -0.206 F 
ATOM     70  C   UNL A   1      46.444  34.873  28.618  1.00  0.00     0.059 A 
ATOM     71  C   UNL A   1      46.953  34.110  30.867  1.00  0.00     0.059 A 
ATOM     72  F   UNL A   1      46.733  31.839  31.402  1.00  0.00    -0.206 F 
ATOM     73  C   UNL A   1      46.877  35.131  29.921  1.00  0.00     0.060 A 
BRANCH  73  74
ATOM     74  S   UNL A   1      47.337  36.819  30.364  1.00  0.00     0.124 S 
ATOM     75  O   UNL A   1      46.028  37.433  30.564  1.00  0.00    -0.237 OA
ATOM     76  O   UNL A   1      48.135  36.622  31.570  1.00  0.00    -0.237 OA
ATOM     77  O   UNL A   1      48.079  37.286  29.197  1.00  0.00    -0.744 OA
ENDBRANCH  73  74
ENDBRANCH  52  66
BRANCH  53  78
ATOM     78  C   UNL A   1      43.420  23.165  27.070  1.00  0.00     0.058 A 
ATOM     79  C   UNL A   1      43.170  22.241  28.096  1.00  0.00     0.135 A 
ATOM     80  C   UNL A   1      43.289  22.720  25.745  1.00  0.00     0.135 A 
ATOM     81  F   UNL A   1      43.298  22.614  29.379  1.00  0.00    -0.206 F 
ATOM     82  C   UNL A   1      42.815  20.925  27.821  1.00  0.00     0.059 A 
ATOM     83  C   UNL A   1      42.908  21.417  25.444  1.00  0.00     0.059 A 
ATOM     84  F   UNL A   1      43.511  23.566  24.726  1.00  0.00    -0.206 F 
ATOM     85  C   UNL A   1      42.685  20.522  26.490  1.00  0.00     0.060 A 
BRANCH  85  86
ATOM     86  S   UNL A   1      42.177  18.827  26.133  1.00  0.00     0.124 S 
ATOM     87  O   UNL A   1      43.119  18.452  25.086  1.00  0.00    -0.237 OA
ATOM     88  O   UNL A   1      42.360  18.168  27.423  1.00  0.00    -0.237 OA
ATOM     89  O   UNL A   1      40.788  18.978  25.710  1.00  0.00    -0.744 OA
ENDBRANCH  85  86
ENDBRANCH  53  78
BRANCH  65  90
ATOM     90  C   UNL A   1      49.455  26.612  26.619  1.00  0.00     0.058 A 
ATOM     91  C   UNL A   1      50.363  25.986  27.486  1.00  0.00     0.135 A 
ATOM     92  C   UNL A   1      49.846  26.805  25.284  1.00  0.00     0.135 A 
ATOM     93  F   UNL A   1      50.038  25.787  28.774  1.00  0.00    -0.206 F 
ATOM     94  C   UNL A   1      51.619  25.577  27.050  1.00  0.00     0.059 A 
ATOM     95  C   UNL A   1      51.089  26.387  24.822  1.00  0.00     0.059 A 
ATOM     96  F   UNL A   1      49.010  27.393  24.414  1.00  0.00    -0.206 F 
ATOM     97  C   UNL A   1      51.973  25.782  25.715  1.00  0.00     0.060 A 
BRANCH  97  98
ATOM     98  S   UNL A   1      53.592  25.214  25.150  1.00  0.00     0.124 S 
ATOM     99  O   UNL A   1      53.488  23.773  25.362  1.00  0.00    -0.237 OA
ATOM    100  O   UNL A   1      53.611  25.651  23.758  1.00  0.00    -0.237 OA
ATOM    101  O   UNL A   1      54.522  25.913  26.032  1.00  0.00    -0.744 OA
ENDBRANCH  97  98
ENDBRANCH  65  90
ENDBRANCH  39  40
ENDBRANCH  32  34
ENDBRANCH  31  32
ENDBRANCH  30  31
ENDBRANCH   1  30
TORSDOF 19
ENDMDL
MODEL 3
REMARK VINA RESULT:     -10.4      4.869      8.150
REMARK SMILES CCOc1ccc(C(=O)N2CCC(C(=O)OCCOC(=O)c3ccc(-c4c5nc(c(-c6c(F)cc(S(=O)(=O)[O-])cc6F)c6ccc([nH]6)c(-c6c(F)cc(S(=O)(=O)[O-])cc6F)c6nc(c(-c7c(F)cc(S(=O)(=O)[O-])cc7F)c7ccc4[nH]7)C=C6)C=C5)cc3)(c3ccccc3)CC2)cc1OC
REMARK SMILES IDX 17 1 16 2 14 3 15 4 13 5 8 6 9 7 10 8 11 9 95 10 12 11 94 12
REMARK SMILES IDX 7 13 4 14 5 15 97 16 6 17 96 18 3 19 2 20 1 21 98 22 99 23
REMARK SMILES IDX 88 24 89 25 93 26 90 27 92 28 91 29 18 30 19 31 20 32 21 33
REMARK SMILES IDX 22 34 23 35 87 36 24 37 86 38 25 39 26 40 27 41 80 42 28 43
REMARK SMILES IDX 85 44 79 45 81 46 29 47 84 48 78 49 77 50 30 52 64 53 43 54
REMARK SMILES IDX 63 55 44 56 47 57 62 58 82 59 45 60 46 61 61 63 83 64 48 65
REMARK SMILES IDX 31 66 32 67 41 68 33 69 34 70 40 71 42 72 35 73 36 74 37 75
REMARK SMILES IDX 38 76 39 77 65 78 66 79 75 80 67 81 68 82 74 83 76 84 69 85
REMARK SMILES IDX 70 86 71 87 72 88 73 89 49 90 50 91 59 92 51 93 52 94 58 95
REMARK SMILES IDX 60 96 53 97 54 98 55 99 56 100 57 101
REMARK H PARENT 81 51 47 62
REMARK Flexibility Score: inf
ROOT
ATOM      1  C   UNL A   1      44.132  23.982  25.487  1.00  0.00     0.274 C 
ENDROOT
BRANCH   1   2
ATOM      2  O   UNL A   1      45.165  24.987  25.509  1.00  0.00    -0.461 OA
BRANCH   2   3
ATOM      3  C   UNL A   1      46.182  24.814  26.402  1.00  0.00     0.316 C 
ATOM      4  O   UNL A   1      46.767  23.745  26.533  1.00  0.00    -0.251 OA
BRANCH   3   5
ATOM      5  C   UNL A   1      46.418  26.075  27.299  1.00  0.00     0.096 C 
ATOM      6  C   UNL A   1      47.459  30.326  27.292  1.00  0.00     0.253 C 
ATOM      7  O   UNL A   1      48.532  30.714  26.830  1.00  0.00    -0.269 OA
ATOM      8  N   UNL A   1      47.080  28.976  27.272  1.00  0.00    -0.339 N 
ATOM      9  C   UNL A   1      48.158  28.029  27.504  1.00  0.00     0.121 C 
ATOM     10  C   UNL A   1      45.699  28.506  27.372  1.00  0.00     0.121 C 
ATOM     11  C   UNL A   1      47.879  26.580  27.113  1.00  0.00     0.045 C 
ATOM     12  C   UNL A   1      45.488  27.159  26.701  1.00  0.00     0.045 C 
BRANCH   6  13
ATOM     13  C   UNL A   1      46.613  31.330  27.995  1.00  0.00     0.043 A 
ATOM     14  C   UNL A   1      44.802  33.027  29.305  1.00  0.00     0.161 A 
ATOM     15  C   UNL A   1      45.545  32.085  30.033  1.00  0.00     0.051 A 
ATOM     16  C   UNL A   1      44.986  33.149  27.927  1.00  0.00     0.161 A 
ATOM     17  C   UNL A   1      46.449  31.240  29.381  1.00  0.00     0.018 A 
ATOM     18  C   UNL A   1      45.839  32.251  27.282  1.00  0.00     0.064 A 
BRANCH  14  19
ATOM     19  O   UNL A   1      43.905  33.818  29.967  1.00  0.00    -0.490 OA
BRANCH  19  20
ATOM     20  C   UNL A   1      42.605  33.217  30.038  1.00  0.00     0.226 C 
ATOM     21  C   UNL A   1      41.570  34.320  30.171  1.00  0.00     0.049 C 
ENDBRANCH  19  20
ENDBRANCH  14  19
BRANCH  16  22
ATOM     22  O   UNL A   1      44.383  34.015  27.060  1.00  0.00    -0.493 OA
ATOM     23  C   UNL A   1      44.204  33.605  25.712  1.00  0.00     0.278 C 
ENDBRANCH  16  22
ENDBRANCH   6  13
BRANCH   5  24
ATOM     24  C   UNL A   1      46.014  25.801  28.785  1.00  0.00    -0.031 A 
ATOM     25  C   UNL A   1      44.679  25.489  29.127  1.00  0.00     0.005 A 
ATOM     26  C   UNL A   1      46.922  25.879  29.858  1.00  0.00     0.005 A 
ATOM     27  C   UNL A   1      44.285  25.243  30.449  1.00  0.00     0.000 A 
ATOM     28  C   UNL A   1      46.520  25.681  31.188  1.00  0.00     0.000 A 
ATOM     29  C   UNL A   1      45.204  25.352  31.483  1.00  0.00     0.000 A 
ENDBRANCH   5  24
ENDBRANCH   3   5
ENDBRANCH   2   3
ENDBRANCH   1   2
BRANCH   1  30
ATOM     30  C   UNL A   1      43.420  23.940  26.835  1.00  0.00     0.275 C 
BRANCH  30  31
ATOM     31  O   UNL A   1      42.005  24.053  26.619  1.00  0.00    -0.458 OA
BRANCH  31  32
ATOM     32  C   UNL A   1      41.571  25.234  26.121  1.00  0.00     0.338 C 
ATOM     33  O   UNL A   1      41.177  25.467  24.994  1.00  0.00    -0.246 OA
BRANCH  32  34
ATOM     34  C   UNL A   1      41.625  26.243  27.192  1.00  0.00     0.060 A 
ATOM     35  C   UNL A   1      41.066  25.947  28.433  1.00  0.00     0.016 A 
ATOM     36  C   UNL A   1      42.151  27.510  26.942  1.00  0.00     0.016 A 
ATOM     37  C   UNL A   1      40.987  26.929  29.416  1.00  0.00     0.010 A 
ATOM     38  C   UNL A   1      42.130  28.476  27.956  1.00  0.00     0.010 A 
ATOM     39  C   UNL A   1      41.527  28.202  29.198  1.00  0.00    -0.014 A 
BRANCH  39  40
ATOM     40  C   UNL A   1      41.390  29.257  30.239  1.00  0.00     0.031 A 
ATOM     41  C   UNL A   1      42.452  29.401  31.296  1.00  0.00     0.074 A 
ATOM     42  C   UNL A   1      40.355  30.121  30.219  1.00  0.00     0.049 A 
ATOM     43  N   UNL A   1      42.442  30.124  32.387  1.00  0.00    -0.248 NA
ATOM     44  C   UNL A   1      43.689  28.630  31.098  1.00  0.00     0.031 C 
ATOM     45  C   UNL A   1      39.300  30.162  29.204  1.00  0.00     0.029 A 
ATOM     46  N   UNL A   1      40.028  31.147  31.074  1.00  0.00    -0.354 N 
ATOM     47  C   UNL A   1      43.642  29.854  33.032  1.00  0.00     0.074 A 
ATOM     48  C   UNL A   1      44.362  28.908  32.206  1.00  0.00     0.031 C 
ATOM     49  C   UNL A   1      38.468  31.180  29.474  1.00  0.00     0.029 A 
ATOM     50  C   UNL A   1      38.876  31.811  30.724  1.00  0.00     0.049 A 
ATOM     51  H   UNL A   1      40.569  31.382  31.863  1.00  0.00     0.167 HD
ATOM     52  C   UNL A   1      44.099  30.345  34.209  1.00  0.00     0.037 A 
ATOM     53  C   UNL A   1      38.199  32.788  31.361  1.00  0.00     0.037 A 
ATOM     54  C   UNL A   1      43.399  31.316  35.008  1.00  0.00     0.049 A 
ATOM     55  C   UNL A   1      38.693  33.277  32.695  1.00  0.00     0.074 A 
ATOM     56  C   UNL A   1      43.755  31.841  36.238  1.00  0.00     0.029 A 
ATOM     57  N   UNL A   1      42.207  31.925  34.645  1.00  0.00    -0.354 N 
ATOM     58  N   UNL A   1      39.776  32.931  33.350  1.00  0.00    -0.248 NA
ATOM     59  C   UNL A   1      37.855  34.261  33.395  1.00  0.00     0.031 C 
ATOM     60  C   UNL A   1      42.767  32.751  36.629  1.00  0.00     0.029 A 
ATOM     61  C   UNL A   1      41.812  32.817  35.628  1.00  0.00     0.049 A 
ATOM     62  H   UNL A   1      41.715  31.749  33.811  1.00  0.00     0.167 HD
ATOM     63  C   UNL A   1      39.749  33.654  34.538  1.00  0.00     0.074 A 
ATOM     64  C   UNL A   1      38.557  34.476  34.500  1.00  0.00     0.031 C 
ATOM     65  C   UNL A   1      40.624  33.629  35.572  1.00  0.00     0.037 A 
BRANCH  52  66
ATOM     66  C   UNL A   1      45.396  29.794  34.728  1.00  0.00     0.058 A 
ATOM     67  C   UNL A   1      46.628  30.404  34.449  1.00  0.00     0.135 A 
ATOM     68  C   UNL A   1      45.401  28.640  35.529  1.00  0.00     0.135 A 
ATOM     69  F   UNL A   1      46.680  31.497  33.670  1.00  0.00    -0.206 F 
ATOM     70  C   UNL A   1      47.824  29.874  34.924  1.00  0.00     0.059 A 
ATOM     71  C   UNL A   1      46.582  28.105  36.032  1.00  0.00     0.059 A 
ATOM     72  F   UNL A   1      44.249  28.017  35.824  1.00  0.00    -0.206 F 
ATOM     73  C   UNL A   1      47.791  28.720  35.710  1.00  0.00     0.060 A 
BRANCH  73  74
ATOM     74  S   UNL A   1      49.349  28.032  36.309  1.00  0.00     0.124 S 
ATOM     75  O   UNL A   1      49.469  26.831  35.489  1.00  0.00    -0.237 OA
ATOM     76  O   UNL A   1      50.299  29.099  36.013  1.00  0.00    -0.237 OA
ATOM     77  O   UNL A   1      49.094  27.801  37.727  1.00  0.00    -0.744 OA
ENDBRANCH  73  74
ENDBRANCH  52  66
BRANCH  53  78
ATOM     78  C   UNL A   1      36.943  33.331  30.776  1.00  0.00     0.058 A 
ATOM     79  C   UNL A   1      36.973  34.209  29.683  1.00  0.00     0.135 A 
ATOM     80  C   UNL A   1      35.688  32.990  31.304  1.00  0.00     0.135 A 
ATOM     81  F   UNL A   1      38.150  34.578  29.153  1.00  0.00    -0.206 F 
ATOM     82  C   UNL A   1      35.807  34.738  29.140  1.00  0.00     0.059 A 
ATOM     83  C   UNL A   1      34.506  33.483  30.762  1.00  0.00     0.059 A 
ATOM     84  F   UNL A   1      35.602  32.149  32.347  1.00  0.00    -0.206 F 
ATOM     85  C   UNL A   1      34.577  34.367  29.686  1.00  0.00     0.060 A 
BRANCH  85  86
ATOM     86  S   UNL A   1      33.061  35.016  28.951  1.00  0.00     0.124 S 
ATOM     87  O   UNL A   1      33.538  36.248  28.335  1.00  0.00    -0.237 OA
ATOM     88  O   UNL A   1      32.678  33.949  28.031  1.00  0.00    -0.237 OA
ATOM     89  O   UNL A   1      32.178  35.184  30.102  1.00  0.00    -0.744 OA
ENDBRANCH  85  86
ENDBRANCH  53  78
BRANCH  65  90
ATOM     90  C   UNL A   1      40.333  34.525  36.742  1.00  0.00     0.058 A 
ATOM     91  C   UNL A   1      40.807  35.845  36.788  1.00  0.00     0.135 A 
ATOM     92  C   UNL A   1      39.533  34.075  37.805  1.00  0.00     0.135 A 
ATOM     93  F   UNL A   1      41.581  36.319  35.799  1.00  0.00    -0.206 F 
ATOM     94  C   UNL A   1      40.510  36.686  37.855  1.00  0.00     0.059 A 
ATOM     95  C   UNL A   1      39.209  34.905  38.873  1.00  0.00     0.059 A 
ATOM     96  F   UNL A   1      39.051  32.823  37.804  1.00  0.00    -0.206 F 
ATOM     97  C   UNL A   1      39.709  36.206  38.894  1.00  0.00     0.060 A 
BRANCH  97  98
ATOM     98  S   UNL A   1      39.299  37.317  40.257  1.00  0.00     0.124 S 
ATOM     99  O   UNL A   1      40.624  37.718  40.719  1.00  0.00    -0.237 OA
ATOM    100  O   UNL A   1      38.517  38.356  39.593  1.00  0.00    -0.237 OA
ATOM    101  O   UNL A   1      38.546  36.465  41.173  1.00  0.00    -0.744 OA
ENDBRANCH  97  98
ENDBRANCH  65  90
ENDBRANCH  39  40
ENDBRANCH  32  34
ENDBRANCH  31  32
ENDBRANCH  30  31
ENDBRANCH   1  30
TORSDOF 19
ENDMDL
