MODEL 1
REMARK VINA RESULT:     -10.8      0.000      0.000
REMARK SMILES O=C(OCCOC(=O)c1ccc(S(=O)(=O)NCC[NH+]2CCCC2)c(F)c1)c1ccc(-c2c3nc(c(-c4c(F)cc(S(=O)(=O)[O-])cc4F)c4ccc([nH]4)c(-c4c(F)cc(S(=O)(=O)[O-])cc4F)c4nc(c(-c5c(F)cc(S(=O)(=O)[O-])cc5F)c5ccc2[nH]5)C=C4)C=C3)cc1
REMARK SMILES IDX 5 1 4 2 3 3 2 4 1 5 27 6 28 7 92 8 29 9 91 10 30 11 31 12
REMARK SMILES IDX 32 13 85 14 33 15 90 16 84 17 86 18 34 19 89 20 83 21 82 22
REMARK SMILES IDX 35 24 69 25 48 26 68 27 49 28 52 29 67 30 87 31 50 32 51 33
REMARK SMILES IDX 66 35 88 36 53 37 36 38 37 39 46 40 38 41 39 42 45 43 47 44
REMARK SMILES IDX 40 45 41 46 42 47 43 48 44 49 70 50 71 51 80 52 72 53 73 54
REMARK SMILES IDX 79 55 81 56 74 57 75 58 76 59 77 60 78 61 54 62 55 63 64 64
REMARK SMILES IDX 56 65 57 66 63 67 65 68 58 69 59 70 60 71 61 72 62 73 6 74
REMARK SMILES IDX 7 75 8 76 9 77 10 78 26 79 11 80 24 81 12 82 25 83 13 84
REMARK SMILES IDX 14 85 15 86 16 87 17 89 18 90 19 91 20 92 23 93 21 95 22 96
REMARK H PARENT 86 23 52 34 16 88 19 94
REMARK Flexibility Score: inf
ROOT
ATOM      1  C   UNL A   1      35.210  31.909  27.960  1.00  0.00     0.275 C 
ENDROOT
BRANCH   1   2
ATOM      2  C   UNL A   1      35.292  32.013  29.487  1.00  0.00     0.275 C 
BRANCH   2   3
ATOM      3  O   UNL A   1      35.461  30.761  30.177  1.00  0.00    -0.458 OA
BRANCH   3   4
ATOM      4  C   UNL A   1      36.518  30.259  30.858  1.00  0.00     0.338 C 
ATOM      5  O   UNL A   1      36.424  30.152  32.081  1.00  0.00    -0.246 OA
BRANCH   4   6
ATOM      6  C   UNL A   1      37.841  29.924  30.238  1.00  0.00     0.060 A 
ATOM      7  C   UNL A   1      38.116  29.878  28.872  1.00  0.00     0.016 A 
ATOM      8  C   UNL A   1      38.894  29.622  31.128  1.00  0.00     0.016 A 
ATOM      9  C   UNL A   1      39.401  29.610  28.403  1.00  0.00     0.010 A 
ATOM     10  C   UNL A   1      40.187  29.355  30.665  1.00  0.00     0.010 A 
ATOM     11  C   UNL A   1      40.444  29.353  29.293  1.00  0.00    -0.014 A 
BRANCH  11  12
ATOM     12  C   UNL A   1      41.762  28.974  28.740  1.00  0.00     0.031 A 
ATOM     13  C   UNL A   1      42.851  30.002  28.713  1.00  0.00     0.074 A 
ATOM     14  C   UNL A   1      42.003  27.693  28.404  1.00  0.00     0.049 A 
ATOM     15  N   UNL A   1      44.108  29.853  28.404  1.00  0.00    -0.248 NA
ATOM     16  C   UNL A   1      42.488  31.368  29.133  1.00  0.00     0.031 C 
ATOM     17  C   UNL A   1      41.030  26.607  28.505  1.00  0.00     0.029 A 
ATOM     18  N   UNL A   1      43.133  27.077  27.933  1.00  0.00    -0.354 N 
ATOM     19  C   UNL A   1      44.700  31.085  28.642  1.00  0.00     0.074 A 
ATOM     20  C   UNL A   1      43.654  31.992  29.059  1.00  0.00     0.031 C 
ATOM     21  C   UNL A   1      41.587  25.464  28.074  1.00  0.00     0.029 A 
ATOM     22  C   UNL A   1      42.964  25.734  27.679  1.00  0.00     0.049 A 
ATOM     23  H   UNL A   1      43.984  27.549  27.791  1.00  0.00     0.167 HD
ATOM     24  C   UNL A   1      46.009  31.412  28.559  1.00  0.00     0.037 A 
ATOM     25  C   UNL A   1      43.832  24.826  27.194  1.00  0.00     0.037 A 
ATOM     26  C   UNL A   1      47.028  30.497  28.122  1.00  0.00     0.049 A 
ATOM     27  C   UNL A   1      45.251  25.262  26.958  1.00  0.00     0.074 A 
ATOM     28  C   UNL A   1      48.381  30.732  27.957  1.00  0.00     0.029 A 
ATOM     29  N   UNL A   1      46.805  29.170  27.775  1.00  0.00    -0.354 N 
ATOM     30  N   UNL A   1      45.800  26.431  27.198  1.00  0.00    -0.248 NA
ATOM     31  C   UNL A   1      46.177  24.262  26.414  1.00  0.00     0.031 C 
ATOM     32  C   UNL A   1      48.966  29.562  27.464  1.00  0.00     0.029 A 
ATOM     33  C   UNL A   1      47.990  28.582  27.371  1.00  0.00     0.049 A 
ATOM     34  H   UNL A   1      45.931  28.717  27.812  1.00  0.00     0.167 HD
ATOM     35  C   UNL A   1      47.143  26.295  26.871  1.00  0.00     0.074 A 
ATOM     36  C   UNL A   1      47.324  24.928  26.425  1.00  0.00     0.031 C 
ATOM     37  C   UNL A   1      48.137  27.214  26.937  1.00  0.00     0.037 A 
BRANCH  24  38
ATOM     38  C   UNL A   1      46.406  32.805  28.942  1.00  0.00     0.058 A 
ATOM     39  C   UNL A   1      46.380  33.842  27.999  1.00  0.00     0.135 A 
ATOM     40  C   UNL A   1      46.864  33.104  30.236  1.00  0.00     0.135 A 
ATOM     41  F   UNL A   1      45.930  33.614  26.755  1.00  0.00    -0.206 F 
ATOM     42  C   UNL A   1      46.821  35.122  28.315  1.00  0.00     0.059 A 
ATOM     43  C   UNL A   1      47.291  34.382  30.581  1.00  0.00     0.059 A 
ATOM     44  F   UNL A   1      46.874  32.154  31.185  1.00  0.00    -0.206 F 
ATOM     45  C   UNL A   1      47.282  35.381  29.608  1.00  0.00     0.060 A 
BRANCH  45  46
ATOM     46  S   UNL A   1      47.853  37.048  29.998  1.00  0.00     0.124 S 
ATOM     47  O   UNL A   1      48.817  37.292  28.931  1.00  0.00    -0.237 OA
ATOM     48  O   UNL A   1      46.614  37.818  29.925  1.00  0.00    -0.237 OA
ATOM     49  O   UNL A   1      48.418  36.908  31.337  1.00  0.00    -0.744 OA
ENDBRANCH  45  46
ENDBRANCH  24  38
BRANCH  25  50
ATOM     50  C   UNL A   1      43.396  23.426  26.930  1.00  0.00     0.058 A 
ATOM     51  C   UNL A   1      43.189  22.967  25.619  1.00  0.00     0.135 A 
ATOM     52  C   UNL A   1      43.191  22.513  27.976  1.00  0.00     0.135 A 
ATOM     53  F   UNL A   1      43.358  23.799  24.580  1.00  0.00    -0.206 F 
ATOM     54  C   UNL A   1      42.793  21.659  25.354  1.00  0.00     0.059 A 
ATOM     55  C   UNL A   1      42.818  21.192  27.735  1.00  0.00     0.059 A 
ATOM     56  F   UNL A   1      43.377  22.900  29.247  1.00  0.00    -0.206 F 
ATOM     57  C   UNL A   1      42.615  20.777  26.420  1.00  0.00     0.060 A 
BRANCH  57  58
ATOM     58  S   UNL A   1      42.131  19.076  26.054  1.00  0.00     0.124 S 
ATOM     59  O   UNL A   1      42.459  18.403  27.308  1.00  0.00    -0.237 OA
ATOM     60  O   UNL A   1      40.708  19.219  25.762  1.00  0.00    -0.237 OA
ATOM     61  O   UNL A   1      42.970  18.723  24.915  1.00  0.00    -0.744 OA
ENDBRANCH  57  58
ENDBRANCH  25  50
BRANCH  37  62
ATOM     62  C   UNL A   1      49.513  26.767  26.537  1.00  0.00     0.058 A 
ATOM     63  C   UNL A   1      49.969  26.963  25.224  1.00  0.00     0.135 A 
ATOM     64  C   UNL A   1      50.348  26.083  27.432  1.00  0.00     0.135 A 
ATOM     65  F   UNL A   1      49.202  27.607  24.329  1.00  0.00    -0.206 F 
ATOM     66  C   UNL A   1      51.203  26.481  24.807  1.00  0.00     0.059 A 
ATOM     67  C   UNL A   1      51.600  25.619  27.045  1.00  0.00     0.059 A 
ATOM     68  F   UNL A   1      49.959  25.882  28.702  1.00  0.00    -0.206 F 
ATOM     69  C   UNL A   1      52.010  25.808  25.725  1.00  0.00     0.060 A 
BRANCH  69  70
ATOM     70  S   UNL A   1      53.618  25.204  25.172  1.00  0.00     0.124 S 
ATOM     71  O   UNL A   1      54.514  25.803  26.155  1.00  0.00    -0.237 OA
ATOM     72  O   UNL A   1      53.453  23.757  25.262  1.00  0.00    -0.237 OA
ATOM     73  O   UNL A   1      53.729  25.733  23.815  1.00  0.00    -0.744 OA
ENDBRANCH  69  70
ENDBRANCH  37  62
ENDBRANCH  11  12
ENDBRANCH   4   6
ENDBRANCH   3   4
ENDBRANCH   2   3
ENDBRANCH   1   2
BRANCH   1  74
ATOM     74  O   UNL A   1      34.673  30.665  27.487  1.00  0.00    -0.458 OA
BRANCH  74  75
ATOM     75  C   UNL A   1      33.334  30.667  27.247  1.00  0.00     0.338 C 
ATOM     76  O   UNL A   1      32.597  31.637  27.232  1.00  0.00    -0.246 OA
BRANCH  75  77
ATOM     77  C   UNL A   1      32.898  29.308  26.860  1.00  0.00     0.063 A 
ATOM     78  C   UNL A   1      31.714  28.757  27.352  1.00  0.00     0.017 A 
ATOM     79  C   UNL A   1      33.711  28.563  25.998  1.00  0.00     0.056 A 
ATOM     80  C   UNL A   1      31.375  27.444  27.011  1.00  0.00     0.026 A 
ATOM     81  C   UNL A   1      33.377  27.244  25.682  1.00  0.00     0.144 A 
ATOM     82  C   UNL A   1      32.225  26.674  26.199  1.00  0.00     0.118 A 
ATOM     83  F   UNL A   1      34.220  26.562  24.897  1.00  0.00    -0.205 F 
BRANCH  82  84
ATOM     84  S   UNL A   1      31.780  24.981  25.980  1.00  0.00     0.243 S 
ATOM     85  O   UNL A   1      32.858  24.375  25.237  1.00  0.00    -0.207 OA
ATOM     86  O   UNL A   1      31.393  24.500  27.290  1.00  0.00    -0.207 OA
BRANCH  84  87
ATOM     87  N   UNL A   1      30.399  24.882  25.045  1.00  0.00    -0.205 NA
ATOM     88  H   UNL A   1      29.638  25.249  25.616  1.00  0.00     0.141 HD
BRANCH  87  89
ATOM     89  C   UNL A   1      30.308  25.561  23.744  1.00  0.00     0.160 C 
BRANCH  89  90
ATOM     90  C   UNL A   1      29.457  26.847  23.742  1.00  0.00     0.278 C 
BRANCH  90  91
ATOM     91  N   UNL A   1      29.868  27.806  22.688  1.00  0.00    -0.334 N 
ATOM     92  C   UNL A   1      31.117  28.504  23.073  1.00  0.00     0.262 C 
ATOM     93  C   UNL A   1      28.895  28.912  22.554  1.00  0.00     0.262 C 
ATOM     94  H   UNL A   1      29.959  27.252  21.835  1.00  0.00     0.348 HD
ATOM     95  C   UNL A   1      30.683  29.611  24.019  1.00  0.00     0.067 C 
ATOM     96  C   UNL A   1      29.352  30.060  23.450  1.00  0.00     0.067 C 
ENDBRANCH  90  91
ENDBRANCH  89  90
ENDBRANCH  87  89
ENDBRANCH  84  87
ENDBRANCH  82  84
ENDBRANCH  75  77
ENDBRANCH  74  75
ENDBRANCH   1  74
TORSDOF 19
ENDMDL
MODEL 2
REMARK VINA RESULT:     -10.6      6.454     12.396
REMARK SMILES O=C(OCCOC(=O)c1ccc(S(=O)(=O)NCC[NH+]2CCCC2)c(F)c1)c1ccc(-c2c3nc(c(-c4c(F)cc(S(=O)(=O)[O-])cc4F)c4ccc([nH]4)c(-c4c(F)cc(S(=O)(=O)[O-])cc4F)c4nc(c(-c5c(F)cc(S(=O)(=O)[O-])cc5F)c5ccc2[nH]5)C=C4)C=C3)cc1
REMARK SMILES IDX 5 1 4 2 3 3 2 4 1 5 27 6 28 7 92 8 29 9 91 10 30 11 31 12
REMARK SMILES IDX 32 13 85 14 33 15 90 16 84 17 86 18 34 19 89 20 83 21 82 22
REMARK SMILES IDX 35 24 69 25 48 26 68 27 49 28 52 29 67 30 87 31 50 32 51 33
REMARK SMILES IDX 66 35 88 36 53 37 36 38 37 39 46 40 38 41 39 42 45 43 47 44
REMARK SMILES IDX 40 45 41 46 42 47 43 48 44 49 70 50 71 51 80 52 72 53 73 54
REMARK SMILES IDX 79 55 81 56 74 57 75 58 76 59 77 60 78 61 54 62 55 63 64 64
REMARK SMILES IDX 56 65 57 66 63 67 65 68 58 69 59 70 60 71 61 72 62 73 6 74
REMARK SMILES IDX 7 75 8 76 9 77 10 78 26 79 11 80 24 81 12 82 25 83 13 84
REMARK SMILES IDX 14 85 15 86 16 87 17 89 18 90 19 91 20 92 23 93 21 95 22 96
REMARK H PARENT 86 23 52 34 16 88 19 94
REMARK Flexibility Score: inf
ROOT
ATOM      1  C   UNL A   1      43.528  21.827  25.931  1.00  0.00     0.275 C 
ENDROOT
BRANCH   1   2
ATOM      2  C   UNL A   1      43.776  23.339  25.891  1.00  0.00     0.275 C 
BRANCH   2   3
ATOM      3  O   UNL A   1      42.589  24.152  25.849  1.00  0.00    -0.458 OA
BRANCH   3   4
ATOM      4  C   UNL A   1      42.435  25.497  25.797  1.00  0.00     0.338 C 
ATOM      5  O   UNL A   1      42.649  26.065  24.727  1.00  0.00    -0.246 OA
BRANCH   4   6
ATOM      6  C   UNL A   1      42.128  26.359  26.984  1.00  0.00     0.060 A 
ATOM      7  C   UNL A   1      42.771  27.550  27.318  1.00  0.00     0.016 A 
ATOM      8  C   UNL A   1      41.098  25.909  27.838  1.00  0.00     0.016 A 
ATOM      9  C   UNL A   1      42.366  28.305  28.418  1.00  0.00     0.010 A 
ATOM     10  C   UNL A   1      40.684  26.663  28.942  1.00  0.00     0.010 A 
ATOM     11  C   UNL A   1      41.320  27.871  29.233  1.00  0.00    -0.014 A 
BRANCH  11  12
ATOM     12  C   UNL A   1      41.000  28.657  30.443  1.00  0.00     0.031 A 
ATOM     13  C   UNL A   1      41.854  28.479  31.660  1.00  0.00     0.074 A 
ATOM     14  C   UNL A   1      40.049  29.609  30.390  1.00  0.00     0.049 A 
ATOM     15  N   UNL A   1      41.842  29.157  32.774  1.00  0.00    -0.248 NA
ATOM     16  C   UNL A   1      42.889  27.431  31.601  1.00  0.00     0.031 C 
ATOM     17  C   UNL A   1      39.247  29.922  29.209  1.00  0.00     0.029 A 
ATOM     18  N   UNL A   1      39.607  30.501  31.332  1.00  0.00    -0.354 N 
ATOM     19  C   UNL A   1      42.896  28.659  33.526  1.00  0.00     0.074 A 
ATOM     20  C   UNL A   1      43.489  27.576  32.773  1.00  0.00     0.031 C 
ATOM     21  C   UNL A   1      38.383  30.907  29.502  1.00  0.00     0.029 A 
ATOM     22  C   UNL A   1      38.581  31.306  30.890  1.00  0.00     0.049 A 
ATOM     23  H   UNL A   1      39.987  30.560  32.238  1.00  0.00     0.167 HD
ATOM     24  C   UNL A   1      43.350  29.099  34.720  1.00  0.00     0.037 A 
ATOM     25  C   UNL A   1      37.890  32.266  31.535  1.00  0.00     0.037 A 
ATOM     26  C   UNL A   1      42.731  30.166  35.460  1.00  0.00     0.049 A 
ATOM     27  C   UNL A   1      38.319  32.626  32.931  1.00  0.00     0.074 A 
ATOM     28  C   UNL A   1      43.079  30.666  36.700  1.00  0.00     0.029 A 
ATOM     29  N   UNL A   1      41.629  30.893  35.026  1.00  0.00    -0.354 N 
ATOM     30  N   UNL A   1      39.327  32.152  33.627  1.00  0.00    -0.248 NA
ATOM     31  C   UNL A   1      37.543  33.663  33.622  1.00  0.00     0.031 C 
ATOM     32  C   UNL A   1      42.158  31.663  37.039  1.00  0.00     0.029 A 
ATOM     33  C   UNL A   1      41.268  31.819  35.987  1.00  0.00     0.049 A 
ATOM     34  H   UNL A   1      41.173  30.766  34.162  1.00  0.00     0.167 HD
ATOM     35  C   UNL A   1      39.329  32.859  34.822  1.00  0.00     0.074 A 
ATOM     36  C   UNL A   1      38.229  33.799  34.749  1.00  0.00     0.031 C 
ATOM     37  C   UNL A   1      40.168  32.747  35.881  1.00  0.00     0.037 A 
BRANCH  24  38
ATOM     38  C   UNL A   1      44.562  28.431  35.295  1.00  0.00     0.058 A 
ATOM     39  C   UNL A   1      44.433  27.346  36.173  1.00  0.00     0.135 A 
ATOM     40  C   UNL A   1      45.856  28.902  35.017  1.00  0.00     0.135 A 
ATOM     41  F   UNL A   1      43.220  26.844  36.455  1.00  0.00    -0.206 F 
ATOM     42  C   UNL A   1      45.541  26.766  36.779  1.00  0.00     0.059 A 
ATOM     43  C   UNL A   1      46.982  28.324  35.595  1.00  0.00     0.059 A 
ATOM     44  F   UNL A   1      46.035  29.916  34.155  1.00  0.00    -0.206 F 
ATOM     45  C   UNL A   1      46.813  27.267  36.489  1.00  0.00     0.060 A 
BRANCH  45  46
ATOM     46  S   UNL A   1      48.239  26.502  37.288  1.00  0.00     0.124 S 
ATOM     47  O   UNL A   1      48.265  27.187  38.575  1.00  0.00    -0.237 OA
ATOM     48  O   UNL A   1      47.850  25.095  37.322  1.00  0.00    -0.237 OA
ATOM     49  O   UNL A   1      49.342  26.818  36.385  1.00  0.00    -0.744 OA
ENDBRANCH  45  46
ENDBRANCH  24  38
BRANCH  25  50
ATOM     50  C   UNL A   1      36.757  32.964  30.867  1.00  0.00     0.058 A 
ATOM     51  C   UNL A   1      35.426  32.669  31.203  1.00  0.00     0.135 A 
ATOM     52  C   UNL A   1      36.976  33.947  29.890  1.00  0.00     0.135 A 
ATOM     53  F   UNL A   1      35.155  31.729  32.121  1.00  0.00    -0.206 F 
ATOM     54  C   UNL A   1      34.355  33.320  30.596  1.00  0.00     0.059 A 
ATOM     55  C   UNL A   1      35.922  34.630  29.286  1.00  0.00     0.059 A 
ATOM     56  F   UNL A   1      38.229  34.268  29.533  1.00  0.00    -0.206 F 
ATOM     57  C   UNL A   1      34.615  34.304  29.642  1.00  0.00     0.060 A 
BRANCH  57  58
ATOM     58  S   UNL A   1      33.213  35.159  28.888  1.00  0.00     0.124 S 
ATOM     59  O   UNL A   1      32.440  35.546  30.064  1.00  0.00    -0.237 OA
ATOM     60  O   UNL A   1      33.869  36.247  28.171  1.00  0.00    -0.237 OA
ATOM     61  O   UNL A   1      32.604  34.134  28.047  1.00  0.00    -0.744 OA
ENDBRANCH  57  58
ENDBRANCH  25  50
BRANCH  37  62
ATOM     62  C   UNL A   1      39.940  33.675  37.038  1.00  0.00     0.058 A 
ATOM     63  C   UNL A   1      39.031  33.335  38.052  1.00  0.00     0.135 A 
ATOM     64  C   UNL A   1      40.568  34.927  37.106  1.00  0.00     0.135 A 
ATOM     65  F   UNL A   1      38.400  32.150  38.028  1.00  0.00    -0.206 F 
ATOM     66  C   UNL A   1      38.738  34.215  39.087  1.00  0.00     0.059 A 
ATOM     67  C   UNL A   1      40.313  35.811  38.148  1.00  0.00     0.059 A 
ATOM     68  F   UNL A   1      41.454  35.291  36.164  1.00  0.00    -0.206 F 
ATOM     69  C   UNL A   1      39.383  35.451  39.124  1.00  0.00     0.060 A 
BRANCH  69  70
ATOM     70  S   UNL A   1      39.007  36.574  40.485  1.00  0.00     0.124 S 
ATOM     71  O   UNL A   1      37.945  35.854  41.179  1.00  0.00    -0.237 OA
ATOM     72  O   UNL A   1      40.285  36.652  41.185  1.00  0.00    -0.237 OA
ATOM     73  O   UNL A   1      38.595  37.801  39.807  1.00  0.00    -0.744 OA
ENDBRANCH  69  70
ENDBRANCH  37  62
ENDBRANCH  11  12
ENDBRANCH   4   6
ENDBRANCH   3   4
ENDBRANCH   2   3
ENDBRANCH   1   2
BRANCH   1  74
ATOM     74  O   UNL A   1      42.226  21.436  25.471  1.00  0.00    -0.458 OA
BRANCH  74  75
ATOM     75  C   UNL A   1      41.419  20.889  26.419  1.00  0.00     0.338 C 
ATOM     76  O   UNL A   1      41.767  20.232  27.384  1.00  0.00    -0.246 OA
BRANCH  75  77
ATOM     77  C   UNL A   1      40.024  21.322  26.191  1.00  0.00     0.063 A 
ATOM     78  C   UNL A   1      39.088  20.477  25.592  1.00  0.00     0.017 A 
ATOM     79  C   UNL A   1      39.654  22.618  26.571  1.00  0.00     0.056 A 
ATOM     80  C   UNL A   1      37.798  20.952  25.338  1.00  0.00     0.026 A 
ATOM     81  C   UNL A   1      38.370  23.092  26.291  1.00  0.00     0.144 A 
ATOM     82  C   UNL A   1      37.446  22.275  25.659  1.00  0.00     0.118 A 
ATOM     83  F   UNL A   1      38.089  24.357  26.628  1.00  0.00    -0.205 F 
BRANCH  82  84
ATOM     84  S   UNL A   1      35.851  22.812  25.134  1.00  0.00     0.243 S 
ATOM     85  O   UNL A   1      35.116  23.122  26.337  1.00  0.00    -0.207 OA
ATOM     86  O   UNL A   1      36.085  23.806  24.108  1.00  0.00    -0.207 OA
BRANCH  84  87
ATOM     87  N   UNL A   1      35.063  21.557  24.365  1.00  0.00    -0.205 NA
ATOM     88  H   UNL A   1      35.437  20.695  24.761  1.00  0.00     0.141 HD
BRANCH  87  89
ATOM     89  C   UNL A   1      33.599  21.434  24.409  1.00  0.00     0.160 C 
BRANCH  89  90
ATOM     90  C   UNL A   1      33.063  19.998  24.231  1.00  0.00     0.278 C 
BRANCH  90  91
ATOM     91  N   UNL A   1      33.718  19.025  25.140  1.00  0.00    -0.334 N 
ATOM     92  C   UNL A   1      34.562  18.078  24.373  1.00  0.00     0.262 C 
ATOM     93  C   UNL A   1      32.725  18.139  25.788  1.00  0.00     0.262 C 
ATOM     94  H   UNL A   1      34.244  19.587  25.810  1.00  0.00     0.348 HD
ATOM     95  C   UNL A   1      33.600  17.037  23.824  1.00  0.00     0.067 C 
ATOM     96  C   UNL A   1      32.576  16.885  24.932  1.00  0.00     0.067 C 
ENDBRANCH  90  91
ENDBRANCH  89  90
ENDBRANCH  87  89
ENDBRANCH  84  87
ENDBRANCH  82  84
ENDBRANCH  75  77
ENDBRANCH  74  75
ENDBRANCH   1  74
TORSDOF 19
ENDMDL
MODEL 3
REMARK VINA RESULT:     -10.6      3.239      9.229
REMARK SMILES O=C(OCCOC(=O)c1ccc(S(=O)(=O)NCC[NH+]2CCCC2)c(F)c1)c1ccc(-c2c3nc(c(-c4c(F)cc(S(=O)(=O)[O-])cc4F)c4ccc([nH]4)c(-c4c(F)cc(S(=O)(=O)[O-])cc4F)c4nc(c(-c5c(F)cc(S(=O)(=O)[O-])cc5F)c5ccc2[nH]5)C=C4)C=C3)cc1
REMARK SMILES IDX 5 1 4 2 3 3 2 4 1 5 27 6 28 7 92 8 29 9 91 10 30 11 31 12
REMARK SMILES IDX 32 13 85 14 33 15 90 16 84 17 86 18 34 19 89 20 83 21 82 22
REMARK SMILES IDX 35 24 69 25 48 26 68 27 49 28 52 29 67 30 87 31 50 32 51 33
REMARK SMILES IDX 66 35 88 36 53 37 36 38 37 39 46 40 38 41 39 42 45 43 47 44
REMARK SMILES IDX 40 45 41 46 42 47 43 48 44 49 70 50 71 51 80 52 72 53 73 54
REMARK SMILES IDX 79 55 81 56 74 57 75 58 76 59 77 60 78 61 54 62 55 63 64 64
REMARK SMILES IDX 56 65 57 66 63 67 65 68 58 69 59 70 60 71 61 72 62 73 6 74
REMARK SMILES IDX 7 75 8 76 9 77 10 78 26 79 11 80 24 81 12 82 25 83 13 84
REMARK SMILES IDX 14 85 15 86 16 87 17 89 18 90 19 91 20 92 23 93 21 95 22 96
REMARK H PARENT 86 23 52 34 16 88 19 94
REMARK Flexibility Score: inf
ROOT
ATOM      1  C   UNL A   1      31.886  30.091  25.839  1.00  0.00     0.275 C 
ENDROOT
BRANCH   1   2
ATOM      2  C   UNL A   1      32.296  29.517  27.200  1.00  0.00     0.275 C 
BRANCH   2   3
ATOM      3  O   UNL A   1      33.715  29.446  27.431  1.00  0.00    -0.458 OA
BRANCH   3   4
ATOM      4  C   UNL A   1      34.552  30.290  28.080  1.00  0.00     0.338 C 
ATOM      5  O   UNL A   1      34.166  31.439  28.296  1.00  0.00    -0.246 OA
BRANCH   4   6
ATOM      6  C   UNL A   1      35.963  29.956  28.458  1.00  0.00     0.060 A 
ATOM      7  C   UNL A   1      36.408  29.610  29.733  1.00  0.00     0.016 A 
ATOM      8  C   UNL A   1      36.921  30.009  27.422  1.00  0.00     0.016 A 
ATOM      9  C   UNL A   1      37.738  29.262  29.963  1.00  0.00     0.010 A 
ATOM     10  C   UNL A   1      38.257  29.659  27.645  1.00  0.00     0.010 A 
ATOM     11  C   UNL A   1      38.669  29.278  28.924  1.00  0.00    -0.014 A 
BRANCH  11  12
ATOM     12  C   UNL A   1      40.084  29.000  29.245  1.00  0.00     0.031 A 
ATOM     13  C   UNL A   1      40.629  27.634  28.962  1.00  0.00     0.074 A 
ATOM     14  C   UNL A   1      40.888  30.002  29.648  1.00  0.00     0.049 A 
ATOM     15  N   UNL A   1      41.861  27.214  29.034  1.00  0.00    -0.248 NA
ATOM     16  C   UNL A   1      39.669  26.618  28.492  1.00  0.00     0.031 C 
ATOM     17  C   UNL A   1      40.462  31.387  29.841  1.00  0.00     0.029 A 
ATOM     18  N   UNL A   1      42.225  30.027  29.947  1.00  0.00    -0.354 N 
ATOM     19  C   UNL A   1      41.837  25.907  28.569  1.00  0.00     0.074 A 
ATOM     20  C   UNL A   1      40.460  25.577  28.279  1.00  0.00     0.031 C 
ATOM     21  C   UNL A   1      41.503  32.122  30.263  1.00  0.00     0.029 A 
ATOM     22  C   UNL A   1      42.677  31.262  30.356  1.00  0.00     0.049 A 
ATOM     23  H   UNL A   1      42.807  29.237  29.876  1.00  0.00     0.167 HD
ATOM     24  C   UNL A   1      42.883  25.075  28.366  1.00  0.00     0.037 A 
ATOM     25  C   UNL A   1      43.904  31.652  30.748  1.00  0.00     0.037 A 
ATOM     26  C   UNL A   1      44.243  25.419  28.682  1.00  0.00     0.049 A 
ATOM     27  C   UNL A   1      45.023  30.652  30.661  1.00  0.00     0.074 A 
ATOM     28  C   UNL A   1      45.377  24.638  28.558  1.00  0.00     0.029 A 
ATOM     29  N   UNL A   1      44.651  26.646  29.190  1.00  0.00    -0.354 N 
ATOM     30  N   UNL A   1      44.988  29.419  30.209  1.00  0.00    -0.248 NA
ATOM     31  C   UNL A   1      46.351  31.092  31.108  1.00  0.00     0.031 C 
ATOM     32  C   UNL A   1      46.464  25.376  29.037  1.00  0.00     0.029 A 
ATOM     33  C   UNL A   1      46.016  26.634  29.411  1.00  0.00     0.049 A 
ATOM     34  H   UNL A   1      44.055  27.410  29.367  1.00  0.00     0.167 HD
ATOM     35  C   UNL A   1      46.293  28.950  30.282  1.00  0.00     0.074 A 
ATOM     36  C   UNL A   1      47.094  30.035  30.812  1.00  0.00     0.031 C 
ATOM     37  C   UNL A   1      46.786  27.736  29.936  1.00  0.00     0.037 A 
BRANCH  24  38
ATOM     38  C   UNL A   1      42.597  23.725  27.782  1.00  0.00     0.058 A 
ATOM     39  C   UNL A   1      42.500  22.594  28.606  1.00  0.00     0.135 A 
ATOM     40  C   UNL A   1      42.470  23.541  26.395  1.00  0.00     0.135 A 
ATOM     41  F   UNL A   1      42.592  22.719  29.939  1.00  0.00    -0.206 F 
ATOM     42  C   UNL A   1      42.316  21.323  28.075  1.00  0.00     0.059 A 
ATOM     43  C   UNL A   1      42.265  22.281  25.843  1.00  0.00     0.059 A 
ATOM     44  F   UNL A   1      42.520  24.597  25.567  1.00  0.00    -0.206 F 
ATOM     45  C   UNL A   1      42.207  21.175  26.690  1.00  0.00     0.060 A 
BRANCH  45  46
ATOM     46  S   UNL A   1      41.970  19.515  26.020  1.00  0.00     0.124 S 
ATOM     47  O   UNL A   1      42.818  19.548  24.834  1.00  0.00    -0.237 OA
ATOM     48  O   UNL A   1      42.440  18.675  27.118  1.00  0.00    -0.237 OA
ATOM     49  O   UNL A   1      40.534  19.455  25.765  1.00  0.00    -0.744 OA
ENDBRANCH  45  46
ENDBRANCH  24  38
BRANCH  25  50
ATOM     50  C   UNL A   1      44.142  33.044  31.223  1.00  0.00     0.058 A 
ATOM     51  C   UNL A   1      44.468  34.070  30.321  1.00  0.00     0.135 A 
ATOM     52  C   UNL A   1      44.037  33.383  32.580  1.00  0.00     0.135 A 
ATOM     53  F   UNL A   1      44.595  33.802  29.013  1.00  0.00    -0.206 F 
ATOM     54  C   UNL A   1      44.684  35.378  30.745  1.00  0.00     0.059 A 
ATOM     55  C   UNL A   1      44.223  34.691  33.027  1.00  0.00     0.059 A 
ATOM     56  F   UNL A   1      43.726  32.441  33.483  1.00  0.00    -0.206 F 
ATOM     57  C   UNL A   1      44.553  35.679  32.102  1.00  0.00     0.060 A 
BRANCH  57  58
ATOM     58  S   UNL A   1      44.805  37.388  32.629  1.00  0.00     0.124 S 
ATOM     59  O   UNL A   1      44.463  37.311  34.046  1.00  0.00    -0.237 OA
ATOM     60  O   UNL A   1      46.218  37.596  32.327  1.00  0.00    -0.237 OA
ATOM     61  O   UNL A   1      43.872  38.140  31.798  1.00  0.00    -0.744 OA
ENDBRANCH  57  58
ENDBRANCH  25  50
BRANCH  37  62
ATOM     62  C   UNL A   1      48.262  27.521  30.103  1.00  0.00     0.058 A 
ATOM     63  C   UNL A   1      49.146  27.823  29.054  1.00  0.00     0.135 A 
ATOM     64  C   UNL A   1      48.791  26.953  31.271  1.00  0.00     0.135 A 
ATOM     65  F   UNL A   1      48.686  28.362  27.914  1.00  0.00    -0.206 F 
ATOM     66  C   UNL A   1      50.505  27.551  29.153  1.00  0.00     0.059 A 
ATOM     67  C   UNL A   1      50.152  26.702  31.403  1.00  0.00     0.059 A 
ATOM     68  F   UNL A   1      47.986  26.659  32.304  1.00  0.00    -0.206 F 
ATOM     69  C   UNL A   1      50.997  26.989  30.331  1.00  0.00     0.060 A 
BRANCH  69  70
ATOM     70  S   UNL A   1      52.767  26.661  30.449  1.00  0.00     0.124 S 
ATOM     71  O   UNL A   1      53.100  26.322  29.070  1.00  0.00    -0.237 OA
ATOM     72  O   UNL A   1      53.287  27.935  30.934  1.00  0.00    -0.237 OA
ATOM     73  O   UNL A   1      52.844  25.557  31.403  1.00  0.00    -0.744 OA
ENDBRANCH  69  70
ENDBRANCH  37  62
ENDBRANCH  11  12
ENDBRANCH   4   6
ENDBRANCH   3   4
ENDBRANCH   2   3
ENDBRANCH   1   2
BRANCH   1  74
ATOM     74  O   UNL A   1      32.323  29.308  24.719  1.00  0.00    -0.458 OA
BRANCH  74  75
ATOM     75  C   UNL A   1      31.350  28.585  24.103  1.00  0.00     0.338 C 
ATOM     76  O   UNL A   1      30.609  28.966  23.214  1.00  0.00    -0.246 OA
BRANCH  75  77
ATOM     77  C   UNL A   1      31.398  27.186  24.577  1.00  0.00     0.063 A 
ATOM     78  C   UNL A   1      30.243  26.517  24.988  1.00  0.00     0.017 A 
ATOM     79  C   UNL A   1      32.637  26.538  24.630  1.00  0.00     0.056 A 
ATOM     80  C   UNL A   1      30.346  25.216  25.490  1.00  0.00     0.026 A 
ATOM     81  C   UNL A   1      32.734  25.247  25.156  1.00  0.00     0.144 A 
ATOM     82  C   UNL A   1      31.599  24.590  25.604  1.00  0.00     0.118 A 
ATOM     83  F   UNL A   1      33.952  24.698  25.232  1.00  0.00    -0.205 F 
BRANCH  82  84
ATOM     84  S   UNL A   1      31.622  23.022  26.411  1.00  0.00     0.243 S 
ATOM     85  O   UNL A   1      32.116  23.264  27.745  1.00  0.00    -0.207 OA
ATOM     86  O   UNL A   1      30.320  22.435  26.175  1.00  0.00    -0.207 OA
BRANCH  84  87
ATOM     87  N   UNL A   1      32.708  22.013  25.641  1.00  0.00    -0.205 NA
ATOM     88  H   UNL A   1      33.414  21.766  26.334  1.00  0.00     0.141 HD
BRANCH  87  89
ATOM     89  C   UNL A   1      32.272  20.753  25.022  1.00  0.00     0.160 C 
BRANCH  89  90
ATOM     90  C   UNL A   1      33.391  19.954  24.322  1.00  0.00     0.278 C 
BRANCH  90  91
ATOM     91  N   UNL A   1      33.904  18.836  25.152  1.00  0.00    -0.334 N 
ATOM     92  C   UNL A   1      34.559  17.812  24.304  1.00  0.00     0.262 C 
ATOM     93  C   UNL A   1      32.799  18.085  25.788  1.00  0.00     0.262 C 
ATOM     94  H   UNL A   1      34.534  19.265  25.830  1.00  0.00     0.348 HD
ATOM     95  C   UNL A   1      33.425  16.974  23.737  1.00  0.00     0.067 C 
ATOM     96  C   UNL A   1      32.422  16.925  24.873  1.00  0.00     0.067 C 
ENDBRANCH  90  91
ENDBRANCH  89  90
ENDBRANCH  87  89
ENDBRANCH  84  87
ENDBRANCH  82  84
ENDBRANCH  75  77
ENDBRANCH  74  75
ENDBRANCH   1  74
TORSDOF 19
ENDMDL
