MODEL 1
REMARK VINA RESULT:     -14.3      0.000      0.000
REMARK SMILES Cc1ccc(-c2cc(C[C@H]3CCCC3=O)ccc2[C@@H](C)C(=O)OCCOC(=O)c2ccc(-c3c4nc(c(-c5c(F)cc(S(=O)(=O)[O-])cc5F)c5ccc([nH]5)c(-c5c(F)cc(S(=O)(=O)[O-])cc5F)c5nc(c(-c6c(F)cc(S(=O)(=O)[O-])cc6F)c6ccc3[nH]6)C=C5)C=C4)cc2)cc1
REMARK SMILES IDX 24 1 23 2 21 3 22 4 19 5 20 6 18 7 6 8 7 9 8 10 17 11 16 12
REMARK SMILES IDX 5 13 1 14 2 15 3 16 96 17 4 18 95 19 9 20 10 21 11 22 14 23
REMARK SMILES IDX 12 24 13 25 15 26 25 27 26 28 27 29 28 30 29 31 30 32 94 33
REMARK SMILES IDX 31 34 93 35 32 36 33 37 34 38 87 39 35 40 92 41 86 42 88 43
REMARK SMILES IDX 36 44 91 45 85 46 84 47 37 49 71 50 50 51 70 52 51 53 54 54
REMARK SMILES IDX 69 55 89 56 52 57 53 58 68 60 90 61 55 62 38 63 39 64 48 65
REMARK SMILES IDX 40 66 41 67 47 68 49 69 42 70 43 71 44 72 45 73 46 74 72 75
REMARK SMILES IDX 73 76 82 77 74 78 75 79 81 80 83 81 76 82 77 83 78 84 79 85
REMARK SMILES IDX 80 86 56 87 57 88 66 89 58 90 59 91 65 92 67 93 60 94 61 95
REMARK SMILES IDX 62 96 63 97 64 98
REMARK H PARENT 88 48 54 59
REMARK Flexibility Score: inf
ROOT
ATOM      1  C   UNL A   1      33.466  30.315  26.582  1.00  0.00     0.274 C 
ENDROOT
BRANCH   1   2
ATOM      2  O   UNL A   1      33.769  28.913  26.648  1.00  0.00    -0.462 OA
BRANCH   2   3
ATOM      3  C   UNL A   1      33.111  28.134  25.738  1.00  0.00     0.313 C 
ATOM      4  O   UNL A   1      33.638  27.696  24.723  1.00  0.00    -0.252 OA
BRANCH   3   5
ATOM      5  C   UNL A   1      31.610  28.020  26.081  1.00  0.00     0.127 C 
ATOM      6  C   UNL A   1      31.328  28.133  27.577  1.00  0.00     0.025 C 
BRANCH   5   7
ATOM      7  C   UNL A   1      31.118  26.701  25.509  1.00  0.00    -0.026 A 
ATOM      8  C   UNL A   1      30.570  26.606  24.215  1.00  0.00    -0.014 A 
ATOM      9  C   UNL A   1      30.601  25.348  23.591  1.00  0.00     0.012 A 
ATOM     10  C   UNL A   1      31.083  24.209  24.255  1.00  0.00    -0.047 A 
ATOM     11  C   UNL A   1      31.438  25.535  26.229  1.00  0.00     0.005 A 
ATOM     12  C   UNL A   1      31.415  24.301  25.607  1.00  0.00     0.004 A 
BRANCH   8  13
ATOM     13  C   UNL A   1      29.959  27.744  23.506  1.00  0.00    -0.018 A 
ATOM     14  C   UNL A   1      28.104  30.979  21.288  1.00  0.00     0.044 C 
ATOM     15  C   UNL A   1      28.732  29.846  22.046  1.00  0.00    -0.051 A 
ATOM     16  C   UNL A   1      30.124  29.722  22.092  1.00  0.00     0.004 A 
ATOM     17  C   UNL A   1      27.954  28.937  22.766  1.00  0.00     0.004 A 
ATOM     18  C   UNL A   1      30.726  28.671  22.796  1.00  0.00     0.009 A 
ATOM     19  C   UNL A   1      28.562  27.902  23.490  1.00  0.00     0.009 A 
ENDBRANCH   8  13
BRANCH  10  20
ATOM     20  C   UNL A   1      31.284  22.905  23.530  1.00  0.00     0.047 C 
BRANCH  20  21
ATOM     21  C   UNL A   1      32.708  22.641  23.019  1.00  0.00     0.060 C 
ATOM     22  C   UNL A   1      33.419  23.823  22.356  1.00  0.00     0.012 C 
ATOM     23  C   UNL A   1      33.690  22.234  24.096  1.00  0.00     0.136 C 
ATOM     24  C   UNL A   1      34.410  24.368  23.373  1.00  0.00     0.009 C 
ATOM     25  C   UNL A   1      34.845  23.189  24.228  1.00  0.00     0.076 C 
ATOM     26  O   UNL A   1      33.585  21.207  24.759  1.00  0.00    -0.299 OA
ENDBRANCH  20  21
ENDBRANCH  10  20
ENDBRANCH   5   7
ENDBRANCH   3   5
ENDBRANCH   2   3
ENDBRANCH   1   2
BRANCH   1  27
ATOM     27  C   UNL A   1      34.297  31.107  27.611  1.00  0.00     0.275 C 
BRANCH  27  28
ATOM     28  O   UNL A   1      35.026  30.350  28.599  1.00  0.00    -0.458 OA
BRANCH  28  29
ATOM     29  C   UNL A   1      36.221  30.866  28.997  1.00  0.00     0.338 C 
ATOM     30  O   UNL A   1      36.321  31.892  29.666  1.00  0.00    -0.246 OA
BRANCH  29  31
ATOM     31  C   UNL A   1      37.266  29.832  28.756  1.00  0.00     0.060 A 
ATOM     32  C   UNL A   1      38.092  29.885  27.624  1.00  0.00     0.016 A 
ATOM     33  C   UNL A   1      37.628  29.042  29.849  1.00  0.00     0.016 A 
ATOM     34  C   UNL A   1      39.353  29.267  27.650  1.00  0.00     0.010 A 
ATOM     35  C   UNL A   1      38.905  28.546  29.921  1.00  0.00     0.010 A 
ATOM     36  C   UNL A   1      39.781  28.644  28.827  1.00  0.00    -0.014 A 
BRANCH  36  37
ATOM     37  C   UNL A   1      40.989  27.830  28.987  1.00  0.00     0.031 A 
ATOM     38  C   UNL A   1      41.141  26.415  28.574  1.00  0.00     0.074 A 
ATOM     39  C   UNL A   1      42.048  28.550  29.422  1.00  0.00     0.049 A 
ATOM     40  N   UNL A   1      42.133  25.659  28.908  1.00  0.00    -0.248 NA
ATOM     41  C   UNL A   1      40.175  25.705  27.758  1.00  0.00     0.031 C 
ATOM     42  C   UNL A   1      43.457  28.208  29.450  1.00  0.00     0.029 A 
ATOM     43  N   UNL A   1      41.981  29.756  30.133  1.00  0.00    -0.354 N 
ATOM     44  C   UNL A   1      42.078  24.489  28.167  1.00  0.00     0.074 A 
ATOM     45  C   UNL A   1      40.792  24.540  27.524  1.00  0.00     0.031 C 
ATOM     46  C   UNL A   1      44.044  28.957  30.403  1.00  0.00     0.029 A 
ATOM     47  C   UNL A   1      42.978  29.674  31.098  1.00  0.00     0.049 A 
ATOM     48  H   UNL A   1      41.359  30.504  29.981  1.00  0.00     0.167 HD
ATOM     49  C   UNL A   1      43.188  23.688  28.114  1.00  0.00     0.037 A 
ATOM     50  C   UNL A   1      42.671  29.560  32.424  1.00  0.00     0.037 A 
ATOM     51  C   UNL A   1      44.175  24.168  29.081  1.00  0.00     0.049 A 
ATOM     52  C   UNL A   1      43.237  28.280  32.990  1.00  0.00     0.074 A 
ATOM     53  C   UNL A   1      45.276  24.998  28.954  1.00  0.00     0.029 A 
ATOM     54  N   UNL A   1      43.895  24.078  30.440  1.00  0.00    -0.354 N 
ATOM     55  N   UNL A   1      43.434  27.193  32.293  1.00  0.00    -0.248 NA
ATOM     56  C   UNL A   1      43.683  28.160  34.372  1.00  0.00     0.031 C 
ATOM     57  C   UNL A   1      45.571  25.517  30.242  1.00  0.00     0.029 A 
ATOM     58  C   UNL A   1      44.682  24.966  31.150  1.00  0.00     0.049 A 
ATOM     59  H   UNL A   1      43.233  23.470  30.840  1.00  0.00     0.167 HD
ATOM     60  C   UNL A   1      44.097  26.280  33.069  1.00  0.00     0.074 A 
ATOM     61  C   UNL A   1      44.204  26.922  34.369  1.00  0.00     0.031 C 
ATOM     62  C   UNL A   1      44.559  25.085  32.595  1.00  0.00     0.037 A 
BRANCH  49  63
ATOM     63  C   UNL A   1      43.524  22.638  27.051  1.00  0.00     0.058 A 
ATOM     64  C   UNL A   1      42.679  21.512  26.870  1.00  0.00     0.135 A 
ATOM     65  C   UNL A   1      44.677  22.614  26.240  1.00  0.00     0.135 A 
ATOM     66  F   UNL A   1      41.502  21.412  27.502  1.00  0.00    -0.206 F 
ATOM     67  C   UNL A   1      43.000  20.424  26.047  1.00  0.00     0.059 A 
ATOM     68  C   UNL A   1      45.030  21.528  25.423  1.00  0.00     0.059 A 
ATOM     69  F   UNL A   1      45.510  23.654  26.166  1.00  0.00    -0.206 F 
ATOM     70  C   UNL A   1      44.197  20.423  25.350  1.00  0.00     0.060 A 
BRANCH  70  71
ATOM     71  S   UNL A   1      44.640  18.982  24.357  1.00  0.00     0.124 S 
ATOM     72  O   UNL A   1      46.017  18.738  24.772  1.00  0.00    -0.237 OA
ATOM     73  O   UNL A   1      43.661  17.991  24.793  1.00  0.00    -0.237 OA
ATOM     74  O   UNL A   1      44.479  19.450  22.983  1.00  0.00    -0.744 OA
ENDBRANCH  70  71
ENDBRANCH  49  63
BRANCH  50  75
ATOM     75  C   UNL A   1      41.385  30.204  32.839  1.00  0.00     0.058 A 
ATOM     76  C   UNL A   1      40.335  29.367  33.273  1.00  0.00     0.135 A 
ATOM     77  C   UNL A   1      41.283  31.567  33.160  1.00  0.00     0.135 A 
ATOM     78  F   UNL A   1      40.368  28.053  32.996  1.00  0.00    -0.206 F 
ATOM     79  C   UNL A   1      39.309  29.829  34.094  1.00  0.00     0.059 A 
ATOM     80  C   UNL A   1      40.251  32.057  33.971  1.00  0.00     0.059 A 
ATOM     81  F   UNL A   1      42.247  32.423  32.791  1.00  0.00    -0.206 F 
ATOM     82  C   UNL A   1      39.298  31.169  34.474  1.00  0.00     0.060 A 
BRANCH  82  83
ATOM     83  S   UNL A   1      38.124  31.674  35.757  1.00  0.00     0.124 S 
ATOM     84  O   UNL A   1      38.915  32.621  36.534  1.00  0.00    -0.237 OA
ATOM     85  O   UNL A   1      37.046  32.250  34.958  1.00  0.00    -0.237 OA
ATOM     86  O   UNL A   1      37.802  30.421  36.430  1.00  0.00    -0.744 OA
ENDBRANCH  82  83
ENDBRANCH  50  75
BRANCH  62  87
ATOM     87  C   UNL A   1      45.069  23.966  33.462  1.00  0.00     0.058 A 
ATOM     88  C   UNL A   1      44.298  22.838  33.789  1.00  0.00     0.135 A 
ATOM     89  C   UNL A   1      46.420  23.930  33.879  1.00  0.00     0.135 A 
ATOM     90  F   UNL A   1      43.042  22.699  33.338  1.00  0.00    -0.206 F 
ATOM     91  C   UNL A   1      44.800  21.789  34.556  1.00  0.00     0.059 A 
ATOM     92  C   UNL A   1      46.958  22.867  34.596  1.00  0.00     0.059 A 
ATOM     93  F   UNL A   1      47.271  24.927  33.590  1.00  0.00    -0.206 F 
ATOM     94  C   UNL A   1      46.129  21.815  34.961  1.00  0.00     0.060 A 
BRANCH  94  95
ATOM     95  S   UNL A   1      46.801  20.450  35.924  1.00  0.00     0.124 S 
ATOM     96  O   UNL A   1      48.223  20.550  35.611  1.00  0.00    -0.237 OA
ATOM     97  O   UNL A   1      46.432  20.803  37.292  1.00  0.00    -0.237 OA
ATOM     98  O   UNL A   1      46.109  19.288  35.376  1.00  0.00    -0.744 OA
ENDBRANCH  94  95
ENDBRANCH  62  87
ENDBRANCH  36  37
ENDBRANCH  29  31
ENDBRANCH  28  29
ENDBRANCH  27  28
ENDBRANCH   1  27
TORSDOF 18
ENDMDL
MODEL 2
REMARK VINA RESULT:     -13.5      1.554      2.379
REMARK SMILES Cc1ccc(-c2cc(C[C@H]3CCCC3=O)ccc2[C@@H](C)C(=O)OCCOC(=O)c2ccc(-c3c4nc(c(-c5c(F)cc(S(=O)(=O)[O-])cc5F)c5ccc([nH]5)c(-c5c(F)cc(S(=O)(=O)[O-])cc5F)c5nc(c(-c6c(F)cc(S(=O)(=O)[O-])cc6F)c6ccc3[nH]6)C=C5)C=C4)cc2)cc1
REMARK SMILES IDX 24 1 23 2 21 3 22 4 19 5 20 6 18 7 6 8 7 9 8 10 17 11 16 12
REMARK SMILES IDX 5 13 1 14 2 15 3 16 96 17 4 18 95 19 9 20 10 21 11 22 14 23
REMARK SMILES IDX 12 24 13 25 15 26 25 27 26 28 27 29 28 30 29 31 30 32 94 33
REMARK SMILES IDX 31 34 93 35 32 36 33 37 34 38 87 39 35 40 92 41 86 42 88 43
REMARK SMILES IDX 36 44 91 45 85 46 84 47 37 49 71 50 50 51 70 52 51 53 54 54
REMARK SMILES IDX 69 55 89 56 52 57 53 58 68 60 90 61 55 62 38 63 39 64 48 65
REMARK SMILES IDX 40 66 41 67 47 68 49 69 42 70 43 71 44 72 45 73 46 74 72 75
REMARK SMILES IDX 73 76 82 77 74 78 75 79 81 80 83 81 76 82 77 83 78 84 79 85
REMARK SMILES IDX 80 86 56 87 57 88 66 89 58 90 59 91 65 92 67 93 60 94 61 95
REMARK SMILES IDX 62 96 63 97 64 98
REMARK H PARENT 88 48 54 59
REMARK Flexibility Score: inf
ROOT
ATOM      1  C   UNL A   1      34.678  29.398  26.939  1.00  0.00     0.274 C 
ENDROOT
BRANCH   1   2
ATOM      2  O   UNL A   1      33.761  28.309  27.130  1.00  0.00    -0.462 OA
BRANCH   2   3
ATOM      3  C   UNL A   1      33.153  27.856  25.993  1.00  0.00     0.313 C 
ATOM      4  O   UNL A   1      33.742  27.708  24.929  1.00  0.00    -0.252 OA
BRANCH   3   5
ATOM      5  C   UNL A   1      31.628  27.716  26.191  1.00  0.00     0.127 C 
ATOM      6  C   UNL A   1      31.194  27.904  27.643  1.00  0.00     0.025 C 
BRANCH   5   7
ATOM      7  C   UNL A   1      31.229  26.352  25.652  1.00  0.00    -0.026 A 
ATOM      8  C   UNL A   1      30.698  26.187  24.358  1.00  0.00    -0.014 A 
ATOM      9  C   UNL A   1      30.817  24.918  23.768  1.00  0.00     0.012 A 
ATOM     10  C   UNL A   1      31.370  23.832  24.464  1.00  0.00    -0.047 A 
ATOM     11  C   UNL A   1      31.622  25.229  26.405  1.00  0.00     0.005 A 
ATOM     12  C   UNL A   1      31.686  23.980  25.815  1.00  0.00     0.004 A 
BRANCH   8  13
ATOM     13  C   UNL A   1      30.017  27.263  23.616  1.00  0.00    -0.018 A 
ATOM     14  C   UNL A   1      28.075  30.549  21.554  1.00  0.00     0.044 C 
ATOM     15  C   UNL A   1      28.760  29.426  22.276  1.00  0.00    -0.051 A 
ATOM     16  C   UNL A   1      28.009  28.504  23.011  1.00  0.00     0.004 A 
ATOM     17  C   UNL A   1      30.142  29.240  22.180  1.00  0.00     0.004 A 
ATOM     18  C   UNL A   1      28.634  27.450  23.689  1.00  0.00     0.009 A 
ATOM     19  C   UNL A   1      30.759  28.169  22.839  1.00  0.00     0.009 A 
ENDBRANCH   8  13
BRANCH  10  20
ATOM     20  C   UNL A   1      31.663  22.526  23.775  1.00  0.00     0.047 C 
BRANCH  20  21
ATOM     21  C   UNL A   1      33.100  22.351  23.262  1.00  0.00     0.060 C 
ATOM     22  C   UNL A   1      33.790  23.614  22.742  1.00  0.00     0.012 C 
ATOM     23  C   UNL A   1      34.076  21.854  24.306  1.00  0.00     0.136 C 
ATOM     24  C   UNL A   1      34.753  24.070  23.829  1.00  0.00     0.009 C 
ATOM     25  C   UNL A   1      35.205  22.816  24.560  1.00  0.00     0.076 C 
ATOM     26  O   UNL A   1      33.988  20.760  24.853  1.00  0.00    -0.299 OA
ENDBRANCH  20  21
ENDBRANCH  10  20
ENDBRANCH   5   7
ENDBRANCH   3   5
ENDBRANCH   2   3
ENDBRANCH   1   2
BRANCH   1  27
ATOM     27  C   UNL A   1      34.062  30.727  27.416  1.00  0.00     0.275 C 
BRANCH  27  28
ATOM     28  O   UNL A   1      34.970  31.779  27.804  1.00  0.00    -0.458 OA
BRANCH  28  29
ATOM     29  C   UNL A   1      35.047  32.053  29.135  1.00  0.00     0.338 C 
ATOM     30  O   UNL A   1      34.104  32.501  29.785  1.00  0.00    -0.246 OA
BRANCH  29  31
ATOM     31  C   UNL A   1      36.297  31.434  29.655  1.00  0.00     0.060 A 
ATOM     32  C   UNL A   1      36.266  30.230  30.374  1.00  0.00     0.016 A 
ATOM     33  C   UNL A   1      37.496  31.887  29.103  1.00  0.00     0.016 A 
ATOM     34  C   UNL A   1      37.404  29.407  30.408  1.00  0.00     0.010 A 
ATOM     35  C   UNL A   1      38.565  31.029  29.030  1.00  0.00     0.010 A 
ATOM     36  C   UNL A   1      38.539  29.785  29.683  1.00  0.00    -0.014 A 
BRANCH  36  37
ATOM     37  C   UNL A   1      39.851  29.133  29.723  1.00  0.00     0.031 A 
ATOM     38  C   UNL A   1      40.163  27.784  29.198  1.00  0.00     0.074 A 
ATOM     39  C   UNL A   1      40.829  29.960  30.158  1.00  0.00     0.049 A 
ATOM     40  N   UNL A   1      41.265  27.149  29.424  1.00  0.00    -0.248 NA
ATOM     41  C   UNL A   1      39.253  27.006  28.379  1.00  0.00     0.031 C 
ATOM     42  C   UNL A   1      42.270  29.811  30.091  1.00  0.00     0.029 A 
ATOM     43  N   UNL A   1      40.645  31.095  30.960  1.00  0.00    -0.354 N 
ATOM     44  C   UNL A   1      41.320  26.035  28.602  1.00  0.00     0.074 A 
ATOM     45  C   UNL A   1      40.003  25.954  28.028  1.00  0.00     0.031 C 
ATOM     46  C   UNL A   1      42.808  30.567  31.067  1.00  0.00     0.029 A 
ATOM     47  C   UNL A   1      41.700  31.083  31.866  1.00  0.00     0.049 A 
ATOM     48  H   UNL A   1      39.922  31.760  30.895  1.00  0.00     0.167 HD
ATOM     49  C   UNL A   1      42.521  25.398  28.434  1.00  0.00     0.037 A 
ATOM     50  C   UNL A   1      41.489  30.839  33.193  1.00  0.00     0.037 A 
ATOM     51  C   UNL A   1      43.492  25.941  29.385  1.00  0.00     0.049 A 
ATOM     52  C   UNL A   1      42.251  29.613  33.632  1.00  0.00     0.074 A 
ATOM     53  C   UNL A   1      44.464  26.919  29.266  1.00  0.00     0.029 A 
ATOM     54  N   UNL A   1      43.307  25.722  30.746  1.00  0.00    -0.354 N 
ATOM     55  N   UNL A   1      42.548  28.612  32.848  1.00  0.00    -0.248 NA
ATOM     56  C   UNL A   1      42.790  29.461  34.978  1.00  0.00     0.031 C 
ATOM     57  C   UNL A   1      44.764  27.385  30.573  1.00  0.00     0.029 A 
ATOM     58  C   UNL A   1      44.010  26.657  31.481  1.00  0.00     0.049 A 
ATOM     59  H   UNL A   1      42.755  25.004  31.130  1.00  0.00     0.167 HD
ATOM     60  C   UNL A   1      43.370  27.747  33.519  1.00  0.00     0.074 A 
ATOM     61  C   UNL A   1      43.468  28.308  34.856  1.00  0.00     0.031 C 
ATOM     62  C   UNL A   1      43.957  26.661  32.934  1.00  0.00     0.037 A 
BRANCH  49  63
ATOM     63  C   UNL A   1      42.930  24.477  27.280  1.00  0.00     0.058 A 
ATOM     64  C   UNL A   1      43.184  23.103  27.521  1.00  0.00     0.135 A 
ATOM     65  C   UNL A   1      43.174  24.871  25.948  1.00  0.00     0.135 A 
ATOM     66  F   UNL A   1      42.929  22.542  28.712  1.00  0.00    -0.206 F 
ATOM     67  C   UNL A   1      43.725  22.232  26.565  1.00  0.00     0.059 A 
ATOM     68  C   UNL A   1      43.733  24.024  24.978  1.00  0.00     0.059 A 
ATOM     69  F   UNL A   1      42.852  26.087  25.501  1.00  0.00    -0.206 F 
ATOM     70  C   UNL A   1      44.030  22.710  25.300  1.00  0.00     0.060 A 
BRANCH  70  71
ATOM     71  S   UNL A   1      44.803  21.603  24.102  1.00  0.00     0.124 S 
ATOM     72  O   UNL A   1      44.377  22.185  22.833  1.00  0.00    -0.237 OA
ATOM     73  O   UNL A   1      46.220  21.740  24.419  1.00  0.00    -0.237 OA
ATOM     74  O   UNL A   1      44.220  20.301  24.413  1.00  0.00    -0.744 OA
ENDBRANCH  70  71
ENDBRANCH  49  63
BRANCH  50  75
ATOM     75  C   UNL A   1      40.156  31.273  33.718  1.00  0.00     0.058 A 
ATOM     76  C   UNL A   1      39.986  32.633  34.051  1.00  0.00     0.135 A 
ATOM     77  C   UNL A   1      38.989  30.507  33.561  1.00  0.00     0.135 A 
ATOM     78  F   UNL A   1      41.061  33.420  34.219  1.00  0.00    -0.206 F 
ATOM     79  C   UNL A   1      38.731  33.235  34.095  1.00  0.00     0.059 A 
ATOM     80  C   UNL A   1      37.715  31.089  33.618  1.00  0.00     0.059 A 
ATOM     81  F   UNL A   1      39.069  29.210  33.235  1.00  0.00    -0.206 F 
ATOM     82  C   UNL A   1      37.601  32.463  33.834  1.00  0.00     0.060 A 
BRANCH  82  83
ATOM     83  S   UNL A   1      36.021  33.323  33.621  1.00  0.00     0.124 S 
ATOM     84  O   UNL A   1      35.624  33.570  35.002  1.00  0.00    -0.237 OA
ATOM     85  O   UNL A   1      36.427  34.498  32.856  1.00  0.00    -0.237 OA
ATOM     86  O   UNL A   1      35.207  32.355  32.895  1.00  0.00    -0.744 OA
ENDBRANCH  82  83
ENDBRANCH  50  75
BRANCH  62  87
ATOM     87  C   UNL A   1      44.660  25.565  33.689  1.00  0.00     0.058 A 
ATOM     88  C   UNL A   1      46.059  25.438  33.729  1.00  0.00     0.135 A 
ATOM     89  C   UNL A   1      43.938  24.682  34.525  1.00  0.00     0.135 A 
ATOM     90  F   UNL A   1      46.855  26.301  33.080  1.00  0.00    -0.206 F 
ATOM     91  C   UNL A   1      46.697  24.445  34.468  1.00  0.00     0.059 A 
ATOM     92  C   UNL A   1      44.557  23.721  35.316  1.00  0.00     0.059 A 
ATOM     93  F   UNL A   1      42.600  24.733  34.611  1.00  0.00    -0.206 F 
ATOM     94  C   UNL A   1      45.937  23.586  35.254  1.00  0.00     0.060 A 
BRANCH  94  95
ATOM     95  S   UNL A   1      46.750  22.319  36.242  1.00  0.00     0.124 S 
ATOM     96  O   UNL A   1      46.986  21.282  35.242  1.00  0.00    -0.237 OA
ATOM     97  O   UNL A   1      47.943  23.003  36.733  1.00  0.00    -0.237 OA
ATOM     98  O   UNL A   1      45.753  22.005  37.260  1.00  0.00    -0.744 OA
ENDBRANCH  94  95
ENDBRANCH  62  87
ENDBRANCH  36  37
ENDBRANCH  29  31
ENDBRANCH  28  29
ENDBRANCH  27  28
ENDBRANCH   1  27
TORSDOF 18
ENDMDL
MODEL 3
REMARK VINA RESULT:     -13.5      2.472      3.571
REMARK SMILES Cc1ccc(-c2cc(C[C@H]3CCCC3=O)ccc2[C@@H](C)C(=O)OCCOC(=O)c2ccc(-c3c4nc(c(-c5c(F)cc(S(=O)(=O)[O-])cc5F)c5ccc([nH]5)c(-c5c(F)cc(S(=O)(=O)[O-])cc5F)c5nc(c(-c6c(F)cc(S(=O)(=O)[O-])cc6F)c6ccc3[nH]6)C=C5)C=C4)cc2)cc1
REMARK SMILES IDX 24 1 23 2 21 3 22 4 19 5 20 6 18 7 6 8 7 9 8 10 17 11 16 12
REMARK SMILES IDX 5 13 1 14 2 15 3 16 96 17 4 18 95 19 9 20 10 21 11 22 14 23
REMARK SMILES IDX 12 24 13 25 15 26 25 27 26 28 27 29 28 30 29 31 30 32 94 33
REMARK SMILES IDX 31 34 93 35 32 36 33 37 34 38 87 39 35 40 92 41 86 42 88 43
REMARK SMILES IDX 36 44 91 45 85 46 84 47 37 49 71 50 50 51 70 52 51 53 54 54
REMARK SMILES IDX 69 55 89 56 52 57 53 58 68 60 90 61 55 62 38 63 39 64 48 65
REMARK SMILES IDX 40 66 41 67 47 68 49 69 42 70 43 71 44 72 45 73 46 74 72 75
REMARK SMILES IDX 73 76 82 77 74 78 75 79 81 80 83 81 76 82 77 83 78 84 79 85
REMARK SMILES IDX 80 86 56 87 57 88 66 89 58 90 59 91 65 92 67 93 60 94 61 95
REMARK SMILES IDX 62 96 63 97 64 98
REMARK H PARENT 88 48 54 59
REMARK Flexibility Score: inf
ROOT
ATOM      1  C   UNL A   1      32.422  30.581  26.116  1.00  0.00     0.274 C 
ENDROOT
BRANCH   1   2
ATOM      2  O   UNL A   1      32.890  29.632  25.145  1.00  0.00    -0.462 OA
BRANCH   2   3
ATOM      3  C   UNL A   1      32.809  28.323  25.527  1.00  0.00     0.313 C 
ATOM      4  O   UNL A   1      33.701  27.508  25.328  1.00  0.00    -0.252 OA
BRANCH   3   5
ATOM      5  C   UNL A   1      31.408  27.989  26.085  1.00  0.00     0.127 C 
ATOM      6  C   UNL A   1      31.372  27.924  27.611  1.00  0.00     0.025 C 
BRANCH   5   7
ATOM      7  C   UNL A   1      30.973  26.678  25.451  1.00  0.00    -0.026 A 
ATOM      8  C   UNL A   1      30.486  26.613  24.131  1.00  0.00    -0.014 A 
ATOM      9  C   UNL A   1      30.575  25.376  23.471  1.00  0.00     0.012 A 
ATOM     10  C   UNL A   1      31.053  24.228  24.121  1.00  0.00    -0.047 A 
ATOM     11  C   UNL A   1      31.288  25.497  26.149  1.00  0.00     0.005 A 
ATOM     12  C   UNL A   1      31.322  24.283  25.488  1.00  0.00     0.004 A 
BRANCH   8  13
ATOM     13  C   UNL A   1      29.881  27.759  23.431  1.00  0.00    -0.018 A 
ATOM     14  C   UNL A   1      28.030  31.018  21.245  1.00  0.00     0.044 C 
ATOM     15  C   UNL A   1      28.656  29.877  21.993  1.00  0.00    -0.051 A 
ATOM     16  C   UNL A   1      30.040  29.688  21.950  1.00  0.00     0.004 A 
ATOM     17  C   UNL A   1      27.888  29.026  22.791  1.00  0.00     0.004 A 
ATOM     18  C   UNL A   1      30.640  28.629  22.643  1.00  0.00     0.009 A 
ATOM     19  C   UNL A   1      28.495  27.983  23.503  1.00  0.00     0.009 A 
ENDBRANCH   8  13
BRANCH  10  20
ATOM     20  C   UNL A   1      31.317  22.952  23.366  1.00  0.00     0.047 C 
BRANCH  20  21
ATOM     21  C   UNL A   1      32.769  22.732  22.917  1.00  0.00     0.060 C 
ATOM     22  C   UNL A   1      33.519  23.971  22.422  1.00  0.00     0.012 C 
ATOM     23  C   UNL A   1      33.684  22.213  24.005  1.00  0.00     0.136 C 
ATOM     24  C   UNL A   1      34.446  24.405  23.548  1.00  0.00     0.009 C 
ATOM     25  C   UNL A   1      34.829  23.143  24.304  1.00  0.00     0.076 C 
ATOM     26  O   UNL A   1      33.539  21.125  24.553  1.00  0.00    -0.299 OA
ENDBRANCH  20  21
ENDBRANCH  10  20
ENDBRANCH   5   7
ENDBRANCH   3   5
ENDBRANCH   2   3
ENDBRANCH   1   2
BRANCH   1  27
ATOM     27  C   UNL A   1      33.566  31.024  27.049  1.00  0.00     0.275 C 
BRANCH  27  28
ATOM     28  O   UNL A   1      33.240  31.947  28.109  1.00  0.00    -0.458 OA
BRANCH  28  29
ATOM     29  C   UNL A   1      34.045  33.037  28.233  1.00  0.00     0.338 C 
ATOM     30  O   UNL A   1      33.659  34.186  28.025  1.00  0.00    -0.246 OA
BRANCH  29  31
ATOM     31  C   UNL A   1      35.286  32.608  28.935  1.00  0.00     0.060 A 
ATOM     32  C   UNL A   1      35.257  31.598  29.908  1.00  0.00     0.016 A 
ATOM     33  C   UNL A   1      36.497  32.977  28.347  1.00  0.00     0.016 A 
ATOM     34  C   UNL A   1      36.417  30.854  30.179  1.00  0.00     0.010 A 
ATOM     35  C   UNL A   1      37.596  32.172  28.520  1.00  0.00     0.010 A 
ATOM     36  C   UNL A   1      37.576  31.109  29.438  1.00  0.00    -0.014 A 
BRANCH  36  37
ATOM     37  C   UNL A   1      38.904  30.541  29.683  1.00  0.00     0.031 A 
ATOM     38  C   UNL A   1      39.369  29.205  29.245  1.00  0.00     0.074 A 
ATOM     39  C   UNL A   1      39.759  31.435  30.231  1.00  0.00     0.049 A 
ATOM     40  N   UNL A   1      40.462  28.644  29.644  1.00  0.00    -0.248 NA
ATOM     41  C   UNL A   1      38.635  28.357  28.325  1.00  0.00     0.031 C 
ATOM     42  C   UNL A   1      41.200  31.376  30.375  1.00  0.00     0.029 A 
ATOM     43  N   UNL A   1      39.394  32.571  30.967  1.00  0.00    -0.354 N 
ATOM     44  C   UNL A   1      40.702  27.521  28.869  1.00  0.00     0.074 A 
ATOM     45  C   UNL A   1      39.489  27.347  28.114  1.00  0.00     0.031 C 
ATOM     46  C   UNL A   1      41.546  32.182  31.398  1.00  0.00     0.029 A 
ATOM     47  C   UNL A   1      40.305  32.642  32.015  1.00  0.00     0.049 A 
ATOM     48  H   UNL A   1      38.649  33.188  30.781  1.00  0.00     0.167 HD
ATOM     49  C   UNL A   1      41.951  26.957  28.892  1.00  0.00     0.037 A 
ATOM     50  C   UNL A   1      39.919  32.410  33.304  1.00  0.00     0.037 A 
ATOM     51  C   UNL A   1      42.739  27.577  29.958  1.00  0.00     0.049 A 
ATOM     52  C   UNL A   1      40.681  31.242  33.882  1.00  0.00     0.074 A 
ATOM     53  C   UNL A   1      43.659  28.612  29.954  1.00  0.00     0.029 A 
ATOM     54  N   UNL A   1      42.372  27.372  31.283  1.00  0.00    -0.354 N 
ATOM     55  N   UNL A   1      41.147  30.248  33.175  1.00  0.00    -0.248 NA
ATOM     56  C   UNL A   1      41.026  31.149  35.294  1.00  0.00     0.031 C 
ATOM     57  C   UNL A   1      43.738  29.120  31.276  1.00  0.00     0.029 A 
ATOM     58  C   UNL A   1      42.905  28.363  32.086  1.00  0.00     0.049 A 
ATOM     59  H   UNL A   1      41.814  26.628  31.604  1.00  0.00     0.167 HD
ATOM     60  C   UNL A   1      41.913  29.449  33.981  1.00  0.00     0.074 A 
ATOM     61  C   UNL A   1      41.783  30.039  35.303  1.00  0.00     0.031 C 
ATOM     62  C   UNL A   1      42.642  28.390  33.516  1.00  0.00     0.037 A 
BRANCH  49  63
ATOM     63  C   UNL A   1      42.576  26.043  27.835  1.00  0.00     0.058 A 
ATOM     64  C   UNL A   1      42.231  24.668  27.788  1.00  0.00     0.135 A 
ATOM     65  C   UNL A   1      43.567  26.408  26.901  1.00  0.00     0.135 A 
ATOM     66  F   UNL A   1      41.251  24.166  28.552  1.00  0.00    -0.206 F 
ATOM     67  C   UNL A   1      42.879  23.730  26.971  1.00  0.00     0.059 A 
ATOM     68  C   UNL A   1      44.244  25.486  26.086  1.00  0.00     0.059 A 
ATOM     69  F   UNL A   1      43.913  27.681  26.698  1.00  0.00    -0.206 F 
ATOM     70  C   UNL A   1      43.911  24.142  26.144  1.00  0.00     0.060 A 
BRANCH  70  71
ATOM     71  S   UNL A   1      44.794  22.916  25.157  1.00  0.00     0.124 S 
ATOM     72  O   UNL A   1      45.492  23.752  24.187  1.00  0.00    -0.237 OA
ATOM     73  O   UNL A   1      45.636  22.261  26.153  1.00  0.00    -0.237 OA
ATOM     74  O   UNL A   1      43.726  22.086  24.606  1.00  0.00    -0.744 OA
ENDBRANCH  70  71
ENDBRANCH  49  63
BRANCH  50  75
ATOM     75  C   UNL A   1      38.501  32.768  33.620  1.00  0.00     0.058 A 
ATOM     76  C   UNL A   1      38.183  34.133  33.784  1.00  0.00     0.135 A 
ATOM     77  C   UNL A   1      37.426  31.888  33.411  1.00  0.00     0.135 A 
ATOM     78  F   UNL A   1      39.164  35.028  33.992  1.00  0.00    -0.206 F 
ATOM     79  C   UNL A   1      36.889  34.620  33.616  1.00  0.00     0.059 A 
ATOM     80  C   UNL A   1      36.114  32.354  33.256  1.00  0.00     0.059 A 
ATOM     81  F   UNL A   1      37.649  30.578  33.237  1.00  0.00    -0.206 F 
ATOM     82  C   UNL A   1      35.865  33.727  33.309  1.00  0.00     0.060 A 
BRANCH  82  83
ATOM     83  S   UNL A   1      34.262  34.414  32.823  1.00  0.00     0.124 S 
ATOM     84  O   UNL A   1      33.359  33.305  33.107  1.00  0.00    -0.237 OA
ATOM     85  O   UNL A   1      34.154  35.566  33.714  1.00  0.00    -0.237 OA
ATOM     86  O   UNL A   1      34.446  34.731  31.411  1.00  0.00    -0.744 OA
ENDBRANCH  82  83
ENDBRANCH  50  75
BRANCH  62  87
ATOM     87  C   UNL A   1      43.292  27.355  34.394  1.00  0.00     0.058 A 
ATOM     88  C   UNL A   1      42.579  26.305  34.998  1.00  0.00     0.135 A 
ATOM     89  C   UNL A   1      44.698  27.306  34.538  1.00  0.00     0.135 A 
ATOM     90  F   UNL A   1      41.256  26.172  34.823  1.00  0.00    -0.206 F 
ATOM     91  C   UNL A   1      43.203  25.329  35.771  1.00  0.00     0.059 A 
ATOM     92  C   UNL A   1      45.347  26.308  35.257  1.00  0.00     0.059 A 
ATOM     93  F   UNL A   1      45.495  28.226  33.970  1.00  0.00    -0.206 F 
ATOM     94  C   UNL A   1      44.587  25.342  35.901  1.00  0.00     0.060 A 
BRANCH  94  95
ATOM     95  S   UNL A   1      45.409  24.067  36.869  1.00  0.00     0.124 S 
ATOM     96  O   UNL A   1      44.940  22.854  36.204  1.00  0.00    -0.237 OA
ATOM     97  O   UNL A   1      46.824  24.377  36.684  1.00  0.00    -0.237 OA
ATOM     98  O   UNL A   1      44.896  24.293  38.216  1.00  0.00    -0.744 OA
ENDBRANCH  94  95
ENDBRANCH  62  87
ENDBRANCH  36  37
ENDBRANCH  29  31
ENDBRANCH  28  29
ENDBRANCH  27  28
ENDBRANCH   1  27
TORSDOF 18
ENDMDL
