MODEL 1
REMARK VINA RESULT:     -12.4      0.000      0.000
REMARK SMILES O=C(Cn1cnc(-c2ccccc2)c1-c1ccccc1)OCCOC(=O)c1ccc(-c2c3nc(c(-c4c(F)cc(S(=O)(=O)[O-])cc4F)c4ccc([nH]4)c(-c4c(F)cc(S(=O)(=O)[O-])cc4F)c4nc(c(-c5c(F)cc(S(=O)(=O)[O-])cc5F)c5ccc2[nH]5)C=C4)C=C3)cc1
REMARK SMILES IDX 23 1 22 2 21 3 2 4 1 5 3 6 4 7 5 8 14 9 6 10 7 11 15 12
REMARK SMILES IDX 16 13 20 14 17 15 19 16 18 17 8 18 9 19 13 20 10 21 12 22
REMARK SMILES IDX 11 23 24 24 25 25 26 26 27 27 28 28 92 29 29 30 91 31 30 32
REMARK SMILES IDX 31 33 32 34 85 35 33 36 90 37 84 38 86 39 34 40 89 41 83 42
REMARK SMILES IDX 82 43 35 45 69 46 48 47 68 48 49 49 52 50 67 51 87 52 50 53
REMARK SMILES IDX 51 54 66 56 88 57 53 58 36 59 37 60 46 61 38 62 39 63 45 64
REMARK SMILES IDX 47 65 40 66 41 67 42 68 43 69 44 70 70 71 71 72 80 73 72 74
REMARK SMILES IDX 73 75 79 76 81 77 74 78 75 79 76 80 77 81 78 82 54 83 55 84
REMARK SMILES IDX 64 85 56 86 57 87 63 88 65 89 58 90 59 91 60 92 61 93 62 94
REMARK H PARENT 86 44 52 55
REMARK Flexibility Score: inf
ROOT
ATOM      1  C   UNL A   1      37.810  21.235  25.251  1.00  0.00     0.275 C 
ENDROOT
BRANCH   1   2
ATOM      2  C   UNL A   1      36.295  21.305  25.264  1.00  0.00     0.274 C 
BRANCH   2   3
ATOM      3  O   UNL A   1      35.802  22.351  26.120  1.00  0.00    -0.461 OA
BRANCH   3   4
ATOM      4  C   UNL A   1      34.999  23.375  25.753  1.00  0.00     0.326 C 
ATOM      5  O   UNL A   1      35.379  24.146  24.869  1.00  0.00    -0.250 OA
BRANCH   4   6
ATOM      6  C   UNL A   1      33.638  23.567  26.383  1.00  0.00     0.246 C 
BRANCH   6   7
ATOM      7  N   UNL A   1      32.634  24.087  25.478  1.00  0.00    -0.319 N 
ATOM      8  C   UNL A   1      31.955  23.300  24.585  1.00  0.00     0.201 A 
ATOM      9  C   UNL A   1      32.206  25.391  25.316  1.00  0.00     0.076 A 
ATOM     10  N   UNL A   1      31.078  23.992  23.899  1.00  0.00    -0.236 NA
ATOM     11  C   UNL A   1      31.245  25.288  24.316  1.00  0.00     0.096 A 
BRANCH   9  12
ATOM     12  C   UNL A   1      32.591  26.575  26.092  1.00  0.00     0.000 A 
ATOM     13  C   UNL A   1      31.638  27.197  26.920  1.00  0.00     0.010 A 
ATOM     14  C   UNL A   1      33.828  27.198  25.910  1.00  0.00     0.010 A 
ATOM     15  C   UNL A   1      31.922  28.399  27.571  1.00  0.00     0.001 A 
ATOM     16  C   UNL A   1      34.095  28.425  26.533  1.00  0.00     0.001 A 
ATOM     17  C   UNL A   1      33.152  29.015  27.375  1.00  0.00     0.000 A 
ENDBRANCH   9  12
BRANCH  11  18
ATOM     18  C   UNL A   1      30.455  26.391  23.811  1.00  0.00     0.002 A 
ATOM     19  C   UNL A   1      31.063  27.364  23.014  1.00  0.00     0.010 A 
ATOM     20  C   UNL A   1      29.079  26.463  24.065  1.00  0.00     0.010 A 
ATOM     21  C   UNL A   1      30.297  28.389  22.457  1.00  0.00     0.001 A 
ATOM     22  C   UNL A   1      28.314  27.487  23.507  1.00  0.00     0.001 A 
ATOM     23  C   UNL A   1      28.925  28.447  22.701  1.00  0.00     0.000 A 
ENDBRANCH  11  18
ENDBRANCH   6   7
ENDBRANCH   4   6
ENDBRANCH   3   4
ENDBRANCH   2   3
ENDBRANCH   1   2
BRANCH   1  24
ATOM     24  O   UNL A   1      38.386  22.421  25.782  1.00  0.00    -0.458 OA
BRANCH  24  25
ATOM     25  C   UNL A   1      39.567  22.329  26.428  1.00  0.00     0.338 C 
ATOM     26  O   UNL A   1      40.335  21.378  26.415  1.00  0.00    -0.246 OA
BRANCH  25  27
ATOM     27  C   UNL A   1      39.755  23.582  27.177  1.00  0.00     0.060 A 
ATOM     28  C   UNL A   1      38.855  24.635  27.023  1.00  0.00     0.016 A 
ATOM     29  C   UNL A   1      40.917  23.738  27.946  1.00  0.00     0.016 A 
ATOM     30  C   UNL A   1      39.210  25.879  27.526  1.00  0.00     0.010 A 
ATOM     31  C   UNL A   1      41.249  24.956  28.481  1.00  0.00     0.010 A 
ATOM     32  C   UNL A   1      40.440  26.037  28.187  1.00  0.00    -0.014 A 
BRANCH  32  33
ATOM     33  C   UNL A   1      40.844  27.337  28.687  1.00  0.00     0.031 A 
ATOM     34  C   UNL A   1      42.043  27.844  27.990  1.00  0.00     0.074 A 
ATOM     35  C   UNL A   1      40.138  28.042  29.598  1.00  0.00     0.049 A 
ATOM     36  N   UNL A   1      43.259  27.743  28.408  1.00  0.00    -0.248 NA
ATOM     37  C   UNL A   1      41.933  28.269  26.586  1.00  0.00     0.031 C 
ATOM     38  C   UNL A   1      38.804  27.764  30.137  1.00  0.00     0.029 A 
ATOM     39  N   UNL A   1      40.463  29.215  30.211  1.00  0.00    -0.354 N 
ATOM     40  C   UNL A   1      44.029  28.395  27.456  1.00  0.00     0.074 A 
ATOM     41  C   UNL A   1      43.218  28.446  26.269  1.00  0.00     0.031 C 
ATOM     42  C   UNL A   1      38.356  28.842  30.825  1.00  0.00     0.029 A 
ATOM     43  C   UNL A   1      39.422  29.826  30.914  1.00  0.00     0.049 A 
ATOM     44  H   UNL A   1      41.366  29.604  30.161  1.00  0.00     0.167 HD
ATOM     45  C   UNL A   1      45.119  29.110  27.848  1.00  0.00     0.037 A 
ATOM     46  C   UNL A   1      39.450  31.049  31.514  1.00  0.00     0.037 A 
ATOM     47  C   UNL A   1      45.487  28.761  29.204  1.00  0.00     0.049 A 
ATOM     48  C   UNL A   1      40.883  31.376  31.746  1.00  0.00     0.074 A 
ATOM     49  C   UNL A   1      45.821  27.585  29.851  1.00  0.00     0.029 A 
ATOM     50  N   UNL A   1      45.126  29.646  30.192  1.00  0.00    -0.354 N 
ATOM     51  N   UNL A   1      41.640  30.726  32.587  1.00  0.00    -0.248 NA
ATOM     52  C   UNL A   1      41.588  32.081  30.688  1.00  0.00     0.031 C 
ATOM     53  C   UNL A   1      45.198  27.677  31.130  1.00  0.00     0.029 A 
ATOM     54  C   UNL A   1      44.610  28.936  31.243  1.00  0.00     0.049 A 
ATOM     55  H   UNL A   1      45.223  30.625  30.151  1.00  0.00     0.167 HD
ATOM     56  C   UNL A   1      42.841  30.554  31.915  1.00  0.00     0.074 A 
ATOM     57  C   UNL A   1      42.774  31.473  30.778  1.00  0.00     0.031 C 
ATOM     58  C   UNL A   1      43.638  29.473  32.169  1.00  0.00     0.037 A 
BRANCH  45  59
ATOM     59  C   UNL A   1      45.565  30.411  27.216  1.00  0.00     0.058 A 
ATOM     60  C   UNL A   1      46.935  30.579  26.918  1.00  0.00     0.135 A 
ATOM     61  C   UNL A   1      44.787  31.590  27.153  1.00  0.00     0.135 A 
ATOM     62  F   UNL A   1      47.774  29.530  26.945  1.00  0.00    -0.206 F 
ATOM     63  C   UNL A   1      47.503  31.827  26.669  1.00  0.00     0.059 A 
ATOM     64  C   UNL A   1      45.325  32.837  26.856  1.00  0.00     0.059 A 
ATOM     65  F   UNL A   1      43.487  31.620  27.457  1.00  0.00    -0.206 F 
ATOM     66  C   UNL A   1      46.688  32.952  26.650  1.00  0.00     0.060 A 
BRANCH  66  67
ATOM     67  S   UNL A   1      47.425  34.570  26.374  1.00  0.00     0.124 S 
ATOM     68  O   UNL A   1      46.242  35.416  26.278  1.00  0.00    -0.237 OA
ATOM     69  O   UNL A   1      48.237  34.734  27.576  1.00  0.00    -0.237 OA
ATOM     70  O   UNL A   1      48.177  34.386  25.136  1.00  0.00    -0.744 OA
ENDBRANCH  66  67
ENDBRANCH  45  59
BRANCH  46  71
ATOM     71  C   UNL A   1      38.391  32.099  31.592  1.00  0.00     0.058 A 
ATOM     72  C   UNL A   1      37.694  32.525  30.440  1.00  0.00     0.135 A 
ATOM     73  C   UNL A   1      37.819  32.470  32.823  1.00  0.00     0.135 A 
ATOM     74  F   UNL A   1      38.153  32.211  29.219  1.00  0.00    -0.206 F 
ATOM     75  C   UNL A   1      36.473  33.212  30.508  1.00  0.00     0.059 A 
ATOM     76  C   UNL A   1      36.607  33.158  32.915  1.00  0.00     0.059 A 
ATOM     77  F   UNL A   1      38.375  32.086  33.982  1.00  0.00    -0.206 F 
ATOM     78  C   UNL A   1      35.922  33.501  31.754  1.00  0.00     0.060 A 
BRANCH  78  79
ATOM     79  S   UNL A   1      34.257  34.207  31.858  1.00  0.00     0.124 S 
ATOM     80  O   UNL A   1      33.787  34.081  30.482  1.00  0.00    -0.237 OA
ATOM     81  O   UNL A   1      33.610  33.336  32.834  1.00  0.00    -0.237 OA
ATOM     82  O   UNL A   1      34.497  35.574  32.312  1.00  0.00    -0.744 OA
ENDBRANCH  78  79
ENDBRANCH  46  71
BRANCH  58  83
ATOM     83  C   UNL A   1      43.396  28.681  33.428  1.00  0.00     0.058 A 
ATOM     84  C   UNL A   1      43.940  28.962  34.694  1.00  0.00     0.135 A 
ATOM     85  C   UNL A   1      42.442  27.653  33.356  1.00  0.00     0.135 A 
ATOM     86  F   UNL A   1      44.781  29.992  34.874  1.00  0.00    -0.206 F 
ATOM     87  C   UNL A   1      43.582  28.221  35.826  1.00  0.00     0.059 A 
ATOM     88  C   UNL A   1      42.045  26.929  34.472  1.00  0.00     0.059 A 
ATOM     89  F   UNL A   1      41.844  27.372  32.186  1.00  0.00    -0.206 F 
ATOM     90  C   UNL A   1      42.633  27.204  35.702  1.00  0.00     0.060 A 
BRANCH  90  91
ATOM     91  S   UNL A   1      42.136  26.268  37.163  1.00  0.00     0.124 S 
ATOM     92  O   UNL A   1      40.814  26.816  37.443  1.00  0.00    -0.237 OA
ATOM     93  O   UNL A   1      42.164  24.890  36.683  1.00  0.00    -0.237 OA
ATOM     94  O   UNL A   1      43.167  26.596  38.147  1.00  0.00    -0.744 OA
ENDBRANCH  90  91
ENDBRANCH  58  83
ENDBRANCH  32  33
ENDBRANCH  25  27
ENDBRANCH  24  25
ENDBRANCH   1  24
TORSDOF 17
ENDMDL
MODEL 2
REMARK VINA RESULT:     -12.2      4.031      7.719
REMARK SMILES O=C(Cn1cnc(-c2ccccc2)c1-c1ccccc1)OCCOC(=O)c1ccc(-c2c3nc(c(-c4c(F)cc(S(=O)(=O)[O-])cc4F)c4ccc([nH]4)c(-c4c(F)cc(S(=O)(=O)[O-])cc4F)c4nc(c(-c5c(F)cc(S(=O)(=O)[O-])cc5F)c5ccc2[nH]5)C=C4)C=C3)cc1
REMARK SMILES IDX 23 1 22 2 21 3 2 4 1 5 3 6 4 7 5 8 14 9 6 10 7 11 15 12
REMARK SMILES IDX 16 13 20 14 17 15 19 16 18 17 8 18 9 19 13 20 10 21 12 22
REMARK SMILES IDX 11 23 24 24 25 25 26 26 27 27 28 28 92 29 29 30 91 31 30 32
REMARK SMILES IDX 31 33 32 34 85 35 33 36 90 37 84 38 86 39 34 40 89 41 83 42
REMARK SMILES IDX 82 43 35 45 69 46 48 47 68 48 49 49 52 50 67 51 87 52 50 53
REMARK SMILES IDX 51 54 66 56 88 57 53 58 36 59 37 60 46 61 38 62 39 63 45 64
REMARK SMILES IDX 47 65 40 66 41 67 42 68 43 69 44 70 70 71 71 72 80 73 72 74
REMARK SMILES IDX 73 75 79 76 81 77 74 78 75 79 76 80 77 81 78 82 54 83 55 84
REMARK SMILES IDX 64 85 56 86 57 87 63 88 65 89 58 90 59 91 60 92 61 93 62 94
REMARK H PARENT 86 44 52 55
REMARK Flexibility Score: inf
ROOT
ATOM      1  C   UNL A   1      41.648  20.867  25.876  1.00  0.00     0.275 C 
ENDROOT
BRANCH   1   2
ATOM      2  C   UNL A   1      42.997  21.560  25.834  1.00  0.00     0.274 C 
BRANCH   2   3
ATOM      3  O   UNL A   1      43.047  22.601  24.842  1.00  0.00    -0.461 OA
BRANCH   3   4
ATOM      4  C   UNL A   1      44.040  23.504  24.678  1.00  0.00     0.326 C 
ATOM      5  O   UNL A   1      44.908  23.291  23.828  1.00  0.00    -0.250 OA
BRANCH   4   6
ATOM      6  C   UNL A   1      44.083  24.776  25.494  1.00  0.00     0.246 C 
BRANCH   6   7
ATOM      7  N   UNL A   1      45.201  24.855  26.410  1.00  0.00    -0.319 N 
ATOM      8  C   UNL A   1      45.184  24.293  27.660  1.00  0.00     0.201 A 
ATOM      9  C   UNL A   1      46.416  25.493  26.241  1.00  0.00     0.076 A 
ATOM     10  N   UNL A   1      46.321  24.471  28.287  1.00  0.00    -0.236 NA
ATOM     11  C   UNL A   1      47.078  25.238  27.437  1.00  0.00     0.096 A 
BRANCH   9  12
ATOM     12  C   UNL A   1      46.925  26.174  25.045  1.00  0.00     0.000 A 
ATOM     13  C   UNL A   1      47.975  25.590  24.313  1.00  0.00     0.010 A 
ATOM     14  C   UNL A   1      46.506  27.462  24.703  1.00  0.00     0.010 A 
ATOM     15  C   UNL A   1      48.577  26.266  23.250  1.00  0.00     0.001 A 
ATOM     16  C   UNL A   1      47.138  28.153  23.661  1.00  0.00     0.001 A 
ATOM     17  C   UNL A   1      48.158  27.551  22.925  1.00  0.00     0.000 A 
ENDBRANCH   9  12
BRANCH  11  18
ATOM     18  C   UNL A   1      48.429  25.660  27.742  1.00  0.00     0.002 A 
ATOM     19  C   UNL A   1      49.495  24.797  27.476  1.00  0.00     0.010 A 
ATOM     20  C   UNL A   1      48.684  26.941  28.248  1.00  0.00     0.010 A 
ATOM     21  C   UNL A   1      50.807  25.221  27.693  1.00  0.00     0.001 A 
ATOM     22  C   UNL A   1      49.994  27.364  28.463  1.00  0.00     0.001 A 
ATOM     23  C   UNL A   1      51.055  26.503  28.183  1.00  0.00     0.000 A 
ENDBRANCH  11  18
ENDBRANCH   6   7
ENDBRANCH   4   6
ENDBRANCH   3   4
ENDBRANCH   2   3
ENDBRANCH   1   2
BRANCH   1  24
ATOM     24  O   UNL A   1      40.816  21.421  26.886  1.00  0.00    -0.458 OA
BRANCH  24  25
ATOM     25  C   UNL A   1      39.804  22.231  26.512  1.00  0.00     0.338 C 
ATOM     26  O   UNL A   1      38.924  21.976  25.702  1.00  0.00    -0.246 OA
BRANCH  25  27
ATOM     27  C   UNL A   1      39.964  23.498  27.243  1.00  0.00     0.060 A 
ATOM     28  C   UNL A   1      39.061  24.542  27.050  1.00  0.00     0.016 A 
ATOM     29  C   UNL A   1      41.107  23.677  28.038  1.00  0.00     0.016 A 
ATOM     30  C   UNL A   1      39.394  25.797  27.539  1.00  0.00     0.010 A 
ATOM     31  C   UNL A   1      41.417  24.906  28.559  1.00  0.00     0.010 A 
ATOM     32  C   UNL A   1      40.607  25.976  28.227  1.00  0.00    -0.014 A 
BRANCH  32  33
ATOM     33  C   UNL A   1      40.988  27.287  28.713  1.00  0.00     0.031 A 
ATOM     34  C   UNL A   1      42.183  27.805  28.017  1.00  0.00     0.074 A 
ATOM     35  C   UNL A   1      40.268  27.992  29.613  1.00  0.00     0.049 A 
ATOM     36  N   UNL A   1      43.399  27.726  28.442  1.00  0.00    -0.248 NA
ATOM     37  C   UNL A   1      42.075  28.211  26.607  1.00  0.00     0.031 C 
ATOM     38  C   UNL A   1      38.934  27.701  30.147  1.00  0.00     0.029 A 
ATOM     39  N   UNL A   1      40.571  29.178  30.213  1.00  0.00    -0.354 N 
ATOM     40  C   UNL A   1      44.164  28.379  27.487  1.00  0.00     0.074 A 
ATOM     41  C   UNL A   1      43.359  28.404  26.295  1.00  0.00     0.031 C 
ATOM     42  C   UNL A   1      38.467  28.780  30.821  1.00  0.00     0.029 A 
ATOM     43  C   UNL A   1      39.518  29.781  30.904  1.00  0.00     0.049 A 
ATOM     44  H   UNL A   1      41.469  29.579  30.164  1.00  0.00     0.167 HD
ATOM     45  C   UNL A   1      45.242  29.114  27.876  1.00  0.00     0.037 A 
ATOM     46  C   UNL A   1      39.525  31.011  31.489  1.00  0.00     0.037 A 
ATOM     47  C   UNL A   1      45.607  28.786  29.238  1.00  0.00     0.049 A 
ATOM     48  C   UNL A   1      40.951  31.362  31.725  1.00  0.00     0.074 A 
ATOM     49  C   UNL A   1      45.955  27.623  29.900  1.00  0.00     0.029 A 
ATOM     50  N   UNL A   1      45.227  29.678  30.214  1.00  0.00    -0.354 N 
ATOM     51  N   UNL A   1      41.714  30.733  32.578  1.00  0.00    -0.248 NA
ATOM     52  C   UNL A   1      41.651  32.065  30.662  1.00  0.00     0.031 C 
ATOM     53  C   UNL A   1      45.324  27.721  31.175  1.00  0.00     0.029 A 
ATOM     54  C   UNL A   1      44.717  28.972  31.270  1.00  0.00     0.049 A 
ATOM     55  H   UNL A   1      45.311  30.657  30.161  1.00  0.00     0.167 HD
ATOM     56  C   UNL A   1      42.920  30.571  31.914  1.00  0.00     0.074 A 
ATOM     57  C   UNL A   1      42.846  31.476  30.766  1.00  0.00     0.031 C 
ATOM     58  C   UNL A   1      43.732  29.506  32.185  1.00  0.00     0.037 A 
BRANCH  45  59
ATOM     59  C   UNL A   1      45.672  30.415  27.231  1.00  0.00     0.058 A 
ATOM     60  C   UNL A   1      47.050  30.635  27.018  1.00  0.00     0.135 A 
ATOM     61  C   UNL A   1      44.849  31.554  27.078  1.00  0.00     0.135 A 
ATOM     62  F   UNL A   1      47.930  29.627  27.134  1.00  0.00    -0.206 F 
ATOM     63  C   UNL A   1      47.578  31.900  26.765  1.00  0.00     0.059 A 
ATOM     64  C   UNL A   1      45.351  32.814  26.775  1.00  0.00     0.059 A 
ATOM     65  F   UNL A   1      43.531  31.534  27.296  1.00  0.00    -0.206 F 
ATOM     66  C   UNL A   1      46.717  32.985  26.655  1.00  0.00     0.060 A 
BRANCH  66  67
ATOM     67  S   UNL A   1      47.400  34.626  26.374  1.00  0.00     0.124 S 
ATOM     68  O   UNL A   1      47.922  34.496  25.019  1.00  0.00    -0.237 OA
ATOM     69  O   UNL A   1      46.219  35.469  26.530  1.00  0.00    -0.237 OA
ATOM     70  O   UNL A   1      48.401  34.756  27.430  1.00  0.00    -0.744 OA
ENDBRANCH  66  67
ENDBRANCH  45  59
BRANCH  46  71
ATOM     71  C   UNL A   1      38.450  32.046  31.550  1.00  0.00     0.058 A 
ATOM     72  C   UNL A   1      37.810  32.508  30.379  1.00  0.00     0.135 A 
ATOM     73  C   UNL A   1      37.809  32.364  32.761  1.00  0.00     0.135 A 
ATOM     74  F   UNL A   1      38.337  32.245  29.173  1.00  0.00    -0.206 F 
ATOM     75  C   UNL A   1      36.578  33.179  30.407  1.00  0.00     0.059 A 
ATOM     76  C   UNL A   1      36.584  33.034  32.814  1.00  0.00     0.059 A 
ATOM     77  F   UNL A   1      38.307  31.942  33.934  1.00  0.00    -0.206 F 
ATOM     78  C   UNL A   1      35.959  33.414  31.632  1.00  0.00     0.060 A 
BRANCH  78  79
ATOM     79  S   UNL A   1      34.281  34.098  31.672  1.00  0.00     0.124 S 
ATOM     80  O   UNL A   1      33.633  33.253  32.671  1.00  0.00    -0.237 OA
ATOM     81  O   UNL A   1      34.518  35.483  32.066  1.00  0.00    -0.237 OA
ATOM     82  O   UNL A   1      33.809  33.916  30.302  1.00  0.00    -0.744 OA
ENDBRANCH  78  79
ENDBRANCH  46  71
BRANCH  58  83
ATOM     83  C   UNL A   1      43.495  28.724  33.451  1.00  0.00     0.058 A 
ATOM     84  C   UNL A   1      43.970  29.067  34.730  1.00  0.00     0.135 A 
ATOM     85  C   UNL A   1      42.616  27.633  33.367  1.00  0.00     0.135 A 
ATOM     86  F   UNL A   1      44.733  30.155  34.917  1.00  0.00    -0.206 F 
ATOM     87  C   UNL A   1      43.619  28.327  35.864  1.00  0.00     0.059 A 
ATOM     88  C   UNL A   1      42.224  26.906  34.484  1.00  0.00     0.059 A 
ATOM     89  F   UNL A   1      42.083  27.289  32.183  1.00  0.00    -0.206 F 
ATOM     90  C   UNL A   1      42.745  27.246  35.729  1.00  0.00     0.060 A 
BRANCH  90  91
ATOM     91  S   UNL A   1      42.255  26.307  37.192  1.00  0.00     0.124 S 
ATOM     92  O   UNL A   1      43.280  26.689  38.157  1.00  0.00    -0.237 OA
ATOM     93  O   UNL A   1      40.912  26.812  37.457  1.00  0.00    -0.237 OA
ATOM     94  O   UNL A   1      42.312  24.918  36.741  1.00  0.00    -0.744 OA
ENDBRANCH  90  91
ENDBRANCH  58  83
ENDBRANCH  32  33
ENDBRANCH  25  27
ENDBRANCH  24  25
ENDBRANCH   1  24
TORSDOF 17
ENDMDL
MODEL 3
REMARK VINA RESULT:     -12.0      4.150      7.500
REMARK SMILES O=C(Cn1cnc(-c2ccccc2)c1-c1ccccc1)OCCOC(=O)c1ccc(-c2c3nc(c(-c4c(F)cc(S(=O)(=O)[O-])cc4F)c4ccc([nH]4)c(-c4c(F)cc(S(=O)(=O)[O-])cc4F)c4nc(c(-c5c(F)cc(S(=O)(=O)[O-])cc5F)c5ccc2[nH]5)C=C4)C=C3)cc1
REMARK SMILES IDX 23 1 22 2 21 3 2 4 1 5 3 6 4 7 5 8 14 9 6 10 7 11 15 12
REMARK SMILES IDX 16 13 20 14 17 15 19 16 18 17 8 18 9 19 13 20 10 21 12 22
REMARK SMILES IDX 11 23 24 24 25 25 26 26 27 27 28 28 92 29 29 30 91 31 30 32
REMARK SMILES IDX 31 33 32 34 85 35 33 36 90 37 84 38 86 39 34 40 89 41 83 42
REMARK SMILES IDX 82 43 35 45 69 46 48 47 68 48 49 49 52 50 67 51 87 52 50 53
REMARK SMILES IDX 51 54 66 56 88 57 53 58 36 59 37 60 46 61 38 62 39 63 45 64
REMARK SMILES IDX 47 65 40 66 41 67 42 68 43 69 44 70 70 71 71 72 80 73 72 74
REMARK SMILES IDX 73 75 79 76 81 77 74 78 75 79 76 80 77 81 78 82 54 83 55 84
REMARK SMILES IDX 64 85 56 86 57 87 63 88 65 89 58 90 59 91 60 92 61 93 62 94
REMARK H PARENT 86 44 52 55
REMARK Flexibility Score: inf
ROOT
ATOM      1  C   UNL A   1      41.587  20.856  26.152  1.00  0.00     0.275 C 
ENDROOT
BRANCH   1   2
ATOM      2  C   UNL A   1      42.960  21.404  25.812  1.00  0.00     0.274 C 
BRANCH   2   3
ATOM      3  O   UNL A   1      42.891  22.575  24.978  1.00  0.00    -0.461 OA
BRANCH   3   4
ATOM      4  C   UNL A   1      43.915  23.406  24.679  1.00  0.00     0.326 C 
ATOM      5  O   UNL A   1      44.832  22.993  23.966  1.00  0.00    -0.250 OA
BRANCH   4   6
ATOM      6  C   UNL A   1      43.935  24.834  25.176  1.00  0.00     0.246 C 
BRANCH   6   7
ATOM      7  N   UNL A   1      45.236  25.287  25.622  1.00  0.00    -0.319 N 
ATOM      8  C   UNL A   1      46.152  25.869  24.785  1.00  0.00     0.201 A 
ATOM      9  C   UNL A   1      45.796  25.205  26.884  1.00  0.00     0.076 A 
ATOM     10  N   UNL A   1      47.240  26.221  25.426  1.00  0.00    -0.236 NA
ATOM     11  C   UNL A   1      47.047  25.789  26.713  1.00  0.00     0.096 A 
BRANCH   9  12
ATOM     12  C   UNL A   1      45.175  24.725  28.123  1.00  0.00     0.000 A 
ATOM     13  C   UNL A   1      44.969  25.625  29.185  1.00  0.00     0.010 A 
ATOM     14  C   UNL A   1      44.930  23.367  28.339  1.00  0.00     0.010 A 
ATOM     15  C   UNL A   1      44.505  25.183  30.425  1.00  0.00     0.001 A 
ATOM     16  C   UNL A   1      44.502  22.922  29.597  1.00  0.00     0.001 A 
ATOM     17  C   UNL A   1      44.273  23.828  30.632  1.00  0.00     0.000 A 
ENDBRANCH   9  12
BRANCH  11  18
ATOM     18  C   UNL A   1      48.017  25.989  27.769  1.00  0.00     0.002 A 
ATOM     19  C   UNL A   1      48.918  24.967  28.079  1.00  0.00     0.010 A 
ATOM     20  C   UNL A   1      48.100  27.214  28.446  1.00  0.00     0.010 A 
ATOM     21  C   UNL A   1      49.908  25.176  29.041  1.00  0.00     0.001 A 
ATOM     22  C   UNL A   1      49.089  27.422  29.405  1.00  0.00     0.001 A 
ATOM     23  C   UNL A   1      49.994  26.403  29.699  1.00  0.00     0.000 A 
ENDBRANCH  11  18
ENDBRANCH   6   7
ENDBRANCH   4   6
ENDBRANCH   3   4
ENDBRANCH   2   3
ENDBRANCH   1   2
BRANCH   1  24
ATOM     24  O   UNL A   1      40.938  21.661  27.129  1.00  0.00    -0.458 OA
BRANCH  24  25
ATOM     25  C   UNL A   1      39.933  22.467  26.731  1.00  0.00     0.338 C 
ATOM     26  O   UNL A   1      38.922  22.135  26.128  1.00  0.00    -0.246 OA
BRANCH  25  27
ATOM     27  C   UNL A   1      40.285  23.838  27.137  1.00  0.00     0.060 A 
ATOM     28  C   UNL A   1      41.365  24.064  27.990  1.00  0.00     0.016 A 
ATOM     29  C   UNL A   1      39.442  24.891  26.752  1.00  0.00     0.016 A 
ATOM     30  C   UNL A   1      41.496  25.321  28.561  1.00  0.00     0.010 A 
ATOM     31  C   UNL A   1      39.597  26.146  27.282  1.00  0.00     0.010 A 
ATOM     32  C   UNL A   1      40.564  26.327  28.253  1.00  0.00    -0.014 A 
BRANCH  32  33
ATOM     33  C   UNL A   1      40.665  27.636  28.869  1.00  0.00     0.031 A 
ATOM     34  C   UNL A   1      41.731  28.451  28.253  1.00  0.00     0.074 A 
ATOM     35  C   UNL A   1      39.810  28.089  29.811  1.00  0.00     0.049 A 
ATOM     36  N   UNL A   1      42.935  28.582  28.698  1.00  0.00    -0.248 NA
ATOM     37  C   UNL A   1      41.548  28.959  26.884  1.00  0.00     0.031 C 
ATOM     38  C   UNL A   1      38.563  27.482  30.284  1.00  0.00     0.029 A 
ATOM     39  N   UNL A   1      39.861  29.248  30.526  1.00  0.00    -0.354 N 
ATOM     40  C   UNL A   1      43.554  29.465  27.827  1.00  0.00     0.074 A 
ATOM     41  C   UNL A   1      42.768  29.439  26.623  1.00  0.00     0.031 C 
ATOM     42  C   UNL A   1      37.880  28.373  31.043  1.00  0.00     0.029 A 
ATOM     43  C   UNL A   1      38.703  29.554  31.244  1.00  0.00     0.049 A 
ATOM     44  H   UNL A   1      40.657  29.827  30.537  1.00  0.00     0.167 HD
ATOM     45  C   UNL A   1      44.456  30.365  28.309  1.00  0.00     0.037 A 
ATOM     46  C   UNL A   1      38.453  30.698  31.941  1.00  0.00     0.037 A 
ATOM     47  C   UNL A   1      44.874  29.989  29.643  1.00  0.00     0.049 A 
ATOM     48  C   UNL A   1      39.775  31.309  32.244  1.00  0.00     0.074 A 
ATOM     49  C   UNL A   1      45.451  28.864  30.202  1.00  0.00     0.029 A 
ATOM     50  N   UNL A   1      44.314  30.687  30.687  1.00  0.00    -0.354 N 
ATOM     51  N   UNL A   1      40.647  30.770  33.053  1.00  0.00    -0.248 NA
ATOM     52  C   UNL A   1      40.321  32.239  31.268  1.00  0.00     0.031 C 
ATOM     53  C   UNL A   1      44.807  28.708  31.465  1.00  0.00     0.029 A 
ATOM     54  C   UNL A   1      43.955  29.794  31.661  1.00  0.00     0.049 A 
ATOM     55  H   UNL A   1      44.195  31.663  30.728  1.00  0.00     0.167 HD
ATOM     56  C   UNL A   1      41.864  30.923  32.406  1.00  0.00     0.074 A 
ATOM     57  C   UNL A   1      41.611  31.899  31.345  1.00  0.00     0.031 C 
ATOM     58  C   UNL A   1      42.876  30.025  32.597  1.00  0.00     0.037 A 
BRANCH  45  59
ATOM     59  C   UNL A   1      44.612  31.781  27.798  1.00  0.00     0.058 A 
ATOM     60  C   UNL A   1      45.795  32.118  27.103  1.00  0.00     0.135 A 
ATOM     61  C   UNL A   1      43.813  32.878  28.194  1.00  0.00     0.135 A 
ATOM     62  F   UNL A   1      46.634  31.160  26.676  1.00  0.00    -0.206 F 
ATOM     63  C   UNL A   1      46.197  33.437  26.900  1.00  0.00     0.059 A 
ATOM     64  C   UNL A   1      44.171  34.200  27.955  1.00  0.00     0.059 A 
ATOM     65  F   UNL A   1      42.691  32.741  28.905  1.00  0.00    -0.206 F 
ATOM     66  C   UNL A   1      45.380  34.471  27.340  1.00  0.00     0.060 A 
BRANCH  66  67
ATOM     67  S   UNL A   1      45.918  36.174  27.120  1.00  0.00     0.124 S 
ATOM     68  O   UNL A   1      46.726  36.380  28.315  1.00  0.00    -0.237 OA
ATOM     69  O   UNL A   1      46.645  36.093  25.857  1.00  0.00    -0.237 OA
ATOM     70  O   UNL A   1      44.661  36.916  27.067  1.00  0.00    -0.744 OA
ENDBRANCH  66  67
ENDBRANCH  45  59
BRANCH  46  71
ATOM     71  C   UNL A   1      37.188  31.481  32.071  1.00  0.00     0.058 A 
ATOM     72  C   UNL A   1      36.782  32.019  33.312  1.00  0.00     0.135 A 
ATOM     73  C   UNL A   1      36.525  31.990  30.939  1.00  0.00     0.135 A 
ATOM     74  F   UNL A   1      37.364  31.607  34.449  1.00  0.00    -0.206 F 
ATOM     75  C   UNL A   1      35.831  33.045  33.414  1.00  0.00     0.059 A 
ATOM     76  C   UNL A   1      35.571  33.009  31.017  1.00  0.00     0.059 A 
ATOM     77  F   UNL A   1      36.857  31.579  29.706  1.00  0.00    -0.206 F 
ATOM     78  C   UNL A   1      35.249  33.553  32.256  1.00  0.00     0.060 A 
BRANCH  78  79
ATOM     79  S   UNL A   1      34.173  35.007  32.355  1.00  0.00     0.124 S 
ATOM     80  O   UNL A   1      34.932  35.888  33.237  1.00  0.00    -0.237 OA
ATOM     81  O   UNL A   1      34.084  35.425  30.959  1.00  0.00    -0.237 OA
ATOM     82  O   UNL A   1      32.936  34.474  32.920  1.00  0.00    -0.744 OA
ENDBRANCH  78  79
ENDBRANCH  46  71
BRANCH  58  83
ATOM     83  C   UNL A   1      42.799  29.093  33.779  1.00  0.00     0.058 A 
ATOM     84  C   UNL A   1      43.165  29.410  35.100  1.00  0.00     0.135 A 
ATOM     85  C   UNL A   1      42.187  27.848  33.566  1.00  0.00     0.135 A 
ATOM     86  F   UNL A   1      43.664  30.616  35.411  1.00  0.00    -0.206 F 
ATOM     87  C   UNL A   1      42.969  28.506  36.150  1.00  0.00     0.059 A 
ATOM     88  C   UNL A   1      41.949  26.951  34.599  1.00  0.00     0.059 A 
ATOM     89  F   UNL A   1      41.764  27.510  32.337  1.00  0.00    -0.206 F 
ATOM     90  C   UNL A   1      42.361  27.277  35.887  1.00  0.00     0.060 A 
BRANCH  90  91
ATOM     91  S   UNL A   1      42.069  26.120  37.242  1.00  0.00     0.124 S 
ATOM     92  O   UNL A   1      43.012  26.586  38.252  1.00  0.00    -0.237 OA
ATOM     93  O   UNL A   1      40.658  26.334  37.543  1.00  0.00    -0.237 OA
ATOM     94  O   UNL A   1      42.381  24.818  36.653  1.00  0.00    -0.744 OA
ENDBRANCH  90  91
ENDBRANCH  58  83
ENDBRANCH  32  33
ENDBRANCH  25  27
ENDBRANCH  24  25
ENDBRANCH   1  24
TORSDOF 17
ENDMDL
