MODEL 1
REMARK VINA RESULT:     -11.3      0.000      0.000
REMARK SMILES Cc1c(CC(=O)OCCOC(=O)c2ccc(-c3c4nc(c(-c5c(F)cc(S(=O)(=O)[O-])cc5F)c5ccc([nH]5)c(-c5c(F)cc(S(=O)(=O)[O-])cc5F)c5nc(c(-c6c(F)cc(S(=O)(=O)[O-])cc6F)c6ccc3[nH]6)C=C5)C=C4)cc2)c(O)oc2cc(=O)cc(O)c1-2
REMARK SMILES IDX 9 1 8 2 7 3 5 4 6 5 4 6 3 7 1 8 2 9 89 10 79 11 82 12 87 13
REMARK SMILES IDX 81 14 83 15 86 16 84 17 85 18 80 19 88 21 10 23 11 24 12 25
REMARK SMILES IDX 13 26 14 27 78 28 15 29 77 30 16 31 17 32 18 33 71 34 19 35
REMARK SMILES IDX 76 36 70 37 72 38 20 39 75 40 69 41 68 42 21 44 55 45 34 46
REMARK SMILES IDX 54 47 35 48 38 49 53 50 73 51 36 52 37 53 52 55 74 56 39 57
REMARK SMILES IDX 22 58 23 59 32 60 24 61 25 62 31 63 33 64 26 65 27 66 28 67
REMARK SMILES IDX 29 68 30 69 56 70 57 71 66 72 58 73 59 74 65 75 67 76 60 77
REMARK SMILES IDX 61 78 62 79 63 80 64 81 40 82 41 83 50 84 42 85 43 86 49 87
REMARK SMILES IDX 51 88 44 89 45 90 46 91 47 92 48 93
REMARK H PARENT 80 20 88 22 72 43 38 54
REMARK Flexibility Score: inf
ROOT
ATOM      1  C   UNL A   1      32.453  29.773  26.935  1.00  0.00     0.275 C 
ENDROOT
BRANCH   1   2
ATOM      2  C   UNL A   1      32.562  29.796  25.413  1.00  0.00     0.274 C 
BRANCH   2   3
ATOM      3  O   UNL A   1      31.263  29.590  24.822  1.00  0.00    -0.462 OA
BRANCH   3   4
ATOM      4  C   UNL A   1      31.260  28.974  23.612  1.00  0.00     0.310 C 
ATOM      5  O   UNL A   1      32.017  29.252  22.686  1.00  0.00    -0.252 OA
BRANCH   4   6
ATOM      6  C   UNL A   1      30.258  27.836  23.488  1.00  0.00     0.166 C 
BRANCH   6   7
ATOM      7  C   UNL A   1      30.813  26.424  23.519  1.00  0.00     0.048 A 
ATOM      8  C   UNL A   1      30.333  26.271  26.038  1.00  0.00     0.046 C 
ATOM      9  C   UNL A   1      30.715  25.592  24.741  1.00  0.00    -0.026 A 
ATOM     10  C   UNL A   1      31.021  24.265  24.682  1.00  0.00     0.063 A 
ATOM     11  C   UNL A   1      31.365  25.884  22.409  1.00  0.00     0.286 A 
ATOM     12  C   UNL A   1      31.656  23.749  23.460  1.00  0.00     0.146 A 
ATOM     13  C   UNL A   1      30.783  23.297  25.773  1.00  0.00     0.130 A 
ATOM     14  O   UNL A   1      31.793  24.576  22.361  1.00  0.00    -0.425 OA
ATOM     15  C   UNL A   1      32.181  22.518  23.411  1.00  0.00     0.100 A 
ATOM     16  C   UNL A   1      31.303  22.063  25.737  1.00  0.00     0.099 A 
ATOM     17  C   UNL A   1      32.095  21.616  24.573  1.00  0.00     0.186 A 
ATOM     18  O   UNL A   1      32.625  20.511  24.555  1.00  0.00    -0.290 OA
BRANCH  11  19
ATOM     19  O   UNL A   1      31.512  26.594  21.236  1.00  0.00    -0.480 OA
ATOM     20  H   UNL A   1      32.001  27.393  21.229  1.00  0.00     0.297 HD
ENDBRANCH  11  19
BRANCH  13  21
ATOM     21  O   UNL A   1      29.922  23.676  26.782  1.00  0.00    -0.507 OA
ATOM     22  H   UNL A   1      29.758  24.584  26.941  1.00  0.00     0.293 HD
ENDBRANCH  13  21
ENDBRANCH   6   7
ENDBRANCH   4   6
ENDBRANCH   3   4
ENDBRANCH   2   3
ENDBRANCH   1   2
BRANCH   1  23
ATOM     23  O   UNL A   1      33.717  29.377  27.495  1.00  0.00    -0.458 OA
BRANCH  23  24
ATOM     24  C   UNL A   1      34.439  30.373  28.061  1.00  0.00     0.338 C 
ATOM     25  O   UNL A   1      34.046  31.495  28.334  1.00  0.00    -0.246 OA
BRANCH  24  26
ATOM     26  C   UNL A   1      35.827  29.923  28.313  1.00  0.00     0.060 A 
ATOM     27  C   UNL A   1      36.243  29.489  29.576  1.00  0.00     0.016 A 
ATOM     28  C   UNL A   1      36.755  30.032  27.276  1.00  0.00     0.016 A 
ATOM     29  C   UNL A   1      37.594  29.229  29.814  1.00  0.00     0.010 A 
ATOM     30  C   UNL A   1      38.091  29.688  27.495  1.00  0.00     0.010 A 
ATOM     31  C   UNL A   1      38.532  29.305  28.771  1.00  0.00    -0.014 A 
BRANCH  31  32
ATOM     32  C   UNL A   1      39.966  28.970  28.990  1.00  0.00     0.031 A 
ATOM     33  C   UNL A   1      40.929  30.018  29.485  1.00  0.00     0.074 A 
ATOM     34  C   UNL A   1      40.420  27.735  28.696  1.00  0.00     0.049 A 
ATOM     35  N   UNL A   1      42.236  29.975  29.548  1.00  0.00    -0.248 NA
ATOM     36  C   UNL A   1      40.350  31.286  29.959  1.00  0.00     0.031 C 
ATOM     37  C   UNL A   1      39.597  26.620  28.220  1.00  0.00     0.029 A 
ATOM     38  N   UNL A   1      41.688  27.212  28.740  1.00  0.00    -0.354 N 
ATOM     39  C   UNL A   1      42.638  31.216  30.026  1.00  0.00     0.074 A 
ATOM     40  C   UNL A   1      41.437  31.996  30.234  1.00  0.00     0.031 C 
ATOM     41  C   UNL A   1      40.377  25.544  28.034  1.00  0.00     0.029 A 
ATOM     42  C   UNL A   1      41.763  25.910  28.307  1.00  0.00     0.049 A 
ATOM     43  H   UNL A   1      42.472  27.721  29.054  1.00  0.00     0.167 HD
ATOM     44  C   UNL A   1      43.894  31.662  30.269  1.00  0.00     0.037 A 
ATOM     45  C   UNL A   1      42.826  25.107  28.105  1.00  0.00     0.037 A 
ATOM     46  C   UNL A   1      45.086  30.869  30.106  1.00  0.00     0.049 A 
ATOM     47  C   UNL A   1      44.209  25.632  28.359  1.00  0.00     0.074 A 
ATOM     48  C   UNL A   1      46.398  31.227  30.366  1.00  0.00     0.029 A 
ATOM     49  N   UNL A   1      45.113  29.560  29.652  1.00  0.00    -0.354 N 
ATOM     50  N   UNL A   1      44.572  26.818  28.784  1.00  0.00    -0.248 NA
ATOM     51  C   UNL A   1      45.328  24.719  28.088  1.00  0.00     0.031 C 
ATOM     52  C   UNL A   1      47.222  30.144  30.040  1.00  0.00     0.029 A 
ATOM     53  C   UNL A   1      46.419  29.101  29.610  1.00  0.00     0.049 A 
ATOM     54  H   UNL A   1      44.321  29.034  29.396  1.00  0.00     0.167 HD
ATOM     55  C   UNL A   1      45.960  26.794  28.831  1.00  0.00     0.074 A 
ATOM     56  C   UNL A   1      46.373  25.470  28.412  1.00  0.00     0.031 C 
ATOM     57  C   UNL A   1      46.816  27.784  29.184  1.00  0.00     0.037 A 
BRANCH  44  58
ATOM     58  C   UNL A   1      44.062  33.081  30.733  1.00  0.00     0.058 A 
ATOM     59  C   UNL A   1      44.171  34.144  29.825  1.00  0.00     0.135 A 
ATOM     60  C   UNL A   1      44.027  33.388  32.103  1.00  0.00     0.135 A 
ATOM     61  F   UNL A   1      44.226  33.903  28.505  1.00  0.00    -0.206 F 
ATOM     62  C   UNL A   1      44.244  35.465  30.258  1.00  0.00     0.059 A 
ATOM     63  C   UNL A   1      44.079  34.702  32.559  1.00  0.00     0.059 A 
ATOM     64  F   UNL A   1      43.925  32.407  33.013  1.00  0.00    -0.206 F 
ATOM     65  C   UNL A   1      44.194  35.734  31.628  1.00  0.00     0.060 A 
BRANCH  65  66
ATOM     66  S   UNL A   1      44.257  37.454  32.172  1.00  0.00     0.124 S 
ATOM     67  O   UNL A   1      45.669  37.598  32.513  1.00  0.00    -0.237 OA
ATOM     68  O   UNL A   1      43.816  38.175  30.983  1.00  0.00    -0.237 OA
ATOM     69  O   UNL A   1      43.333  37.488  33.302  1.00  0.00    -0.744 OA
ENDBRANCH  65  66
ENDBRANCH  44  58
BRANCH  45  70
ATOM     70  C   UNL A   1      42.617  23.726  27.599  1.00  0.00     0.058 A 
ATOM     71  C   UNL A   1      42.608  23.457  26.224  1.00  0.00     0.135 A 
ATOM     72  C   UNL A   1      42.457  22.646  28.481  1.00  0.00     0.135 A 
ATOM     73  F   UNL A   1      42.747  24.461  25.344  1.00  0.00    -0.206 F 
ATOM     74  C   UNL A   1      42.449  22.164  25.738  1.00  0.00     0.059 A 
ATOM     75  C   UNL A   1      42.319  21.342  28.020  1.00  0.00     0.059 A 
ATOM     76  F   UNL A   1      42.472  22.853  29.808  1.00  0.00    -0.206 F 
ATOM     77  C   UNL A   1      42.310  21.112  26.644  1.00  0.00     0.060 A 
BRANCH  77  78
ATOM     78  S   UNL A   1      42.176  19.428  26.008  1.00  0.00     0.124 S 
ATOM     79  O   UNL A   1      42.713  18.651  27.119  1.00  0.00    -0.237 OA
ATOM     80  O   UNL A   1      40.741  19.300  25.773  1.00  0.00    -0.237 OA
ATOM     81  O   UNL A   1      42.998  19.461  24.801  1.00  0.00    -0.744 OA
ENDBRANCH  77  78
ENDBRANCH  45  70
BRANCH  57  82
ATOM     82  C   UNL A   1      48.284  27.475  29.135  1.00  0.00     0.058 A 
ATOM     83  C   UNL A   1      49.020  27.618  27.949  1.00  0.00     0.135 A 
ATOM     84  C   UNL A   1      48.971  27.085  30.295  1.00  0.00     0.135 A 
ATOM     85  F   UNL A   1      48.405  27.981  26.813  1.00  0.00    -0.206 F 
ATOM     86  C   UNL A   1      50.388  27.371  27.910  1.00  0.00     0.059 A 
ATOM     87  C   UNL A   1      50.342  26.850  30.284  1.00  0.00     0.059 A 
ATOM     88  F   UNL A   1      48.312  26.941  31.455  1.00  0.00    -0.206 F 
ATOM     89  C   UNL A   1      51.041  26.988  29.084  1.00  0.00     0.060 A 
BRANCH  89  90
ATOM     90  S   UNL A   1      52.824  26.707  29.030  1.00  0.00     0.124 S 
ATOM     91  O   UNL A   1      52.966  25.967  27.780  1.00  0.00    -0.237 OA
ATOM     92  O   UNL A   1      53.357  28.066  29.026  1.00  0.00    -0.237 OA
ATOM     93  O   UNL A   1      53.083  25.942  30.246  1.00  0.00    -0.744 OA
ENDBRANCH  89  90
ENDBRANCH  57  82
ENDBRANCH  31  32
ENDBRANCH  24  26
ENDBRANCH  23  24
ENDBRANCH   1  23
TORSDOF 17
ENDMDL
MODEL 2
REMARK VINA RESULT:     -11.3      1.044      1.601
REMARK SMILES Cc1c(CC(=O)OCCOC(=O)c2ccc(-c3c4nc(c(-c5c(F)cc(S(=O)(=O)[O-])cc5F)c5ccc([nH]5)c(-c5c(F)cc(S(=O)(=O)[O-])cc5F)c5nc(c(-c6c(F)cc(S(=O)(=O)[O-])cc6F)c6ccc3[nH]6)C=C5)C=C4)cc2)c(O)oc2cc(=O)cc(O)c1-2
REMARK SMILES IDX 9 1 8 2 7 3 5 4 6 5 4 6 3 7 1 8 2 9 89 10 79 11 82 12 87 13
REMARK SMILES IDX 81 14 83 15 86 16 84 17 85 18 80 19 88 21 10 23 11 24 12 25
REMARK SMILES IDX 13 26 14 27 78 28 15 29 77 30 16 31 17 32 18 33 71 34 19 35
REMARK SMILES IDX 76 36 70 37 72 38 20 39 75 40 69 41 68 42 21 44 55 45 34 46
REMARK SMILES IDX 54 47 35 48 38 49 53 50 73 51 36 52 37 53 52 55 74 56 39 57
REMARK SMILES IDX 22 58 23 59 32 60 24 61 25 62 31 63 33 64 26 65 27 66 28 67
REMARK SMILES IDX 29 68 30 69 56 70 57 71 66 72 58 73 59 74 65 75 67 76 60 77
REMARK SMILES IDX 61 78 62 79 63 80 64 81 40 82 41 83 50 84 42 85 43 86 49 87
REMARK SMILES IDX 51 88 44 89 45 90 46 91 47 92 48 93
REMARK H PARENT 80 20 88 22 72 43 38 54
REMARK Flexibility Score: inf
ROOT
ATOM      1  C   UNL A   1      33.253  29.704  26.121  1.00  0.00     0.275 C 
ENDROOT
BRANCH   1   2
ATOM      2  C   UNL A   1      31.771  29.356  26.033  1.00  0.00     0.274 C 
BRANCH   2   3
ATOM      3  O   UNL A   1      31.575  28.260  25.117  1.00  0.00    -0.462 OA
BRANCH   3   4
ATOM      4  C   UNL A   1      31.203  27.082  25.681  1.00  0.00     0.310 C 
ATOM      5  O   UNL A   1      30.930  26.934  26.869  1.00  0.00    -0.252 OA
BRANCH   4   6
ATOM      6  C   UNL A   1      31.085  25.924  24.701  1.00  0.00     0.166 C 
BRANCH   6   7
ATOM      7  C   UNL A   1      32.220  24.918  24.687  1.00  0.00     0.048 A 
ATOM      8  C   UNL A   1      30.817  23.285  26.088  1.00  0.00     0.046 C 
ATOM      9  C   UNL A   1      32.041  23.555  25.240  1.00  0.00    -0.026 A 
ATOM     10  C   UNL A   1      32.993  22.605  25.023  1.00  0.00     0.063 A 
ATOM     11  C   UNL A   1      33.406  25.236  24.120  1.00  0.00     0.286 A 
ATOM     12  C   UNL A   1      34.277  23.025  24.439  1.00  0.00     0.146 A 
ATOM     13  C   UNL A   1      32.846  21.173  25.354  1.00  0.00     0.130 A 
ATOM     14  O   UNL A   1      34.432  24.325  23.997  1.00  0.00    -0.425 OA
ATOM     15  C   UNL A   1      35.330  22.200  24.400  1.00  0.00     0.100 A 
ATOM     16  C   UNL A   1      33.891  20.337  25.319  1.00  0.00     0.099 A 
ATOM     17  C   UNL A   1      35.223  20.817  24.899  1.00  0.00     0.186 A 
ATOM     18  O   UNL A   1      36.199  20.076  24.921  1.00  0.00    -0.290 OA
BRANCH  11  19
ATOM     19  O   UNL A   1      33.665  26.486  23.599  1.00  0.00    -0.480 OA
ATOM     20  H   UNL A   1      33.854  26.584  22.686  1.00  0.00     0.297 HD
ENDBRANCH  11  19
BRANCH  13  21
ATOM     21  O   UNL A   1      31.571  20.706  25.600  1.00  0.00    -0.507 OA
ATOM     22  H   UNL A   1      30.897  21.302  25.862  1.00  0.00     0.293 HD
ENDBRANCH  13  21
ENDBRANCH   6   7
ENDBRANCH   4   6
ENDBRANCH   3   4
ENDBRANCH   2   3
ENDBRANCH   1   2
BRANCH   1  23
ATOM     23  O   UNL A   1      33.738  29.391  27.438  1.00  0.00    -0.458 OA
BRANCH  23  24
ATOM     24  C   UNL A   1      34.449  30.370  28.044  1.00  0.00     0.338 C 
ATOM     25  O   UNL A   1      34.045  31.479  28.354  1.00  0.00    -0.246 OA
BRANCH  24  26
ATOM     26  C   UNL A   1      35.837  29.921  28.291  1.00  0.00     0.060 A 
ATOM     27  C   UNL A   1      36.251  29.461  29.545  1.00  0.00     0.016 A 
ATOM     28  C   UNL A   1      36.769  30.057  27.260  1.00  0.00     0.016 A 
ATOM     29  C   UNL A   1      37.603  29.201  29.782  1.00  0.00     0.010 A 
ATOM     30  C   UNL A   1      38.105  29.714  27.476  1.00  0.00     0.010 A 
ATOM     31  C   UNL A   1      38.543  29.305  28.744  1.00  0.00    -0.014 A 
BRANCH  31  32
ATOM     32  C   UNL A   1      39.978  28.971  28.960  1.00  0.00     0.031 A 
ATOM     33  C   UNL A   1      40.943  30.022  29.447  1.00  0.00     0.074 A 
ATOM     34  C   UNL A   1      40.432  27.735  28.670  1.00  0.00     0.049 A 
ATOM     35  N   UNL A   1      42.250  29.979  29.506  1.00  0.00    -0.248 NA
ATOM     36  C   UNL A   1      40.365  31.292  29.917  1.00  0.00     0.031 C 
ATOM     37  C   UNL A   1      39.608  26.617  28.201  1.00  0.00     0.029 A 
ATOM     38  N   UNL A   1      41.701  27.213  28.713  1.00  0.00    -0.354 N 
ATOM     39  C   UNL A   1      42.653  31.223  29.977  1.00  0.00     0.074 A 
ATOM     40  C   UNL A   1      41.452  32.003  30.186  1.00  0.00     0.031 C 
ATOM     41  C   UNL A   1      40.388  25.541  28.018  1.00  0.00     0.029 A 
ATOM     42  C   UNL A   1      41.774  25.908  28.285  1.00  0.00     0.049 A 
ATOM     43  H   UNL A   1      42.485  27.724  29.021  1.00  0.00     0.167 HD
ATOM     44  C   UNL A   1      43.910  31.671  30.215  1.00  0.00     0.037 A 
ATOM     45  C   UNL A   1      42.837  25.105  28.083  1.00  0.00     0.037 A 
ATOM     46  C   UNL A   1      45.101  30.877  30.052  1.00  0.00     0.049 A 
ATOM     47  C   UNL A   1      44.221  25.632  28.331  1.00  0.00     0.074 A 
ATOM     48  C   UNL A   1      46.414  31.237  30.306  1.00  0.00     0.029 A 
ATOM     49  N   UNL A   1      45.127  29.566  29.603  1.00  0.00    -0.354 N 
ATOM     50  N   UNL A   1      44.585  26.820  28.750  1.00  0.00    -0.248 NA
ATOM     51  C   UNL A   1      45.339  24.718  28.060  1.00  0.00     0.031 C 
ATOM     52  C   UNL A   1      47.237  30.152  29.983  1.00  0.00     0.029 A 
ATOM     53  C   UNL A   1      46.434  29.107  29.559  1.00  0.00     0.049 A 
ATOM     54  H   UNL A   1      44.334  29.038  29.352  1.00  0.00     0.167 HD
ATOM     55  C   UNL A   1      45.973  26.797  28.792  1.00  0.00     0.074 A 
ATOM     56  C   UNL A   1      46.385  25.471  28.378  1.00  0.00     0.031 C 
ATOM     57  C   UNL A   1      46.830  27.788  29.138  1.00  0.00     0.037 A 
BRANCH  44  58
ATOM     58  C   UNL A   1      44.079  33.091  30.672  1.00  0.00     0.058 A 
ATOM     59  C   UNL A   1      44.207  34.148  29.759  1.00  0.00     0.135 A 
ATOM     60  C   UNL A   1      44.024  33.408  32.040  1.00  0.00     0.135 A 
ATOM     61  F   UNL A   1      44.281  33.898  28.442  1.00  0.00    -0.206 F 
ATOM     62  C   UNL A   1      44.281  35.471  30.185  1.00  0.00     0.059 A 
ATOM     63  C   UNL A   1      44.077  34.725  32.487  1.00  0.00     0.059 A 
ATOM     64  F   UNL A   1      43.903  32.433  32.954  1.00  0.00    -0.206 F 
ATOM     65  C   UNL A   1      44.212  35.749  31.552  1.00  0.00     0.060 A 
BRANCH  65  66
ATOM     66  S   UNL A   1      44.276  37.473  32.086  1.00  0.00     0.124 S 
ATOM     67  O   UNL A   1      43.808  38.164  30.889  1.00  0.00    -0.237 OA
ATOM     68  O   UNL A   1      43.361  37.482  33.222  1.00  0.00    -0.237 OA
ATOM     69  O   UNL A   1      45.684  37.674  32.416  1.00  0.00    -0.744 OA
ENDBRANCH  65  66
ENDBRANCH  44  58
BRANCH  45  70
ATOM     70  C   UNL A   1      42.627  23.722  27.584  1.00  0.00     0.058 A 
ATOM     71  C   UNL A   1      42.623  23.446  26.210  1.00  0.00     0.135 A 
ATOM     72  C   UNL A   1      42.461  22.647  28.472  1.00  0.00     0.135 A 
ATOM     73  F   UNL A   1      42.767  24.445  25.325  1.00  0.00    -0.206 F 
ATOM     74  C   UNL A   1      42.463  22.150  25.731  1.00  0.00     0.059 A 
ATOM     75  C   UNL A   1      42.322  21.341  28.017  1.00  0.00     0.059 A 
ATOM     76  F   UNL A   1      42.471  22.861  29.797  1.00  0.00    -0.206 F 
ATOM     77  C   UNL A   1      42.318  21.104  26.643  1.00  0.00     0.060 A 
BRANCH  77  78
ATOM     78  S   UNL A   1      42.183  19.416  26.015  1.00  0.00     0.124 S 
ATOM     79  O   UNL A   1      40.751  19.312  25.759  1.00  0.00    -0.237 OA
ATOM     80  O   UNL A   1      43.041  19.457  24.834  1.00  0.00    -0.237 OA
ATOM     81  O   UNL A   1      42.691  18.607  27.119  1.00  0.00    -0.744 OA
ENDBRANCH  77  78
ENDBRANCH  45  70
BRANCH  57  82
ATOM     82  C   UNL A   1      48.298  27.480  29.086  1.00  0.00     0.058 A 
ATOM     83  C   UNL A   1      49.066  27.782  27.952  1.00  0.00     0.135 A 
ATOM     84  C   UNL A   1      48.951  26.927  30.198  1.00  0.00     0.135 A 
ATOM     85  F   UNL A   1      48.483  28.304  26.861  1.00  0.00    -0.206 F 
ATOM     86  C   UNL A   1      50.434  27.534  27.916  1.00  0.00     0.059 A 
ATOM     87  C   UNL A   1      50.322  26.688  30.192  1.00  0.00     0.059 A 
ATOM     88  F   UNL A   1      48.260  26.627  31.309  1.00  0.00    -0.206 F 
ATOM     89  C   UNL A   1      51.053  26.987  29.042  1.00  0.00     0.060 A 
BRANCH  89  90
ATOM     90  S   UNL A   1      52.836  26.704  28.997  1.00  0.00     0.124 S 
ATOM     91  O   UNL A   1      53.049  25.970  30.239  1.00  0.00    -0.237 OA
ATOM     92  O   UNL A   1      53.001  25.933  27.768  1.00  0.00    -0.237 OA
ATOM     93  O   UNL A   1      53.392  28.054  28.960  1.00  0.00    -0.744 OA
ENDBRANCH  89  90
ENDBRANCH  57  82
ENDBRANCH  31  32
ENDBRANCH  24  26
ENDBRANCH  23  24
ENDBRANCH   1  23
TORSDOF 17
ENDMDL
MODEL 3
REMARK VINA RESULT:     -11.3      1.975      2.769
REMARK SMILES Cc1c(CC(=O)OCCOC(=O)c2ccc(-c3c4nc(c(-c5c(F)cc(S(=O)(=O)[O-])cc5F)c5ccc([nH]5)c(-c5c(F)cc(S(=O)(=O)[O-])cc5F)c5nc(c(-c6c(F)cc(S(=O)(=O)[O-])cc6F)c6ccc3[nH]6)C=C5)C=C4)cc2)c(O)oc2cc(=O)cc(O)c1-2
REMARK SMILES IDX 9 1 8 2 7 3 5 4 6 5 4 6 3 7 1 8 2 9 89 10 79 11 82 12 87 13
REMARK SMILES IDX 81 14 83 15 86 16 84 17 85 18 80 19 88 21 10 23 11 24 12 25
REMARK SMILES IDX 13 26 14 27 78 28 15 29 77 30 16 31 17 32 18 33 71 34 19 35
REMARK SMILES IDX 76 36 70 37 72 38 20 39 75 40 69 41 68 42 21 44 55 45 34 46
REMARK SMILES IDX 54 47 35 48 38 49 53 50 73 51 36 52 37 53 52 55 74 56 39 57
REMARK SMILES IDX 22 58 23 59 32 60 24 61 25 62 31 63 33 64 26 65 27 66 28 67
REMARK SMILES IDX 29 68 30 69 56 70 57 71 66 72 58 73 59 74 65 75 67 76 60 77
REMARK SMILES IDX 61 78 62 79 63 80 64 81 40 82 41 83 50 84 42 85 43 86 49 87
REMARK SMILES IDX 51 88 44 89 45 90 46 91 47 92 48 93
REMARK H PARENT 80 20 88 22 72 43 38 54
REMARK Flexibility Score: inf
ROOT
ATOM      1  C   UNL A   1      33.988  30.126  27.321  1.00  0.00     0.275 C 
ENDROOT
BRANCH   1   2
ATOM      2  C   UNL A   1      33.772  29.344  26.030  1.00  0.00     0.274 C 
BRANCH   2   3
ATOM      3  O   UNL A   1      32.570  29.796  25.374  1.00  0.00    -0.462 OA
BRANCH   3   4
ATOM      4  C   UNL A   1      32.288  29.198  24.187  1.00  0.00     0.310 C 
ATOM      5  O   UNL A   1      32.960  29.323  23.167  1.00  0.00    -0.252 OA
BRANCH   4   6
ATOM      6  C   UNL A   1      31.072  28.285  24.217  1.00  0.00     0.166 C 
BRANCH   6   7
ATOM      7  C   UNL A   1      31.319  26.804  24.003  1.00  0.00     0.048 A 
ATOM      8  C   UNL A   1      31.620  26.469  26.532  1.00  0.00     0.046 C 
ATOM      9  C   UNL A   1      31.442  25.875  25.152  1.00  0.00    -0.026 A 
ATOM     10  C   UNL A   1      31.446  24.530  24.937  1.00  0.00     0.063 A 
ATOM     11  C   UNL A   1      31.384  26.297  22.751  1.00  0.00     0.286 A 
ATOM     12  C   UNL A   1      31.558  24.044  23.553  1.00  0.00     0.146 A 
ATOM     13  C   UNL A   1      31.370  23.507  26.000  1.00  0.00     0.130 A 
ATOM     14  O   UNL A   1      31.510  24.947  22.507  1.00  0.00    -0.425 OA
ATOM     15  C   UNL A   1      31.788  22.754  23.281  1.00  0.00     0.100 A 
ATOM     16  C   UNL A   1      31.599  22.213  25.742  1.00  0.00     0.099 A 
ATOM     17  C   UNL A   1      31.888  21.762  24.366  1.00  0.00     0.186 A 
ATOM     18  O   UNL A   1      32.158  20.590  24.128  1.00  0.00    -0.290 OA
BRANCH  11  19
ATOM     19  O   UNL A   1      31.298  27.091  21.626  1.00  0.00    -0.480 OA
ATOM     20  H   UNL A   1      31.076  27.998  21.707  1.00  0.00     0.297 HD
ENDBRANCH  11  19
BRANCH  13  21
ATOM     21  O   UNL A   1      30.955  23.920  27.250  1.00  0.00    -0.507 OA
ATOM     22  H   UNL A   1      31.392  23.606  28.016  1.00  0.00     0.293 HD
ENDBRANCH  13  21
ENDBRANCH   6   7
ENDBRANCH   4   6
ENDBRANCH   3   4
ENDBRANCH   2   3
ENDBRANCH   1   2
BRANCH   1  23
ATOM     23  O   UNL A   1      35.015  29.486  28.098  1.00  0.00    -0.458 OA
BRANCH  23  24
ATOM     24  C   UNL A   1      35.861  30.322  28.745  1.00  0.00     0.338 C 
ATOM     25  O   UNL A   1      35.568  31.364  29.309  1.00  0.00    -0.246 OA
BRANCH  24  26
ATOM     26  C   UNL A   1      37.246  29.805  28.679  1.00  0.00     0.060 A 
ATOM     27  C   UNL A   1      37.965  29.476  29.833  1.00  0.00     0.016 A 
ATOM     28  C   UNL A   1      37.869  29.742  27.431  1.00  0.00     0.016 A 
ATOM     29  C   UNL A   1      39.320  29.147  29.740  1.00  0.00     0.010 A 
ATOM     30  C   UNL A   1      39.199  29.330  27.335  1.00  0.00     0.010 A 
ATOM     31  C   UNL A   1      39.948  29.050  28.488  1.00  0.00    -0.014 A 
BRANCH  31  32
ATOM     32  C   UNL A   1      41.374  28.641  28.365  1.00  0.00     0.031 A 
ATOM     33  C   UNL A   1      42.476  29.664  28.467  1.00  0.00     0.074 A 
ATOM     34  C   UNL A   1      41.684  27.353  28.108  1.00  0.00     0.049 A 
ATOM     35  N   UNL A   1      43.749  29.537  28.193  1.00  0.00    -0.248 NA
ATOM     36  C   UNL A   1      42.095  31.011  28.924  1.00  0.00     0.031 C 
ATOM     37  C   UNL A   1      40.720  26.255  27.995  1.00  0.00     0.029 A 
ATOM     38  N   UNL A   1      42.896  26.751  27.882  1.00  0.00    -0.354 N 
ATOM     39  C   UNL A   1      44.313  30.789  28.402  1.00  0.00     0.074 A 
ATOM     40  C   UNL A   1      43.243  31.668  28.823  1.00  0.00     0.031 C 
ATOM     41  C   UNL A   1      41.379  25.115  27.740  1.00  0.00     0.029 A 
ATOM     42  C   UNL A   1      42.801  25.409  27.598  1.00  0.00     0.049 A 
ATOM     43  H   UNL A   1      43.754  27.234  27.920  1.00  0.00     0.167 HD
ATOM     44  C   UNL A   1      45.606  31.170  28.258  1.00  0.00     0.037 A 
ATOM     45  C   UNL A   1      43.738  24.519  27.222  1.00  0.00     0.037 A 
ATOM     46  C   UNL A   1      46.678  30.283  27.884  1.00  0.00     0.049 A 
ATOM     47  C   UNL A   1      45.160  24.970  27.046  1.00  0.00     0.074 A 
ATOM     48  C   UNL A   1      48.026  30.574  27.751  1.00  0.00     0.029 A 
ATOM     49  N   UNL A   1      46.532  28.936  27.594  1.00  0.00    -0.354 N 
ATOM     50  N   UNL A   1      45.670  26.164  27.221  1.00  0.00    -0.248 NA
ATOM     51  C   UNL A   1      46.129  23.958  26.601  1.00  0.00     0.031 C 
ATOM     52  C   UNL A   1      48.690  29.409  27.351  1.00  0.00     0.029 A 
ATOM     53  C   UNL A   1      47.760  28.386  27.267  1.00  0.00     0.049 A 
ATOM     54  H   UNL A   1      45.679  28.443  27.616  1.00  0.00     0.167 HD
ATOM     55  C   UNL A   1      47.018  26.049  26.908  1.00  0.00     0.074 A 
ATOM     56  C   UNL A   1      47.251  24.664  26.554  1.00  0.00     0.031 C 
ATOM     57  C   UNL A   1      47.976  27.008  26.909  1.00  0.00     0.037 A 
BRANCH  44  58
ATOM     58  C   UNL A   1      45.948  32.613  28.494  1.00  0.00     0.058 A 
ATOM     59  C   UNL A   1      46.373  33.073  29.749  1.00  0.00     0.135 A 
ATOM     60  C   UNL A   1      45.934  33.529  27.429  1.00  0.00     0.135 A 
ATOM     61  F   UNL A   1      46.388  32.243  30.804  1.00  0.00    -0.206 F 
ATOM     62  C   UNL A   1      46.767  34.394  29.943  1.00  0.00     0.059 A 
ATOM     63  C   UNL A   1      46.343  34.849  27.595  1.00  0.00     0.059 A 
ATOM     64  F   UNL A   1      45.536  33.138  26.208  1.00  0.00    -0.206 F 
ATOM     65  C   UNL A   1      46.752  35.274  28.858  1.00  0.00     0.060 A 
BRANCH  65  66
ATOM     66  S   UNL A   1      47.297  36.975  29.119  1.00  0.00     0.124 S 
ATOM     67  O   UNL A   1      46.021  37.677  29.209  1.00  0.00    -0.237 OA
ATOM     68  O   UNL A   1      48.053  36.873  30.363  1.00  0.00    -0.237 OA
ATOM     69  O   UNL A   1      48.090  37.264  27.928  1.00  0.00    -0.744 OA
ENDBRANCH  65  66
ENDBRANCH  44  58
BRANCH  45  70
ATOM     70  C   UNL A   1      43.347  23.112  26.952  1.00  0.00     0.058 A 
ATOM     71  C   UNL A   1      43.299  22.617  25.642  1.00  0.00     0.135 A 
ATOM     72  C   UNL A   1      43.049  22.227  28.000  1.00  0.00     0.135 A 
ATOM     73  F   UNL A   1      43.566  23.431  24.608  1.00  0.00    -0.206 F 
ATOM     74  C   UNL A   1      42.968  21.292  25.377  1.00  0.00     0.059 A 
ATOM     75  C   UNL A   1      42.738  20.893  27.762  1.00  0.00     0.059 A 
ATOM     76  F   UNL A   1      43.095  22.651  29.273  1.00  0.00    -0.206 F 
ATOM     77  C   UNL A   1      42.695  20.437  26.445  1.00  0.00     0.060 A 
BRANCH  77  78
ATOM     78  S   UNL A   1      42.338  18.701  26.098  1.00  0.00     0.124 S 
ATOM     79  O   UNL A   1      43.257  18.426  25.000  1.00  0.00    -0.237 OA
ATOM     80  O   UNL A   1      42.654  18.060  27.371  1.00  0.00    -0.237 OA
ATOM     81  O   UNL A   1      40.920  18.715  25.751  1.00  0.00    -0.744 OA
ENDBRANCH  77  78
ENDBRANCH  45  70
BRANCH  57  82
ATOM     82  C   UNL A   1      49.365  26.594  26.517  1.00  0.00     0.058 A 
ATOM     83  C   UNL A   1      50.263  26.071  27.459  1.00  0.00     0.135 A 
ATOM     84  C   UNL A   1      49.782  26.672  25.179  1.00  0.00     0.135 A 
ATOM     85  F   UNL A   1      49.911  25.985  28.752  1.00  0.00    -0.206 F 
ATOM     86  C   UNL A   1      51.536  25.650  27.091  1.00  0.00     0.059 A 
ATOM     87  C   UNL A   1      51.044  26.239  24.785  1.00  0.00     0.059 A 
ATOM     88  F   UNL A   1      48.956  27.159  24.240  1.00  0.00    -0.206 F 
ATOM     89  C   UNL A   1      51.918  25.737  25.750  1.00  0.00     0.060 A 
BRANCH  89  90
ATOM     90  S   UNL A   1      53.560  25.153  25.279  1.00  0.00     0.124 S 
ATOM     91  O   UNL A   1      54.397  25.778  26.297  1.00  0.00    -0.237 OA
ATOM     92  O   UNL A   1      53.418  23.703  25.376  1.00  0.00    -0.237 OA
ATOM     93  O   UNL A   1      53.727  25.669  23.923  1.00  0.00    -0.744 OA
ENDBRANCH  89  90
ENDBRANCH  57  82
ENDBRANCH  31  32
ENDBRANCH  24  26
ENDBRANCH  23  24
ENDBRANCH   1  23
TORSDOF 17
ENDMDL
