MODEL 1
REMARK VINA RESULT:     -10.1      0.000      0.000
REMARK SMILES C[NH+]1CCN(c2nc3c(cc2F)c(=O)c(C(=O)OCCOC(=O)c2ccc(-c4c5nc(c(-c6c(F)cc(S(=O)(=O)[O-])cc6F)c6ccc([nH]6)c(-c6c(F)cc(S(=O)(=O)[O-])cc6F)c6nc(c(-c7c(F)cc(S(=O)(=O)[O-])cc7F)c7ccc4[nH]7)C=C6)C=C5)cc2)cn3-c2ccc(F)cc2F)CC1
REMARK SMILES IDX 20 1 19 2 18 3 16 4 17 5 15 6 6 7 7 8 11 9 8 10 10 11 12 12
REMARK SMILES IDX 9 13 91 14 13 15 90 16 14 17 5 18 1 19 2 20 3 21 101 22 4 24
REMARK SMILES IDX 100 25 92 26 93 27 98 28 94 29 97 30 99 31 95 32 96 33 21 34
REMARK SMILES IDX 22 35 23 36 24 37 25 38 89 39 26 40 88 41 27 42 28 43 29 44
REMARK SMILES IDX 82 45 30 46 87 47 81 48 83 49 31 50 86 51 80 52 79 53 32 55
REMARK SMILES IDX 66 56 45 57 65 58 46 59 49 60 64 61 84 62 47 63 48 64 63 66
REMARK SMILES IDX 85 67 50 68 33 69 34 70 43 71 35 72 36 73 42 74 44 75 37 76
REMARK SMILES IDX 38 77 39 78 40 79 41 80 67 81 68 82 77 83 69 84 70 85 76 86
REMARK SMILES IDX 78 87 71 88 72 89 73 90 74 91 75 92 51 93 52 94 61 95 53 96
REMARK SMILES IDX 54 97 60 98 62 99 55 100 56 101 57 102 58 103 59 104
REMARK H PARENT 2 23 83 54 49 65
REMARK Flexibility Score: inf
ROOT
ATOM      1  C   UNL A   1      41.692  22.870  26.225  1.00  0.00     0.275 C 
ENDROOT
BRANCH   1   2
ATOM      2  C   UNL A   1      43.013  22.565  25.522  1.00  0.00     0.275 C 
BRANCH   2   3
ATOM      3  O   UNL A   1      44.011  22.178  26.485  1.00  0.00    -0.458 OA
BRANCH   3   4
ATOM      4  C   UNL A   1      45.234  22.739  26.353  1.00  0.00     0.343 C 
ATOM      5  O   UNL A   1      46.185  22.260  25.751  1.00  0.00    -0.246 OA
BRANCH   4   6
ATOM      6  C   UNL A   1      45.271  24.075  26.971  1.00  0.00     0.124 A 
ATOM      7  C   UNL A   1      44.722  28.888  28.433  1.00  0.00     0.167 A 
ATOM      8  N   UNL A   1      45.010  27.740  29.091  1.00  0.00    -0.209 NA
ATOM      9  C   UNL A   1      44.618  28.918  27.036  1.00  0.00     0.166 A 
ATOM     10  C   UNL A   1      45.140  26.586  28.382  1.00  0.00     0.151 A 
ATOM     11  C   UNL A   1      44.813  27.770  26.297  1.00  0.00     0.059 A 
ATOM     12  F   UNL A   1      44.343  30.063  26.390  1.00  0.00    -0.203 F 
ATOM     13  C   UNL A   1      45.063  26.585  26.980  1.00  0.00     0.069 A 
ATOM     14  N   UNL A   1      45.321  25.338  29.062  1.00  0.00    -0.297 N 
ATOM     15  C   UNL A   1      45.184  25.332  26.209  1.00  0.00     0.205 A 
ATOM     16  C   UNL A   1      45.322  24.171  28.308  1.00  0.00     0.113 A 
ATOM     17  O   UNL A   1      45.129  25.360  24.984  1.00  0.00    -0.288 OA
BRANCH   7  18
ATOM     18  N   UNL A   1      44.522  30.039  29.152  1.00  0.00    -0.343 N 
ATOM     19  C   UNL A   1      43.673  32.510  32.432  1.00  0.00     0.332 C 
ATOM     20  N   UNL A   1      44.052  32.138  31.070  1.00  0.00    -0.334 N 
ATOM     21  C   UNL A   1      42.941  31.402  30.405  1.00  0.00     0.283 C 
ATOM     22  C   UNL A   1      45.276  31.301  31.100  1.00  0.00     0.283 C 
ATOM     23  H   UNL A   1      44.242  32.985  30.535  1.00  0.00     0.347 HD
ATOM     24  C   UNL A   1      43.308  30.831  29.007  1.00  0.00     0.179 C 
ATOM     25  C   UNL A   1      45.666  30.746  29.716  1.00  0.00     0.179 C 
ENDBRANCH   7  18
BRANCH  14  26
ATOM     26  C   UNL A   1      45.437  25.245  30.482  1.00  0.00     0.083 A 
ATOM     27  C   UNL A   1      44.438  24.612  31.239  1.00  0.00     0.033 A 
ATOM     28  C   UNL A   1      46.567  25.746  31.158  1.00  0.00     0.150 A 
ATOM     29  C   UNL A   1      44.576  24.483  32.624  1.00  0.00     0.041 A 
ATOM     30  C   UNL A   1      46.700  25.639  32.538  1.00  0.00     0.080 A 
ATOM     31  F   UNL A   1      47.545  26.350  30.465  1.00  0.00    -0.205 F 
ATOM     32  C   UNL A   1      45.700  25.002  33.259  1.00  0.00     0.126 A 
ATOM     33  F   UNL A   1      45.814  24.883  34.587  1.00  0.00    -0.207 F 
ENDBRANCH  14  26
ENDBRANCH   4   6
ENDBRANCH   3   4
ENDBRANCH   2   3
ENDBRANCH   1   2
BRANCH   1  34
ATOM     34  O   UNL A   1      41.394  24.274  26.126  1.00  0.00    -0.458 OA
BRANCH  34  35
ATOM     35  C   UNL A   1      40.179  24.641  26.591  1.00  0.00     0.338 C 
ATOM     36  O   UNL A   1      39.088  24.277  26.191  1.00  0.00    -0.246 OA
BRANCH  35  37
ATOM     37  C   UNL A   1      40.349  25.538  27.743  1.00  0.00     0.060 A 
ATOM     38  C   UNL A   1      39.358  25.571  28.721  1.00  0.00     0.016 A 
ATOM     39  C   UNL A   1      41.407  26.442  27.778  1.00  0.00     0.016 A 
ATOM     40  C   UNL A   1      39.358  26.578  29.681  1.00  0.00     0.010 A 
ATOM     41  C   UNL A   1      41.459  27.393  28.801  1.00  0.00     0.010 A 
ATOM     42  C   UNL A   1      40.412  27.499  29.736  1.00  0.00    -0.014 A 
BRANCH  42  43
ATOM     43  C   UNL A   1      40.396  28.602  30.731  1.00  0.00     0.031 A 
ATOM     44  C   UNL A   1      41.411  28.618  31.844  1.00  0.00     0.074 A 
ATOM     45  C   UNL A   1      39.499  29.602  30.629  1.00  0.00     0.049 A 
ATOM     46  N   UNL A   1      41.461  29.379  32.907  1.00  0.00    -0.248 NA
ATOM     47  C   UNL A   1      42.515  27.648  31.748  1.00  0.00     0.031 C 
ATOM     48  C   UNL A   1      38.511  29.751  29.558  1.00  0.00     0.029 A 
ATOM     49  N   UNL A   1      39.277  30.692  31.435  1.00  0.00    -0.354 N 
ATOM     50  C   UNL A   1      42.575  28.958  33.624  1.00  0.00     0.074 A 
ATOM     51  C   UNL A   1      43.169  27.867  32.881  1.00  0.00     0.031 C 
ATOM     52  C   UNL A   1      37.816  30.882  29.754  1.00  0.00     0.029 A 
ATOM     53  C   UNL A   1      38.247  31.495  31.005  1.00  0.00     0.049 A 
ATOM     54  H   UNL A   1      39.805  30.879  32.244  1.00  0.00     0.167 HD
ATOM     55  C   UNL A   1      43.059  29.441  34.794  1.00  0.00     0.037 A 
ATOM     56  C   UNL A   1      37.688  32.581  31.572  1.00  0.00     0.037 A 
ATOM     57  C   UNL A   1      42.478  30.545  35.513  1.00  0.00     0.049 A 
ATOM     58  C   UNL A   1      38.192  33.050  32.908  1.00  0.00     0.074 A 
ATOM     59  C   UNL A   1      42.866  31.083  36.727  1.00  0.00     0.029 A 
ATOM     60  N   UNL A   1      41.398  31.296  35.071  1.00  0.00    -0.354 N 
ATOM     61  N   UNL A   1      39.180  32.575  33.628  1.00  0.00    -0.248 NA
ATOM     62  C   UNL A   1      37.488  34.184  33.521  1.00  0.00     0.031 C 
ATOM     63  C   UNL A   1      42.006  32.146  37.031  1.00  0.00     0.029 A 
ATOM     64  C   UNL A   1      41.106  32.291  35.988  1.00  0.00     0.049 A 
ATOM     65  H   UNL A   1      40.913  31.144  34.228  1.00  0.00     0.167 HD
ATOM     66  C   UNL A   1      39.225  33.361  34.774  1.00  0.00     0.074 A 
ATOM     67  C   UNL A   1      38.174  34.350  34.644  1.00  0.00     0.031 C 
ATOM     68  C   UNL A   1      40.057  33.268  35.840  1.00  0.00     0.037 A 
BRANCH  55  69
ATOM     69  C   UNL A   1      44.265  28.764  35.383  1.00  0.00     0.058 A 
ATOM     70  C   UNL A   1      45.569  29.168  35.058  1.00  0.00     0.135 A 
ATOM     71  C   UNL A   1      44.113  27.725  36.317  1.00  0.00     0.135 A 
ATOM     72  F   UNL A   1      45.769  30.139  34.154  1.00  0.00    -0.206 F 
ATOM     73  C   UNL A   1      46.681  28.556  35.628  1.00  0.00     0.059 A 
ATOM     74  C   UNL A   1      45.212  27.114  36.916  1.00  0.00     0.059 A 
ATOM     75  F   UNL A   1      42.888  27.297  36.659  1.00  0.00    -0.206 F 
ATOM     76  C   UNL A   1      46.492  27.532  36.557  1.00  0.00     0.060 A 
BRANCH  76  77
ATOM     77  S   UNL A   1      47.947  26.759  37.298  1.00  0.00     0.124 S 
ATOM     78  O   UNL A   1      47.439  25.427  37.616  1.00  0.00    -0.237 OA
ATOM     79  O   UNL A   1      48.922  26.823  36.214  1.00  0.00    -0.237 OA
ATOM     80  O   UNL A   1      48.236  27.610  38.448  1.00  0.00    -0.744 OA
ENDBRANCH  76  77
ENDBRANCH  55  69
BRANCH  56  81
ATOM     81  C   UNL A   1      36.565  33.281  30.894  1.00  0.00     0.058 A 
ATOM     82  C   UNL A   1      35.246  33.128  31.347  1.00  0.00     0.135 A 
ATOM     83  C   UNL A   1      36.786  34.125  29.795  1.00  0.00     0.135 A 
ATOM     84  F   UNL A   1      34.985  32.322  32.387  1.00  0.00    -0.206 F 
ATOM     85  C   UNL A   1      34.185  33.782  30.731  1.00  0.00     0.059 A 
ATOM     86  C   UNL A   1      35.744  34.809  29.178  1.00  0.00     0.059 A 
ATOM     87  F   UNL A   1      38.031  34.312  29.330  1.00  0.00    -0.206 F 
ATOM     88  C   UNL A   1      34.445  34.625  29.649  1.00  0.00     0.060 A 
BRANCH  88  89
ATOM     89  S   UNL A   1      33.068  35.514  28.892  1.00  0.00     0.124 S 
ATOM     90  O   UNL A   1      32.420  34.456  28.126  1.00  0.00    -0.237 OA
ATOM     91  O   UNL A   1      32.336  35.999  30.058  1.00  0.00    -0.237 OA
ATOM     92  O   UNL A   1      33.731  36.550  28.105  1.00  0.00    -0.744 OA
ENDBRANCH  88  89
ENDBRANCH  56  81
BRANCH  68  93
ATOM     93  C   UNL A   1      39.880  34.278  36.937  1.00  0.00     0.058 A 
ATOM     94  C   UNL A   1      40.417  35.570  36.836  1.00  0.00     0.135 A 
ATOM     95  C   UNL A   1      39.132  33.961  38.081  1.00  0.00     0.135 A 
ATOM     96  F   UNL A   1      41.146  35.918  35.764  1.00  0.00    -0.206 F 
ATOM     97  C   UNL A   1      40.234  36.511  37.844  1.00  0.00     0.059 A 
ATOM     98  C   UNL A   1      38.920  34.892  39.093  1.00  0.00     0.059 A 
ATOM     99  F   UNL A   1      38.592  32.739  38.220  1.00  0.00    -0.206 F 
ATOM    100  C   UNL A   1      39.484  36.161  38.970  1.00  0.00     0.060 A 
BRANCH 100 101
ATOM    101  S   UNL A   1      39.232  37.399  40.259  1.00  0.00     0.124 S 
ATOM    102  O   UNL A   1      38.647  36.594  41.328  1.00  0.00    -0.237 OA
ATOM    103  O   UNL A   1      40.587  37.883  40.499  1.00  0.00    -0.237 OA
ATOM    104  O   UNL A   1      38.331  38.363  39.633  1.00  0.00    -0.744 OA
ENDBRANCH 100 101
ENDBRANCH  68  93
ENDBRANCH  42  43
ENDBRANCH  35  37
ENDBRANCH  34  35
ENDBRANCH   1  34
TORSDOF 16
ENDMDL
MODEL 2
REMARK VINA RESULT:     -10.1      4.631     12.446
REMARK SMILES C[NH+]1CCN(c2nc3c(cc2F)c(=O)c(C(=O)OCCOC(=O)c2ccc(-c4c5nc(c(-c6c(F)cc(S(=O)(=O)[O-])cc6F)c6ccc([nH]6)c(-c6c(F)cc(S(=O)(=O)[O-])cc6F)c6nc(c(-c7c(F)cc(S(=O)(=O)[O-])cc7F)c7ccc4[nH]7)C=C6)C=C5)cc2)cn3-c2ccc(F)cc2F)CC1
REMARK SMILES IDX 20 1 19 2 18 3 16 4 17 5 15 6 6 7 7 8 11 9 8 10 10 11 12 12
REMARK SMILES IDX 9 13 91 14 13 15 90 16 14 17 5 18 1 19 2 20 3 21 101 22 4 24
REMARK SMILES IDX 100 25 92 26 93 27 98 28 94 29 97 30 99 31 95 32 96 33 21 34
REMARK SMILES IDX 22 35 23 36 24 37 25 38 89 39 26 40 88 41 27 42 28 43 29 44
REMARK SMILES IDX 82 45 30 46 87 47 81 48 83 49 31 50 86 51 80 52 79 53 32 55
REMARK SMILES IDX 66 56 45 57 65 58 46 59 49 60 64 61 84 62 47 63 48 64 63 66
REMARK SMILES IDX 85 67 50 68 33 69 34 70 43 71 35 72 36 73 42 74 44 75 37 76
REMARK SMILES IDX 38 77 39 78 40 79 41 80 67 81 68 82 77 83 69 84 70 85 76 86
REMARK SMILES IDX 78 87 71 88 72 89 73 90 74 91 75 92 51 93 52 94 61 95 53 96
REMARK SMILES IDX 54 97 60 98 62 99 55 100 56 101 57 102 58 103 59 104
REMARK H PARENT 2 23 83 54 49 65
REMARK Flexibility Score: inf
ROOT
ATOM      1  C   UNL A   1      35.150  32.332  30.096  1.00  0.00     0.275 C 
ENDROOT
BRANCH   1   2
ATOM      2  C   UNL A   1      34.932  33.020  31.442  1.00  0.00     0.275 C 
BRANCH   2   3
ATOM      3  O   UNL A   1      35.657  34.263  31.489  1.00  0.00    -0.458 OA
BRANCH   3   4
ATOM      4  C   UNL A   1      36.278  34.561  32.653  1.00  0.00     0.343 C 
ATOM      5  O   UNL A   1      35.843  35.287  33.535  1.00  0.00    -0.246 OA
BRANCH   4   6
ATOM      6  C   UNL A   1      37.547  33.825  32.778  1.00  0.00     0.124 A 
ATOM      7  C   UNL A   1      41.347  30.504  33.148  1.00  0.00     0.167 A 
ATOM      8  N   UNL A   1      41.237  31.739  32.606  1.00  0.00    -0.209 NA
ATOM      9  C   UNL A   1      40.293  29.934  33.873  1.00  0.00     0.166 A 
ATOM     10  C   UNL A   1      40.058  32.410  32.719  1.00  0.00     0.151 A 
ATOM     11  C   UNL A   1      39.115  30.627  34.055  1.00  0.00     0.059 A 
ATOM     12  F   UNL A   1      40.413  28.711  34.418  1.00  0.00    -0.203 F 
ATOM     13  C   UNL A   1      38.991  31.876  33.458  1.00  0.00     0.069 A 
ATOM     14  N   UNL A   1      39.874  33.663  32.051  1.00  0.00    -0.297 N 
ATOM     15  C   UNL A   1      37.704  32.591  33.566  1.00  0.00     0.205 A 
ATOM     16  C   UNL A   1      38.616  34.251  32.089  1.00  0.00     0.113 A 
ATOM     17  O   UNL A   1      36.791  32.110  34.230  1.00  0.00    -0.288 OA
BRANCH   7  18
ATOM     18  N   UNL A   1      42.511  29.798  32.975  1.00  0.00    -0.343 N 
ATOM     19  C   UNL A   1      46.283  28.779  31.456  1.00  0.00     0.332 C 
ATOM     20  N   UNL A   1      45.088  28.705  32.294  1.00  0.00    -0.334 N 
ATOM     21  C   UNL A   1      43.879  28.478  31.454  1.00  0.00     0.283 C 
ATOM     22  C   UNL A   1      44.944  29.957  33.074  1.00  0.00     0.283 C 
ATOM     23  H   UNL A   1      45.183  27.920  32.939  1.00  0.00     0.347 HD
ATOM     24  C   UNL A   1      42.541  28.539  32.243  1.00  0.00     0.179 C 
ATOM     25  C   UNL A   1      43.632  30.022  33.880  1.00  0.00     0.179 C 
ENDBRANCH   7  18
BRANCH  14  26
ATOM     26  C   UNL A   1      40.912  34.295  31.300  1.00  0.00     0.083 A 
ATOM     27  C   UNL A   1      42.084  34.736  31.936  1.00  0.00     0.033 A 
ATOM     28  C   UNL A   1      40.809  34.459  29.905  1.00  0.00     0.150 A 
ATOM     29  C   UNL A   1      43.117  35.313  31.191  1.00  0.00     0.041 A 
ATOM     30  C   UNL A   1      41.825  35.052  29.162  1.00  0.00     0.080 A 
ATOM     31  F   UNL A   1      39.706  34.043  29.264  1.00  0.00    -0.205 F 
ATOM     32  C   UNL A   1      42.975  35.470  29.816  1.00  0.00     0.126 A 
ATOM     33  F   UNL A   1      43.966  36.036  29.117  1.00  0.00    -0.207 F 
ENDBRANCH  14  26
ENDBRANCH   4   6
ENDBRANCH   3   4
ENDBRANCH   2   3
ENDBRANCH   1   2
BRANCH   1  34
ATOM     34  O   UNL A   1      35.913  31.126  30.278  1.00  0.00    -0.458 OA
BRANCH  34  35
ATOM     35  C   UNL A   1      36.118  30.397  29.157  1.00  0.00     0.338 C 
ATOM     36  O   UNL A   1      35.281  29.973  28.382  1.00  0.00    -0.246 OA
BRANCH  35  37
ATOM     37  C   UNL A   1      37.562  30.223  28.948  1.00  0.00     0.060 A 
ATOM     38  C   UNL A   1      38.018  29.850  27.686  1.00  0.00     0.016 A 
ATOM     39  C   UNL A   1      38.441  30.286  30.026  1.00  0.00     0.016 A 
ATOM     40  C   UNL A   1      39.333  29.431  27.514  1.00  0.00     0.010 A 
ATOM     41  C   UNL A   1      39.786  29.958  29.832  1.00  0.00     0.010 A 
ATOM     42  C   UNL A   1      40.236  29.485  28.585  1.00  0.00    -0.014 A 
BRANCH  42  43
ATOM     43  C   UNL A   1      41.630  28.999  28.419  1.00  0.00     0.031 A 
ATOM     44  C   UNL A   1      42.780  29.955  28.599  1.00  0.00     0.074 A 
ATOM     45  C   UNL A   1      41.874  27.704  28.136  1.00  0.00     0.049 A 
ATOM     46  N   UNL A   1      44.048  29.784  28.328  1.00  0.00    -0.248 NA
ATOM     47  C   UNL A   1      42.459  31.279  29.158  1.00  0.00     0.031 C 
ATOM     48  C   UNL A   1      40.858  26.656  28.012  1.00  0.00     0.029 A 
ATOM     49  N   UNL A   1      43.057  27.044  27.911  1.00  0.00    -0.354 N 
ATOM     50  C   UNL A   1      44.671  30.985  28.646  1.00  0.00     0.074 A 
ATOM     51  C   UNL A   1      43.640  31.883  29.122  1.00  0.00     0.031 C 
ATOM     52  C   UNL A   1      41.463  25.483  27.768  1.00  0.00     0.029 A 
ATOM     53  C   UNL A   1      42.898  25.706  27.636  1.00  0.00     0.049 A 
ATOM     54  H   UNL A   1      43.935  27.488  27.942  1.00  0.00     0.167 HD
ATOM     55  C   UNL A   1      45.983  31.307  28.552  1.00  0.00     0.037 A 
ATOM     56  C   UNL A   1      43.800  24.772  27.279  1.00  0.00     0.037 A 
ATOM     57  C   UNL A   1      47.007  30.399  28.104  1.00  0.00     0.049 A 
ATOM     58  C   UNL A   1      45.238  25.173  27.107  1.00  0.00     0.074 A 
ATOM     59  C   UNL A   1      48.359  30.639  27.931  1.00  0.00     0.029 A 
ATOM     60  N   UNL A   1      46.795  29.067  27.779  1.00  0.00    -0.354 N 
ATOM     61  N   UNL A   1      45.797  26.343  27.308  1.00  0.00    -0.248 NA
ATOM     62  C   UNL A   1      46.163  24.135  26.632  1.00  0.00     0.031 C 
ATOM     63  C   UNL A   1      48.960  29.459  27.480  1.00  0.00     0.029 A 
ATOM     64  C   UNL A   1      47.990  28.474  27.406  1.00  0.00     0.049 A 
ATOM     65  H   UNL A   1      45.923  28.610  27.810  1.00  0.00     0.167 HD
ATOM     66  C   UNL A   1      47.142  26.178  26.996  1.00  0.00     0.074 A 
ATOM     67  C   UNL A   1      47.315  24.793  26.607  1.00  0.00     0.031 C 
ATOM     68  C   UNL A   1      48.142  27.093  27.024  1.00  0.00     0.037 A 
BRANCH  55  69
ATOM     69  C   UNL A   1      46.387  32.708  28.920  1.00  0.00     0.058 A 
ATOM     70  C   UNL A   1      46.720  33.056  30.238  1.00  0.00     0.135 A 
ATOM     71  C   UNL A   1      46.481  33.704  27.934  1.00  0.00     0.135 A 
ATOM     72  F   UNL A   1      46.623  32.148  31.221  1.00  0.00    -0.206 F 
ATOM     73  C   UNL A   1      47.120  34.347  30.568  1.00  0.00     0.059 A 
ATOM     74  C   UNL A   1      46.900  34.997  28.238  1.00  0.00     0.059 A 
ATOM     75  F   UNL A   1      46.169  33.425  26.659  1.00  0.00    -0.206 F 
ATOM     76  C   UNL A   1      47.208  35.310  29.561  1.00  0.00     0.060 A 
BRANCH  76  77
ATOM     77  S   UNL A   1      47.743  36.977  30.005  1.00  0.00     0.124 S 
ATOM     78  O   UNL A   1      46.470  37.614  30.331  1.00  0.00    -0.237 OA
ATOM     79  O   UNL A   1      48.636  36.730  31.132  1.00  0.00    -0.237 OA
ATOM     80  O   UNL A   1      48.392  37.461  28.790  1.00  0.00    -0.744 OA
ENDBRANCH  76  77
ENDBRANCH  55  69
BRANCH  56  81
ATOM     81  C   UNL A   1      43.365  23.373  27.031  1.00  0.00     0.058 A 
ATOM     82  C   UNL A   1      43.265  22.873  25.724  1.00  0.00     0.135 A 
ATOM     83  C   UNL A   1      43.056  22.504  28.089  1.00  0.00     0.135 A 
ATOM     84  F   UNL A   1      43.539  23.671  24.680  1.00  0.00    -0.206 F 
ATOM     85  C   UNL A   1      42.870  21.565  25.473  1.00  0.00     0.059 A 
ATOM     86  C   UNL A   1      42.682  21.183  27.864  1.00  0.00     0.059 A 
ATOM     87  F   UNL A   1      43.146  22.930  29.358  1.00  0.00    -0.206 F 
ATOM     88  C   UNL A   1      42.584  20.725  26.551  1.00  0.00     0.060 A 
BRANCH  88  89
ATOM     89  S   UNL A   1      42.126  19.010  26.218  1.00  0.00     0.124 S 
ATOM     90  O   UNL A   1      42.389  18.380  27.507  1.00  0.00    -0.237 OA
ATOM     91  O   UNL A   1      40.720  19.135  25.843  1.00  0.00    -0.237 OA
ATOM     92  O   UNL A   1      43.024  18.629  25.132  1.00  0.00    -0.744 OA
ENDBRANCH  88  89
ENDBRANCH  56  81
BRANCH  68  93
ATOM     93  C   UNL A   1      49.515  26.618  26.648  1.00  0.00     0.058 A 
ATOM     94  C   UNL A   1      50.381  26.053  27.597  1.00  0.00     0.135 A 
ATOM     95  C   UNL A   1      49.953  26.691  25.317  1.00  0.00     0.135 A 
ATOM     96  F   UNL A   1      50.010  25.969  28.884  1.00  0.00    -0.206 F 
ATOM     97  C   UNL A   1      51.645  25.595  27.242  1.00  0.00     0.059 A 
ATOM     98  C   UNL A   1      51.205  26.220  24.935  1.00  0.00     0.059 A 
ATOM     99  F   UNL A   1      49.158  27.215  24.370  1.00  0.00    -0.206 F 
ATOM    100  C   UNL A   1      52.048  25.683  25.908  1.00  0.00     0.060 A 
BRANCH 100 101
ATOM    101  S   UNL A   1      53.681  25.060  25.454  1.00  0.00     0.124 S 
ATOM    102  O   UNL A   1      54.003  25.894  24.301  1.00  0.00    -0.237 OA
ATOM    103  O   UNL A   1      54.461  25.317  26.661  1.00  0.00    -0.237 OA
ATOM    104  O   UNL A   1      53.437  23.650  25.163  1.00  0.00    -0.744 OA
ENDBRANCH 100 101
ENDBRANCH  68  93
ENDBRANCH  42  43
ENDBRANCH  35  37
ENDBRANCH  34  35
ENDBRANCH   1  34
TORSDOF 16
ENDMDL
MODEL 3
REMARK VINA RESULT:      -9.7      9.222     14.766
REMARK SMILES C[NH+]1CCN(c2nc3c(cc2F)c(=O)c(C(=O)OCCOC(=O)c2ccc(-c4c5nc(c(-c6c(F)cc(S(=O)(=O)[O-])cc6F)c6ccc([nH]6)c(-c6c(F)cc(S(=O)(=O)[O-])cc6F)c6nc(c(-c7c(F)cc(S(=O)(=O)[O-])cc7F)c7ccc4[nH]7)C=C6)C=C5)cc2)cn3-c2ccc(F)cc2F)CC1
REMARK SMILES IDX 20 1 19 2 18 3 16 4 17 5 15 6 6 7 7 8 11 9 8 10 10 11 12 12
REMARK SMILES IDX 9 13 91 14 13 15 90 16 14 17 5 18 1 19 2 20 3 21 101 22 4 24
REMARK SMILES IDX 100 25 92 26 93 27 98 28 94 29 97 30 99 31 95 32 96 33 21 34
REMARK SMILES IDX 22 35 23 36 24 37 25 38 89 39 26 40 88 41 27 42 28 43 29 44
REMARK SMILES IDX 82 45 30 46 87 47 81 48 83 49 31 50 86 51 80 52 79 53 32 55
REMARK SMILES IDX 66 56 45 57 65 58 46 59 49 60 64 61 84 62 47 63 48 64 63 66
REMARK SMILES IDX 85 67 50 68 33 69 34 70 43 71 35 72 36 73 42 74 44 75 37 76
REMARK SMILES IDX 38 77 39 78 40 79 41 80 67 81 68 82 77 83 69 84 70 85 76 86
REMARK SMILES IDX 78 87 71 88 72 89 73 90 74 91 75 92 51 93 52 94 61 95 53 96
REMARK SMILES IDX 54 97 60 98 62 99 55 100 56 101 57 102 58 103 59 104
REMARK H PARENT 2 23 83 54 49 65
REMARK Flexibility Score: inf
ROOT
ATOM      1  C   UNL A   1      45.771  38.530  27.294  1.00  0.00     0.275 C 
ENDROOT
BRANCH   1   2
ATOM      2  C   UNL A   1      45.631  39.633  26.247  1.00  0.00     0.275 C 
BRANCH   2   3
ATOM      3  O   UNL A   1      44.337  40.255  26.348  1.00  0.00    -0.458 OA
BRANCH   3   4
ATOM      4  C   UNL A   1      44.300  41.603  26.246  1.00  0.00     0.343 C 
ATOM      5  O   UNL A   1      44.397  42.397  27.171  1.00  0.00    -0.246 OA
BRANCH   4   6
ATOM      6  C   UNL A   1      44.205  42.023  24.839  1.00  0.00     0.124 A 
ATOM      7  C   UNL A   1      43.057  43.900  20.282  1.00  0.00     0.167 A 
ATOM      8  N   UNL A   1      44.223  43.655  20.922  1.00  0.00    -0.209 NA
ATOM      9  C   UNL A   1      41.829  43.519  20.839  1.00  0.00     0.166 A 
ATOM     10  C   UNL A   1      44.193  43.083  22.157  1.00  0.00     0.151 A 
ATOM     11  C   UNL A   1      41.784  42.878  22.058  1.00  0.00     0.059 A 
ATOM     12  F   UNL A   1      40.675  43.756  20.191  1.00  0.00    -0.203 F 
ATOM     13  C   UNL A   1      42.982  42.670  22.733  1.00  0.00     0.069 A 
ATOM     14  N   UNL A   1      45.402  42.926  22.909  1.00  0.00    -0.297 N 
ATOM     15  C   UNL A   1      42.943  42.067  24.080  1.00  0.00     0.205 A 
ATOM     16  C   UNL A   1      45.310  42.455  24.212  1.00  0.00     0.113 A 
ATOM     17  O   UNL A   1      41.873  41.700  24.555  1.00  0.00    -0.288 OA
BRANCH   7  18
ATOM     18  N   UNL A   1      43.081  44.540  19.068  1.00  0.00    -0.343 N 
ATOM     19  C   UNL A   1      42.003  47.231  16.038  1.00  0.00     0.332 C 
ATOM     20  N   UNL A   1      42.762  46.187  16.726  1.00  0.00    -0.334 N 
ATOM     21  C   UNL A   1      41.894  45.007  16.995  1.00  0.00     0.283 C 
ATOM     22  C   UNL A   1      43.312  46.720  17.995  1.00  0.00     0.283 C 
ATOM     23  H   UNL A   1      43.533  45.889  16.128  1.00  0.00     0.347 HD
ATOM     24  C   UNL A   1      42.571  43.907  17.859  1.00  0.00     0.179 C 
ATOM     25  C   UNL A   1      44.008  45.645  18.853  1.00  0.00     0.179 C 
ENDBRANCH   7  18
BRANCH  14  26
ATOM     26  C   UNL A   1      46.683  43.293  22.394  1.00  0.00     0.083 A 
ATOM     27  C   UNL A   1      47.348  44.430  22.879  1.00  0.00     0.033 A 
ATOM     28  C   UNL A   1      47.330  42.509  21.419  1.00  0.00     0.150 A 
ATOM     29  C   UNL A   1      48.620  44.761  22.405  1.00  0.00     0.041 A 
ATOM     30  C   UNL A   1      48.588  42.844  20.929  1.00  0.00     0.080 A 
ATOM     31  F   UNL A   1      46.727  41.410  20.938  1.00  0.00    -0.205 F 
ATOM     32  C   UNL A   1      49.223  43.970  21.432  1.00  0.00     0.126 A 
ATOM     33  F   UNL A   1      50.437  44.305  20.978  1.00  0.00    -0.207 F 
ENDBRANCH  14  26
ENDBRANCH   4   6
ENDBRANCH   3   4
ENDBRANCH   2   3
ENDBRANCH   1   2
BRANCH   1  34
ATOM     34  O   UNL A   1      46.622  37.483  26.795  1.00  0.00    -0.458 OA
BRANCH  34  35
ATOM     35  C   UNL A   1      47.467  36.943  27.702  1.00  0.00     0.338 C 
ATOM     36  O   UNL A   1      48.205  37.530  28.472  1.00  0.00    -0.246 OA
BRANCH  35  37
ATOM     37  C   UNL A   1      47.331  35.480  27.683  1.00  0.00     0.060 A 
ATOM     38  C   UNL A   1      47.012  34.850  26.482  1.00  0.00     0.016 A 
ATOM     39  C   UNL A   1      47.377  34.755  28.871  1.00  0.00     0.016 A 
ATOM     40  C   UNL A   1      46.628  33.513  26.476  1.00  0.00     0.010 A 
ATOM     41  C   UNL A   1      47.085  33.388  28.849  1.00  0.00     0.010 A 
ATOM     42  C   UNL A   1      46.664  32.764  27.659  1.00  0.00    -0.014 A 
BRANCH  42  43
ATOM     43  C   UNL A   1      46.215  31.347  27.667  1.00  0.00     0.031 A 
ATOM     44  C   UNL A   1      47.192  30.253  27.325  1.00  0.00     0.074 A 
ATOM     45  C   UNL A   1      44.949  31.034  28.005  1.00  0.00     0.049 A 
ATOM     46  N   UNL A   1      46.966  28.984  27.100  1.00  0.00    -0.248 NA
ATOM     47  C   UNL A   1      48.609  30.637  27.221  1.00  0.00     0.031 C 
ATOM     48  C   UNL A   1      43.923  31.988  28.432  1.00  0.00     0.029 A 
ATOM     49  N   UNL A   1      44.309  29.819  28.052  1.00  0.00    -0.354 N 
ATOM     50  C   UNL A   1      48.202  28.426  26.792  1.00  0.00     0.074 A 
ATOM     51  C   UNL A   1      49.175  29.497  26.849  1.00  0.00     0.031 C 
ATOM     52  C   UNL A   1      42.797  31.320  28.730  1.00  0.00     0.029 A 
ATOM     53  C   UNL A   1      42.992  29.905  28.437  1.00  0.00     0.049 A 
ATOM     54  H   UNL A   1      44.752  28.969  27.829  1.00  0.00     0.167 HD
ATOM     55  C   UNL A   1      48.496  27.138  26.493  1.00  0.00     0.037 A 
ATOM     56  C   UNL A   1      42.037  28.958  28.509  1.00  0.00     0.037 A 
ATOM     57  C   UNL A   1      47.527  26.074  26.466  1.00  0.00     0.049 A 
ATOM     58  C   UNL A   1      42.370  27.551  28.097  1.00  0.00     0.074 A 
ATOM     59  C   UNL A   1      47.715  24.744  26.133  1.00  0.00     0.029 A 
ATOM     60  N   UNL A   1      46.189  26.214  26.807  1.00  0.00    -0.354 N 
ATOM     61  N   UNL A   1      43.521  27.059  27.704  1.00  0.00    -0.248 NA
ATOM     62  C   UNL A   1      41.269  26.578  28.111  1.00  0.00     0.031 C 
ATOM     63  C   UNL A   1      46.485  24.085  26.250  1.00  0.00     0.029 A 
ATOM     64  C   UNL A   1      45.541  24.996  26.691  1.00  0.00     0.049 A 
ATOM     65  H   UNL A   1      45.764  27.056  27.090  1.00  0.00     0.167 HD
ATOM     66  C   UNL A   1      43.286  25.715  27.436  1.00  0.00     0.074 A 
ATOM     67  C   UNL A   1      41.887  25.469  27.726  1.00  0.00     0.031 C 
ATOM     68  C   UNL A   1      44.149  24.771  26.986  1.00  0.00     0.037 A 
BRANCH  55  69
ATOM     69  C   UNL A   1      49.922  26.811  26.148  1.00  0.00     0.058 A 
ATOM     70  C   UNL A   1      50.856  26.456  27.134  1.00  0.00     0.135 A 
ATOM     71  C   UNL A   1      50.350  26.811  24.810  1.00  0.00     0.135 A 
ATOM     72  F   UNL A   1      50.504  26.463  28.430  1.00  0.00    -0.206 F 
ATOM     73  C   UNL A   1      52.167  26.126  26.807  1.00  0.00     0.059 A 
ATOM     74  C   UNL A   1      51.651  26.463  24.458  1.00  0.00     0.059 A 
ATOM     75  F   UNL A   1      49.498  27.147  23.829  1.00  0.00    -0.206 F 
ATOM     76  C   UNL A   1      52.555  26.131  25.466  1.00  0.00     0.060 A 
BRANCH  76  77
ATOM     77  S   UNL A   1      54.257  25.686  25.058  1.00  0.00     0.124 S 
ATOM     78  O   UNL A   1      54.180  24.227  25.040  1.00  0.00    -0.237 OA
ATOM     79  O   UNL A   1      54.446  26.327  23.761  1.00  0.00    -0.237 OA
ATOM     80  O   UNL A   1      55.031  26.258  26.155  1.00  0.00    -0.744 OA
ENDBRANCH  76  77
ENDBRANCH  55  69
BRANCH  56  81
ATOM     81  C   UNL A   1      40.666  29.314  28.960  1.00  0.00     0.058 A 
ATOM     82  C   UNL A   1      39.631  29.502  28.033  1.00  0.00     0.135 A 
ATOM     83  C   UNL A   1      40.359  29.459  30.322  1.00  0.00     0.135 A 
ATOM     84  F   UNL A   1      39.881  29.386  26.719  1.00  0.00    -0.206 F 
ATOM     85  C   UNL A   1      38.342  29.826  28.437  1.00  0.00     0.059 A 
ATOM     86  C   UNL A   1      39.071  29.758  30.752  1.00  0.00     0.059 A 
ATOM     87  F   UNL A   1      41.312  29.280  31.250  1.00  0.00    -0.206 F 
ATOM     88  C   UNL A   1      38.070  29.948  29.801  1.00  0.00     0.060 A 
BRANCH  88  89
ATOM     89  S   UNL A   1      36.379  30.313  30.320  1.00  0.00     0.124 S 
ATOM     90  O   UNL A   1      35.604  29.697  29.249  1.00  0.00    -0.237 OA
ATOM     91  O   UNL A   1      36.307  29.654  31.620  1.00  0.00    -0.237 OA
ATOM     92  O   UNL A   1      36.351  31.772  30.363  1.00  0.00    -0.744 OA
ENDBRANCH  88  89
ENDBRANCH  56  81
BRANCH  68  93
ATOM     93  C   UNL A   1      43.609  23.382  26.804  1.00  0.00     0.058 A 
ATOM     94  C   UNL A   1      43.374  22.849  25.527  1.00  0.00     0.135 A 
ATOM     95  C   UNL A   1      43.363  22.563  27.916  1.00  0.00     0.135 A 
ATOM     96  F   UNL A   1      43.587  23.596  24.433  1.00  0.00    -0.206 F 
ATOM     97  C   UNL A   1      42.894  21.555  25.360  1.00  0.00     0.059 A 
ATOM     98  C   UNL A   1      42.902  21.258  27.772  1.00  0.00     0.059 A 
ATOM     99  F   UNL A   1      43.580  23.025  29.158  1.00  0.00    -0.206 F 
ATOM    100  C   UNL A   1      42.660  20.767  26.490  1.00  0.00     0.060 A 
BRANCH 100 101
ATOM    101  S   UNL A   1      42.062  19.079  26.259  1.00  0.00     0.124 S 
ATOM    102  O   UNL A   1      42.935  18.602  25.191  1.00  0.00    -0.237 OA
ATOM    103  O   UNL A   1      42.285  18.485  27.573  1.00  0.00    -0.237 OA
ATOM    104  O   UNL A   1      40.661  19.263  25.891  1.00  0.00    -0.744 OA
ENDBRANCH 100 101
ENDBRANCH  68  93
ENDBRANCH  42  43
ENDBRANCH  35  37
ENDBRANCH  34  35
ENDBRANCH   1  34
TORSDOF 16
ENDMDL
