MODEL 1
REMARK VINA RESULT:     -10.6      0.000      0.000
REMARK SMILES C[C@@H]1CN(S(=O)(=O)[C@@H](C)C(=O)OCCOC(=O)c2ccc(-c3c4nc(c(-c5c(F)cc(S(=O)(=O)[O-])cc5F)c5ccc([nH]5)c(-c5c(F)cc(S(=O)(=O)[O-])cc5F)c5nc(c(-c6c(F)cc(S(=O)(=O)[O-])cc6F)c6ccc3[nH]6)C=C5)C=C4)cc2)CC[C@@H]1[NH3+]
REMARK SMILES IDX 13 1 12 2 10 3 11 4 8 5 9 6 5 7 6 8 7 9 4 10 1 11 2 12 3 13
REMARK SMILES IDX 86 14 85 15 84 16 87 17 14 21 15 22 16 23 17 24 18 25 19 26
REMARK SMILES IDX 83 27 20 28 82 29 21 30 22 31 23 32 76 33 24 34 81 35 75 36
REMARK SMILES IDX 77 37 25 38 80 39 74 40 73 41 26 43 60 44 39 45 59 46 40 47
REMARK SMILES IDX 43 48 58 49 78 50 41 51 42 52 57 54 79 55 44 56 27 57 28 58
REMARK SMILES IDX 37 59 29 60 30 61 36 62 38 63 31 64 32 65 33 66 34 67 35 68
REMARK SMILES IDX 61 69 62 70 71 71 63 72 64 73 70 74 72 75 65 76 66 77 67 78
REMARK SMILES IDX 68 79 69 80 45 81 46 82 55 83 47 84 48 85 54 86 56 87 49 88
REMARK SMILES IDX 50 89 51 90 52 91 53 92
REMARK H PARENT 87 18 87 19 87 20 77 42 43 53
REMARK Flexibility Score: inf
ROOT
ATOM      1  C   UNL A   1      39.951  21.316  26.310  1.00  0.00     0.274 C 
ENDROOT
BRANCH   1   2
ATOM      2  O   UNL A   1      38.743  21.888  25.755  1.00  0.00    -0.461 OA
BRANCH   2   3
ATOM      3  C   UNL A   1      37.831  21.030  25.237  1.00  0.00     0.325 C 
ATOM      4  O   UNL A   1      38.142  19.979  24.684  1.00  0.00    -0.251 OA
BRANCH   3   5
ATOM      5  C   UNL A   1      36.429  21.546  25.226  1.00  0.00     0.230 C 
ATOM      6  C   UNL A   1      35.409  20.433  25.096  1.00  0.00     0.039 C 
BRANCH   5   7
ATOM      7  S   UNL A   1      36.110  22.965  24.199  1.00  0.00     0.227 S 
ATOM      8  O   UNL A   1      36.677  22.762  22.887  1.00  0.00    -0.211 OA
ATOM      9  O   UNL A   1      36.549  24.105  24.987  1.00  0.00    -0.211 OA
BRANCH   7  10
ATOM     10  N   UNL A   1      34.424  23.149  24.009  1.00  0.00    -0.200 NA
ATOM     11  C   UNL A   1      32.175  21.812  22.656  1.00  0.00     0.015 C 
ATOM     12  C   UNL A   1      32.475  23.314  22.520  1.00  0.00     0.059 C 
ATOM     13  C   UNL A   1      33.973  23.613  22.666  1.00  0.00     0.111 C 
ATOM     14  C   UNL A   1      31.731  24.188  23.548  1.00  0.00     0.186 C 
ATOM     15  C   UNL A   1      32.273  23.977  24.970  1.00  0.00     0.082 C 
ATOM     16  C   UNL A   1      33.804  24.053  25.038  1.00  0.00     0.108 C 
BRANCH  14  17
ATOM     17  N   UNL A   1      30.282  23.960  23.508  1.00  0.00    -0.355 N 
ATOM     18  H   UNL A   1      29.861  24.574  22.813  1.00  0.00     0.344 HD
ATOM     19  H   UNL A   1      29.883  24.160  24.425  1.00  0.00     0.344 HD
ATOM     20  H   UNL A   1      30.097  22.988  23.261  1.00  0.00     0.344 HD
ENDBRANCH  14  17
ENDBRANCH   7  10
ENDBRANCH   5   7
ENDBRANCH   3   5
ENDBRANCH   2   3
ENDBRANCH   1   2
BRANCH   1  21
ATOM     21  C   UNL A   1      41.088  22.336  26.437  1.00  0.00     0.275 C 
BRANCH  21  22
ATOM     22  O   UNL A   1      40.559  23.654  26.657  1.00  0.00    -0.458 OA
BRANCH  22  23
ATOM     23  C   UNL A   1      41.417  24.682  26.450  1.00  0.00     0.338 C 
ATOM     24  O   UNL A   1      42.261  24.759  25.575  1.00  0.00    -0.246 OA
BRANCH  23  25
ATOM     25  C   UNL A   1      41.128  25.736  27.440  1.00  0.00     0.060 A 
ATOM     26  C   UNL A   1      41.953  26.861  27.505  1.00  0.00     0.016 A 
ATOM     27  C   UNL A   1      40.063  25.592  28.330  1.00  0.00     0.016 A 
ATOM     28  C   UNL A   1      41.727  27.846  28.463  1.00  0.00     0.010 A 
ATOM     29  C   UNL A   1      39.835  26.581  29.294  1.00  0.00     0.010 A 
ATOM     30  C   UNL A   1      40.675  27.706  29.375  1.00  0.00    -0.014 A 
BRANCH  30  31
ATOM     31  C   UNL A   1      40.529  28.690  30.475  1.00  0.00     0.031 A 
ATOM     32  C   UNL A   1      41.429  28.587  31.673  1.00  0.00     0.074 A 
ATOM     33  C   UNL A   1      39.630  29.688  30.381  1.00  0.00     0.049 A 
ATOM     34  N   UNL A   1      41.434  29.301  32.769  1.00  0.00    -0.248 NA
ATOM     35  C   UNL A   1      42.461  27.538  31.631  1.00  0.00     0.031 C 
ATOM     36  C   UNL A   1      38.732  29.914  29.247  1.00  0.00     0.029 A 
ATOM     37  N   UNL A   1      39.324  30.699  31.257  1.00  0.00    -0.354 N 
ATOM     38  C   UNL A   1      42.465  28.788  33.549  1.00  0.00     0.074 A 
ATOM     39  C   UNL A   1      43.043  27.684  32.813  1.00  0.00     0.031 C 
ATOM     40  C   UNL A   1      37.967  30.988  29.504  1.00  0.00     0.029 A 
ATOM     41  C   UNL A   1      38.301  31.509  30.828  1.00  0.00     0.049 A 
ATOM     42  H   UNL A   1      39.793  30.830  32.112  1.00  0.00     0.167 HD
ATOM     43  C   UNL A   1      42.897  29.209  34.762  1.00  0.00     0.037 A 
ATOM     44  C   UNL A   1      37.692  32.542  31.442  1.00  0.00     0.037 A 
ATOM     45  C   UNL A   1      42.316  30.309  35.489  1.00  0.00     0.049 A 
ATOM     46  C   UNL A   1      38.171  32.972  32.804  1.00  0.00     0.074 A 
ATOM     47  C   UNL A   1      42.646  30.783  36.746  1.00  0.00     0.029 A 
ATOM     48  N   UNL A   1      41.292  31.115  35.014  1.00  0.00    -0.354 N 
ATOM     49  N   UNL A   1      39.122  32.454  33.545  1.00  0.00    -0.248 NA
ATOM     50  C   UNL A   1      37.503  34.132  33.409  1.00  0.00     0.031 C 
ATOM     51  C   UNL A   1      41.809  31.866  37.040  1.00  0.00     0.029 A 
ATOM     52  C   UNL A   1      40.984  32.089  35.949  1.00  0.00     0.049 A 
ATOM     53  H   UNL A   1      40.849  31.011  34.141  1.00  0.00     0.167 HD
ATOM     54  C   UNL A   1      39.186  33.245  34.689  1.00  0.00     0.074 A 
ATOM     55  C   UNL A   1      38.187  34.281  34.535  1.00  0.00     0.031 C 
ATOM     56  C   UNL A   1      39.997  33.124  35.769  1.00  0.00     0.037 A 
BRANCH  43  57
ATOM     57  C   UNL A   1      44.045  28.466  35.382  1.00  0.00     0.058 A 
ATOM     58  C   UNL A   1      43.835  27.348  36.207  1.00  0.00     0.135 A 
ATOM     59  C   UNL A   1      45.371  28.854  35.131  1.00  0.00     0.135 A 
ATOM     60  F   UNL A   1      42.586  26.948  36.496  1.00  0.00    -0.206 F 
ATOM     61  C   UNL A   1      44.897  26.655  36.777  1.00  0.00     0.059 A 
ATOM     62  C   UNL A   1      46.449  28.161  35.672  1.00  0.00     0.059 A 
ATOM     63  F   UNL A   1      45.628  29.917  34.353  1.00  0.00    -0.206 F 
ATOM     64  C   UNL A   1      46.202  27.069  36.505  1.00  0.00     0.060 A 
BRANCH  64  65
ATOM     65  S   UNL A   1      47.572  26.155  37.243  1.00  0.00     0.124 S 
ATOM     66  O   UNL A   1      47.884  26.984  38.404  1.00  0.00    -0.237 OA
ATOM     67  O   UNL A   1      46.966  24.860  37.534  1.00  0.00    -0.237 OA
ATOM     68  O   UNL A   1      48.582  26.147  36.190  1.00  0.00    -0.744 OA
ENDBRANCH  64  65
ENDBRANCH  43  57
BRANCH  44  69
ATOM     69  C   UNL A   1      36.549  33.235  30.788  1.00  0.00     0.058 A 
ATOM     70  C   UNL A   1      36.746  34.112  29.710  1.00  0.00     0.135 A 
ATOM     71  C   UNL A   1      35.236  33.051  31.247  1.00  0.00     0.135 A 
ATOM     72  F   UNL A   1      37.984  34.328  29.239  1.00  0.00    -0.206 F 
ATOM     73  C   UNL A   1      35.687  34.804  29.130  1.00  0.00     0.059 A 
ATOM     74  C   UNL A   1      34.158  33.712  30.668  1.00  0.00     0.059 A 
ATOM     75  F   UNL A   1      34.991  32.213  32.266  1.00  0.00    -0.206 F 
ATOM     76  C   UNL A   1      34.396  34.600  29.620  1.00  0.00     0.060 A 
BRANCH  76  77
ATOM     77  S   UNL A   1      33.020  35.485  28.852  1.00  0.00     0.124 S 
ATOM     78  O   UNL A   1      32.376  34.420  28.092  1.00  0.00    -0.237 OA
ATOM     79  O   UNL A   1      32.282  35.977  30.011  1.00  0.00    -0.237 OA
ATOM     80  O   UNL A   1      33.686  36.514  28.061  1.00  0.00    -0.744 OA
ENDBRANCH  76  77
ENDBRANCH  44  69
BRANCH  56  81
ATOM     81  C   UNL A   1      39.872  34.171  36.841  1.00  0.00     0.058 A 
ATOM     82  C   UNL A   1      40.620  35.358  36.808  1.00  0.00     0.135 A 
ATOM     83  C   UNL A   1      38.978  33.987  37.908  1.00  0.00     0.135 A 
ATOM     84  F   UNL A   1      41.490  35.581  35.810  1.00  0.00    -0.206 F 
ATOM     85  C   UNL A   1      40.516  36.309  37.818  1.00  0.00     0.059 A 
ATOM     86  C   UNL A   1      38.840  34.937  38.916  1.00  0.00     0.059 A 
ATOM     87  F   UNL A   1      38.229  32.875  37.979  1.00  0.00    -0.206 F 
ATOM     88  C   UNL A   1      39.627  36.086  38.872  1.00  0.00     0.060 A 
BRANCH  88  89
ATOM     89  S   UNL A   1      39.499  37.323  40.180  1.00  0.00     0.124 S 
ATOM     90  O   UNL A   1      40.891  37.738  40.329  1.00  0.00    -0.237 OA
ATOM     91  O   UNL A   1      38.603  38.315  39.592  1.00  0.00    -0.237 OA
ATOM     92  O   UNL A   1      38.943  36.573  41.302  1.00  0.00    -0.744 OA
ENDBRANCH  88  89
ENDBRANCH  56  81
ENDBRANCH  30  31
ENDBRANCH  23  25
ENDBRANCH  22  23
ENDBRANCH  21  22
ENDBRANCH   1  21
TORSDOF 17
ENDMDL
MODEL 2
REMARK VINA RESULT:     -10.4      5.186     12.332
REMARK SMILES C[C@@H]1CN(S(=O)(=O)[C@@H](C)C(=O)OCCOC(=O)c2ccc(-c3c4nc(c(-c5c(F)cc(S(=O)(=O)[O-])cc5F)c5ccc([nH]5)c(-c5c(F)cc(S(=O)(=O)[O-])cc5F)c5nc(c(-c6c(F)cc(S(=O)(=O)[O-])cc6F)c6ccc3[nH]6)C=C5)C=C4)cc2)CC[C@@H]1[NH3+]
REMARK SMILES IDX 13 1 12 2 10 3 11 4 8 5 9 6 5 7 6 8 7 9 4 10 1 11 2 12 3 13
REMARK SMILES IDX 86 14 85 15 84 16 87 17 14 21 15 22 16 23 17 24 18 25 19 26
REMARK SMILES IDX 83 27 20 28 82 29 21 30 22 31 23 32 76 33 24 34 81 35 75 36
REMARK SMILES IDX 77 37 25 38 80 39 74 40 73 41 26 43 60 44 39 45 59 46 40 47
REMARK SMILES IDX 43 48 58 49 78 50 41 51 42 52 57 54 79 55 44 56 27 57 28 58
REMARK SMILES IDX 37 59 29 60 30 61 36 62 38 63 31 64 32 65 33 66 34 67 35 68
REMARK SMILES IDX 61 69 62 70 71 71 63 72 64 73 70 74 72 75 65 76 66 77 67 78
REMARK SMILES IDX 68 79 69 80 45 81 46 82 55 83 47 84 48 85 54 86 56 87 49 88
REMARK SMILES IDX 50 89 51 90 52 91 53 92
REMARK H PARENT 87 18 87 19 87 20 77 42 43 53
REMARK Flexibility Score: inf
ROOT
ATOM      1  C   UNL A   1      35.024  34.098  27.824  1.00  0.00     0.274 C 
ENDROOT
BRANCH   1   2
ATOM      2  O   UNL A   1      34.582  34.751  29.039  1.00  0.00    -0.461 OA
BRANCH   2   3
ATOM      3  C   UNL A   1      33.250  34.945  29.189  1.00  0.00     0.325 C 
ATOM      4  O   UNL A   1      32.409  34.154  28.771  1.00  0.00    -0.251 OA
BRANCH   3   5
ATOM      5  C   UNL A   1      32.875  36.283  29.737  1.00  0.00     0.230 C 
ATOM      6  C   UNL A   1      33.569  37.416  29.010  1.00  0.00     0.039 C 
BRANCH   5   7
ATOM      7  S   UNL A   1      32.857  36.442  31.510  1.00  0.00     0.227 S 
ATOM      8  O   UNL A   1      31.541  36.140  32.020  1.00  0.00    -0.211 OA
ATOM      9  O   UNL A   1      33.432  37.750  31.776  1.00  0.00    -0.211 OA
BRANCH   7  10
ATOM     10  N   UNL A   1      33.942  35.309  32.183  1.00  0.00    -0.200 NA
ATOM     11  C   UNL A   1      34.718  32.489  31.836  1.00  0.00     0.015 C 
ATOM     12  C   UNL A   1      34.328  33.100  33.191  1.00  0.00     0.059 C 
ATOM     13  C   UNL A   1      33.325  34.249  33.032  1.00  0.00     0.111 C 
ATOM     14  C   UNL A   1      35.527  33.646  33.991  1.00  0.00     0.186 C 
ATOM     15  C   UNL A   1      36.120  34.904  33.337  1.00  0.00     0.082 C 
ATOM     16  C   UNL A   1      35.050  35.944  32.977  1.00  0.00     0.108 C 
BRANCH  14  17
ATOM     17  N   UNL A   1      36.564  32.626  34.181  1.00  0.00    -0.355 N 
ATOM     18  H   UNL A   1      36.529  32.279  35.139  1.00  0.00     0.344 HD
ATOM     19  H   UNL A   1      37.480  33.036  34.001  1.00  0.00     0.344 HD
ATOM     20  H   UNL A   1      36.404  31.853  33.534  1.00  0.00     0.344 HD
ENDBRANCH  14  17
ENDBRANCH   7  10
ENDBRANCH   5   7
ENDBRANCH   3   5
ENDBRANCH   2   3
ENDBRANCH   1   2
BRANCH   1  21
ATOM     21  C   UNL A   1      35.557  32.682  28.071  1.00  0.00     0.275 C 
BRANCH  21  22
ATOM     22  O   UNL A   1      34.497  31.814  28.504  1.00  0.00    -0.458 OA
BRANCH  22  23
ATOM     23  C   UNL A   1      34.549  30.540  28.046  1.00  0.00     0.338 C 
ATOM     24  O   UNL A   1      33.641  29.919  27.522  1.00  0.00    -0.246 OA
BRANCH  23  25
ATOM     25  C   UNL A   1      35.919  30.030  28.239  1.00  0.00     0.060 A 
ATOM     26  C   UNL A   1      36.324  29.612  29.508  1.00  0.00     0.016 A 
ATOM     27  C   UNL A   1      36.815  30.003  27.170  1.00  0.00     0.016 A 
ATOM     28  C   UNL A   1      37.627  29.173  29.723  1.00  0.00     0.010 A 
ATOM     29  C   UNL A   1      38.126  29.562  27.384  1.00  0.00     0.010 A 
ATOM     30  C   UNL A   1      38.544  29.158  28.665  1.00  0.00    -0.014 A 
BRANCH  30  31
ATOM     31  C   UNL A   1      39.962  28.820  28.934  1.00  0.00     0.031 A 
ATOM     32  C   UNL A   1      40.849  29.847  29.580  1.00  0.00     0.074 A 
ATOM     33  C   UNL A   1      40.437  27.594  28.644  1.00  0.00     0.049 A 
ATOM     34  N   UNL A   1      42.128  29.784  29.850  1.00  0.00    -0.248 NA
ATOM     35  C   UNL A   1      40.210  31.113  29.972  1.00  0.00     0.031 C 
ATOM     36  C   UNL A   1      39.659  26.503  28.055  1.00  0.00     0.029 A 
ATOM     37  N   UNL A   1      41.691  27.062  28.803  1.00  0.00    -0.354 N 
ATOM     38  C   UNL A   1      42.448  31.001  30.441  1.00  0.00     0.074 A 
ATOM     39  C   UNL A   1      41.237  31.794  30.462  1.00  0.00     0.031 C 
ATOM     40  C   UNL A   1      40.458  25.436  27.892  1.00  0.00     0.029 A 
ATOM     41  C   UNL A   1      41.808  25.775  28.338  1.00  0.00     0.049 A 
ATOM     42  H   UNL A   1      42.438  27.557  29.213  1.00  0.00     0.167 HD
ATOM     43  C   UNL A   1      43.642  31.414  30.932  1.00  0.00     0.037 A 
ATOM     44  C   UNL A   1      42.885  24.969  28.264  1.00  0.00     0.037 A 
ATOM     45  C   UNL A   1      44.843  30.620  30.907  1.00  0.00     0.049 A 
ATOM     46  C   UNL A   1      44.208  25.463  28.789  1.00  0.00     0.074 A 
ATOM     47  C   UNL A   1      46.114  30.964  31.331  1.00  0.00     0.029 A 
ATOM     48  N   UNL A   1      44.917  29.315  30.441  1.00  0.00    -0.354 N 
ATOM     49  N   UNL A   1      44.505  26.630  29.312  1.00  0.00    -0.248 NA
ATOM     50  C   UNL A   1      45.340  24.528  28.726  1.00  0.00     0.031 C 
ATOM     51  C   UNL A   1      46.962  29.873  31.107  1.00  0.00     0.029 A 
ATOM     52  C   UNL A   1      46.210  28.836  30.578  1.00  0.00     0.049 A 
ATOM     53  H   UNL A   1      44.162  28.804  30.070  1.00  0.00     0.167 HD
ATOM     54  C   UNL A   1      45.848  26.557  29.666  1.00  0.00     0.074 A 
ATOM     55  C   UNL A   1      46.302  25.229  29.311  1.00  0.00     0.031 C 
ATOM     56  C   UNL A   1      46.637  27.504  30.234  1.00  0.00     0.037 A 
BRANCH  43  57
ATOM     57  C   UNL A   1      43.704  32.793  31.525  1.00  0.00     0.058 A 
ATOM     58  C   UNL A   1      44.180  33.888  30.785  1.00  0.00     0.135 A 
ATOM     59  C   UNL A   1      43.262  33.031  32.835  1.00  0.00     0.135 A 
ATOM     60  F   UNL A   1      44.635  33.711  29.534  1.00  0.00    -0.206 F 
ATOM     61  C   UNL A   1      44.233  35.166  31.330  1.00  0.00     0.059 A 
ATOM     62  C   UNL A   1      43.284  34.305  33.394  1.00  0.00     0.059 A 
ATOM     63  F   UNL A   1      42.801  32.019  33.588  1.00  0.00    -0.206 F 
ATOM     64  C   UNL A   1      43.784  35.365  32.637  1.00  0.00     0.060 A 
BRANCH  64  65
ATOM     65  S   UNL A   1      43.850  37.031  33.330  1.00  0.00     0.124 S 
ATOM     66  O   UNL A   1      42.757  36.988  34.297  1.00  0.00    -0.237 OA
ATOM     67  O   UNL A   1      45.195  37.084  33.895  1.00  0.00    -0.237 OA
ATOM     68  O   UNL A   1      43.628  37.890  32.171  1.00  0.00    -0.744 OA
ENDBRANCH  64  65
ENDBRANCH  43  57
BRANCH  44  69
ATOM     69  C   UNL A   1      42.770  23.617  27.654  1.00  0.00     0.058 A 
ATOM     70  C   UNL A   1      42.509  22.482  28.436  1.00  0.00     0.135 A 
ATOM     71  C   UNL A   1      42.945  23.431  26.274  1.00  0.00     0.135 A 
ATOM     72  F   UNL A   1      42.342  22.606  29.762  1.00  0.00    -0.206 F 
ATOM     73  C   UNL A   1      42.454  21.208  27.878  1.00  0.00     0.059 A 
ATOM     74  C   UNL A   1      42.869  22.172  25.689  1.00  0.00     0.059 A 
ATOM     75  F   UNL A   1      43.184  24.486  25.478  1.00  0.00    -0.206 F 
ATOM     76  C   UNL A   1      42.640  21.064  26.502  1.00  0.00     0.060 A 
BRANCH  76  77
ATOM     77  S   UNL A   1      42.548  19.411  25.778  1.00  0.00     0.124 S 
ATOM     78  O   UNL A   1      41.141  19.335  25.402  1.00  0.00    -0.237 OA
ATOM     79  O   UNL A   1      43.499  19.502  24.674  1.00  0.00    -0.237 OA
ATOM     80  O   UNL A   1      42.958  18.542  26.876  1.00  0.00    -0.744 OA
ENDBRANCH  76  77
ENDBRANCH  44  69
BRANCH  56  81
ATOM     81  C   UNL A   1      48.054  27.114  30.555  1.00  0.00     0.058 A 
ATOM     82  C   UNL A   1      48.391  26.467  31.754  1.00  0.00     0.135 A 
ATOM     83  C   UNL A   1      49.084  27.381  29.639  1.00  0.00     0.135 A 
ATOM     84  F   UNL A   1      47.442  26.191  32.663  1.00  0.00    -0.206 F 
ATOM     85  C   UNL A   1      49.708  26.134  32.052  1.00  0.00     0.059 A 
ATOM     86  C   UNL A   1      50.405  27.034  29.907  1.00  0.00     0.059 A 
ATOM     87  F   UNL A   1      48.812  27.986  28.472  1.00  0.00    -0.206 F 
ATOM     88  C   UNL A   1      50.710  26.428  31.124  1.00  0.00     0.060 A 
BRANCH  88  89
ATOM     89  S   UNL A   1      52.417  25.995  31.520  1.00  0.00     0.124 S 
ATOM     90  O   UNL A   1      52.786  27.066  32.440  1.00  0.00    -0.237 OA
ATOM     91  O   UNL A   1      52.278  24.669  32.114  1.00  0.00    -0.237 OA
ATOM     92  O   UNL A   1      53.083  26.025  30.221  1.00  0.00    -0.744 OA
ENDBRANCH  88  89
ENDBRANCH  56  81
ENDBRANCH  30  31
ENDBRANCH  23  25
ENDBRANCH  22  23
ENDBRANCH  21  22
ENDBRANCH   1  21
TORSDOF 17
ENDMDL
MODEL 3
REMARK VINA RESULT:     -10.4      1.422      2.424
REMARK SMILES C[C@@H]1CN(S(=O)(=O)[C@@H](C)C(=O)OCCOC(=O)c2ccc(-c3c4nc(c(-c5c(F)cc(S(=O)(=O)[O-])cc5F)c5ccc([nH]5)c(-c5c(F)cc(S(=O)(=O)[O-])cc5F)c5nc(c(-c6c(F)cc(S(=O)(=O)[O-])cc6F)c6ccc3[nH]6)C=C5)C=C4)cc2)CC[C@@H]1[NH3+]
REMARK SMILES IDX 13 1 12 2 10 3 11 4 8 5 9 6 5 7 6 8 7 9 4 10 1 11 2 12 3 13
REMARK SMILES IDX 86 14 85 15 84 16 87 17 14 21 15 22 16 23 17 24 18 25 19 26
REMARK SMILES IDX 83 27 20 28 82 29 21 30 22 31 23 32 76 33 24 34 81 35 75 36
REMARK SMILES IDX 77 37 25 38 80 39 74 40 73 41 26 43 60 44 39 45 59 46 40 47
REMARK SMILES IDX 43 48 58 49 78 50 41 51 42 52 57 54 79 55 44 56 27 57 28 58
REMARK SMILES IDX 37 59 29 60 30 61 36 62 38 63 31 64 32 65 33 66 34 67 35 68
REMARK SMILES IDX 61 69 62 70 71 71 63 72 64 73 70 74 72 75 65 76 66 77 67 78
REMARK SMILES IDX 68 79 69 80 45 81 46 82 55 83 47 84 48 85 54 86 56 87 49 88
REMARK SMILES IDX 50 89 51 90 52 91 53 92
REMARK H PARENT 87 18 87 19 87 20 77 42 43 53
REMARK Flexibility Score: inf
ROOT
ATOM      1  C   UNL A   1      39.382  22.187  26.615  1.00  0.00     0.274 C 
ENDROOT
BRANCH   1   2
ATOM      2  O   UNL A   1      38.396  22.470  25.593  1.00  0.00    -0.461 OA
BRANCH   2   3
ATOM      3  C   UNL A   1      37.767  21.411  25.028  1.00  0.00     0.325 C 
ATOM      4  O   UNL A   1      38.230  20.275  25.042  1.00  0.00    -0.251 OA
BRANCH   3   5
ATOM      5  C   UNL A   1      36.557  21.763  24.227  1.00  0.00     0.230 C 
ATOM      6  C   UNL A   1      36.718  23.076  23.488  1.00  0.00     0.039 C 
BRANCH   5   7
ATOM      7  S   UNL A   1      34.981  21.556  25.029  1.00  0.00     0.227 S 
ATOM      8  O   UNL A   1      34.044  22.538  24.538  1.00  0.00    -0.211 OA
ATOM      9  O   UNL A   1      35.283  21.521  26.450  1.00  0.00    -0.211 OA
BRANCH   7  10
ATOM     10  N   UNL A   1      34.358  20.014  24.645  1.00  0.00    -0.200 NA
ATOM     11  C   UNL A   1      32.212  18.818  23.021  1.00  0.00     0.015 C 
ATOM     12  C   UNL A   1      32.432  18.492  24.507  1.00  0.00     0.059 C 
ATOM     13  C   UNL A   1      33.045  19.675  25.267  1.00  0.00     0.111 C 
ATOM     14  C   UNL A   1      33.345  17.273  24.742  1.00  0.00     0.186 C 
ATOM     15  C   UNL A   1      34.803  17.573  24.357  1.00  0.00     0.082 C 
ATOM     16  C   UNL A   1      35.312  18.892  24.951  1.00  0.00     0.108 C 
BRANCH  14  17
ATOM     17  N   UNL A   1      32.859  16.084  24.034  1.00  0.00    -0.355 N 
ATOM     18  H   UNL A   1      32.683  16.318  23.058  1.00  0.00     0.344 HD
ATOM     19  H   UNL A   1      31.994  15.761  24.467  1.00  0.00     0.344 HD
ATOM     20  H   UNL A   1      33.561  15.346  24.086  1.00  0.00     0.344 HD
ENDBRANCH  14  17
ENDBRANCH   7  10
ENDBRANCH   5   7
ENDBRANCH   3   5
ENDBRANCH   2   3
ENDBRANCH   1   2
BRANCH   1  21
ATOM     21  C   UNL A   1      40.780  22.696  26.247  1.00  0.00     0.275 C 
BRANCH  21  22
ATOM     22  O   UNL A   1      40.826  24.130  26.309  1.00  0.00    -0.458 OA
BRANCH  22  23
ATOM     23  C   UNL A   1      41.985  24.670  26.759  1.00  0.00     0.338 C 
ATOM     24  O   UNL A   1      43.111  24.371  26.404  1.00  0.00    -0.246 OA
BRANCH  23  25
ATOM     25  C   UNL A   1      41.659  25.734  27.727  1.00  0.00     0.060 A 
ATOM     26  C   UNL A   1      42.551  26.793  27.909  1.00  0.00     0.016 A 
ATOM     27  C   UNL A   1      40.489  25.661  28.483  1.00  0.00     0.016 A 
ATOM     28  C   UNL A   1      42.286  27.783  28.851  1.00  0.00     0.010 A 
ATOM     29  C   UNL A   1      40.222  26.656  29.431  1.00  0.00     0.010 A 
ATOM     30  C   UNL A   1      41.126  27.714  29.631  1.00  0.00    -0.014 A 
BRANCH  30  31
ATOM     31  C   UNL A   1      40.924  28.695  30.724  1.00  0.00     0.031 A 
ATOM     32  C   UNL A   1      41.798  28.623  31.944  1.00  0.00     0.074 A 
ATOM     33  C   UNL A   1      39.997  29.665  30.605  1.00  0.00     0.049 A 
ATOM     34  N   UNL A   1      41.754  29.339  33.037  1.00  0.00    -0.248 NA
ATOM     35  C   UNL A   1      42.862  27.606  31.929  1.00  0.00     0.031 C 
ATOM     36  C   UNL A   1      39.120  29.860  29.450  1.00  0.00     0.029 A 
ATOM     37  N   UNL A   1      39.639  30.668  31.470  1.00  0.00    -0.354 N 
ATOM     38  C   UNL A   1      42.781  28.861  33.843  1.00  0.00     0.074 A 
ATOM     39  C   UNL A   1      43.411  27.773  33.125  1.00  0.00     0.031 C 
ATOM     40  C   UNL A   1      38.316  30.911  29.685  1.00  0.00     0.029 A 
ATOM     41  C   UNL A   1      38.602  31.445  31.014  1.00  0.00     0.049 A 
ATOM     42  H   UNL A   1      40.083  30.816  32.336  1.00  0.00     0.167 HD
ATOM     43  C   UNL A   1      43.171  29.298  35.064  1.00  0.00     0.037 A 
ATOM     44  C   UNL A   1      37.947  32.460  31.610  1.00  0.00     0.037 A 
ATOM     45  C   UNL A   1      42.540  30.381  35.773  1.00  0.00     0.049 A 
ATOM     46  C   UNL A   1      38.380  32.908  32.982  1.00  0.00     0.074 A 
ATOM     47  C   UNL A   1      42.825  30.868  37.037  1.00  0.00     0.029 A 
ATOM     48  N   UNL A   1      41.503  31.154  35.272  1.00  0.00    -0.354 N 
ATOM     49  N   UNL A   1      39.329  32.422  33.748  1.00  0.00    -0.248 NA
ATOM     50  C   UNL A   1      37.662  34.049  33.568  1.00  0.00     0.031 C 
ATOM     51  C   UNL A   1      41.948  31.926  37.307  1.00  0.00     0.029 A 
ATOM     52  C   UNL A   1      41.143  32.121  36.196  1.00  0.00     0.049 A 
ATOM     53  H   UNL A   1      41.085  31.034  34.389  1.00  0.00     0.167 HD
ATOM     54  C   UNL A   1      39.341  33.217  34.890  1.00  0.00     0.074 A 
ATOM     55  C   UNL A   1      38.314  34.221  34.709  1.00  0.00     0.031 C 
ATOM     56  C   UNL A   1      40.129  33.124  35.990  1.00  0.00     0.037 A 
BRANCH  43  57
ATOM     57  C   UNL A   1      44.327  28.592  35.714  1.00  0.00     0.058 A 
ATOM     58  C   UNL A   1      44.129  27.493  36.566  1.00  0.00     0.135 A 
ATOM     59  C   UNL A   1      45.648  28.997  35.465  1.00  0.00     0.135 A 
ATOM     60  F   UNL A   1      42.885  27.078  36.854  1.00  0.00    -0.206 F 
ATOM     61  C   UNL A   1      45.198  26.834  37.164  1.00  0.00     0.059 A 
ATOM     62  C   UNL A   1      46.733  28.339  36.033  1.00  0.00     0.059 A 
ATOM     63  F   UNL A   1      45.893  30.044  34.661  1.00  0.00    -0.206 F 
ATOM     64  C   UNL A   1      46.498  27.265  36.892  1.00  0.00     0.060 A 
BRANCH  64  65
ATOM     65  S   UNL A   1      47.877  26.395  37.667  1.00  0.00     0.124 S 
ATOM     66  O   UNL A   1      48.812  26.277  36.551  1.00  0.00    -0.237 OA
ATOM     67  O   UNL A   1      48.272  27.315  38.729  1.00  0.00    -0.237 OA
ATOM     68  O   UNL A   1      47.279  25.143  38.119  1.00  0.00    -0.744 OA
ENDBRANCH  64  65
ENDBRANCH  43  57
BRANCH  44  69
ATOM     69  C   UNL A   1      36.799  33.116  30.927  1.00  0.00     0.058 A 
ATOM     70  C   UNL A   1      35.474  32.843  31.299  1.00  0.00     0.135 A 
ATOM     71  C   UNL A   1      37.008  34.013  29.868  1.00  0.00     0.135 A 
ATOM     72  F   UNL A   1      35.222  31.986  32.300  1.00  0.00    -0.206 F 
ATOM     73  C   UNL A   1      34.396  33.412  30.628  1.00  0.00     0.059 A 
ATOM     74  C   UNL A   1      35.948  34.615  29.198  1.00  0.00     0.059 A 
ATOM     75  F   UNL A   1      38.256  34.319  29.482  1.00  0.00    -0.206 F 
ATOM     76  C   UNL A   1      34.644  34.294  29.574  1.00  0.00     0.060 A 
BRANCH  76  77
ATOM     77  S   UNL A   1      33.243  35.047  28.717  1.00  0.00     0.124 S 
ATOM     78  O   UNL A   1      32.413  35.477  29.837  1.00  0.00    -0.237 OA
ATOM     79  O   UNL A   1      33.883  36.113  27.952  1.00  0.00    -0.237 OA
ATOM     80  O   UNL A   1      32.710  33.948  27.920  1.00  0.00    -0.744 OA
ENDBRANCH  76  77
ENDBRANCH  44  69
BRANCH  56  81
ATOM     81  C   UNL A   1      39.946  34.170  37.055  1.00  0.00     0.058 A 
ATOM     82  C   UNL A   1      39.099  33.967  38.155  1.00  0.00     0.135 A 
ATOM     83  C   UNL A   1      40.644  35.386  36.978  1.00  0.00     0.135 A 
ATOM     84  F   UNL A   1      38.409  32.822  38.274  1.00  0.00    -0.206 F 
ATOM     85  C   UNL A   1      38.917  34.951  39.121  1.00  0.00     0.059 A 
ATOM     86  C   UNL A   1      40.496  36.374  37.946  1.00  0.00     0.059 A 
ATOM     87  F   UNL A   1      41.478  35.624  35.952  1.00  0.00    -0.206 F 
ATOM     88  C   UNL A   1      39.616  36.155  39.004  1.00  0.00     0.060 A 
BRANCH  88  89
ATOM     89  S   UNL A   1      39.373  37.428  40.261  1.00  0.00     0.124 S 
ATOM     90  O   UNL A   1      38.505  38.370  39.560  1.00  0.00    -0.237 OA
ATOM     91  O   UNL A   1      38.750  36.683  41.351  1.00  0.00    -0.237 OA
ATOM     92  O   UNL A   1      40.728  37.901  40.529  1.00  0.00    -0.744 OA
ENDBRANCH  88  89
ENDBRANCH  56  81
ENDBRANCH  30  31
ENDBRANCH  23  25
ENDBRANCH  22  23
ENDBRANCH  21  22
ENDBRANCH   1  21
TORSDOF 17
ENDMDL
