MODEL 1
REMARK VINA RESULT:     -11.6      0.000      0.000
REMARK SMILES Cc1nsc(NC(=O)N2CCC[C@@H](C)C2)c1C(=O)OCCOC(=O)c1ccc(-c2c3nc(c(-c4c(F)cc(S(=O)(=O)[O-])cc4F)c4ccc([nH]4)c(-c4c(F)cc(S(=O)(=O)[O-])cc4F)c4nc(c(-c5c(F)cc(S(=O)(=O)[O-])cc5F)c5ccc2[nH]5)C=C4)C=C3)cc1
REMARK SMILES IDX 21 1 20 2 19 3 17 4 18 5 16 6 1 7 2 8 3 9 4 10 5 11 6 12
REMARK SMILES IDX 7 13 8 15 9 16 10 17 15 18 11 19 13 20 12 21 14 22 22 23
REMARK SMILES IDX 23 24 24 25 25 26 26 27 90 28 27 29 89 30 28 31 29 32 30 33
REMARK SMILES IDX 83 34 31 35 88 36 82 37 84 38 32 39 87 40 81 41 80 42 33 44
REMARK SMILES IDX 67 45 46 46 66 47 47 48 50 49 65 50 85 51 48 52 49 53 64 55
REMARK SMILES IDX 86 56 51 57 34 58 35 59 44 60 36 61 37 62 43 63 45 64 38 65
REMARK SMILES IDX 39 66 40 67 41 68 42 69 68 70 69 71 78 72 70 73 71 74 77 75
REMARK SMILES IDX 79 76 72 77 73 78 74 79 75 80 76 81 52 82 53 83 62 84 54 85
REMARK SMILES IDX 55 86 61 87 63 88 56 89 57 90 58 91 59 92 60 93
REMARK H PARENT 6 14 84 43 50 54
REMARK Flexibility Score: inf
ROOT
ATOM      1  C   UNL A   1      37.982  21.149  25.295  1.00  0.00     0.275 C 
ENDROOT
BRANCH   1   2
ATOM      2  C   UNL A   1      36.739  21.589  24.526  1.00  0.00     0.275 C 
BRANCH   2   3
ATOM      3  O   UNL A   1      35.697  22.009  25.427  1.00  0.00    -0.458 OA
BRANCH   3   4
ATOM      4  C   UNL A   1      35.242  23.293  25.315  1.00  0.00     0.343 C 
ATOM      5  O   UNL A   1      35.975  24.270  25.186  1.00  0.00    -0.246 OA
BRANCH   4   6
ATOM      6  C   UNL A   1      33.790  23.365  25.198  1.00  0.00     0.117 A 
ATOM      7  C   UNL A   1      33.084  22.441  27.555  1.00  0.00     0.069 C 
ATOM      8  C   UNL A   1      32.813  22.917  26.171  1.00  0.00     0.068 A 
ATOM      9  N   UNL A   1      31.541  22.925  25.774  1.00  0.00    -0.195 NA
ATOM     10  S   UNL A   1      31.502  23.299  24.171  1.00  0.00    -0.017 S 
ATOM     11  C   UNL A   1      33.130  23.793  24.053  1.00  0.00     0.132 A 
BRANCH  11  12
ATOM     12  N   UNL A   1      33.642  24.334  22.883  1.00  0.00    -0.297 N 
ATOM     13  C   UNL A   1      33.161  25.380  22.145  1.00  0.00     0.322 C 
ATOM     14  H   UNL A   1      34.460  23.908  22.539  1.00  0.00     0.172 HD
ATOM     15  O   UNL A   1      33.305  25.355  20.922  1.00  0.00    -0.248 OA
BRANCH  13  16
ATOM     16  N   UNL A   1      32.592  26.459  22.790  1.00  0.00    -0.324 N 
ATOM     17  C   UNL A   1      33.393  27.508  23.418  1.00  0.00     0.121 C 
ATOM     18  C   UNL A   1      31.231  26.851  22.434  1.00  0.00     0.124 C 
ATOM     19  C   UNL A   1      32.706  28.108  24.641  1.00  0.00     0.022 C 
ATOM     20  C   UNL A   1      30.481  27.356  23.676  1.00  0.00     0.005 C 
ATOM     21  C   UNL A   1      31.257  28.495  24.356  1.00  0.00     0.007 C 
ATOM     22  C   UNL A   1      29.068  27.814  23.322  1.00  0.00     0.009 C 
ENDBRANCH  13  16
ENDBRANCH  11  12
ENDBRANCH   4   6
ENDBRANCH   3   4
ENDBRANCH   2   3
ENDBRANCH   1   2
BRANCH   1  23
ATOM     23  O   UNL A   1      38.421  22.193  26.162  1.00  0.00    -0.458 OA
BRANCH  23  24
ATOM     24  C   UNL A   1      39.676  22.031  26.633  1.00  0.00     0.338 C 
ATOM     25  O   UNL A   1      40.137  21.023  27.139  1.00  0.00    -0.246 OA
BRANCH  24  26
ATOM     26  C   UNL A   1      40.388  23.307  26.613  1.00  0.00     0.060 A 
ATOM     27  C   UNL A   1      41.637  23.344  27.244  1.00  0.00     0.016 A 
ATOM     28  C   UNL A   1      39.661  24.465  26.315  1.00  0.00     0.016 A 
ATOM     29  C   UNL A   1      42.057  24.536  27.785  1.00  0.00     0.010 A 
ATOM     30  C   UNL A   1      40.076  25.650  26.865  1.00  0.00     0.010 A 
ATOM     31  C   UNL A   1      41.213  25.641  27.678  1.00  0.00    -0.014 A 
BRANCH  31  32
ATOM     32  C   UNL A   1      41.524  26.813  28.469  1.00  0.00     0.031 A 
ATOM     33  C   UNL A   1      42.712  27.567  27.997  1.00  0.00     0.074 A 
ATOM     34  C   UNL A   1      40.659  27.215  29.422  1.00  0.00     0.049 A 
ATOM     35  N   UNL A   1      43.756  27.940  28.660  1.00  0.00    -0.248 NA
ATOM     36  C   UNL A   1      42.801  27.825  26.549  1.00  0.00     0.031 C 
ATOM     37  C   UNL A   1      39.319  26.683  29.705  1.00  0.00     0.029 A 
ATOM     38  N   UNL A   1      40.722  28.301  30.228  1.00  0.00    -0.354 N 
ATOM     39  C   UNL A   1      44.547  28.643  27.753  1.00  0.00     0.074 A 
ATOM     40  C   UNL A   1      43.999  28.395  26.449  1.00  0.00     0.031 C 
ATOM     41  C   UNL A   1      38.615  27.607  30.397  1.00  0.00     0.029 A 
ATOM     42  C   UNL A   1      39.488  28.728  30.692  1.00  0.00     0.049 A 
ATOM     43  H   UNL A   1      41.569  28.746  30.465  1.00  0.00     0.167 HD
ATOM     44  C   UNL A   1      45.473  29.555  28.155  1.00  0.00     0.037 A 
ATOM     45  C   UNL A   1      39.205  29.987  31.117  1.00  0.00     0.037 A 
ATOM     46  C   UNL A   1      45.835  29.362  29.534  1.00  0.00     0.049 A 
ATOM     47  C   UNL A   1      40.512  30.642  31.424  1.00  0.00     0.074 A 
ATOM     48  C   UNL A   1      46.404  28.317  30.236  1.00  0.00     0.029 A 
ATOM     49  N   UNL A   1      45.278  30.192  30.478  1.00  0.00    -0.354 N 
ATOM     50  N   UNL A   1      41.321  30.252  32.377  1.00  0.00    -0.248 NA
ATOM     51  C   UNL A   1      41.139  31.423  30.365  1.00  0.00     0.031 C 
ATOM     52  C   UNL A   1      45.740  28.317  31.496  1.00  0.00     0.029 A 
ATOM     53  C   UNL A   1      44.845  29.389  31.503  1.00  0.00     0.049 A 
ATOM     54  H   UNL A   1      45.204  31.172  30.428  1.00  0.00     0.167 HD
ATOM     55  C   UNL A   1      42.602  30.400  31.853  1.00  0.00     0.074 A 
ATOM     56  C   UNL A   1      42.425  31.187  30.635  1.00  0.00     0.031 C 
ATOM     57  C   UNL A   1      43.653  29.640  32.285  1.00  0.00     0.037 A 
BRANCH  44  58
ATOM     58  C   UNL A   1      45.795  30.817  27.396  1.00  0.00     0.058 A 
ATOM     59  C   UNL A   1      47.132  31.082  27.036  1.00  0.00     0.135 A 
ATOM     60  C   UNL A   1      44.901  31.905  27.266  1.00  0.00     0.135 A 
ATOM     61  F   UNL A   1      48.065  30.121  27.111  1.00  0.00    -0.206 F 
ATOM     62  C   UNL A   1      47.566  32.359  26.677  1.00  0.00     0.059 A 
ATOM     63  C   UNL A   1      45.302  33.169  26.854  1.00  0.00     0.059 A 
ATOM     64  F   UNL A   1      43.616  31.829  27.632  1.00  0.00    -0.206 F 
ATOM     65  C   UNL A   1      46.646  33.401  26.617  1.00  0.00     0.060 A 
BRANCH  65  66
ATOM     66  S   UNL A   1      47.224  35.081  26.328  1.00  0.00     0.124 S 
ATOM     67  O   UNL A   1      47.781  35.421  27.633  1.00  0.00    -0.237 OA
ATOM     68  O   UNL A   1      48.188  34.890  25.250  1.00  0.00    -0.237 OA
ATOM     69  O   UNL A   1      46.007  35.794  25.955  1.00  0.00    -0.744 OA
ENDBRANCH  65  66
ENDBRANCH  44  58
BRANCH  45  70
ATOM     70  C   UNL A   1      37.951  30.733  30.812  1.00  0.00     0.058 A 
ATOM     71  C   UNL A   1      37.162  31.296  31.828  1.00  0.00     0.135 A 
ATOM     72  C   UNL A   1      37.607  31.103  29.492  1.00  0.00     0.135 A 
ATOM     73  F   UNL A   1      37.441  31.038  33.116  1.00  0.00    -0.206 F 
ATOM     74  C   UNL A   1      36.101  32.172  31.553  1.00  0.00     0.059 A 
ATOM     75  C   UNL A   1      36.546  31.953  29.192  1.00  0.00     0.059 A 
ATOM     76  F   UNL A   1      38.346  30.712  28.442  1.00  0.00    -0.206 F 
ATOM     77  C   UNL A   1      35.805  32.500  30.229  1.00  0.00     0.060 A 
BRANCH  77  78
ATOM     78  S   UNL A   1      34.517  33.716  29.869  1.00  0.00     0.124 S 
ATOM     79  O   UNL A   1      33.998  34.009  31.200  1.00  0.00    -0.237 OA
ATOM     80  O   UNL A   1      35.274  34.785  29.227  1.00  0.00    -0.237 OA
ATOM     81  O   UNL A   1      33.601  32.991  28.990  1.00  0.00    -0.744 OA
ENDBRANCH  77  78
ENDBRANCH  45  70
BRANCH  57  82
ATOM     82  C   UNL A   1      43.484  28.771  33.504  1.00  0.00     0.058 A 
ATOM     83  C   UNL A   1      43.567  29.260  34.821  1.00  0.00     0.135 A 
ATOM     84  C   UNL A   1      42.972  27.477  33.334  1.00  0.00     0.135 A 
ATOM     85  F   UNL A   1      43.946  30.522  35.061  1.00  0.00    -0.206 F 
ATOM     86  C   UNL A   1      43.168  28.495  35.917  1.00  0.00     0.059 A 
ATOM     87  C   UNL A   1      42.541  26.706  34.411  1.00  0.00     0.059 A 
ATOM     88  F   UNL A   1      42.805  26.978  32.098  1.00  0.00    -0.206 F 
ATOM     89  C   UNL A   1      42.641  27.222  35.702  1.00  0.00     0.060 A 
BRANCH  89  90
ATOM     90  S   UNL A   1      41.989  26.293  37.108  1.00  0.00     0.124 S 
ATOM     91  O   UNL A   1      40.700  26.938  37.329  1.00  0.00    -0.237 OA
ATOM     92  O   UNL A   1      41.935  24.929  36.591  1.00  0.00    -0.237 OA
ATOM     93  O   UNL A   1      42.986  26.513  38.154  1.00  0.00    -0.744 OA
ENDBRANCH  89  90
ENDBRANCH  57  82
ENDBRANCH  31  32
ENDBRANCH  24  26
ENDBRANCH  23  24
ENDBRANCH   1  23
TORSDOF 16
ENDMDL
MODEL 2
REMARK VINA RESULT:     -11.5      2.478      8.916
REMARK SMILES Cc1nsc(NC(=O)N2CCC[C@@H](C)C2)c1C(=O)OCCOC(=O)c1ccc(-c2c3nc(c(-c4c(F)cc(S(=O)(=O)[O-])cc4F)c4ccc([nH]4)c(-c4c(F)cc(S(=O)(=O)[O-])cc4F)c4nc(c(-c5c(F)cc(S(=O)(=O)[O-])cc5F)c5ccc2[nH]5)C=C4)C=C3)cc1
REMARK SMILES IDX 21 1 20 2 19 3 17 4 18 5 16 6 1 7 2 8 3 9 4 10 5 11 6 12
REMARK SMILES IDX 7 13 8 15 9 16 10 17 15 18 11 19 13 20 12 21 14 22 22 23
REMARK SMILES IDX 23 24 24 25 25 26 26 27 90 28 27 29 89 30 28 31 29 32 30 33
REMARK SMILES IDX 83 34 31 35 88 36 82 37 84 38 32 39 87 40 81 41 80 42 33 44
REMARK SMILES IDX 67 45 46 46 66 47 47 48 50 49 65 50 85 51 48 52 49 53 64 55
REMARK SMILES IDX 86 56 51 57 34 58 35 59 44 60 36 61 37 62 43 63 45 64 38 65
REMARK SMILES IDX 39 66 40 67 41 68 42 69 68 70 69 71 78 72 70 73 71 74 77 75
REMARK SMILES IDX 79 76 72 77 73 78 74 79 75 80 76 81 52 82 53 83 62 84 54 85
REMARK SMILES IDX 55 86 61 87 63 88 56 89 57 90 58 91 59 92 60 93
REMARK H PARENT 6 14 84 43 50 54
REMARK Flexibility Score: inf
ROOT
ATOM      1  C   UNL A   1      32.903  31.084  27.302  1.00  0.00     0.275 C 
ENDROOT
BRANCH   1   2
ATOM      2  C   UNL A   1      32.295  30.342  26.115  1.00  0.00     0.275 C 
BRANCH   2   3
ATOM      3  O   UNL A   1      31.734  29.081  26.526  1.00  0.00    -0.458 OA
BRANCH   3   4
ATOM      4  C   UNL A   1      32.228  27.948  25.942  1.00  0.00     0.343 C 
ATOM      5  O   UNL A   1      33.275  27.403  26.281  1.00  0.00    -0.246 OA
BRANCH   4   6
ATOM      6  C   UNL A   1      31.299  27.362  24.983  1.00  0.00     0.117 A 
ATOM      7  C   UNL A   1      31.670  28.961  22.930  1.00  0.00     0.069 C 
ATOM      8  C   UNL A   1      30.989  27.853  23.655  1.00  0.00     0.068 A 
ATOM      9  N   UNL A   1      29.979  27.252  23.025  1.00  0.00    -0.195 NA
ATOM     10  S   UNL A   1      29.264  26.206  24.076  1.00  0.00    -0.017 S 
ATOM     11  C   UNL A   1      30.481  26.275  25.268  1.00  0.00     0.132 A 
BRANCH  11  12
ATOM     12  N   UNL A   1      30.442  25.465  26.394  1.00  0.00    -0.297 N 
ATOM     13  C   UNL A   1      30.747  24.136  26.500  1.00  0.00     0.322 C 
ATOM     14  H   UNL A   1      30.157  25.907  27.227  1.00  0.00     0.172 HD
ATOM     15  O   UNL A   1      30.122  23.450  27.310  1.00  0.00    -0.248 OA
BRANCH  13  16
ATOM     16  N   UNL A   1      31.784  23.617  25.752  1.00  0.00    -0.324 N 
ATOM     17  C   UNL A   1      31.584  23.062  24.414  1.00  0.00     0.121 C 
ATOM     18  C   UNL A   1      33.146  24.058  26.041  1.00  0.00     0.124 C 
ATOM     19  C   UNL A   1      32.557  21.927  24.107  1.00  0.00     0.022 C 
ATOM     20  C   UNL A   1      34.133  22.898  25.845  1.00  0.00     0.005 C 
ATOM     21  C   UNL A   1      34.000  22.301  24.435  1.00  0.00     0.007 C 
ATOM     22  C   UNL A   1      35.570  23.345  26.098  1.00  0.00     0.009 C 
ENDBRANCH  13  16
ENDBRANCH  11  12
ENDBRANCH   4   6
ENDBRANCH   3   4
ENDBRANCH   2   3
ENDBRANCH   1   2
BRANCH   1  23
ATOM     23  O   UNL A   1      34.304  30.824  27.382  1.00  0.00    -0.458 OA
BRANCH  23  24
ATOM     24  C   UNL A   1      35.031  31.851  27.872  1.00  0.00     0.338 C 
ATOM     25  O   UNL A   1      35.016  33.004  27.477  1.00  0.00    -0.246 OA
BRANCH  24  26
ATOM     26  C   UNL A   1      35.993  31.360  28.855  1.00  0.00     0.060 A 
ATOM     27  C   UNL A   1      36.977  32.260  29.281  1.00  0.00     0.016 A 
ATOM     28  C   UNL A   1      36.113  29.976  29.031  1.00  0.00     0.016 A 
ATOM     29  C   UNL A   1      38.192  31.754  29.678  1.00  0.00     0.010 A 
ATOM     30  C   UNL A   1      37.328  29.475  29.417  1.00  0.00     0.010 A 
ATOM     31  C   UNL A   1      38.377  30.372  29.633  1.00  0.00    -0.014 A 
BRANCH  31  32
ATOM     32  C   UNL A   1      39.723  29.862  29.790  1.00  0.00     0.031 A 
ATOM     33  C   UNL A   1      40.212  29.859  31.191  1.00  0.00     0.074 A 
ATOM     34  C   UNL A   1      40.340  29.292  28.736  1.00  0.00     0.049 A 
ATOM     35  N   UNL A   1      41.301  30.358  31.675  1.00  0.00    -0.248 NA
ATOM     36  C   UNL A   1      39.287  29.338  32.215  1.00  0.00     0.031 C 
ATOM     37  C   UNL A   1      39.772  28.986  27.415  1.00  0.00     0.029 A 
ATOM     38  N   UNL A   1      41.559  28.705  28.675  1.00  0.00    -0.354 N 
ATOM     39  C   UNL A   1      41.286  30.048  33.034  1.00  0.00     0.074 A 
ATOM     40  C   UNL A   1      39.962  29.579  33.336  1.00  0.00     0.031 C 
ATOM     41  C   UNL A   1      40.533  28.043  26.816  1.00  0.00     0.029 A 
ATOM     42  C   UNL A   1      41.684  27.773  27.658  1.00  0.00     0.049 A 
ATOM     43  H   UNL A   1      42.291  28.922  29.298  1.00  0.00     0.167 HD
ATOM     44  C   UNL A   1      42.425  29.997  33.777  1.00  0.00     0.037 A 
ATOM     45  C   UNL A   1      42.578  26.751  27.638  1.00  0.00     0.037 A 
ATOM     46  C   UNL A   1      43.498  30.714  33.143  1.00  0.00     0.049 A 
ATOM     47  C   UNL A   1      43.648  27.096  28.623  1.00  0.00     0.074 A 
ATOM     48  C   UNL A   1      43.676  32.032  32.766  1.00  0.00     0.029 A 
ATOM     49  N   UNL A   1      44.453  29.995  32.465  1.00  0.00    -0.354 N 
ATOM     50  N   UNL A   1      44.458  28.117  28.497  1.00  0.00    -0.248 NA
ATOM     51  C   UNL A   1      43.499  26.591  29.982  1.00  0.00     0.031 C 
ATOM     52  C   UNL A   1      44.384  31.968  31.533  1.00  0.00     0.029 A 
ATOM     53  C   UNL A   1      44.636  30.622  31.257  1.00  0.00     0.049 A 
ATOM     54  H   UNL A   1      44.916  29.187  32.782  1.00  0.00     0.167 HD
ATOM     55  C   UNL A   1      44.615  28.620  29.785  1.00  0.00     0.074 A 
ATOM     56  C   UNL A   1      44.052  27.597  30.663  1.00  0.00     0.031 C 
ATOM     57  C   UNL A   1      44.921  29.931  30.017  1.00  0.00     0.037 A 
BRANCH  44  58
ATOM     58  C   UNL A   1      42.649  29.021  34.905  1.00  0.00     0.058 A 
ATOM     59  C   UNL A   1      43.107  29.500  36.149  1.00  0.00     0.135 A 
ATOM     60  C   UNL A   1      42.715  27.620  34.729  1.00  0.00     0.135 A 
ATOM     61  F   UNL A   1      43.081  30.812  36.429  1.00  0.00    -0.206 F 
ATOM     62  C   UNL A   1      43.684  28.661  37.102  1.00  0.00     0.059 A 
ATOM     63  C   UNL A   1      43.232  26.761  35.689  1.00  0.00     0.059 A 
ATOM     64  F   UNL A   1      42.382  27.021  33.579  1.00  0.00    -0.206 F 
ATOM     65  C   UNL A   1      43.767  27.296  36.848  1.00  0.00     0.060 A 
BRANCH  65  66
ATOM     66  S   UNL A   1      44.665  26.233  37.990  1.00  0.00     0.124 S 
ATOM     67  O   UNL A   1      44.027  24.944  37.745  1.00  0.00    -0.237 OA
ATOM     68  O   UNL A   1      46.037  26.368  37.518  1.00  0.00    -0.237 OA
ATOM     69  O   UNL A   1      44.393  26.835  39.292  1.00  0.00    -0.744 OA
ENDBRANCH  65  66
ENDBRANCH  44  58
BRANCH  45  70
ATOM     70  C   UNL A   1      42.286  25.363  27.179  1.00  0.00     0.058 A 
ATOM     71  C   UNL A   1      43.177  24.656  26.355  1.00  0.00     0.135 A 
ATOM     72  C   UNL A   1      41.218  24.610  27.718  1.00  0.00     0.135 A 
ATOM     73  F   UNL A   1      44.246  25.276  25.833  1.00  0.00    -0.206 F 
ATOM     74  C   UNL A   1      43.020  23.288  26.085  1.00  0.00     0.059 A 
ATOM     75  C   UNL A   1      41.029  23.258  27.447  1.00  0.00     0.059 A 
ATOM     76  F   UNL A   1      40.359  25.147  28.597  1.00  0.00    -0.206 F 
ATOM     77  C   UNL A   1      41.944  22.595  26.643  1.00  0.00     0.060 A 
BRANCH  77  78
ATOM     78  S   UNL A   1      41.798  20.810  26.397  1.00  0.00     0.124 S 
ATOM     79  O   UNL A   1      40.381  20.664  26.083  1.00  0.00    -0.237 OA
ATOM     80  O   UNL A   1      42.725  20.574  25.296  1.00  0.00    -0.237 OA
ATOM     81  O   UNL A   1      42.209  20.255  27.685  1.00  0.00    -0.744 OA
ENDBRANCH  77  78
ENDBRANCH  45  70
BRANCH  57  82
ATOM     82  C   UNL A   1      45.314  30.814  28.861  1.00  0.00     0.058 A 
ATOM     83  C   UNL A   1      44.383  31.507  28.065  1.00  0.00     0.135 A 
ATOM     84  C   UNL A   1      46.663  31.170  28.723  1.00  0.00     0.135 A 
ATOM     85  F   UNL A   1      43.068  31.301  28.212  1.00  0.00    -0.206 F 
ATOM     86  C   UNL A   1      44.776  32.500  27.168  1.00  0.00     0.059 A 
ATOM     87  C   UNL A   1      47.076  32.178  27.854  1.00  0.00     0.059 A 
ATOM     88  F   UNL A   1      47.593  30.593  29.501  1.00  0.00    -0.206 F 
ATOM     89  C   UNL A   1      46.125  32.840  27.079  1.00  0.00     0.060 A 
BRANCH  89  90
ATOM     90  S   UNL A   1      46.614  34.225  26.026  1.00  0.00     0.124 S 
ATOM     91  O   UNL A   1      48.002  33.900  25.717  1.00  0.00    -0.237 OA
ATOM     92  O   UNL A   1      45.676  34.126  24.912  1.00  0.00    -0.237 OA
ATOM     93  O   UNL A   1      46.422  35.391  26.887  1.00  0.00    -0.744 OA
ENDBRANCH  89  90
ENDBRANCH  57  82
ENDBRANCH  31  32
ENDBRANCH  24  26
ENDBRANCH  23  24
ENDBRANCH   1  23
TORSDOF 16
ENDMDL
MODEL 3
REMARK VINA RESULT:     -11.4      4.458     10.678
REMARK SMILES Cc1nsc(NC(=O)N2CCC[C@@H](C)C2)c1C(=O)OCCOC(=O)c1ccc(-c2c3nc(c(-c4c(F)cc(S(=O)(=O)[O-])cc4F)c4ccc([nH]4)c(-c4c(F)cc(S(=O)(=O)[O-])cc4F)c4nc(c(-c5c(F)cc(S(=O)(=O)[O-])cc5F)c5ccc2[nH]5)C=C4)C=C3)cc1
REMARK SMILES IDX 21 1 20 2 19 3 17 4 18 5 16 6 1 7 2 8 3 9 4 10 5 11 6 12
REMARK SMILES IDX 7 13 8 15 9 16 10 17 15 18 11 19 13 20 12 21 14 22 22 23
REMARK SMILES IDX 23 24 24 25 25 26 26 27 90 28 27 29 89 30 28 31 29 32 30 33
REMARK SMILES IDX 83 34 31 35 88 36 82 37 84 38 32 39 87 40 81 41 80 42 33 44
REMARK SMILES IDX 67 45 46 46 66 47 47 48 50 49 65 50 85 51 48 52 49 53 64 55
REMARK SMILES IDX 86 56 51 57 34 58 35 59 44 60 36 61 37 62 43 63 45 64 38 65
REMARK SMILES IDX 39 66 40 67 41 68 42 69 68 70 69 71 78 72 70 73 71 74 77 75
REMARK SMILES IDX 79 76 72 77 73 78 74 79 75 80 76 81 52 82 53 83 62 84 54 85
REMARK SMILES IDX 55 86 61 87 63 88 56 89 57 90 58 91 59 92 60 93
REMARK H PARENT 6 14 84 43 50 54
REMARK Flexibility Score: inf
ROOT
ATOM      1  C   UNL A   1      34.175  32.410  28.124  1.00  0.00     0.275 C 
ENDROOT
BRANCH   1   2
ATOM      2  C   UNL A   1      34.530  33.863  28.426  1.00  0.00     0.275 C 
BRANCH   2   3
ATOM      3  O   UNL A   1      34.656  34.081  29.844  1.00  0.00    -0.458 OA
BRANCH   3   4
ATOM      4  C   UNL A   1      33.653  34.766  30.471  1.00  0.00     0.343 C 
ATOM      5  O   UNL A   1      32.551  34.977  29.970  1.00  0.00    -0.246 OA
BRANCH   4   6
ATOM      6  C   UNL A   1      33.970  35.077  31.860  1.00  0.00     0.117 A 
ATOM      7  C   UNL A   1      33.435  37.650  31.898  1.00  0.00     0.069 C 
ATOM      8  C   UNL A   1      33.945  36.383  32.489  1.00  0.00     0.068 A 
ATOM      9  N   UNL A   1      34.441  36.451  33.724  1.00  0.00    -0.195 NA
ATOM     10  S   UNL A   1      35.111  34.993  34.094  1.00  0.00    -0.017 S 
ATOM     11  C   UNL A   1      34.457  34.144  32.767  1.00  0.00     0.132 A 
BRANCH  11  12
ATOM     12  N   UNL A   1      34.625  32.774  32.627  1.00  0.00    -0.297 N 
ATOM     13  C   UNL A   1      35.723  32.091  32.181  1.00  0.00     0.322 C 
ATOM     14  H   UNL A   1      33.852  32.222  32.882  1.00  0.00     0.172 HD
ATOM     15  O   UNL A   1      35.552  31.045  31.553  1.00  0.00    -0.248 OA
BRANCH  13  16
ATOM     16  N   UNL A   1      36.983  32.550  32.502  1.00  0.00    -0.324 N 
ATOM     17  C   UNL A   1      37.597  33.692  31.825  1.00  0.00     0.121 C 
ATOM     18  C   UNL A   1      37.521  32.256  33.828  1.00  0.00     0.124 C 
ATOM     19  C   UNL A   1      39.116  33.565  31.738  1.00  0.00     0.022 C 
ATOM     20  C   UNL A   1      39.035  32.014  33.747  1.00  0.00     0.005 C 
ATOM     21  C   UNL A   1      39.743  33.206  33.083  1.00  0.00     0.007 C 
ATOM     22  C   UNL A   1      39.628  31.748  35.128  1.00  0.00     0.009 C 
ENDBRANCH  13  16
ENDBRANCH  11  12
ENDBRANCH   4   6
ENDBRANCH   3   4
ENDBRANCH   2   3
ENDBRANCH   1   2
BRANCH   1  23
ATOM     23  O   UNL A   1      35.158  31.829  27.268  1.00  0.00    -0.458 OA
BRANCH  23  24
ATOM     24  C   UNL A   1      35.354  30.508  27.466  1.00  0.00     0.338 C 
ATOM     25  O   UNL A   1      34.698  29.598  26.990  1.00  0.00    -0.246 OA
BRANCH  24  26
ATOM     26  C   UNL A   1      36.379  30.300  28.486  1.00  0.00     0.060 A 
ATOM     27  C   UNL A   1      37.185  31.399  28.805  1.00  0.00     0.016 A 
ATOM     28  C   UNL A   1      36.738  28.986  28.805  1.00  0.00     0.016 A 
ATOM     29  C   UNL A   1      38.467  31.160  29.241  1.00  0.00     0.010 A 
ATOM     30  C   UNL A   1      38.020  28.749  29.230  1.00  0.00     0.010 A 
ATOM     31  C   UNL A   1      38.892  29.835  29.340  1.00  0.00    -0.014 A 
BRANCH  31  32
ATOM     32  C   UNL A   1      40.305  29.588  29.537  1.00  0.00     0.031 A 
ATOM     33  C   UNL A   1      40.700  29.421  30.958  1.00  0.00     0.074 A 
ATOM     34  C   UNL A   1      41.092  29.364  28.466  1.00  0.00     0.049 A 
ATOM     35  N   UNL A   1      41.625  30.031  31.623  1.00  0.00    -0.248 NA
ATOM     36  C   UNL A   1      39.854  28.541  31.783  1.00  0.00     0.031 C 
ATOM     37  C   UNL A   1      40.682  29.204  27.064  1.00  0.00     0.029 A 
ATOM     38  N   UNL A   1      42.411  29.060  28.424  1.00  0.00    -0.354 N 
ATOM     39  C   UNL A   1      41.599  29.475  32.901  1.00  0.00     0.074 A 
ATOM     40  C   UNL A   1      40.394  28.699  32.988  1.00  0.00     0.031 C 
ATOM     41  C   UNL A   1      41.663  28.565  26.388  1.00  0.00     0.029 A 
ATOM     42  C   UNL A   1      42.795  28.381  27.279  1.00  0.00     0.049 A 
ATOM     43  H   UNL A   1      43.040  29.300  29.143  1.00  0.00     0.167 HD
ATOM     44  C   UNL A   1      42.676  29.518  33.731  1.00  0.00     0.037 A 
ATOM     45  C   UNL A   1      43.889  27.585  27.171  1.00  0.00     0.037 A 
ATOM     46  C   UNL A   1      43.602  30.544  33.336  1.00  0.00     0.049 A 
ATOM     47  C   UNL A   1      44.799  27.948  28.299  1.00  0.00     0.074 A 
ATOM     48  C   UNL A   1      43.512  31.918  33.210  1.00  0.00     0.029 A 
ATOM     49  N   UNL A   1      44.730  30.175  32.640  1.00  0.00    -0.354 N 
ATOM     50  N   UNL A   1      45.374  29.118  28.429  1.00  0.00    -0.248 NA
ATOM     51  C   UNL A   1      44.685  27.177  29.530  1.00  0.00     0.031 C 
ATOM     52  C   UNL A   1      44.287  32.232  32.058  1.00  0.00     0.029 A 
ATOM     53  C   UNL A   1      44.841  31.042  31.582  1.00  0.00     0.049 A 
ATOM     54  H   UNL A   1      45.338  29.433  32.858  1.00  0.00     0.167 HD
ATOM     55  C   UNL A   1      45.342  29.391  29.793  1.00  0.00     0.074 A 
ATOM     56  C   UNL A   1      44.965  28.129  30.424  1.00  0.00     0.031 C 
ATOM     57  C   UNL A   1      45.342  30.669  30.276  1.00  0.00     0.037 A 
BRANCH  44  58
ATOM     58  C   UNL A   1      43.041  28.414  34.691  1.00  0.00     0.058 A 
ATOM     59  C   UNL A   1      43.226  28.720  36.054  1.00  0.00     0.135 A 
ATOM     60  C   UNL A   1      43.500  27.140  34.285  1.00  0.00     0.135 A 
ATOM     61  F   UNL A   1      42.820  29.898  36.553  1.00  0.00    -0.206 F 
ATOM     62  C   UNL A   1      43.910  27.868  36.922  1.00  0.00     0.059 A 
ATOM     63  C   UNL A   1      44.131  26.253  35.147  1.00  0.00     0.059 A 
ATOM     64  F   UNL A   1      43.458  26.731  33.011  1.00  0.00    -0.206 F 
ATOM     65  C   UNL A   1      44.383  26.649  36.449  1.00  0.00     0.060 A 
BRANCH  65  66
ATOM     66  S   UNL A   1      45.415  25.624  37.509  1.00  0.00     0.124 S 
ATOM     67  O   UNL A   1      44.691  24.358  37.478  1.00  0.00    -0.237 OA
ATOM     68  O   UNL A   1      46.693  25.649  36.807  1.00  0.00    -0.237 OA
ATOM     69  O   UNL A   1      45.393  26.333  38.785  1.00  0.00    -0.744 OA
ENDBRANCH  65  66
ENDBRANCH  44  58
BRANCH  45  70
ATOM     70  C   UNL A   1      43.933  26.278  26.454  1.00  0.00     0.058 A 
ATOM     71  C   UNL A   1      44.913  26.000  25.488  1.00  0.00     0.135 A 
ATOM     72  C   UNL A   1      43.140  25.180  26.859  1.00  0.00     0.135 A 
ATOM     73  F   UNL A   1      45.744  26.969  25.074  1.00  0.00    -0.206 F 
ATOM     74  C   UNL A   1      45.097  24.713  24.958  1.00  0.00     0.059 A 
ATOM     75  C   UNL A   1      43.288  23.900  26.332  1.00  0.00     0.059 A 
ATOM     76  F   UNL A   1      42.239  25.296  27.845  1.00  0.00    -0.206 F 
ATOM     77  C   UNL A   1      44.281  23.667  25.393  1.00  0.00     0.060 A 
BRANCH  77  78
ATOM     78  S   UNL A   1      44.584  21.985  24.804  1.00  0.00     0.124 S 
ATOM     79  O   UNL A   1      44.573  22.165  23.357  1.00  0.00    -0.237 OA
ATOM     80  O   UNL A   1      45.880  21.679  25.401  1.00  0.00    -0.237 OA
ATOM     81  O   UNL A   1      43.458  21.228  25.345  1.00  0.00    -0.744 OA
ENDBRANCH  77  78
ENDBRANCH  45  70
BRANCH  57  82
ATOM     82  C   UNL A   1      45.599  31.815  29.331  1.00  0.00     0.058 A 
ATOM     83  C   UNL A   1      46.888  32.238  28.960  1.00  0.00     0.135 A 
ATOM     84  C   UNL A   1      44.522  32.321  28.589  1.00  0.00     0.135 A 
ATOM     85  F   UNL A   1      47.975  31.723  29.549  1.00  0.00    -0.206 F 
ATOM     86  C   UNL A   1      47.097  33.129  27.907  1.00  0.00     0.059 A 
ATOM     87  C   UNL A   1      44.708  33.189  27.516  1.00  0.00     0.059 A 
ATOM     88  F   UNL A   1      43.272  31.905  28.850  1.00  0.00    -0.206 F 
ATOM     89  C   UNL A   1      46.001  33.590  27.179  1.00  0.00     0.060 A 
BRANCH  89  90
ATOM     90  S   UNL A   1      46.284  34.625  25.726  1.00  0.00     0.124 S 
ATOM     91  O   UNL A   1      47.676  34.328  25.405  1.00  0.00    -0.237 OA
ATOM     92  O   UNL A   1      45.294  34.121  24.778  1.00  0.00    -0.237 OA
ATOM     93  O   UNL A   1      46.030  35.978  26.216  1.00  0.00    -0.744 OA
ENDBRANCH  89  90
ENDBRANCH  57  82
ENDBRANCH  31  32
ENDBRANCH  24  26
ENDBRANCH  23  24
ENDBRANCH   1  23
TORSDOF 16
ENDMDL
