MODEL 1
REMARK VINA RESULT:      -9.9      0.000      0.000
REMARK SMILES O=C(OCCOC(=O)c1ccc(-c2c3nc(c(-c4c(F)cc(S(=O)(=O)[O-])cc4F)c4ccc([nH]4)c(-c4c(F)cc(S(=O)(=O)[O-])cc4F)c4nc(c(-c5c(F)cc(S(=O)(=O)[O-])cc5F)c5ccc2[nH]5)C=C4)C=C3)cc1)C1=CCc2ccccc21
REMARK SMILES IDX 6 1 5 2 4 3 3 4 2 5 1 6 75 7 76 8 83 9 77 10 78 11 82 12
REMARK SMILES IDX 79 13 81 14 80 15 7 16 8 17 9 18 10 19 74 20 11 21 73 22
REMARK SMILES IDX 12 23 13 24 14 25 67 26 15 27 72 28 66 29 68 30 16 31 71 32
REMARK SMILES IDX 65 33 64 34 17 36 51 37 30 38 50 39 31 40 34 41 49 42 69 43
REMARK SMILES IDX 32 44 33 45 48 47 70 48 35 49 18 50 19 51 28 52 20 53 21 54
REMARK SMILES IDX 27 55 29 56 22 57 23 58 24 59 25 60 26 61 52 62 53 63 62 64
REMARK SMILES IDX 54 65 55 66 61 67 63 68 56 69 57 70 58 71 59 72 60 73 36 74
REMARK SMILES IDX 37 75 46 76 38 77 39 78 45 79 47 80 40 81 41 82 42 83 43 84
REMARK SMILES IDX 44 85
REMARK H PARENT 68 35 34 46
REMARK Flexibility Score: inf
ROOT
ATOM      1  O   UNL A   1      35.863  31.614  30.413  1.00  0.00    -0.458 OA
ENDROOT
BRANCH   1   2
ATOM      2  C   UNL A   1      34.849  32.374  31.110  1.00  0.00     0.275 C 
BRANCH   2   3
ATOM      3  C   UNL A   1      34.736  33.825  30.609  1.00  0.00     0.275 C 
BRANCH   3   4
ATOM      4  O   UNL A   1      34.764  34.781  31.664  1.00  0.00    -0.458 OA
BRANCH   4   5
ATOM      5  C   UNL A   1      35.766  34.934  32.554  1.00  0.00     0.338 C 
ATOM      6  O   UNL A   1      35.491  35.489  33.619  1.00  0.00    -0.246 OA
BRANCH   5   7
ATOM      7  C   UNL A   1      37.123  34.354  32.370  1.00  0.00     0.063 C 
ATOM      8  C   UNL A   1      37.747  34.029  33.528  1.00  0.00    -0.006 C 
ATOM      9  C   UNL A   1      38.163  34.322  31.317  1.00  0.00    -0.008 A 
ATOM     10  C   UNL A   1      39.220  33.818  33.395  1.00  0.00     0.064 C 
ATOM     11  C   UNL A   1      39.408  34.119  31.945  1.00  0.00    -0.036 A 
ATOM     12  C   UNL A   1      38.180  34.456  29.936  1.00  0.00     0.009 A 
ATOM     13  C   UNL A   1      40.623  34.194  31.272  1.00  0.00     0.004 A 
ATOM     14  C   UNL A   1      39.391  34.510  29.231  1.00  0.00     0.001 A 
ATOM     15  C   UNL A   1      40.609  34.417  29.901  1.00  0.00     0.000 A 
ENDBRANCH   5   7
ENDBRANCH   4   5
ENDBRANCH   3   4
ENDBRANCH   2   3
ENDBRANCH   1   2
BRANCH   1  16
ATOM     16  C   UNL A   1      36.622  30.824  31.218  1.00  0.00     0.338 C 
ATOM     17  O   UNL A   1      36.202  30.201  32.183  1.00  0.00    -0.246 OA
BRANCH  16  18
ATOM     18  C   UNL A   1      38.045  30.721  30.793  1.00  0.00     0.060 A 
ATOM     19  C   UNL A   1      38.275  30.756  29.413  1.00  0.00     0.016 A 
ATOM     20  C   UNL A   1      39.119  30.478  31.656  1.00  0.00     0.016 A 
ATOM     21  C   UNL A   1      39.535  30.463  28.886  1.00  0.00     0.010 A 
ATOM     22  C   UNL A   1      40.398  30.197  31.121  1.00  0.00     0.010 A 
ATOM     23  C   UNL A   1      40.608  30.139  29.728  1.00  0.00    -0.014 A 
BRANCH  23  24
ATOM     24  C   UNL A   1      41.877  29.643  29.107  1.00  0.00     0.031 A 
ATOM     25  C   UNL A   1      43.090  30.543  29.028  1.00  0.00     0.074 A 
ATOM     26  C   UNL A   1      42.010  28.357  28.722  1.00  0.00     0.049 A 
ATOM     27  N   UNL A   1      44.311  30.260  28.641  1.00  0.00    -0.248 NA
ATOM     28  C   UNL A   1      42.907  31.940  29.448  1.00  0.00     0.031 C 
ATOM     29  C   UNL A   1      40.954  27.348  28.766  1.00  0.00     0.029 A 
ATOM     30  N   UNL A   1      43.103  27.673  28.235  1.00  0.00    -0.354 N 
ATOM     31  C   UNL A   1      45.041  31.436  28.776  1.00  0.00     0.074 A 
ATOM     32  C   UNL A   1      44.114  32.447  29.240  1.00  0.00     0.031 C 
ATOM     33  C   UNL A   1      41.452  26.173  28.342  1.00  0.00     0.029 A 
ATOM     34  C   UNL A   1      42.856  26.345  27.971  1.00  0.00     0.049 A 
ATOM     35  H   UNL A   1      43.981  28.095  28.091  1.00  0.00     0.167 HD
ATOM     36  C   UNL A   1      46.361  31.658  28.557  1.00  0.00     0.037 A 
ATOM     37  C   UNL A   1      43.658  25.374  27.484  1.00  0.00     0.037 A 
ATOM     38  C   UNL A   1      47.305  30.665  28.106  1.00  0.00     0.049 A 
ATOM     39  C   UNL A   1      45.107  25.662  27.177  1.00  0.00     0.074 A 
ATOM     40  C   UNL A   1      48.667  30.811  27.893  1.00  0.00     0.029 A 
ATOM     41  N   UNL A   1      46.996  29.352  27.787  1.00  0.00    -0.354 N 
ATOM     42  N   UNL A   1      45.786  26.769  27.353  1.00  0.00    -0.248 NA
ATOM     43  C   UNL A   1      45.902  24.561  26.608  1.00  0.00     0.031 C 
ATOM     44  C   UNL A   1      49.169  29.605  27.392  1.00  0.00     0.029 A 
ATOM     45  C   UNL A   1      48.133  28.690  27.347  1.00  0.00     0.049 A 
ATOM     46  H   UNL A   1      46.100  28.949  27.863  1.00  0.00     0.167 HD
ATOM     47  C   UNL A   1      47.089  26.489  26.946  1.00  0.00     0.074 A 
ATOM     48  C   UNL A   1      47.108  25.106  26.524  1.00  0.00     0.031 C 
ATOM     49  C   UNL A   1      48.168  27.310  26.928  1.00  0.00     0.037 A 
BRANCH  36  50
ATOM     50  C   UNL A   1      46.880  33.052  28.788  1.00  0.00     0.058 A 
ATOM     51  C   UNL A   1      46.897  34.012  27.764  1.00  0.00     0.135 A 
ATOM     52  C   UNL A   1      47.310  33.447  30.064  1.00  0.00     0.135 A 
ATOM     53  F   UNL A   1      46.505  33.685  26.522  1.00  0.00    -0.206 F 
ATOM     54  C   UNL A   1      47.353  35.308  27.990  1.00  0.00     0.059 A 
ATOM     55  C   UNL A   1      47.744  34.745  30.321  1.00  0.00     0.059 A 
ATOM     56  F   UNL A   1      47.307  32.571  31.081  1.00  0.00    -0.206 F 
ATOM     57  C   UNL A   1      47.776  35.664  29.273  1.00  0.00     0.060 A 
BRANCH  57  58
ATOM     58  S   UNL A   1      48.367  37.347  29.550  1.00  0.00     0.124 S 
ATOM     59  O   UNL A   1      47.110  38.080  29.662  1.00  0.00    -0.237 OA
ATOM     60  O   UNL A   1      49.133  37.210  30.785  1.00  0.00    -0.237 OA
ATOM     61  O   UNL A   1      49.156  37.632  28.355  1.00  0.00    -0.744 OA
ENDBRANCH  57  58
ENDBRANCH  36  50
BRANCH  37  62
ATOM     62  C   UNL A   1      43.105  24.013  27.233  1.00  0.00     0.058 A 
ATOM     63  C   UNL A   1      43.016  23.059  28.257  1.00  0.00     0.135 A 
ATOM     64  C   UNL A   1      42.683  23.634  25.949  1.00  0.00     0.135 A 
ATOM     65  F   UNL A   1      43.427  23.367  29.497  1.00  0.00    -0.206 F 
ATOM     66  C   UNL A   1      42.544  21.772  28.016  1.00  0.00     0.059 A 
ATOM     67  C   UNL A   1      42.182  22.363  25.689  1.00  0.00     0.059 A 
ATOM     68  F   UNL A   1      42.746  24.509  24.934  1.00  0.00    -0.206 F 
ATOM     69  C   UNL A   1      42.126  21.435  26.728  1.00  0.00     0.060 A 
BRANCH  69  70
ATOM     70  S   UNL A   1      41.477  19.777  26.431  1.00  0.00     0.124 S 
ATOM     71  O   UNL A   1      42.278  19.346  25.291  1.00  0.00    -0.237 OA
ATOM     72  O   UNL A   1      41.756  19.106  27.697  1.00  0.00    -0.237 OA
ATOM     73  O   UNL A   1      40.063  20.014  26.155  1.00  0.00    -0.744 OA
ENDBRANCH  69  70
ENDBRANCH  37  62
BRANCH  49  74
ATOM     74  C   UNL A   1      49.486  26.740  26.465  1.00  0.00     0.058 A 
ATOM     75  C   UNL A   1      49.922  26.863  25.135  1.00  0.00     0.135 A 
ATOM     76  C   UNL A   1      50.352  26.108  27.375  1.00  0.00     0.135 A 
ATOM     77  F   UNL A   1      49.137  27.452  24.220  1.00  0.00    -0.206 F 
ATOM     78  C   UNL A   1      51.154  26.363  24.721  1.00  0.00     0.059 A 
ATOM     79  C   UNL A   1      51.600  25.625  26.989  1.00  0.00     0.059 A 
ATOM     80  F   UNL A   1      49.995  25.970  28.662  1.00  0.00    -0.206 F 
ATOM     81  C   UNL A   1      51.988  25.746  25.656  1.00  0.00     0.060 A 
BRANCH  81  82
ATOM     82  S   UNL A   1      53.599  25.133  25.112  1.00  0.00     0.124 S 
ATOM     83  O   UNL A   1      53.682  25.681  23.762  1.00  0.00    -0.237 OA
ATOM     84  O   UNL A   1      54.506  25.723  26.092  1.00  0.00    -0.237 OA
ATOM     85  O   UNL A   1      53.457  23.683  25.193  1.00  0.00    -0.744 OA
ENDBRANCH  81  82
ENDBRANCH  49  74
ENDBRANCH  23  24
ENDBRANCH  16  18
ENDBRANCH   1  16
TORSDOF 14
ENDMDL
MODEL 2
REMARK VINA RESULT:      -9.9      5.952     13.144
REMARK SMILES O=C(OCCOC(=O)c1ccc(-c2c3nc(c(-c4c(F)cc(S(=O)(=O)[O-])cc4F)c4ccc([nH]4)c(-c4c(F)cc(S(=O)(=O)[O-])cc4F)c4nc(c(-c5c(F)cc(S(=O)(=O)[O-])cc5F)c5ccc2[nH]5)C=C4)C=C3)cc1)C1=CCc2ccccc21
REMARK SMILES IDX 6 1 5 2 4 3 3 4 2 5 1 6 75 7 76 8 83 9 77 10 78 11 82 12
REMARK SMILES IDX 79 13 81 14 80 15 7 16 8 17 9 18 10 19 74 20 11 21 73 22
REMARK SMILES IDX 12 23 13 24 14 25 67 26 15 27 72 28 66 29 68 30 16 31 71 32
REMARK SMILES IDX 65 33 64 34 17 36 51 37 30 38 50 39 31 40 34 41 49 42 69 43
REMARK SMILES IDX 32 44 33 45 48 47 70 48 35 49 18 50 19 51 28 52 20 53 21 54
REMARK SMILES IDX 27 55 29 56 22 57 23 58 24 59 25 60 26 61 52 62 53 63 62 64
REMARK SMILES IDX 54 65 55 66 61 67 63 68 56 69 57 70 58 71 59 72 60 73 36 74
REMARK SMILES IDX 37 75 46 76 38 77 39 78 45 79 47 80 40 81 41 82 42 83 43 84
REMARK SMILES IDX 44 85
REMARK H PARENT 68 35 34 46
REMARK Flexibility Score: inf
ROOT
ATOM      1  O   UNL A   1      42.096  23.857  26.030  1.00  0.00    -0.458 OA
ENDROOT
BRANCH   1   2
ATOM      2  C   UNL A   1      42.899  23.092  25.102  1.00  0.00     0.275 C 
BRANCH   2   3
ATOM      3  C   UNL A   1      43.276  21.700  25.641  1.00  0.00     0.275 C 
BRANCH   3   4
ATOM      4  O   UNL A   1      44.680  21.531  25.812  1.00  0.00    -0.458 OA
BRANCH   4   5
ATOM      5  C   UNL A   1      45.568  22.528  26.007  1.00  0.00     0.338 C 
ATOM      6  O   UNL A   1      46.463  22.653  25.169  1.00  0.00    -0.246 OA
BRANCH   5   7
ATOM      7  C   UNL A   1      45.439  23.545  27.084  1.00  0.00     0.063 C 
ATOM      8  C   UNL A   1      46.358  24.538  27.021  1.00  0.00    -0.006 C 
ATOM      9  C   UNL A   1      44.817  23.642  28.424  1.00  0.00    -0.008 A 
ATOM     10  C   UNL A   1      46.494  25.332  28.279  1.00  0.00     0.064 C 
ATOM     11  C   UNL A   1      45.520  24.618  29.157  1.00  0.00    -0.036 A 
ATOM     12  C   UNL A   1      43.771  23.010  29.080  1.00  0.00     0.009 A 
ATOM     13  C   UNL A   1      45.307  24.857  30.511  1.00  0.00     0.004 A 
ATOM     14  C   UNL A   1      43.518  23.251  30.439  1.00  0.00     0.001 A 
ATOM     15  C   UNL A   1      44.307  24.143  31.160  1.00  0.00     0.000 A 
ENDBRANCH   5   7
ENDBRANCH   4   5
ENDBRANCH   3   4
ENDBRANCH   2   3
ENDBRANCH   1   2
BRANCH   1  16
ATOM     16  C   UNL A   1      42.239  25.204  25.915  1.00  0.00     0.338 C 
ATOM     17  O   UNL A   1      42.296  25.813  24.856  1.00  0.00    -0.246 OA
BRANCH  16  18
ATOM     18  C   UNL A   1      42.265  25.921  27.219  1.00  0.00     0.060 A 
ATOM     19  C   UNL A   1      41.246  25.589  28.120  1.00  0.00     0.016 A 
ATOM     20  C   UNL A   1      43.146  26.958  27.541  1.00  0.00     0.016 A 
ATOM     21  C   UNL A   1      41.043  26.336  29.283  1.00  0.00     0.010 A 
ATOM     22  C   UNL A   1      42.950  27.702  28.727  1.00  0.00     0.010 A 
ATOM     23  C   UNL A   1      41.866  27.429  29.587  1.00  0.00    -0.014 A 
BRANCH  23  24
ATOM     24  C   UNL A   1      41.484  28.310  30.736  1.00  0.00     0.031 A 
ATOM     25  C   UNL A   1      42.306  28.305  32.006  1.00  0.00     0.074 A 
ATOM     26  C   UNL A   1      40.487  29.213  30.624  1.00  0.00     0.049 A 
ATOM     27  N   UNL A   1      42.212  29.080  33.060  1.00  0.00    -0.248 NA
ATOM     28  C   UNL A   1      43.379  27.304  32.097  1.00  0.00     0.031 C 
ATOM     29  C   UNL A   1      39.623  29.377  29.458  1.00  0.00     0.029 A 
ATOM     30  N   UNL A   1      40.047  30.179  31.502  1.00  0.00    -0.354 N 
ATOM     31  C   UNL A   1      43.212  28.667  33.934  1.00  0.00     0.074 A 
ATOM     32  C   UNL A   1      43.874  27.544  33.304  1.00  0.00     0.031 C 
ATOM     33  C   UNL A   1      38.770  30.391  29.683  1.00  0.00     0.029 A 
ATOM     34  C   UNL A   1      39.005  30.937  31.020  1.00  0.00     0.049 A 
ATOM     35  H   UNL A   1      40.444  30.316  32.394  1.00  0.00     0.167 HD
ATOM     36  C   UNL A   1      43.566  29.180  35.138  1.00  0.00     0.037 A 
ATOM     37  C   UNL A   1      38.312  31.951  31.580  1.00  0.00     0.037 A 
ATOM     38  C   UNL A   1      42.931  30.305  35.780  1.00  0.00     0.049 A 
ATOM     39  C   UNL A   1      38.677  32.458  32.954  1.00  0.00     0.074 A 
ATOM     40  C   UNL A   1      43.259  30.900  36.988  1.00  0.00     0.029 A 
ATOM     41  N   UNL A   1      41.837  30.997  35.285  1.00  0.00    -0.354 N 
ATOM     42  N   UNL A   1      39.653  32.082  33.742  1.00  0.00    -0.248 NA
ATOM     43  C   UNL A   1      37.845  33.538  33.511  1.00  0.00     0.031 C 
ATOM     44  C   UNL A   1      42.330  31.913  37.250  1.00  0.00     0.029 A 
ATOM     45  C   UNL A   1      41.458  31.989  36.178  1.00  0.00     0.049 A 
ATOM     46  H   UNL A   1      41.395  30.812  34.424  1.00  0.00     0.167 HD
ATOM     47  C   UNL A   1      39.570  32.894  34.872  1.00  0.00     0.074 A 
ATOM     48  C   UNL A   1      38.455  33.791  34.661  1.00  0.00     0.031 C 
ATOM     49  C   UNL A   1      40.352  32.893  35.979  1.00  0.00     0.037 A 
BRANCH  36  50
ATOM     50  C   UNL A   1      44.703  28.517  35.869  1.00  0.00     0.058 A 
ATOM     51  C   UNL A   1      46.035  28.917  35.681  1.00  0.00     0.135 A 
ATOM     52  C   UNL A   1      44.448  27.508  36.812  1.00  0.00     0.135 A 
ATOM     53  F   UNL A   1      46.336  29.871  34.786  1.00  0.00    -0.206 F 
ATOM     54  C   UNL A   1      47.079  28.318  36.380  1.00  0.00     0.059 A 
ATOM     55  C   UNL A   1      45.473  26.914  37.542  1.00  0.00     0.059 A 
ATOM     56  F   UNL A   1      43.191  27.093  37.036  1.00  0.00    -0.206 F 
ATOM     57  C   UNL A   1      46.787  27.315  37.308  1.00  0.00     0.060 A 
BRANCH  57  58
ATOM     58  S   UNL A   1      48.152  26.546  38.204  1.00  0.00     0.124 S 
ATOM     59  O   UNL A   1      47.771  26.802  39.589  1.00  0.00    -0.237 OA
ATOM     60  O   UNL A   1      48.067  25.155  37.771  1.00  0.00    -0.237 OA
ATOM     61  O   UNL A   1      49.325  27.276  37.732  1.00  0.00    -0.744 OA
ENDBRANCH  57  58
ENDBRANCH  36  50
BRANCH  37  62
ATOM     62  C   UNL A   1      37.170  32.564  30.845  1.00  0.00     0.058 A 
ATOM     63  C   UNL A   1      37.373  33.541  29.860  1.00  0.00     0.135 A 
ATOM     64  C   UNL A   1      35.847  32.199  31.140  1.00  0.00     0.135 A 
ATOM     65  F   UNL A   1      38.619  33.938  29.557  1.00  0.00    -0.206 F 
ATOM     66  C   UNL A   1      36.306  34.149  29.204  1.00  0.00     0.059 A 
ATOM     67  C   UNL A   1      34.766  32.772  30.479  1.00  0.00     0.059 A 
ATOM     68  F   UNL A   1      35.597  31.268  32.073  1.00  0.00    -0.206 F 
ATOM     69  C   UNL A   1      35.005  33.754  29.519  1.00  0.00     0.060 A 
BRANCH  69  70
ATOM     70  S   UNL A   1      33.628  34.518  28.636  1.00  0.00     0.124 S 
ATOM     71  O   UNL A   1      34.279  35.656  28.000  1.00  0.00    -0.237 OA
ATOM     72  O   UNL A   1      33.202  33.444  27.743  1.00  0.00    -0.237 OA
ATOM     73  O   UNL A   1      32.685  34.845  29.703  1.00  0.00    -0.744 OA
ENDBRANCH  69  70
ENDBRANCH  37  62
BRANCH  49  74
ATOM     74  C   UNL A   1      40.063  33.911  37.054  1.00  0.00     0.058 A 
ATOM     75  C   UNL A   1      40.590  35.212  37.007  1.00  0.00     0.135 A 
ATOM     76  C   UNL A   1      39.201  33.599  38.121  1.00  0.00     0.135 A 
ATOM     77  F   UNL A   1      41.422  35.567  36.015  1.00  0.00    -0.206 F 
ATOM     78  C   UNL A   1      40.293  36.157  37.986  1.00  0.00     0.059 A 
ATOM     79  C   UNL A   1      38.868  34.536  39.096  1.00  0.00     0.059 A 
ATOM     80  F   UNL A   1      38.658  32.374  38.214  1.00  0.00    -0.206 F 
ATOM     81  C   UNL A   1      39.428  35.810  39.027  1.00  0.00     0.060 A 
BRANCH  81  82
ATOM     82  S   UNL A   1      39.024  37.057  40.271  1.00  0.00     0.124 S 
ATOM     83  O   UNL A   1      38.123  36.318  41.148  1.00  0.00    -0.237 OA
ATOM     84  O   UNL A   1      40.333  37.377  40.832  1.00  0.00    -0.237 OA
ATOM     85  O   UNL A   1      38.404  38.126  39.493  1.00  0.00    -0.744 OA
ENDBRANCH  81  82
ENDBRANCH  49  74
ENDBRANCH  23  24
ENDBRANCH  16  18
ENDBRANCH   1  16
TORSDOF 14
ENDMDL
MODEL 3
REMARK VINA RESULT:      -9.9      6.027     13.255
REMARK SMILES O=C(OCCOC(=O)c1ccc(-c2c3nc(c(-c4c(F)cc(S(=O)(=O)[O-])cc4F)c4ccc([nH]4)c(-c4c(F)cc(S(=O)(=O)[O-])cc4F)c4nc(c(-c5c(F)cc(S(=O)(=O)[O-])cc5F)c5ccc2[nH]5)C=C4)C=C3)cc1)C1=CCc2ccccc21
REMARK SMILES IDX 6 1 5 2 4 3 3 4 2 5 1 6 75 7 76 8 83 9 77 10 78 11 82 12
REMARK SMILES IDX 79 13 81 14 80 15 7 16 8 17 9 18 10 19 74 20 11 21 73 22
REMARK SMILES IDX 12 23 13 24 14 25 67 26 15 27 72 28 66 29 68 30 16 31 71 32
REMARK SMILES IDX 65 33 64 34 17 36 51 37 30 38 50 39 31 40 34 41 49 42 69 43
REMARK SMILES IDX 32 44 33 45 48 47 70 48 35 49 18 50 19 51 28 52 20 53 21 54
REMARK SMILES IDX 27 55 29 56 22 57 23 58 24 59 25 60 26 61 52 62 53 63 62 64
REMARK SMILES IDX 54 65 55 66 61 67 63 68 56 69 57 70 58 71 59 72 60 73 36 74
REMARK SMILES IDX 37 75 46 76 38 77 39 78 45 79 47 80 40 81 41 82 42 83 43 84
REMARK SMILES IDX 44 85
REMARK H PARENT 68 35 34 46
REMARK Flexibility Score: inf
ROOT
ATOM      1  O   UNL A   1      41.944  23.975  26.155  1.00  0.00    -0.458 OA
ENDROOT
BRANCH   1   2
ATOM      2  C   UNL A   1      42.676  23.136  25.232  1.00  0.00     0.275 C 
BRANCH   2   3
ATOM      3  C   UNL A   1      42.951  21.728  25.790  1.00  0.00     0.275 C 
BRANCH   3   4
ATOM      4  O   UNL A   1      44.330  21.372  25.745  1.00  0.00    -0.458 OA
BRANCH   4   5
ATOM      5  C   UNL A   1      45.356  22.178  26.086  1.00  0.00     0.338 C 
ATOM      6  O   UNL A   1      46.419  22.017  25.484  1.00  0.00    -0.246 OA
BRANCH   5   7
ATOM      7  C   UNL A   1      45.227  23.317  27.033  1.00  0.00     0.063 C 
ATOM      8  C   UNL A   1      46.045  24.360  26.759  1.00  0.00    -0.006 C 
ATOM      9  C   UNL A   1      44.712  23.545  28.402  1.00  0.00    -0.008 A 
ATOM     10  C   UNL A   1      46.214  25.324  27.888  1.00  0.00     0.064 C 
ATOM     11  C   UNL A   1      45.384  24.662  28.936  1.00  0.00    -0.036 A 
ATOM     12  C   UNL A   1      43.783  22.927  29.228  1.00  0.00     0.009 A 
ATOM     13  C   UNL A   1      45.262  25.062  30.263  1.00  0.00     0.004 A 
ATOM     14  C   UNL A   1      43.624  23.328  30.562  1.00  0.00     0.001 A 
ATOM     15  C   UNL A   1      44.388  24.367  31.088  1.00  0.00     0.000 A 
ENDBRANCH   5   7
ENDBRANCH   4   5
ENDBRANCH   3   4
ENDBRANCH   2   3
ENDBRANCH   1   2
BRANCH   1  16
ATOM     16  C   UNL A   1      42.201  25.304  26.027  1.00  0.00     0.338 C 
ATOM     17  O   UNL A   1      42.358  25.886  24.963  1.00  0.00    -0.246 OA
BRANCH  16  18
ATOM     18  C   UNL A   1      42.223  26.041  27.320  1.00  0.00     0.060 A 
ATOM     19  C   UNL A   1      41.294  25.620  28.279  1.00  0.00     0.016 A 
ATOM     20  C   UNL A   1      43.008  27.169  27.581  1.00  0.00     0.016 A 
ATOM     21  C   UNL A   1      41.078  26.361  29.444  1.00  0.00     0.010 A 
ATOM     22  C   UNL A   1      42.800  27.908  28.769  1.00  0.00     0.010 A 
ATOM     23  C   UNL A   1      41.798  27.538  29.690  1.00  0.00    -0.014 A 
BRANCH  23  24
ATOM     24  C   UNL A   1      41.390  28.394  30.849  1.00  0.00     0.031 A 
ATOM     25  C   UNL A   1      42.186  28.365  32.135  1.00  0.00     0.074 A 
ATOM     26  C   UNL A   1      40.392  29.294  30.736  1.00  0.00     0.049 A 
ATOM     27  N   UNL A   1      42.067  29.117  33.203  1.00  0.00    -0.248 NA
ATOM     28  C   UNL A   1      43.261  27.366  32.227  1.00  0.00     0.031 C 
ATOM     29  C   UNL A   1      39.550  29.479  29.556  1.00  0.00     0.029 A 
ATOM     30  N   UNL A   1      39.930  30.241  31.625  1.00  0.00    -0.354 N 
ATOM     31  C   UNL A   1      43.052  28.691  34.088  1.00  0.00     0.074 A 
ATOM     32  C   UNL A   1      43.731  27.583  33.448  1.00  0.00     0.031 C 
ATOM     33  C   UNL A   1      38.688  30.485  29.785  1.00  0.00     0.029 A 
ATOM     34  C   UNL A   1      38.895  31.004  31.137  1.00  0.00     0.049 A 
ATOM     35  H   UNL A   1      40.308  30.361  32.527  1.00  0.00     0.167 HD
ATOM     36  C   UNL A   1      43.380  29.180  35.309  1.00  0.00     0.037 A 
ATOM     37  C   UNL A   1      38.186  32.004  31.705  1.00  0.00     0.037 A 
ATOM     38  C   UNL A   1      42.727  30.288  35.961  1.00  0.00     0.049 A 
ATOM     39  C   UNL A   1      38.521  32.484  33.095  1.00  0.00     0.074 A 
ATOM     40  C   UNL A   1      43.028  30.860  37.188  1.00  0.00     0.029 A 
ATOM     41  N   UNL A   1      41.640  30.986  35.459  1.00  0.00    -0.354 N 
ATOM     42  N   UNL A   1      39.483  32.095  33.896  1.00  0.00    -0.248 NA
ATOM     43  C   UNL A   1      37.673  33.548  33.658  1.00  0.00     0.031 C 
ATOM     44  C   UNL A   1      42.090  31.864  37.452  1.00  0.00     0.029 A 
ATOM     45  C   UNL A   1      41.239  31.958  36.364  1.00  0.00     0.049 A 
ATOM     46  H   UNL A   1      41.216  30.817  34.586  1.00  0.00     0.167 HD
ATOM     47  C   UNL A   1      39.373  32.883  35.039  1.00  0.00     0.074 A 
ATOM     48  C   UNL A   1      38.259  33.780  34.825  1.00  0.00     0.031 C 
ATOM     49  C   UNL A   1      40.134  32.862  36.162  1.00  0.00     0.037 A 
BRANCH  36  50
ATOM     50  C   UNL A   1      44.504  28.506  36.049  1.00  0.00     0.058 A 
ATOM     51  C   UNL A   1      44.275  27.425  36.916  1.00  0.00     0.135 A 
ATOM     52  C   UNL A   1      45.833  28.910  35.844  1.00  0.00     0.135 A 
ATOM     53  F   UNL A   1      43.023  27.004  37.154  1.00  0.00    -0.206 F 
ATOM     54  C   UNL A   1      45.321  26.789  37.576  1.00  0.00     0.059 A 
ATOM     55  C   UNL A   1      46.897  28.271  36.472  1.00  0.00     0.059 A 
ATOM     56  F   UNL A   1      46.109  29.934  35.020  1.00  0.00    -0.206 F 
ATOM     57  C   UNL A   1      46.629  27.220  37.349  1.00  0.00     0.060 A 
BRANCH  57  58
ATOM     58  S   UNL A   1      47.976  26.387  38.216  1.00  0.00     0.124 S 
ATOM     59  O   UNL A   1      49.091  27.293  37.959  1.00  0.00    -0.237 OA
ATOM     60  O   UNL A   1      47.490  26.354  39.592  1.00  0.00    -0.237 OA
ATOM     61  O   UNL A   1      48.057  25.089  37.551  1.00  0.00    -0.744 OA
ENDBRANCH  57  58
ENDBRANCH  36  50
BRANCH  37  62
ATOM     62  C   UNL A   1      37.056  32.627  30.959  1.00  0.00     0.058 A 
ATOM     63  C   UNL A   1      35.728  32.235  31.181  1.00  0.00     0.135 A 
ATOM     64  C   UNL A   1      37.293  33.611  29.986  1.00  0.00     0.135 A 
ATOM     65  F   UNL A   1      35.452  31.283  32.087  1.00  0.00    -0.206 F 
ATOM     66  C   UNL A   1      34.675  32.782  30.454  1.00  0.00     0.059 A 
ATOM     67  C   UNL A   1      36.255  34.192  29.266  1.00  0.00     0.059 A 
ATOM     68  F   UNL A   1      38.545  34.023  29.736  1.00  0.00    -0.206 F 
ATOM     69  C   UNL A   1      34.949  33.763  29.499  1.00  0.00     0.060 A 
BRANCH  69  70
ATOM     70  S   UNL A   1      33.574  34.497  28.588  1.00  0.00     0.124 S 
ATOM     71  O   UNL A   1      33.212  33.416  27.679  1.00  0.00    -0.237 OA
ATOM     72  O   UNL A   1      32.618  34.784  29.653  1.00  0.00    -0.237 OA
ATOM     73  O   UNL A   1      34.175  35.672  27.963  1.00  0.00    -0.744 OA
ENDBRANCH  69  70
ENDBRANCH  37  62
BRANCH  49  74
ATOM     74  C   UNL A   1      39.818  33.856  37.252  1.00  0.00     0.058 A 
ATOM     75  C   UNL A   1      38.993  33.528  38.340  1.00  0.00     0.135 A 
ATOM     76  C   UNL A   1      40.392  35.140  37.238  1.00  0.00     0.135 A 
ATOM     77  F   UNL A   1      38.413  32.320  38.407  1.00  0.00    -0.206 F 
ATOM     78  C   UNL A   1      38.731  34.440  39.360  1.00  0.00     0.059 A 
ATOM     79  C   UNL A   1      40.168  36.058  38.261  1.00  0.00     0.059 A 
ATOM     80  F   UNL A   1      41.199  35.507  36.229  1.00  0.00    -0.206 F 
ATOM     81  C   UNL A   1      39.325  35.704  39.313  1.00  0.00     0.060 A 
BRANCH  81  82
ATOM     82  S   UNL A   1      39.005  36.864  40.660  1.00  0.00     0.124 S 
ATOM     83  O   UNL A   1      40.358  37.175  41.110  1.00  0.00    -0.237 OA
ATOM     84  O   UNL A   1      38.299  37.947  39.981  1.00  0.00    -0.237 OA
ATOM     85  O   UNL A   1      38.196  36.087  41.595  1.00  0.00    -0.744 OA
ENDBRANCH  81  82
ENDBRANCH  49  74
ENDBRANCH  23  24
ENDBRANCH  16  18
ENDBRANCH   1  16
TORSDOF 14
ENDMDL
