MODEL 1
REMARK VINA RESULT:     -10.7      0.000      0.000
REMARK SMILES C[N@@H+](CC(=O)OCCOC(=O)c1ccc(-c2c3nc(c(-c4c(F)cc(S(=O)(=O)[O-])cc4F)c4ccc([nH]4)c(-c4c(F)cc(S(=O)(=O)[O-])cc4F)c4nc(c(-c5c(F)cc(S(=O)(=O)[O-])cc5F)c5ccc2[nH]5)C=C4)C=C3)cc1)Cc1nc(-c2ccsc2)no1
REMARK SMILES IDX 7 1 6 2 4 3 5 4 3 5 2 6 1 7 78 9 79 10 80 11 88 12 81 13
REMARK SMILES IDX 87 14 82 15 83 16 86 17 84 18 85 19 8 20 9 21 10 22 11 23
REMARK SMILES IDX 12 24 13 25 77 26 14 27 76 28 15 29 16 30 17 31 70 32 18 33
REMARK SMILES IDX 75 34 69 35 71 36 19 37 74 38 68 39 67 40 20 42 54 43 33 44
REMARK SMILES IDX 53 45 34 46 37 47 52 48 72 49 35 50 36 51 51 53 73 54 38 55
REMARK SMILES IDX 21 56 22 57 31 58 23 59 24 60 30 61 32 62 25 63 26 64 27 65
REMARK SMILES IDX 28 66 29 67 55 68 56 69 65 70 57 71 58 72 64 73 66 74 59 75
REMARK SMILES IDX 60 76 61 77 62 78 63 79 39 80 40 81 49 82 41 83 42 84 48 85
REMARK SMILES IDX 50 86 43 87 44 88 45 89 46 90 47 91
REMARK H PARENT 2 8 71 41 37 52
REMARK Flexibility Score: inf
ROOT
ATOM      1  C   UNL A   1      33.400  31.012  27.356  1.00  0.00     0.274 C 
ENDROOT
BRANCH   1   2
ATOM      2  O   UNL A   1      33.767  30.027  26.367  1.00  0.00    -0.458 OA
BRANCH   2   3
ATOM      3  C   UNL A   1      33.387  28.755  26.634  1.00  0.00     0.361 C 
ATOM      4  O   UNL A   1      32.859  28.410  27.691  1.00  0.00    -0.245 OA
BRANCH   3   5
ATOM      5  C   UNL A   1      33.624  27.737  25.529  1.00  0.00     0.386 C 
BRANCH   5   6
ATOM      6  N   UNL A   1      32.713  26.603  25.346  1.00  0.00    -0.320 N 
ATOM      7  C   UNL A   1      33.243  25.409  24.732  1.00  0.00     0.333 C 
ATOM      8  H   UNL A   1      32.680  26.289  26.316  1.00  0.00     0.348 HD
BRANCH   6   9
ATOM      9  C   UNL A   1      31.285  26.885  25.163  1.00  0.00     0.364 C 
BRANCH   9  10
ATOM     10  C   UNL A   1      30.859  27.802  24.064  1.00  0.00     0.282 A 
ATOM     11  N   UNL A   1      30.588  29.091  24.052  1.00  0.00    -0.186 NA
ATOM     12  O   UNL A   1      30.680  27.205  22.842  1.00  0.00    -0.333 OA
ATOM     13  C   UNL A   1      30.026  29.238  22.808  1.00  0.00     0.203 A 
ATOM     14  N   UNL A   1      30.124  28.175  22.001  1.00  0.00    -0.057 NA
BRANCH  13  15
ATOM     15  C   UNL A   1      29.246  30.437  22.510  1.00  0.00     0.033 A 
ATOM     16  C   UNL A   1      28.945  31.426  23.496  1.00  0.00     0.024 A 
ATOM     17  C   UNL A   1      28.805  30.803  21.258  1.00  0.00     0.077 A 
ATOM     18  C   UNL A   1      28.305  32.518  22.951  1.00  0.00     0.065 A 
ATOM     19  S   UNL A   1      28.028  32.328  21.272  1.00  0.00    -0.152 S 
ENDBRANCH  13  15
ENDBRANCH   9  10
ENDBRANCH   6   9
ENDBRANCH   5   6
ENDBRANCH   3   5
ENDBRANCH   2   3
ENDBRANCH   1   2
BRANCH   1  20
ATOM     20  C   UNL A   1      34.634  31.656  27.990  1.00  0.00     0.275 C 
BRANCH  20  21
ATOM     21  O   UNL A   1      35.503  30.677  28.592  1.00  0.00    -0.458 OA
BRANCH  21  22
ATOM     22  C   UNL A   1      36.476  31.211  29.354  1.00  0.00     0.338 C 
ATOM     23  O   UNL A   1      36.371  32.132  30.146  1.00  0.00    -0.246 OA
BRANCH  22  24
ATOM     24  C   UNL A   1      37.768  30.580  29.158  1.00  0.00     0.060 A 
ATOM     25  C   UNL A   1      38.087  30.017  27.923  1.00  0.00     0.016 A 
ATOM     26  C   UNL A   1      38.594  30.423  30.274  1.00  0.00     0.016 A 
ATOM     27  C   UNL A   1      39.289  29.331  27.787  1.00  0.00     0.010 A 
ATOM     28  C   UNL A   1      39.816  29.780  30.124  1.00  0.00     0.010 A 
ATOM     29  C   UNL A   1      40.182  29.267  28.871  1.00  0.00    -0.014 A 
BRANCH  29  30
ATOM     30  C   UNL A   1      41.595  28.924  28.626  1.00  0.00     0.031 A 
ATOM     31  C   UNL A   1      42.675  29.955  28.622  1.00  0.00     0.074 A 
ATOM     32  C   UNL A   1      41.846  27.635  28.326  1.00  0.00     0.049 A 
ATOM     33  N   UNL A   1      43.941  29.804  28.336  1.00  0.00    -0.248 NA
ATOM     34  C   UNL A   1      42.292  31.329  28.975  1.00  0.00     0.031 C 
ATOM     35  C   UNL A   1      40.832  26.573  28.280  1.00  0.00     0.029 A 
ATOM     36  N   UNL A   1      43.007  26.996  27.991  1.00  0.00    -0.354 N 
ATOM     37  C   UNL A   1      44.514  31.061  28.472  1.00  0.00     0.074 A 
ATOM     38  C   UNL A   1      43.451  31.970  28.850  1.00  0.00     0.031 C 
ATOM     39  C   UNL A   1      41.417  25.417  27.943  1.00  0.00     0.029 A 
ATOM     40  C   UNL A   1      42.830  25.666  27.699  1.00  0.00     0.049 A 
ATOM     41  H   UNL A   1      43.883  27.445  27.961  1.00  0.00     0.167 HD
ATOM     42  C   UNL A   1      45.811  31.408  28.291  1.00  0.00     0.037 A 
ATOM     43  C   UNL A   1      43.704  24.750  27.248  1.00  0.00     0.037 A 
ATOM     44  C   UNL A   1      46.841  30.478  27.900  1.00  0.00     0.049 A 
ATOM     45  C   UNL A   1      45.120  25.174  27.018  1.00  0.00     0.074 A 
ATOM     46  C   UNL A   1      48.196  30.710  27.738  1.00  0.00     0.029 A 
ATOM     47  N   UNL A   1      46.627  29.140  27.593  1.00  0.00    -0.354 N 
ATOM     48  N   UNL A   1      45.658  26.356  27.197  1.00  0.00    -0.248 NA
ATOM     49  C   UNL A   1      46.043  24.152  26.518  1.00  0.00     0.031 C 
ATOM     50  C   UNL A   1      48.791  29.523  27.292  1.00  0.00     0.029 A 
ATOM     51  C   UNL A   1      47.816  28.542  27.210  1.00  0.00     0.049 A 
ATOM     52  H   UNL A   1      45.755  28.684  27.640  1.00  0.00     0.167 HD
ATOM     53  C   UNL A   1      46.987  26.226  26.825  1.00  0.00     0.074 A 
ATOM     54  C   UNL A   1      47.175  24.840  26.436  1.00  0.00     0.031 C 
ATOM     55  C   UNL A   1      47.963  27.166  26.802  1.00  0.00     0.037 A 
BRANCH  42  56
ATOM     56  C   UNL A   1      46.187  32.849  28.499  1.00  0.00     0.058 A 
ATOM     57  C   UNL A   1      46.062  33.798  27.472  1.00  0.00     0.135 A 
ATOM     58  C   UNL A   1      46.627  33.298  29.755  1.00  0.00     0.135 A 
ATOM     59  F   UNL A   1      45.657  33.420  26.250  1.00  0.00    -0.206 F 
ATOM     60  C   UNL A   1      46.378  35.138  27.678  1.00  0.00     0.059 A 
ATOM     61  C   UNL A   1      46.933  34.636  29.988  1.00  0.00     0.059 A 
ATOM     62  F   UNL A   1      46.765  32.432  30.771  1.00  0.00    -0.206 F 
ATOM     63  C   UNL A   1      46.815  35.547  28.940  1.00  0.00     0.060 A 
BRANCH  63  64
ATOM     64  S   UNL A   1      47.215  37.290  29.193  1.00  0.00     0.124 S 
ATOM     65  O   UNL A   1      48.570  37.359  28.656  1.00  0.00    -0.237 OA
ATOM     66  O   UNL A   1      46.188  37.967  28.408  1.00  0.00    -0.237 OA
ATOM     67  O   UNL A   1      47.104  37.458  30.639  1.00  0.00    -0.744 OA
ENDBRANCH  63  64
ENDBRANCH  42  56
BRANCH  43  68
ATOM     68  C   UNL A   1      43.234  23.371  26.975  1.00  0.00     0.058 A 
ATOM     69  C   UNL A   1      43.075  22.913  25.662  1.00  0.00     0.135 A 
ATOM     70  C   UNL A   1      43.017  22.460  28.021  1.00  0.00     0.135 A 
ATOM     71  F   UNL A   1      43.277  23.747  24.630  1.00  0.00    -0.206 F 
ATOM     72  C   UNL A   1      42.718  21.595  25.390  1.00  0.00     0.059 A 
ATOM     73  C   UNL A   1      42.682  21.134  27.776  1.00  0.00     0.059 A 
ATOM     74  F   UNL A   1      43.184  22.847  29.296  1.00  0.00    -0.206 F 
ATOM     75  C   UNL A   1      42.529  20.713  26.456  1.00  0.00     0.060 A 
BRANCH  75  76
ATOM     76  S   UNL A   1      42.143  18.984  26.097  1.00  0.00     0.124 S 
ATOM     77  O   UNL A   1      43.056  18.705  24.994  1.00  0.00    -0.237 OA
ATOM     78  O   UNL A   1      42.452  18.328  27.363  1.00  0.00    -0.237 OA
ATOM     79  O   UNL A   1      40.725  19.025  25.752  1.00  0.00    -0.744 OA
ENDBRANCH  75  76
ENDBRANCH  43  68
BRANCH  55  80
ATOM     80  C   UNL A   1      49.309  26.717  26.320  1.00  0.00     0.058 A 
ATOM     81  C   UNL A   1      49.698  26.898  24.984  1.00  0.00     0.135 A 
ATOM     82  C   UNL A   1      50.222  26.117  27.202  1.00  0.00     0.135 A 
ATOM     83  F   UNL A   1      48.851  27.452  24.103  1.00  0.00    -0.206 F 
ATOM     84  C   UNL A   1      50.944  26.482  24.532  1.00  0.00     0.059 A 
ATOM     85  C   UNL A   1      51.482  25.713  26.775  1.00  0.00     0.059 A 
ATOM     86  F   UNL A   1      49.893  25.925  28.488  1.00  0.00    -0.206 F 
ATOM     87  C   UNL A   1      51.829  25.889  25.435  1.00  0.00     0.060 A 
BRANCH  87  88
ATOM     88  S   UNL A   1      53.455  25.377  24.845  1.00  0.00     0.124 S 
ATOM     89  O   UNL A   1      53.432  23.946  25.129  1.00  0.00    -0.237 OA
ATOM     90  O   UNL A   1      53.408  25.744  23.432  1.00  0.00    -0.237 OA
ATOM     91  O   UNL A   1      54.374  26.165  25.660  1.00  0.00    -0.744 OA
ENDBRANCH  87  88
ENDBRANCH  55  80
ENDBRANCH  29  30
ENDBRANCH  22  24
ENDBRANCH  21  22
ENDBRANCH  20  21
ENDBRANCH   1  20
TORSDOF 18
ENDMDL
MODEL 2
REMARK VINA RESULT:     -10.7      6.817     12.317
REMARK SMILES C[N@@H+](CC(=O)OCCOC(=O)c1ccc(-c2c3nc(c(-c4c(F)cc(S(=O)(=O)[O-])cc4F)c4ccc([nH]4)c(-c4c(F)cc(S(=O)(=O)[O-])cc4F)c4nc(c(-c5c(F)cc(S(=O)(=O)[O-])cc5F)c5ccc2[nH]5)C=C4)C=C3)cc1)Cc1nc(-c2ccsc2)no1
REMARK SMILES IDX 7 1 6 2 4 3 5 4 3 5 2 6 1 7 78 9 79 10 80 11 88 12 81 13
REMARK SMILES IDX 87 14 82 15 83 16 86 17 84 18 85 19 8 20 9 21 10 22 11 23
REMARK SMILES IDX 12 24 13 25 77 26 14 27 76 28 15 29 16 30 17 31 70 32 18 33
REMARK SMILES IDX 75 34 69 35 71 36 19 37 74 38 68 39 67 40 20 42 54 43 33 44
REMARK SMILES IDX 53 45 34 46 37 47 52 48 72 49 35 50 36 51 51 53 73 54 38 55
REMARK SMILES IDX 21 56 22 57 31 58 23 59 24 60 30 61 32 62 25 63 26 64 27 65
REMARK SMILES IDX 28 66 29 67 55 68 56 69 65 70 57 71 58 72 64 73 66 74 59 75
REMARK SMILES IDX 60 76 61 77 62 78 63 79 39 80 40 81 49 82 41 83 42 84 48 85
REMARK SMILES IDX 50 86 43 87 44 88 45 89 46 90 47 91
REMARK H PARENT 2 8 71 41 37 52
REMARK Flexibility Score: inf
ROOT
ATOM      1  C   UNL A   1      38.425  22.037  25.994  1.00  0.00     0.274 C 
ENDROOT
BRANCH   1   2
ATOM      2  O   UNL A   1      38.225  20.820  25.245  1.00  0.00    -0.458 OA
BRANCH   2   3
ATOM      3  C   UNL A   1      36.946  20.389  25.151  1.00  0.00     0.361 C 
ATOM      4  O   UNL A   1      36.636  19.242  24.827  1.00  0.00    -0.245 OA
BRANCH   3   5
ATOM      5  C   UNL A   1      35.867  21.404  25.498  1.00  0.00     0.386 C 
BRANCH   5   6
ATOM      6  N   UNL A   1      34.624  20.985  26.152  1.00  0.00    -0.320 N 
ATOM      7  C   UNL A   1      33.685  20.211  25.376  1.00  0.00     0.333 C 
ATOM      8  H   UNL A   1      35.012  20.240  26.731  1.00  0.00     0.348 HD
BRANCH   6   9
ATOM      9  C   UNL A   1      34.086  21.832  27.222  1.00  0.00     0.364 C 
BRANCH   9  10
ATOM     10  C   UNL A   1      33.178  22.963  26.869  1.00  0.00     0.282 A 
ATOM     11  N   UNL A   1      33.327  23.987  26.054  1.00  0.00    -0.186 NA
ATOM     12  O   UNL A   1      31.975  22.974  27.529  1.00  0.00    -0.333 OA
ATOM     13  C   UNL A   1      32.243  24.759  26.388  1.00  0.00     0.203 A 
ATOM     14  N   UNL A   1      31.349  24.181  27.198  1.00  0.00    -0.057 NA
BRANCH  13  15
ATOM     15  C   UNL A   1      32.211  26.164  25.986  1.00  0.00     0.033 A 
ATOM     16  C   UNL A   1      32.547  26.596  24.666  1.00  0.00     0.024 A 
ATOM     17  C   UNL A   1      31.770  27.203  26.775  1.00  0.00     0.077 A 
ATOM     18  C   UNL A   1      32.326  27.946  24.495  1.00  0.00     0.065 A 
ATOM     19  S   UNL A   1      31.765  28.692  25.930  1.00  0.00    -0.152 S 
ENDBRANCH  13  15
ENDBRANCH   9  10
ENDBRANCH   6   9
ENDBRANCH   5   6
ENDBRANCH   3   5
ENDBRANCH   2   3
ENDBRANCH   1   2
BRANCH   1  20
ATOM     20  C   UNL A   1      39.886  22.205  26.412  1.00  0.00     0.275 C 
BRANCH  20  21
ATOM     21  O   UNL A   1      40.041  23.202  27.440  1.00  0.00    -0.458 OA
BRANCH  21  22
ATOM     22  C   UNL A   1      40.876  24.204  27.104  1.00  0.00     0.338 C 
ATOM     23  O   UNL A   1      41.689  24.213  26.195  1.00  0.00    -0.246 OA
BRANCH  22  24
ATOM     24  C   UNL A   1      40.749  25.368  27.961  1.00  0.00     0.060 A 
ATOM     25  C   UNL A   1      39.586  25.559  28.708  1.00  0.00     0.016 A 
ATOM     26  C   UNL A   1      41.744  26.345  27.887  1.00  0.00     0.016 A 
ATOM     27  C   UNL A   1      39.444  26.729  29.444  1.00  0.00     0.010 A 
ATOM     28  C   UNL A   1      41.624  27.492  28.661  1.00  0.00     0.010 A 
ATOM     29  C   UNL A   1      40.491  27.667  29.470  1.00  0.00    -0.014 A 
BRANCH  29  30
ATOM     30  C   UNL A   1      40.533  28.677  30.545  1.00  0.00     0.031 A 
ATOM     31  C   UNL A   1      41.446  28.552  31.719  1.00  0.00     0.074 A 
ATOM     32  C   UNL A   1      39.641  29.681  30.446  1.00  0.00     0.049 A 
ATOM     33  N   UNL A   1      41.522  29.317  32.774  1.00  0.00    -0.248 NA
ATOM     34  C   UNL A   1      42.388  27.423  31.719  1.00  0.00     0.031 C 
ATOM     35  C   UNL A   1      38.691  29.852  29.339  1.00  0.00     0.029 A 
ATOM     36  N   UNL A   1      39.368  30.730  31.278  1.00  0.00    -0.354 N 
ATOM     37  C   UNL A   1      42.519  28.771  33.571  1.00  0.00     0.074 A 
ATOM     38  C   UNL A   1      43.010  27.593  32.883  1.00  0.00     0.031 C 
ATOM     39  C   UNL A   1      37.947  30.943  29.558  1.00  0.00     0.029 A 
ATOM     40  C   UNL A   1      38.329  31.515  30.840  1.00  0.00     0.049 A 
ATOM     41  H   UNL A   1      39.866  30.906  32.109  1.00  0.00     0.167 HD
ATOM     42  C   UNL A   1      42.971  29.222  34.765  1.00  0.00     0.037 A 
ATOM     43  C   UNL A   1      37.723  32.562  31.425  1.00  0.00     0.037 A 
ATOM     44  C   UNL A   1      42.450  30.392  35.428  1.00  0.00     0.049 A 
ATOM     45  C   UNL A   1      38.216  33.010  32.763  1.00  0.00     0.074 A 
ATOM     46  C   UNL A   1      42.866  30.968  36.616  1.00  0.00     0.029 A 
ATOM     47  N   UNL A   1      41.383  31.155  34.968  1.00  0.00    -0.354 N 
ATOM     48  N   UNL A   1      39.193  32.512  33.483  1.00  0.00    -0.248 NA
ATOM     49  C   UNL A   1      37.527  34.150  33.375  1.00  0.00     0.031 C 
ATOM     50  C   UNL A   1      42.024  32.053  36.893  1.00  0.00     0.029 A 
ATOM     51  C   UNL A   1      41.106  32.175  35.863  1.00  0.00     0.049 A 
ATOM     52  H   UNL A   1      40.896  30.992  34.129  1.00  0.00     0.167 HD
ATOM     53  C   UNL A   1      39.235  33.273  34.641  1.00  0.00     0.074 A 
ATOM     54  C   UNL A   1      38.200  34.283  34.511  1.00  0.00     0.031 C 
ATOM     55  C   UNL A   1      40.049  33.147  35.716  1.00  0.00     0.037 A 
BRANCH  42  56
ATOM     56  C   UNL A   1      44.069  28.447  35.439  1.00  0.00     0.058 A 
ATOM     57  C   UNL A   1      45.423  28.724  35.191  1.00  0.00     0.135 A 
ATOM     58  C   UNL A   1      43.767  27.452  36.382  1.00  0.00     0.135 A 
ATOM     59  F   UNL A   1      45.768  29.658  34.291  1.00  0.00    -0.206 F 
ATOM     60  C   UNL A   1      46.439  28.028  35.842  1.00  0.00     0.059 A 
ATOM     61  C   UNL A   1      44.766  26.755  37.057  1.00  0.00     0.059 A 
ATOM     62  F   UNL A   1      42.489  27.147  36.654  1.00  0.00    -0.206 F 
ATOM     63  C   UNL A   1      46.099  27.044  36.772  1.00  0.00     0.060 A 
BRANCH  63  64
ATOM     64  S   UNL A   1      47.427  26.155  37.614  1.00  0.00     0.124 S 
ATOM     65  O   UNL A   1      48.305  27.251  38.012  1.00  0.00    -0.237 OA
ATOM     66  O   UNL A   1      46.719  25.484  38.700  1.00  0.00    -0.237 OA
ATOM     67  O   UNL A   1      47.956  25.272  36.578  1.00  0.00    -0.744 OA
ENDBRANCH  63  64
ENDBRANCH  42  56
BRANCH  43  68
ATOM     68  C   UNL A   1      36.582  33.216  30.739  1.00  0.00     0.058 A 
ATOM     69  C   UNL A   1      35.272  33.042  31.201  1.00  0.00     0.135 A 
ATOM     70  C   UNL A   1      36.791  34.093  29.664  1.00  0.00     0.135 A 
ATOM     71  F   UNL A   1      35.026  32.217  32.231  1.00  0.00    -0.206 F 
ATOM     72  C   UNL A   1      34.202  33.718  30.621  1.00  0.00     0.059 A 
ATOM     73  C   UNL A   1      35.743  34.796  29.082  1.00  0.00     0.059 A 
ATOM     74  F   UNL A   1      38.034  34.311  29.205  1.00  0.00    -0.206 F 
ATOM     75  C   UNL A   1      34.450  34.597  29.565  1.00  0.00     0.060 A 
BRANCH  75  76
ATOM     76  S   UNL A   1      33.070  35.531  28.867  1.00  0.00     0.124 S 
ATOM     77  O   UNL A   1      33.770  36.560  28.107  1.00  0.00    -0.237 OA
ATOM     78  O   UNL A   1      32.376  34.517  28.081  1.00  0.00    -0.237 OA
ATOM     79  O   UNL A   1      32.351  35.996  30.050  1.00  0.00    -0.744 OA
ENDBRANCH  75  76
ENDBRANCH  43  68
BRANCH  55  80
ATOM     80  C   UNL A   1      39.830  34.119  36.836  1.00  0.00     0.058 A 
ATOM     81  C   UNL A   1      38.942  33.829  37.883  1.00  0.00     0.135 A 
ATOM     82  C   UNL A   1      40.522  35.339  36.872  1.00  0.00     0.135 A 
ATOM     83  F   UNL A   1      38.247  32.681  37.881  1.00  0.00    -0.206 F 
ATOM     84  C   UNL A   1      38.734  34.726  38.923  1.00  0.00     0.059 A 
ATOM     85  C   UNL A   1      40.344  36.242  37.914  1.00  0.00     0.059 A 
ATOM     86  F   UNL A   1      41.382  35.658  35.893  1.00  0.00    -0.206 F 
ATOM     87  C   UNL A   1      39.438  35.931  38.929  1.00  0.00     0.060 A 
BRANCH  87  88
ATOM     88  S   UNL A   1      39.181  37.079  40.297  1.00  0.00     0.124 S 
ATOM     89  O   UNL A   1      40.539  37.555  40.539  1.00  0.00    -0.237 OA
ATOM     90  O   UNL A   1      38.259  38.054  39.723  1.00  0.00    -0.237 OA
ATOM     91  O   UNL A   1      38.616  36.234  41.345  1.00  0.00    -0.744 OA
ENDBRANCH  87  88
ENDBRANCH  55  80
ENDBRANCH  29  30
ENDBRANCH  22  24
ENDBRANCH  21  22
ENDBRANCH  20  21
ENDBRANCH   1  20
TORSDOF 18
ENDMDL
MODEL 3
REMARK VINA RESULT:     -10.6      3.099      4.543
REMARK SMILES C[N@@H+](CC(=O)OCCOC(=O)c1ccc(-c2c3nc(c(-c4c(F)cc(S(=O)(=O)[O-])cc4F)c4ccc([nH]4)c(-c4c(F)cc(S(=O)(=O)[O-])cc4F)c4nc(c(-c5c(F)cc(S(=O)(=O)[O-])cc5F)c5ccc2[nH]5)C=C4)C=C3)cc1)Cc1nc(-c2ccsc2)no1
REMARK SMILES IDX 7 1 6 2 4 3 5 4 3 5 2 6 1 7 78 9 79 10 80 11 88 12 81 13
REMARK SMILES IDX 87 14 82 15 83 16 86 17 84 18 85 19 8 20 9 21 10 22 11 23
REMARK SMILES IDX 12 24 13 25 77 26 14 27 76 28 15 29 16 30 17 31 70 32 18 33
REMARK SMILES IDX 75 34 69 35 71 36 19 37 74 38 68 39 67 40 20 42 54 43 33 44
REMARK SMILES IDX 53 45 34 46 37 47 52 48 72 49 35 50 36 51 51 53 73 54 38 55
REMARK SMILES IDX 21 56 22 57 31 58 23 59 24 60 30 61 32 62 25 63 26 64 27 65
REMARK SMILES IDX 28 66 29 67 55 68 56 69 65 70 57 71 58 72 64 73 66 74 59 75
REMARK SMILES IDX 60 76 61 77 62 78 63 79 39 80 40 81 49 82 41 83 42 84 48 85
REMARK SMILES IDX 50 86 43 87 44 88 45 89 46 90 47 91
REMARK H PARENT 2 8 71 41 37 52
REMARK Flexibility Score: inf
ROOT
ATOM      1  C   UNL A   1      31.738  29.611  26.053  1.00  0.00     0.274 C 
ENDROOT
BRANCH   1   2
ATOM      2  O   UNL A   1      31.738  28.196  26.332  1.00  0.00    -0.458 OA
BRANCH   2   3
ATOM      3  C   UNL A   1      31.323  27.396  25.322  1.00  0.00     0.361 C 
ATOM      4  O   UNL A   1      30.805  26.293  25.496  1.00  0.00    -0.245 OA
BRANCH   3   5
ATOM      5  C   UNL A   1      31.507  27.942  23.914  1.00  0.00     0.386 C 
BRANCH   5   6
ATOM      6  N   UNL A   1      32.779  27.777  23.206  1.00  0.00    -0.320 N 
ATOM      7  C   UNL A   1      33.636  28.932  23.085  1.00  0.00     0.333 C 
ATOM      8  H   UNL A   1      33.284  27.273  23.934  1.00  0.00     0.348 HD
BRANCH   6   9
ATOM      9  C   UNL A   1      32.857  26.761  22.150  1.00  0.00     0.364 C 
BRANCH   9  10
ATOM     10  C   UNL A   1      33.337  25.389  22.493  1.00  0.00     0.282 A 
ATOM     11  N   UNL A   1      33.884  24.898  23.586  1.00  0.00    -0.186 NA
ATOM     12  O   UNL A   1      33.229  24.464  21.485  1.00  0.00    -0.333 OA
ATOM     13  C   UNL A   1      34.308  23.668  23.148  1.00  0.00     0.203 A 
ATOM     14  N   UNL A   1      33.879  23.309  21.933  1.00  0.00    -0.057 NA
BRANCH  13  15
ATOM     15  C   UNL A   1      35.291  22.927  23.934  1.00  0.00     0.033 A 
ATOM     16  C   UNL A   1      34.997  21.673  24.553  1.00  0.00     0.024 A 
ATOM     17  C   UNL A   1      36.613  23.282  24.087  1.00  0.00     0.077 A 
ATOM     18  C   UNL A   1      36.113  21.111  25.135  1.00  0.00     0.065 A 
ATOM     19  S   UNL A   1      37.493  22.113  24.975  1.00  0.00    -0.152 S 
ENDBRANCH  13  15
ENDBRANCH   9  10
ENDBRANCH   6   9
ENDBRANCH   5   6
ENDBRANCH   3   5
ENDBRANCH   2   3
ENDBRANCH   1   2
BRANCH   1  20
ATOM     20  C   UNL A   1      32.464  30.398  27.146  1.00  0.00     0.275 C 
BRANCH  20  21
ATOM     21  O   UNL A   1      33.880  30.134  27.149  1.00  0.00    -0.458 OA
BRANCH  21  22
ATOM     22  C   UNL A   1      34.555  30.806  28.101  1.00  0.00     0.338 C 
ATOM     23  O   UNL A   1      34.162  31.760  28.750  1.00  0.00    -0.246 OA
BRANCH  22  24
ATOM     24  C   UNL A   1      35.894  30.293  28.325  1.00  0.00     0.060 A 
ATOM     25  C   UNL A   1      36.784  30.183  27.257  1.00  0.00     0.016 A 
ATOM     26  C   UNL A   1      36.193  29.776  29.588  1.00  0.00     0.016 A 
ATOM     27  C   UNL A   1      38.026  29.595  27.474  1.00  0.00     0.010 A 
ATOM     28  C   UNL A   1      37.451  29.235  29.816  1.00  0.00     0.010 A 
ATOM     29  C   UNL A   1      38.383  29.179  28.768  1.00  0.00    -0.014 A 
BRANCH  29  30
ATOM     30  C   UNL A   1      39.805  28.953  29.091  1.00  0.00     0.031 A 
ATOM     31  C   UNL A   1      40.678  30.034  29.636  1.00  0.00     0.074 A 
ATOM     32  C   UNL A   1      40.292  27.735  28.789  1.00  0.00     0.049 A 
ATOM     33  N   UNL A   1      41.961  29.997  29.880  1.00  0.00    -0.248 NA
ATOM     34  C   UNL A   1      40.040  31.323  29.941  1.00  0.00     0.031 C 
ATOM     35  C   UNL A   1      39.502  26.634  28.221  1.00  0.00     0.029 A 
ATOM     36  N   UNL A   1      41.552  27.215  28.894  1.00  0.00    -0.354 N 
ATOM     37  C   UNL A   1      42.292  31.253  30.368  1.00  0.00     0.074 A 
ATOM     38  C   UNL A   1      41.075  32.040  30.369  1.00  0.00     0.031 C 
ATOM     39  C   UNL A   1      40.294  25.571  28.036  1.00  0.00     0.029 A 
ATOM     40  C   UNL A   1      41.651  25.930  28.420  1.00  0.00     0.049 A 
ATOM     41  H   UNL A   1      42.312  27.713  29.273  1.00  0.00     0.167 HD
ATOM     42  C   UNL A   1      43.508  31.695  30.771  1.00  0.00     0.037 A 
ATOM     43  C   UNL A   1      42.725  25.137  28.275  1.00  0.00     0.037 A 
ATOM     44  C   UNL A   1      44.702  30.888  30.744  1.00  0.00     0.049 A 
ATOM     45  C   UNL A   1      44.060  25.667  28.690  1.00  0.00     0.074 A 
ATOM     46  C   UNL A   1      45.976  31.216  31.175  1.00  0.00     0.029 A 
ATOM     47  N   UNL A   1      44.774  29.595  30.239  1.00  0.00    -0.354 N 
ATOM     48  N   UNL A   1      44.351  26.842  29.195  1.00  0.00    -0.248 NA
ATOM     49  C   UNL A   1      45.211  24.779  28.510  1.00  0.00     0.031 C 
ATOM     50  C   UNL A   1      46.824  30.137  30.893  1.00  0.00     0.029 A 
ATOM     51  C   UNL A   1      46.074  29.124  30.317  1.00  0.00     0.049 A 
ATOM     52  H   UNL A   1      44.011  29.088  29.877  1.00  0.00     0.167 HD
ATOM     53  C   UNL A   1      45.724  26.840  29.390  1.00  0.00     0.074 A 
ATOM     54  C   UNL A   1      46.199  25.534  28.971  1.00  0.00     0.031 C 
ATOM     55  C   UNL A   1      46.520  27.827  29.865  1.00  0.00     0.037 A 
BRANCH  42  56
ATOM     56  C   UNL A   1      43.612  33.111  31.263  1.00  0.00     0.058 A 
ATOM     57  C   UNL A   1      43.439  33.434  32.619  1.00  0.00     0.135 A 
ATOM     58  C   UNL A   1      43.940  34.152  30.380  1.00  0.00     0.135 A 
ATOM     59  F   UNL A   1      43.114  32.480  33.504  1.00  0.00    -0.206 F 
ATOM     60  C   UNL A   1      43.571  34.742  33.078  1.00  0.00     0.059 A 
ATOM     61  C   UNL A   1      44.093  35.465  30.819  1.00  0.00     0.059 A 
ATOM     62  F   UNL A   1      44.114  33.898  29.074  1.00  0.00    -0.206 F 
ATOM     63  C   UNL A   1      43.896  35.751  32.169  1.00  0.00     0.060 A 
BRANCH  63  64
ATOM     64  S   UNL A   1      44.070  37.442  32.780  1.00  0.00     0.124 S 
ATOM     65  O   UNL A   1      43.913  38.213  31.551  1.00  0.00    -0.237 OA
ATOM     66  O   UNL A   1      42.973  37.546  33.737  1.00  0.00    -0.237 OA
ATOM     67  O   UNL A   1      45.408  37.457  33.363  1.00  0.00    -0.744 OA
ENDBRANCH  63  64
ENDBRANCH  42  56
BRANCH  43  68
ATOM     68  C   UNL A   1      42.555  23.784  27.692  1.00  0.00     0.058 A 
ATOM     69  C   UNL A   1      42.583  23.590  26.306  1.00  0.00     0.135 A 
ATOM     70  C   UNL A   1      42.448  22.650  28.513  1.00  0.00     0.135 A 
ATOM     71  F   UNL A   1      42.689  24.644  25.482  1.00  0.00    -0.206 F 
ATOM     72  C   UNL A   1      42.511  22.317  25.749  1.00  0.00     0.059 A 
ATOM     73  C   UNL A   1      42.397  21.367  27.983  1.00  0.00     0.059 A 
ATOM     74  F   UNL A   1      42.445  22.786  29.849  1.00  0.00    -0.206 F 
ATOM     75  C   UNL A   1      42.424  21.211  26.598  1.00  0.00     0.060 A 
BRANCH  75  76
ATOM     76  S   UNL A   1      42.411  19.556  25.874  1.00  0.00     0.124 S 
ATOM     77  O   UNL A   1      41.035  19.455  25.402  1.00  0.00    -0.237 OA
ATOM     78  O   UNL A   1      43.434  19.662  24.839  1.00  0.00    -0.237 OA
ATOM     79  O   UNL A   1      42.759  18.697  27.001  1.00  0.00    -0.744 OA
ENDBRANCH  75  76
ENDBRANCH  43  68
BRANCH  55  80
ATOM     80  C   UNL A   1      47.987  27.526  29.934  1.00  0.00     0.058 A 
ATOM     81  C   UNL A   1      48.837  27.818  28.858  1.00  0.00     0.135 A 
ATOM     82  C   UNL A   1      48.547  26.958  31.088  1.00  0.00     0.135 A 
ATOM     83  F   UNL A   1      48.341  28.347  27.728  1.00  0.00    -0.206 F 
ATOM     84  C   UNL A   1      50.197  27.540  28.916  1.00  0.00     0.059 A 
ATOM     85  C   UNL A   1      49.909  26.690  31.176  1.00  0.00     0.059 A 
ATOM     86  F   UNL A   1      47.772  26.663  32.143  1.00  0.00    -0.206 F 
ATOM     87  C   UNL A   1      50.723  26.974  30.079  1.00  0.00     0.060 A 
BRANCH  87  88
ATOM     88  S   UNL A   1      52.495  26.641  30.155  1.00  0.00     0.124 S 
ATOM     89  O   UNL A   1      52.777  26.243  28.780  1.00  0.00    -0.237 OA
ATOM     90  O   UNL A   1      53.042  27.931  30.566  1.00  0.00    -0.237 OA
ATOM     91  O   UNL A   1      52.597  25.579  31.151  1.00  0.00    -0.744 OA
ENDBRANCH  87  88
ENDBRANCH  55  80
ENDBRANCH  29  30
ENDBRANCH  22  24
ENDBRANCH  21  22
ENDBRANCH  20  21
ENDBRANCH   1  20
TORSDOF 18
ENDMDL
