MODEL 1
REMARK VINA RESULT:     -11.8      0.000      0.000
REMARK SMILES CNC(=O)c1cc(S(=O)(=O)N2CCC(C(=O)OCCOC(=O)c3ccc(-c4c5nc(c(-c6c(F)cc(S(=O)(=O)[O-])cc6F)c6ccc([nH]6)c(-c6c(F)cc(S(=O)(=O)[O-])cc6F)c6nc(c(-c7c(F)cc(S(=O)(=O)[O-])cc7F)c7ccc4[nH]7)C=C6)C=C5)cc3)CC2)ccc1OC
REMARK SMILES IDX 18 1 17 2 15 3 16 4 14 5 11 6 12 7 90 8 13 9 89 10 8 11 9 12
REMARK SMILES IDX 10 13 7 14 5 15 6 16 93 17 92 18 91 19 3 20 1 21 2 22 4 24
REMARK SMILES IDX 94 25 95 26 19 27 20 28 21 29 22 30 23 31 24 32 88 33 25 34
REMARK SMILES IDX 87 35 26 36 27 37 28 38 81 39 29 40 86 41 80 42 82 43 30 44
REMARK SMILES IDX 85 45 79 46 78 47 31 49 65 50 44 51 64 52 45 53 48 54 63 55
REMARK SMILES IDX 83 56 46 57 47 58 62 60 84 61 49 62 32 63 33 64 42 65 34 66
REMARK SMILES IDX 35 67 41 68 43 69 36 70 37 71 38 72 39 73 40 74 66 75 67 76
REMARK SMILES IDX 76 77 68 78 69 79 75 80 77 81 70 82 71 83 72 84 73 85 74 86
REMARK SMILES IDX 50 87 51 88 60 89 52 90 53 91 59 92 61 93 54 94 55 95 56 96
REMARK SMILES IDX 57 97 58 98
REMARK H PARENT 2 23 82 48 48 59
REMARK Flexibility Score: inf
ROOT
ATOM      1  C   UNL A   1      39.302  21.769  26.252  1.00  0.00     0.274 C 
ENDROOT
BRANCH   1   2
ATOM      2  O   UNL A   1      38.131  22.252  25.564  1.00  0.00    -0.462 OA
BRANCH   2   3
ATOM      3  C   UNL A   1      37.354  21.304  24.986  1.00  0.00     0.309 C 
ATOM      4  O   UNL A   1      37.742  20.191  24.646  1.00  0.00    -0.252 OA
BRANCH   3   5
ATOM      5  C   UNL A   1      35.923  21.744  24.776  1.00  0.00     0.102 C 
ATOM      6  N   UNL A   1      33.215  22.638  25.058  1.00  0.00    -0.198 NA
ATOM      7  C   UNL A   1      33.486  21.222  24.702  1.00  0.00     0.103 C 
ATOM      8  C   UNL A   1      34.319  23.630  24.995  1.00  0.00     0.103 C 
ATOM      9  C   UNL A   1      34.848  20.747  25.189  1.00  0.00     0.032 C 
ATOM     10  C   UNL A   1      35.644  23.062  25.481  1.00  0.00     0.032 C 
BRANCH   6  11
ATOM     11  S   UNL A   1      31.661  23.224  24.640  1.00  0.00     0.243 S 
ATOM     12  O   UNL A   1      30.726  22.656  25.595  1.00  0.00    -0.207 OA
ATOM     13  O   UNL A   1      31.487  23.038  23.219  1.00  0.00    -0.207 OA
BRANCH  11  14
ATOM     14  C   UNL A   1      31.636  24.990  24.921  1.00  0.00     0.083 A 
ATOM     15  C   UNL A   1      31.472  27.199  23.914  1.00  0.00     0.083 A 
ATOM     16  C   UNL A   1      31.508  25.801  23.786  1.00  0.00     0.039 A 
ATOM     17  C   UNL A   1      31.491  27.784  25.185  1.00  0.00     0.131 A 
ATOM     18  C   UNL A   1      31.660  26.971  26.308  1.00  0.00     0.048 A 
ATOM     19  C   UNL A   1      31.734  25.580  26.181  1.00  0.00     0.025 A 
BRANCH  15  20
ATOM     20  C   UNL A   1      31.421  27.974  22.659  1.00  0.00     0.254 C 
ATOM     21  C   UNL A   1      33.840  28.725  22.833  1.00  0.00     0.143 C 
ATOM     22  N   UNL A   1      32.529  28.658  22.226  1.00  0.00    -0.355 N 
ATOM     23  H   UNL A   1      32.416  29.169  21.392  1.00  0.00     0.163 HD
ATOM     24  O   UNL A   1      30.391  27.968  21.991  1.00  0.00    -0.269 OA
ENDBRANCH  15  20
BRANCH  17  25
ATOM     25  O   UNL A   1      31.420  29.124  25.448  1.00  0.00    -0.496 OA
ATOM     26  C   UNL A   1      32.496  29.615  26.249  1.00  0.00     0.278 C 
ENDBRANCH  17  25
ENDBRANCH  11  14
ENDBRANCH   6  11
ENDBRANCH   3   5
ENDBRANCH   2   3
ENDBRANCH   1   2
BRANCH   1  27
ATOM     27  C   UNL A   1      40.340  22.879  26.443  1.00  0.00     0.275 C 
BRANCH  27  28
ATOM     28  O   UNL A   1      39.741  24.189  26.423  1.00  0.00    -0.458 OA
BRANCH  28  29
ATOM     29  C   UNL A   1      40.611  25.211  26.248  1.00  0.00     0.338 C 
ATOM     30  O   UNL A   1      41.201  25.505  25.223  1.00  0.00    -0.246 OA
BRANCH  29  31
ATOM     31  C   UNL A   1      40.677  26.044  27.458  1.00  0.00     0.060 A 
ATOM     32  C   UNL A   1      39.664  25.894  28.407  1.00  0.00     0.016 A 
ATOM     33  C   UNL A   1      41.643  27.041  27.604  1.00  0.00     0.016 A 
ATOM     34  C   UNL A   1      39.598  26.751  29.501  1.00  0.00     0.010 A 
ATOM     35  C   UNL A   1      41.579  27.900  28.709  1.00  0.00     0.010 A 
ATOM     36  C   UNL A   1      40.545  27.773  29.655  1.00  0.00    -0.014 A 
BRANCH  36  37
ATOM     37  C   UNL A   1      40.403  28.730  30.780  1.00  0.00     0.031 A 
ATOM     38  C   UNL A   1      41.307  28.626  31.979  1.00  0.00     0.074 A 
ATOM     39  C   UNL A   1      39.499  29.724  30.701  1.00  0.00     0.049 A 
ATOM     40  N   UNL A   1      41.337  29.364  33.059  1.00  0.00    -0.248 NA
ATOM     41  C   UNL A   1      42.307  27.548  31.960  1.00  0.00     0.031 C 
ATOM     42  C   UNL A   1      38.585  29.944  29.580  1.00  0.00     0.029 A 
ATOM     43  N   UNL A   1      39.203  30.738  31.577  1.00  0.00    -0.354 N 
ATOM     44  C   UNL A   1      42.344  28.834  33.857  1.00  0.00     0.074 A 
ATOM     45  C   UNL A   1      42.887  27.695  33.144  1.00  0.00     0.031 C 
ATOM     46  C   UNL A   1      37.838  31.031  29.831  1.00  0.00     0.029 A 
ATOM     47  C   UNL A   1      38.193  31.563  31.143  1.00  0.00     0.049 A 
ATOM     48  H   UNL A   1      39.671  30.863  32.434  1.00  0.00     0.167 HD
ATOM     49  C   UNL A   1      42.780  29.260  35.067  1.00  0.00     0.037 A 
ATOM     50  C   UNL A   1      37.610  32.620  31.742  1.00  0.00     0.037 A 
ATOM     51  C   UNL A   1      42.244  30.400  35.766  1.00  0.00     0.049 A 
ATOM     52  C   UNL A   1      38.099  33.060  33.095  1.00  0.00     0.074 A 
ATOM     53  C   UNL A   1      42.625  30.915  36.994  1.00  0.00     0.029 A 
ATOM     54  N   UNL A   1      41.213  31.203  35.301  1.00  0.00    -0.354 N 
ATOM     55  N   UNL A   1      39.054  32.548  33.833  1.00  0.00    -0.248 NA
ATOM     56  C   UNL A   1      37.434  34.226  33.693  1.00  0.00     0.031 C 
ATOM     57  C   UNL A   1      41.801  32.009  37.285  1.00  0.00     0.029 A 
ATOM     58  C   UNL A   1      40.937  32.203  36.220  1.00  0.00     0.049 A 
ATOM     59  H   UNL A   1      40.746  31.081  34.443  1.00  0.00     0.167 HD
ATOM     60  C   UNL A   1      39.121  33.344  34.973  1.00  0.00     0.074 A 
ATOM     61  C   UNL A   1      38.120  34.380  34.817  1.00  0.00     0.031 C 
ATOM     62  C   UNL A   1      39.939  33.229  36.049  1.00  0.00     0.037 A 
BRANCH  49  63
ATOM     63  C   UNL A   1      43.881  28.472  35.725  1.00  0.00     0.058 A 
ATOM     64  C   UNL A   1      43.609  27.408  36.597  1.00  0.00     0.135 A 
ATOM     65  C   UNL A   1      45.227  28.770  35.455  1.00  0.00     0.135 A 
ATOM     66  F   UNL A   1      42.341  27.091  36.904  1.00  0.00    -0.206 F 
ATOM     67  C   UNL A   1      44.632  26.684  37.202  1.00  0.00     0.059 A 
ATOM     68  C   UNL A   1      46.267  28.043  36.028  1.00  0.00     0.059 A 
ATOM     69  F   UNL A   1      45.543  29.778  34.626  1.00  0.00    -0.206 F 
ATOM     70  C   UNL A   1      45.958  27.011  36.913  1.00  0.00     0.060 A 
BRANCH  70  71
ATOM     71  S   UNL A   1      47.277  26.066  37.707  1.00  0.00     0.124 S 
ATOM     72  O   UNL A   1      46.510  25.100  38.487  1.00  0.00    -0.237 OA
ATOM     73  O   UNL A   1      48.004  25.522  36.564  1.00  0.00    -0.237 OA
ATOM     74  O   UNL A   1      47.995  27.071  38.483  1.00  0.00    -0.744 OA
ENDBRANCH  70  71
ENDBRANCH  49  63
BRANCH  50  75
ATOM     75  C   UNL A   1      36.499  33.335  31.062  1.00  0.00     0.058 A 
ATOM     76  C   UNL A   1      35.170  33.179  31.486  1.00  0.00     0.135 A 
ATOM     77  C   UNL A   1      36.745  34.197  29.983  1.00  0.00     0.135 A 
ATOM     78  F   UNL A   1      34.884  32.359  32.509  1.00  0.00    -0.206 F 
ATOM     79  C   UNL A   1      34.124  33.844  30.855  1.00  0.00     0.059 A 
ATOM     80  C   UNL A   1      35.718  34.892  29.353  1.00  0.00     0.059 A 
ATOM     81  F   UNL A   1      38.002  34.390  29.550  1.00  0.00    -0.206 F 
ATOM     82  C   UNL A   1      34.408  34.700  29.791  1.00  0.00     0.060 A 
BRANCH  82  83
ATOM     83  S   UNL A   1      33.051  35.603  29.013  1.00  0.00     0.124 S 
ATOM     84  O   UNL A   1      32.328  36.103  30.176  1.00  0.00    -0.237 OA
ATOM     85  O   UNL A   1      33.761  36.604  28.223  1.00  0.00    -0.237 OA
ATOM     86  O   UNL A   1      32.367  34.573  28.236  1.00  0.00    -0.744 OA
ENDBRANCH  82  83
ENDBRANCH  50  75
BRANCH  62  87
ATOM     87  C   UNL A   1      39.807  34.274  37.122  1.00  0.00     0.058 A 
ATOM     88  C   UNL A   1      39.117  34.024  38.319  1.00  0.00     0.135 A 
ATOM     89  C   UNL A   1      40.389  35.541  36.953  1.00  0.00     0.135 A 
ATOM     90  F   UNL A   1      38.540  32.831  38.529  1.00  0.00    -0.206 F 
ATOM     91  C   UNL A   1      38.973  35.007  39.293  1.00  0.00     0.059 A 
ATOM     92  C   UNL A   1      40.279  36.531  37.925  1.00  0.00     0.059 A 
ATOM     93  F   UNL A   1      41.070  35.828  35.832  1.00  0.00    -0.206 F 
ATOM     94  C   UNL A   1      39.553  36.260  39.083  1.00  0.00     0.060 A 
BRANCH  94  95
ATOM     95  S   UNL A   1      39.356  37.532  40.349  1.00  0.00     0.124 S 
ATOM     96  O   UNL A   1      38.585  38.542  39.632  1.00  0.00    -0.237 OA
ATOM     97  O   UNL A   1      38.641  36.820  41.405  1.00  0.00    -0.237 OA
ATOM     98  O   UNL A   1      40.730  37.902  40.672  1.00  0.00    -0.744 OA
ENDBRANCH  94  95
ENDBRANCH  62  87
ENDBRANCH  36  37
ENDBRANCH  29  31
ENDBRANCH  28  29
ENDBRANCH  27  28
ENDBRANCH   1  27
TORSDOF 18
ENDMDL
MODEL 2
REMARK VINA RESULT:     -11.7      6.527     12.273
REMARK SMILES CNC(=O)c1cc(S(=O)(=O)N2CCC(C(=O)OCCOC(=O)c3ccc(-c4c5nc(c(-c6c(F)cc(S(=O)(=O)[O-])cc6F)c6ccc([nH]6)c(-c6c(F)cc(S(=O)(=O)[O-])cc6F)c6nc(c(-c7c(F)cc(S(=O)(=O)[O-])cc7F)c7ccc4[nH]7)C=C6)C=C5)cc3)CC2)ccc1OC
REMARK SMILES IDX 18 1 17 2 15 3 16 4 14 5 11 6 12 7 90 8 13 9 89 10 8 11 9 12
REMARK SMILES IDX 10 13 7 14 5 15 6 16 93 17 92 18 91 19 3 20 1 21 2 22 4 24
REMARK SMILES IDX 94 25 95 26 19 27 20 28 21 29 22 30 23 31 24 32 88 33 25 34
REMARK SMILES IDX 87 35 26 36 27 37 28 38 81 39 29 40 86 41 80 42 82 43 30 44
REMARK SMILES IDX 85 45 79 46 78 47 31 49 65 50 44 51 64 52 45 53 48 54 63 55
REMARK SMILES IDX 83 56 46 57 47 58 62 60 84 61 49 62 32 63 33 64 42 65 34 66
REMARK SMILES IDX 35 67 41 68 43 69 36 70 37 71 38 72 39 73 40 74 66 75 67 76
REMARK SMILES IDX 76 77 68 78 69 79 75 80 77 81 70 82 71 83 72 84 73 85 74 86
REMARK SMILES IDX 50 87 51 88 60 89 52 90 53 91 59 92 61 93 54 94 55 95 56 96
REMARK SMILES IDX 57 97 58 98
REMARK H PARENT 2 23 82 48 48 59
REMARK Flexibility Score: inf
ROOT
ATOM      1  C   UNL A   1      33.857  31.439  27.840  1.00  0.00     0.274 C 
ENDROOT
BRANCH   1   2
ATOM      2  O   UNL A   1      33.705  30.653  26.641  1.00  0.00    -0.462 OA
BRANCH   2   3
ATOM      3  C   UNL A   1      32.560  29.936  26.548  1.00  0.00     0.309 C 
ATOM      4  O   UNL A   1      31.576  30.088  27.265  1.00  0.00    -0.252 OA
BRANCH   3   5
ATOM      5  C   UNL A   1      32.593  28.887  25.459  1.00  0.00     0.102 C 
ATOM      6  N   UNL A   1      32.858  26.495  23.905  1.00  0.00    -0.198 NA
ATOM      7  C   UNL A   1      33.849  27.588  23.741  1.00  0.00     0.103 C 
ATOM      8  C   UNL A   1      31.603  26.753  24.656  1.00  0.00     0.103 C 
ATOM      9  C   UNL A   1      33.974  28.455  24.986  1.00  0.00     0.032 C 
ATOM     10  C   UNL A   1      31.821  27.643  25.871  1.00  0.00     0.032 C 
BRANCH   6  11
ATOM     11  S   UNL A   1      32.728  25.407  22.589  1.00  0.00     0.243 S 
ATOM     12  O   UNL A   1      33.787  25.747  21.655  1.00  0.00    -0.207 OA
ATOM     13  O   UNL A   1      31.345  25.378  22.174  1.00  0.00    -0.207 OA
BRANCH  11  14
ATOM     14  C   UNL A   1      33.107  23.763  23.182  1.00  0.00     0.083 A 
ATOM     15  C   UNL A   1      34.445  22.417  24.704  1.00  0.00     0.083 A 
ATOM     16  C   UNL A   1      34.090  23.669  24.176  1.00  0.00     0.039 A 
ATOM     17  C   UNL A   1      33.766  21.266  24.290  1.00  0.00     0.131 A 
ATOM     18  C   UNL A   1      32.817  21.363  23.270  1.00  0.00     0.048 A 
ATOM     19  C   UNL A   1      32.488  22.604  22.714  1.00  0.00     0.025 A 
BRANCH  15  20
ATOM     20  C   UNL A   1      35.548  22.406  25.685  1.00  0.00     0.254 C 
ATOM     21  C   UNL A   1      33.987  22.339  27.686  1.00  0.00     0.143 C 
ATOM     22  N   UNL A   1      35.276  22.383  27.029  1.00  0.00    -0.355 N 
ATOM     23  H   UNL A   1      36.059  22.397  27.624  1.00  0.00     0.163 HD
ATOM     24  O   UNL A   1      36.708  22.379  25.283  1.00  0.00    -0.269 OA
ENDBRANCH  15  20
BRANCH  17  25
ATOM     25  O   UNL A   1      33.986  20.000  24.755  1.00  0.00    -0.496 OA
ATOM     26  C   UNL A   1      32.887  19.452  25.486  1.00  0.00     0.278 C 
ENDBRANCH  17  25
ENDBRANCH  11  14
ENDBRANCH   6  11
ENDBRANCH   3   5
ENDBRANCH   2   3
ENDBRANCH   1   2
BRANCH   1  27
ATOM     27  C   UNL A   1      35.298  31.403  28.357  1.00  0.00     0.275 C 
BRANCH  27  28
ATOM     28  O   UNL A   1      35.668  30.097  28.840  1.00  0.00    -0.458 OA
BRANCH  28  29
ATOM     29  C   UNL A   1      36.419  30.097  29.966  1.00  0.00     0.338 C 
ATOM     30  O   UNL A   1      36.018  30.135  31.116  1.00  0.00    -0.246 OA
BRANCH  29  31
ATOM     31  C   UNL A   1      37.841  29.914  29.636  1.00  0.00     0.060 A 
ATOM     32  C   UNL A   1      38.189  29.826  28.287  1.00  0.00     0.016 A 
ATOM     33  C   UNL A   1      38.798  29.708  30.630  1.00  0.00     0.016 A 
ATOM     34  C   UNL A   1      39.495  29.513  27.921  1.00  0.00     0.010 A 
ATOM     35  C   UNL A   1      40.114  29.399  30.260  1.00  0.00     0.010 A 
ATOM     36  C   UNL A   1      40.466  29.281  28.903  1.00  0.00    -0.014 A 
BRANCH  36  37
ATOM     37  C   UNL A   1      41.829  28.862  28.491  1.00  0.00     0.031 A 
ATOM     38  C   UNL A   1      42.954  29.861  28.475  1.00  0.00     0.074 A 
ATOM     39  C   UNL A   1      42.067  27.573  28.183  1.00  0.00     0.049 A 
ATOM     40  N   UNL A   1      44.208  29.689  28.145  1.00  0.00    -0.248 NA
ATOM     41  C   UNL A   1      42.623  31.235  28.882  1.00  0.00     0.031 C 
ATOM     42  C   UNL A   1      41.064  26.507  28.188  1.00  0.00     0.029 A 
ATOM     43  N   UNL A   1      43.226  26.939  27.812  1.00  0.00    -0.354 N 
ATOM     44  C   UNL A   1      44.815  30.932  28.287  1.00  0.00     0.074 A 
ATOM     45  C   UNL A   1      43.783  31.855  28.713  1.00  0.00     0.031 C 
ATOM     46  C   UNL A   1      41.653  25.350  27.847  1.00  0.00     0.029 A 
ATOM     47  C   UNL A   1      43.065  25.597  27.564  1.00  0.00     0.049 A 
ATOM     48  H   UNL A   1      44.091  27.403  27.732  1.00  0.00     0.167 HD
ATOM     49  C   UNL A   1      46.111  31.270  28.087  1.00  0.00     0.037 A 
ATOM     50  C   UNL A   1      43.951  24.673  27.144  1.00  0.00     0.037 A 
ATOM     51  C   UNL A   1      47.137  30.344  27.674  1.00  0.00     0.049 A 
ATOM     52  C   UNL A   1      45.381  25.079  26.910  1.00  0.00     0.074 A 
ATOM     53  C   UNL A   1      48.481  30.591  27.453  1.00  0.00     0.029 A 
ATOM     54  N   UNL A   1      46.932  28.997  27.421  1.00  0.00    -0.354 N 
ATOM     55  N   UNL A   1      45.937  26.258  27.052  1.00  0.00    -0.248 NA
ATOM     56  C   UNL A   1      46.304  24.027  26.465  1.00  0.00     0.031 C 
ATOM     57  C   UNL A   1      49.082  29.398  27.034  1.00  0.00     0.029 A 
ATOM     58  C   UNL A   1      48.122  28.399  27.037  1.00  0.00     0.049 A 
ATOM     59  H   UNL A   1      46.068  28.531  27.503  1.00  0.00     0.167 HD
ATOM     60  C   UNL A   1      47.281  26.085  26.736  1.00  0.00     0.074 A 
ATOM     61  C   UNL A   1      47.455  24.684  26.411  1.00  0.00     0.031 C 
ATOM     62  C   UNL A   1      48.280  27.002  26.719  1.00  0.00     0.037 A 
BRANCH  49  63
ATOM     63  C   UNL A   1      46.492  32.711  28.292  1.00  0.00     0.058 A 
ATOM     64  C   UNL A   1      46.417  33.651  27.253  1.00  0.00     0.135 A 
ATOM     65  C   UNL A   1      46.911  33.164  29.554  1.00  0.00     0.135 A 
ATOM     66  F   UNL A   1      46.039  33.270  26.022  1.00  0.00    -0.206 F 
ATOM     67  C   UNL A   1      46.770  34.983  27.449  1.00  0.00     0.059 A 
ATOM     68  C   UNL A   1      47.245  34.496  29.780  1.00  0.00     0.059 A 
ATOM     69  F   UNL A   1      47.001  32.307  30.584  1.00  0.00    -0.206 F 
ATOM     70  C   UNL A   1      47.186  35.395  28.716  1.00  0.00     0.060 A 
BRANCH  70  71
ATOM     71  S   UNL A   1      47.645  37.125  28.957  1.00  0.00     0.124 S 
ATOM     72  O   UNL A   1      48.316  37.068  30.252  1.00  0.00    -0.237 OA
ATOM     73  O   UNL A   1      48.508  37.382  27.808  1.00  0.00    -0.237 OA
ATOM     74  O   UNL A   1      46.363  37.821  28.944  1.00  0.00    -0.744 OA
ENDBRANCH  70  71
ENDBRANCH  49  63
BRANCH  50  75
ATOM     75  C   UNL A   1      43.509  23.273  26.919  1.00  0.00     0.058 A 
ATOM     76  C   UNL A   1      43.262  22.789  25.626  1.00  0.00     0.135 A 
ATOM     77  C   UNL A   1      43.337  22.386  27.993  1.00  0.00     0.135 A 
ATOM     78  F   UNL A   1      43.405  23.602  24.567  1.00  0.00    -0.206 F 
ATOM     79  C   UNL A   1      42.846  21.480  25.406  1.00  0.00     0.059 A 
ATOM     80  C   UNL A   1      42.947  21.066  27.797  1.00  0.00     0.059 A 
ATOM     81  F   UNL A   1      43.574  22.798  29.250  1.00  0.00    -0.206 F 
ATOM     82  C   UNL A   1      42.694  20.625  26.498  1.00  0.00     0.060 A 
BRANCH  82  83
ATOM     83  S   UNL A   1      42.210  18.911  26.201  1.00  0.00     0.124 S 
ATOM     84  O   UNL A   1      40.858  19.075  25.679  1.00  0.00    -0.237 OA
ATOM     85  O   UNL A   1      43.216  18.469  25.240  1.00  0.00    -0.237 OA
ATOM     86  O   UNL A   1      42.309  18.301  27.523  1.00  0.00    -0.744 OA
ENDBRANCH  82  83
ENDBRANCH  50  75
BRANCH  62  87
ATOM     87  C   UNL A   1      49.657  26.506  26.373  1.00  0.00     0.058 A 
ATOM     88  C   UNL A   1      50.167  26.587  25.068  1.00  0.00     0.135 A 
ATOM     89  C   UNL A   1      50.480  25.950  27.366  1.00  0.00     0.135 A 
ATOM     90  F   UNL A   1      49.420  27.107  24.082  1.00  0.00    -0.206 F 
ATOM     91  C   UNL A   1      51.430  26.097  24.750  1.00  0.00     0.059 A 
ATOM     92  C   UNL A   1      51.756  25.476  27.076  1.00  0.00     0.059 A 
ATOM     93  F   UNL A   1      50.045  25.859  28.633  1.00  0.00    -0.206 F 
ATOM     94  C   UNL A   1      52.214  25.537  25.761  1.00  0.00     0.060 A 
BRANCH  94  95
ATOM     95  S   UNL A   1      53.849  24.897  25.340  1.00  0.00     0.124 S 
ATOM     96  O   UNL A   1      54.611  25.228  26.540  1.00  0.00    -0.237 OA
ATOM     97  O   UNL A   1      53.587  23.476  25.127  1.00  0.00    -0.237 OA
ATOM     98  O   UNL A   1      54.207  25.647  24.140  1.00  0.00    -0.744 OA
ENDBRANCH  94  95
ENDBRANCH  62  87
ENDBRANCH  36  37
ENDBRANCH  29  31
ENDBRANCH  28  29
ENDBRANCH  27  28
ENDBRANCH   1  27
TORSDOF 18
ENDMDL
MODEL 3
REMARK VINA RESULT:     -11.6      0.909      1.645
REMARK SMILES CNC(=O)c1cc(S(=O)(=O)N2CCC(C(=O)OCCOC(=O)c3ccc(-c4c5nc(c(-c6c(F)cc(S(=O)(=O)[O-])cc6F)c6ccc([nH]6)c(-c6c(F)cc(S(=O)(=O)[O-])cc6F)c6nc(c(-c7c(F)cc(S(=O)(=O)[O-])cc7F)c7ccc4[nH]7)C=C6)C=C5)cc3)CC2)ccc1OC
REMARK SMILES IDX 18 1 17 2 15 3 16 4 14 5 11 6 12 7 90 8 13 9 89 10 8 11 9 12
REMARK SMILES IDX 10 13 7 14 5 15 6 16 93 17 92 18 91 19 3 20 1 21 2 22 4 24
REMARK SMILES IDX 94 25 95 26 19 27 20 28 21 29 22 30 23 31 24 32 88 33 25 34
REMARK SMILES IDX 87 35 26 36 27 37 28 38 81 39 29 40 86 41 80 42 82 43 30 44
REMARK SMILES IDX 85 45 79 46 78 47 31 49 65 50 44 51 64 52 45 53 48 54 63 55
REMARK SMILES IDX 83 56 46 57 47 58 62 60 84 61 49 62 32 63 33 64 42 65 34 66
REMARK SMILES IDX 35 67 41 68 43 69 36 70 37 71 38 72 39 73 40 74 66 75 67 76
REMARK SMILES IDX 76 77 68 78 69 79 75 80 77 81 70 82 71 83 72 84 73 85 74 86
REMARK SMILES IDX 50 87 51 88 60 89 52 90 53 91 59 92 61 93 54 94 55 95 56 96
REMARK SMILES IDX 57 97 58 98
REMARK H PARENT 2 23 82 48 48 59
REMARK Flexibility Score: inf
ROOT
ATOM      1  C   UNL A   1      40.268  21.625  26.468  1.00  0.00     0.274 C 
ENDROOT
BRANCH   1   2
ATOM      2  O   UNL A   1      38.880  22.002  26.361  1.00  0.00    -0.462 OA
BRANCH   2   3
ATOM      3  C   UNL A   1      38.141  21.283  25.482  1.00  0.00     0.309 C 
ATOM      4  O   UNL A   1      38.462  20.193  25.022  1.00  0.00    -0.252 OA
BRANCH   3   5
ATOM      5  C   UNL A   1      36.845  21.958  25.092  1.00  0.00     0.102 C 
ATOM      6  N   UNL A   1      34.313  22.682  23.963  1.00  0.00    -0.198 NA
ATOM      7  C   UNL A   1      35.539  23.400  23.532  1.00  0.00     0.103 C 
ATOM      8  C   UNL A   1      34.365  21.799  25.155  1.00  0.00     0.103 C 
ATOM      9  C   UNL A   1      36.797  22.557  23.693  1.00  0.00     0.032 C 
ATOM     10  C   UNL A   1      35.665  21.012  25.244  1.00  0.00     0.032 C 
BRANCH   6  11
ATOM     11  S   UNL A   1      32.839  23.519  23.719  1.00  0.00     0.243 S 
ATOM     12  O   UNL A   1      31.843  22.869  24.552  1.00  0.00    -0.207 OA
ATOM     13  O   UNL A   1      32.644  23.664  22.295  1.00  0.00    -0.207 OA
BRANCH  11  14
ATOM     14  C   UNL A   1      33.020  25.174  24.370  1.00  0.00     0.083 A 
ATOM     15  C   UNL A   1      33.150  27.549  23.860  1.00  0.00     0.083 A 
ATOM     16  C   UNL A   1      33.020  26.217  23.435  1.00  0.00     0.039 A 
ATOM     17  C   UNL A   1      33.208  27.844  25.226  1.00  0.00     0.131 A 
ATOM     18  C   UNL A   1      33.249  26.797  26.149  1.00  0.00     0.048 A 
ATOM     19  C   UNL A   1      33.158  25.466  25.727  1.00  0.00     0.025 A 
BRANCH  15  20
ATOM     20  C   UNL A   1      33.225  28.574  22.799  1.00  0.00     0.254 C 
ATOM     21  C   UNL A   1      30.712  28.933  22.742  1.00  0.00     0.143 C 
ATOM     22  N   UNL A   1      32.079  29.158  22.323  1.00  0.00    -0.355 N 
ATOM     23  H   UNL A   1      32.203  29.817  21.603  1.00  0.00     0.163 HD
ATOM     24  O   UNL A   1      34.324  28.922  22.377  1.00  0.00    -0.269 OA
ENDBRANCH  15  20
BRANCH  17  25
ATOM     25  O   UNL A   1      33.293  29.095  25.769  1.00  0.00    -0.496 OA
ATOM     26  C   UNL A   1      32.026  29.693  26.048  1.00  0.00     0.278 C 
ENDBRANCH  17  25
ENDBRANCH  11  14
ENDBRANCH   6  11
ENDBRANCH   3   5
ENDBRANCH   2   3
ENDBRANCH   1   2
BRANCH   1  27
ATOM     27  C   UNL A   1      41.191  22.841  26.348  1.00  0.00     0.275 C 
BRANCH  27  28
ATOM     28  O   UNL A   1      40.472  24.082  26.489  1.00  0.00    -0.458 OA
BRANCH  28  29
ATOM     29  C   UNL A   1      41.212  25.196  26.277  1.00  0.00     0.338 C 
ATOM     30  O   UNL A   1      41.716  25.553  25.226  1.00  0.00    -0.246 OA
BRANCH  29  31
ATOM     31  C   UNL A   1      41.241  26.033  27.485  1.00  0.00     0.060 A 
ATOM     32  C   UNL A   1      40.221  25.856  28.423  1.00  0.00     0.016 A 
ATOM     33  C   UNL A   1      42.175  27.058  27.640  1.00  0.00     0.016 A 
ATOM     34  C   UNL A   1      40.118  26.713  29.514  1.00  0.00     0.010 A 
ATOM     35  C   UNL A   1      42.074  27.917  28.742  1.00  0.00     0.010 A 
ATOM     36  C   UNL A   1      41.033  27.762  29.676  1.00  0.00    -0.014 A 
BRANCH  36  37
ATOM     37  C   UNL A   1      40.851  28.717  30.798  1.00  0.00     0.031 A 
ATOM     38  C   UNL A   1      41.764  28.661  31.993  1.00  0.00     0.074 A 
ATOM     39  C   UNL A   1      39.901  29.667  30.718  1.00  0.00     0.049 A 
ATOM     40  N   UNL A   1      41.763  29.405  33.069  1.00  0.00    -0.248 NA
ATOM     41  C   UNL A   1      42.813  27.631  31.976  1.00  0.00     0.031 C 
ATOM     42  C   UNL A   1      38.974  29.839  29.598  1.00  0.00     0.029 A 
ATOM     43  N   UNL A   1      39.562  30.671  31.589  1.00  0.00    -0.354 N 
ATOM     44  C   UNL A   1      42.797  28.926  33.866  1.00  0.00     0.074 A 
ATOM     45  C   UNL A   1      43.390  27.811  33.156  1.00  0.00     0.031 C 
ATOM     46  C   UNL A   1      38.177  30.891  29.847  1.00  0.00     0.029 A 
ATOM     47  C   UNL A   1      38.513  31.446  31.156  1.00  0.00     0.049 A 
ATOM     48  H   UNL A   1      40.026  30.821  32.444  1.00  0.00     0.167 HD
ATOM     49  C   UNL A   1      43.216  29.378  35.072  1.00  0.00     0.037 A 
ATOM     50  C   UNL A   1      37.883  32.477  31.752  1.00  0.00     0.037 A 
ATOM     51  C   UNL A   1      42.630  30.496  35.768  1.00  0.00     0.049 A 
ATOM     52  C   UNL A   1      38.356  32.946  33.101  1.00  0.00     0.074 A 
ATOM     53  C   UNL A   1      42.991  31.034  36.992  1.00  0.00     0.029 A 
ATOM     54  N   UNL A   1      41.562  31.247  35.303  1.00  0.00    -0.354 N 
ATOM     55  N   UNL A   1      39.337  32.483  33.838  1.00  0.00    -0.248 NA
ATOM     56  C   UNL A   1      37.640  34.083  33.696  1.00  0.00     0.031 C 
ATOM     57  C   UNL A   1      42.118  32.090  37.281  1.00  0.00     0.029 A 
ATOM     58  C   UNL A   1      41.243  32.238  36.218  1.00  0.00     0.049 A 
ATOM     59  H   UNL A   1      41.097  31.099  34.448  1.00  0.00     0.167 HD
ATOM     60  C   UNL A   1      39.371  33.287  34.973  1.00  0.00     0.074 A 
ATOM     61  C   UNL A   1      38.322  34.274  34.817  1.00  0.00     0.031 C 
ATOM     62  C   UNL A   1      40.197  33.215  36.047  1.00  0.00     0.037 A 
BRANCH  49  63
ATOM     63  C   UNL A   1      44.356  28.646  35.729  1.00  0.00     0.058 A 
ATOM     64  C   UNL A   1      45.694  28.993  35.490  1.00  0.00     0.135 A 
ATOM     65  C   UNL A   1      44.102  27.602  36.634  1.00  0.00     0.135 A 
ATOM     66  F   UNL A   1      45.994  29.972  34.621  1.00  0.00    -0.206 F 
ATOM     67  C   UNL A   1      46.742  28.312  36.100  1.00  0.00     0.059 A 
ATOM     68  C   UNL A   1      45.134  26.923  37.277  1.00  0.00     0.059 A 
ATOM     69  F   UNL A   1      42.840  27.230  36.900  1.00  0.00    -0.206 F 
ATOM     70  C   UNL A   1      46.452  27.276  36.991  1.00  0.00     0.060 A 
BRANCH  70  71
ATOM     71  S   UNL A   1      47.821  26.398  37.775  1.00  0.00     0.124 S 
ATOM     72  O   UNL A   1      48.059  25.321  36.820  1.00  0.00    -0.237 OA
ATOM     73  O   UNL A   1      48.856  27.426  37.840  1.00  0.00    -0.237 OA
ATOM     74  O   UNL A   1      47.269  25.986  39.061  1.00  0.00    -0.744 OA
ENDBRANCH  70  71
ENDBRANCH  49  63
BRANCH  50  75
ATOM     75  C   UNL A   1      36.737  33.136  31.073  1.00  0.00     0.058 A 
ATOM     76  C   UNL A   1      36.936  33.985  29.974  1.00  0.00     0.135 A 
ATOM     77  C   UNL A   1      35.420  32.920  31.504  1.00  0.00     0.135 A 
ATOM     78  F   UNL A   1      38.179  34.228  29.530  1.00  0.00    -0.206 F 
ATOM     79  C   UNL A   1      35.869  34.608  29.334  1.00  0.00     0.059 A 
ATOM     80  C   UNL A   1      34.335  33.511  30.864  1.00  0.00     0.059 A 
ATOM     81  F   UNL A   1      35.177  32.105  32.543  1.00  0.00    -0.206 F 
ATOM     82  C   UNL A   1      34.572  34.362  29.785  1.00  0.00     0.060 A 
BRANCH  82  83
ATOM     83  S   UNL A   1      33.188  35.129  28.914  1.00  0.00     0.124 S 
ATOM     84  O   UNL A   1      32.259  35.385  30.009  1.00  0.00    -0.237 OA
ATOM     85  O   UNL A   1      33.814  36.305  28.318  1.00  0.00    -0.237 OA
ATOM     86  O   UNL A   1      32.779  34.098  27.964  1.00  0.00    -0.744 OA
ENDBRANCH  82  83
ENDBRANCH  50  75
BRANCH  62  87
ATOM     87  C   UNL A   1      40.021  34.258  37.115  1.00  0.00     0.058 A 
ATOM     88  C   UNL A   1      39.091  34.103  38.156  1.00  0.00     0.135 A 
ATOM     89  C   UNL A   1      40.801  35.426  37.102  1.00  0.00     0.135 A 
ATOM     90  F   UNL A   1      38.318  33.007  38.213  1.00  0.00    -0.206 F 
ATOM     91  C   UNL A   1      38.912  35.087  39.123  1.00  0.00     0.059 A 
ATOM     92  C   UNL A   1      40.657  36.412  38.073  1.00  0.00     0.059 A 
ATOM     93  F   UNL A   1      41.713  35.618  36.136  1.00  0.00    -0.206 F 
ATOM     94  C   UNL A   1      39.696  36.241  39.069  1.00  0.00     0.060 A 
BRANCH  94  95
ATOM     95  S   UNL A   1      39.453  37.517  40.324  1.00  0.00     0.124 S 
ATOM     96  O   UNL A   1      38.149  38.052  39.949  1.00  0.00    -0.237 OA
ATOM     97  O   UNL A   1      39.492  36.750  41.565  1.00  0.00    -0.237 OA
ATOM     98  O   UNL A   1      40.585  38.415  40.115  1.00  0.00    -0.744 OA
ENDBRANCH  94  95
ENDBRANCH  62  87
ENDBRANCH  36  37
ENDBRANCH  29  31
ENDBRANCH  28  29
ENDBRANCH  27  28
ENDBRANCH   1  27
TORSDOF 18
ENDMDL
