MODEL 1
REMARK VINA RESULT:     -11.6      0.000      0.000
REMARK SMILES COc1ccc(F)c(NC(=O)N[C@H]2CCC[C@H]2C(=O)OCCOC(=O)c2ccc(-c3c4nc(c(-c5c(F)cc(S(=O)(=O)[O-])cc5F)c5ccc([nH]5)c(-c5c(F)cc(S(=O)(=O)[O-])cc5F)c5nc(c(-c6c(F)cc(S(=O)(=O)[O-])cc6F)c6ccc3[nH]6)C=C5)C=C4)cc2)c1
REMARK SMILES IDX 21 1 20 2 18 3 19 4 17 5 13 6 14 7 15 8 16 9 12 10 9 11
REMARK SMILES IDX 10 12 11 14 8 16 3 17 4 18 92 19 5 20 6 21 7 22 2 23 1 24
REMARK SMILES IDX 22 25 23 26 24 27 25 28 26 29 27 30 91 31 28 32 90 33 29 34
REMARK SMILES IDX 30 35 31 36 84 37 32 38 89 39 83 40 85 41 33 42 88 43 82 44
REMARK SMILES IDX 81 45 34 47 68 48 47 49 67 50 48 51 51 52 66 53 86 54 49 55
REMARK SMILES IDX 50 56 65 58 87 59 52 60 35 61 36 62 45 63 37 64 38 65 44 66
REMARK SMILES IDX 46 67 39 68 40 69 41 70 42 71 43 72 69 73 70 74 79 75 71 76
REMARK SMILES IDX 72 77 78 78 80 79 73 80 74 81 75 82 76 83 77 84 53 85 54 86
REMARK SMILES IDX 63 87 55 88 56 89 62 90 64 91 57 92 58 93 59 94 60 95 61 96
REMARK H PARENT 9 13 12 15 85 46 51 57
REMARK Flexibility Score: inf
ROOT
ATOM      1  C   UNL A   1      33.280  30.260  27.156  1.00  0.00     0.274 C 
ENDROOT
BRANCH   1   2
ATOM      2  O   UNL A   1      33.316  28.827  27.310  1.00  0.00    -0.462 OA
BRANCH   2   3
ATOM      3  C   UNL A   1      32.206  28.162  26.908  1.00  0.00     0.311 C 
ATOM      4  O   UNL A   1      31.310  27.798  27.663  1.00  0.00    -0.252 OA
BRANCH   3   5
ATOM      5  C   UNL A   1      32.216  27.740  25.453  1.00  0.00     0.121 C 
ATOM      6  C   UNL A   1      31.932  26.289  24.978  1.00  0.00     0.098 C 
ATOM      7  C   UNL A   1      30.982  26.454  23.768  1.00  0.00     0.026 C 
ATOM      8  C   UNL A   1      31.087  27.917  23.364  1.00  0.00     0.003 C 
ATOM      9  C   UNL A   1      31.219  28.619  24.697  1.00  0.00     0.017 C 
BRANCH   6  10
ATOM     10  N   UNL A   1      31.360  25.401  25.968  1.00  0.00    -0.334 N 
ATOM     11  N   UNL A   1      32.647  23.394  26.266  1.00  0.00    -0.305 N 
ATOM     12  C   UNL A   1      31.625  24.215  26.513  1.00  0.00     0.319 C 
ATOM     13  H   UNL A   1      32.493  22.531  26.717  1.00  0.00     0.171 HD
ATOM     14  O   UNL A   1      30.771  23.814  27.317  1.00  0.00    -0.248 OA
ATOM     15  H   UNL A   1      30.537  25.785  26.349  1.00  0.00     0.165 HD
BRANCH  11  16
ATOM     16  C   UNL A   1      33.869  23.352  25.577  1.00  0.00     0.082 A 
ATOM     17  C   UNL A   1      36.271  23.564  25.341  1.00  0.00     0.121 A 
ATOM     18  C   UNL A   1      36.194  23.374  23.966  1.00  0.00     0.049 A 
ATOM     19  C   UNL A   1      35.126  23.463  26.138  1.00  0.00     0.075 A 
ATOM     20  C   UNL A   1      34.951  23.127  23.389  1.00  0.00     0.045 A 
ATOM     21  C   UNL A   1      33.809  23.138  24.190  1.00  0.00     0.147 A 
ATOM     22  F   UNL A   1      32.614  22.947  23.606  1.00  0.00    -0.205 F 
BRANCH  17  23
ATOM     23  O   UNL A   1      37.438  23.799  26.013  1.00  0.00    -0.497 OA
ATOM     24  C   UNL A   1      38.334  22.690  25.970  1.00  0.00     0.278 C 
ENDBRANCH  17  23
ENDBRANCH  11  16
ENDBRANCH   6  10
ENDBRANCH   3   5
ENDBRANCH   2   3
ENDBRANCH   1   2
BRANCH   1  25
ATOM     25  C   UNL A   1      34.398  30.954  27.930  1.00  0.00     0.275 C 
BRANCH  25  26
ATOM     26  O   UNL A   1      35.387  29.998  28.350  1.00  0.00    -0.458 OA
BRANCH  26  27
ATOM     27  C   UNL A   1      36.145  30.376  29.402  1.00  0.00     0.338 C 
ATOM     28  O   UNL A   1      35.761  30.873  30.447  1.00  0.00    -0.246 OA
BRANCH  27  29
ATOM     29  C   UNL A   1      37.575  30.163  29.113  1.00  0.00     0.060 A 
ATOM     30  C   UNL A   1      38.022  29.944  27.811  1.00  0.00     0.016 A 
ATOM     31  C   UNL A   1      38.453  30.036  30.190  1.00  0.00     0.016 A 
ATOM     32  C   UNL A   1      39.331  29.506  27.600  1.00  0.00     0.010 A 
ATOM     33  C   UNL A   1      39.784  29.673  29.966  1.00  0.00     0.010 A 
ATOM     34  C   UNL A   1      40.227  29.362  28.673  1.00  0.00    -0.014 A 
BRANCH  34  35
ATOM     35  C   UNL A   1      41.624  28.906  28.439  1.00  0.00     0.031 A 
ATOM     36  C   UNL A   1      42.788  29.856  28.553  1.00  0.00     0.074 A 
ATOM     37  C   UNL A   1      41.850  27.616  28.127  1.00  0.00     0.049 A 
ATOM     38  N   UNL A   1      44.060  29.632  28.334  1.00  0.00    -0.248 NA
ATOM     39  C   UNL A   1      42.491  31.232  28.976  1.00  0.00     0.031 C 
ATOM     40  C   UNL A   1      40.818  26.584  28.022  1.00  0.00     0.029 A 
ATOM     41  N   UNL A   1      43.017  26.951  27.847  1.00  0.00    -0.354 N 
ATOM     42  C   UNL A   1      44.714  30.829  28.595  1.00  0.00     0.074 A 
ATOM     43  C   UNL A   1      43.695  31.789  28.968  1.00  0.00     0.031 C 
ATOM     44  C   UNL A   1      41.399  25.411  27.734  1.00  0.00     0.029 A 
ATOM     45  C   UNL A   1      42.833  25.620  27.560  1.00  0.00     0.049 A 
ATOM     46  H   UNL A   1      43.901  27.386  27.851  1.00  0.00     0.167 HD
ATOM     47  C   UNL A   1      46.040  31.104  28.532  1.00  0.00     0.037 A 
ATOM     48  C   UNL A   1      43.706  24.675  27.164  1.00  0.00     0.037 A 
ATOM     49  C   UNL A   1      47.050  30.160  28.127  1.00  0.00     0.049 A 
ATOM     50  C   UNL A   1      45.149  25.033  26.973  1.00  0.00     0.074 A 
ATOM     51  C   UNL A   1      48.418  30.353  28.020  1.00  0.00     0.029 A 
ATOM     52  N   UNL A   1      46.805  28.850  27.742  1.00  0.00    -0.354 N 
ATOM     53  N   UNL A   1      45.746  26.176  27.205  1.00  0.00    -0.248 NA
ATOM     54  C   UNL A   1      46.030  23.984  26.445  1.00  0.00     0.031 C 
ATOM     55  C   UNL A   1      48.992  29.175  27.529  1.00  0.00     0.029 A 
ATOM     56  C   UNL A   1      47.989  28.234  27.366  1.00  0.00     0.049 A 
ATOM     57  H   UNL A   1      45.919  28.420  27.737  1.00  0.00     0.167 HD
ATOM     58  C   UNL A   1      47.076  25.988  26.848  1.00  0.00     0.074 A 
ATOM     59  C   UNL A   1      47.197  24.615  26.399  1.00  0.00     0.031 C 
ATOM     60  C   UNL A   1      48.098  26.876  26.891  1.00  0.00     0.037 A 
BRANCH  47  61
ATOM     61  C   UNL A   1      46.477  32.498  28.888  1.00  0.00     0.058 A 
ATOM     62  C   UNL A   1      46.877  32.811  30.196  1.00  0.00     0.135 A 
ATOM     63  C   UNL A   1      46.465  33.534  27.939  1.00  0.00     0.135 A 
ATOM     64  F   UNL A   1      46.912  31.857  31.139  1.00  0.00    -0.206 F 
ATOM     65  C   UNL A   1      47.251  34.103  30.553  1.00  0.00     0.059 A 
ATOM     66  C   UNL A   1      46.850  34.831  28.272  1.00  0.00     0.059 A 
ATOM     67  F   UNL A   1      46.111  33.283  26.669  1.00  0.00    -0.206 F 
ATOM     68  C   UNL A   1      47.235  35.106  29.584  1.00  0.00     0.060 A 
BRANCH  68  69
ATOM     69  S   UNL A   1      47.789  36.764  30.043  1.00  0.00     0.124 S 
ATOM     70  O   UNL A   1      46.649  37.582  29.646  1.00  0.00    -0.237 OA
ATOM     71  O   UNL A   1      48.009  36.630  31.480  1.00  0.00    -0.237 OA
ATOM     72  O   UNL A   1      49.002  36.943  29.248  1.00  0.00    -0.744 OA
ENDBRANCH  68  69
ENDBRANCH  47  61
BRANCH  48  73
ATOM     73  C   UNL A   1      43.199  23.304  26.909  1.00  0.00     0.058 A 
ATOM     74  C   UNL A   1      42.925  22.427  27.971  1.00  0.00     0.135 A 
ATOM     75  C   UNL A   1      43.108  22.807  25.602  1.00  0.00     0.135 A 
ATOM     76  F   UNL A   1      43.006  22.861  29.239  1.00  0.00    -0.206 F 
ATOM     77  C   UNL A   1      42.639  21.087  27.747  1.00  0.00     0.059 A 
ATOM     78  C   UNL A   1      42.802  21.473  25.353  1.00  0.00     0.059 A 
ATOM     79  F   UNL A   1      43.348  23.615  24.559  1.00  0.00    -0.206 F 
ATOM     80  C   UNL A   1      42.602  20.615  26.435  1.00  0.00     0.060 A 
BRANCH  80  81
ATOM     81  S   UNL A   1      42.322  18.852  26.166  1.00  0.00     0.124 S 
ATOM     82  O   UNL A   1      40.922  18.840  25.757  1.00  0.00    -0.237 OA
ATOM     83  O   UNL A   1      43.292  18.540  25.122  1.00  0.00    -0.237 OA
ATOM     84  O   UNL A   1      42.600  18.264  27.473  1.00  0.00    -0.744 OA
ENDBRANCH  80  81
ENDBRANCH  48  73
BRANCH  60  85
ATOM     85  C   UNL A   1      49.444  26.400  26.429  1.00  0.00     0.058 A 
ATOM     86  C   UNL A   1      50.278  25.665  27.285  1.00  0.00     0.135 A 
ATOM     87  C   UNL A   1      49.928  26.714  25.149  1.00  0.00     0.135 A 
ATOM     88  F   UNL A   1      49.861  25.338  28.519  1.00  0.00    -0.206 F 
ATOM     89  C   UNL A   1      51.552  25.268  26.895  1.00  0.00     0.059 A 
ATOM     90  C   UNL A   1      51.194  26.311  24.730  1.00  0.00     0.059 A 
ATOM     91  F   UNL A   1      49.161  27.401  24.288  1.00  0.00    -0.206 F 
ATOM     92  C   UNL A   1      52.004  25.601  25.616  1.00  0.00     0.060 A 
BRANCH  92  93
ATOM     93  S   UNL A   1      53.652  25.062  25.114  1.00  0.00     0.124 S 
ATOM     94  O   UNL A   1      53.569  23.619  25.316  1.00  0.00    -0.237 OA
ATOM     95  O   UNL A   1      53.715  25.505  23.724  1.00  0.00    -0.237 OA
ATOM     96  O   UNL A   1      54.535  25.776  26.031  1.00  0.00    -0.744 OA
ENDBRANCH  92  93
ENDBRANCH  60  85
ENDBRANCH  34  35
ENDBRANCH  27  29
ENDBRANCH  26  27
ENDBRANCH  25  26
ENDBRANCH   1  25
TORSDOF 17
ENDMDL
MODEL 2
REMARK VINA RESULT:     -11.5      2.317      3.849
REMARK SMILES COc1ccc(F)c(NC(=O)N[C@H]2CCC[C@H]2C(=O)OCCOC(=O)c2ccc(-c3c4nc(c(-c5c(F)cc(S(=O)(=O)[O-])cc5F)c5ccc([nH]5)c(-c5c(F)cc(S(=O)(=O)[O-])cc5F)c5nc(c(-c6c(F)cc(S(=O)(=O)[O-])cc6F)c6ccc3[nH]6)C=C5)C=C4)cc2)c1
REMARK SMILES IDX 21 1 20 2 18 3 19 4 17 5 13 6 14 7 15 8 16 9 12 10 9 11
REMARK SMILES IDX 10 12 11 14 8 16 3 17 4 18 92 19 5 20 6 21 7 22 2 23 1 24
REMARK SMILES IDX 22 25 23 26 24 27 25 28 26 29 27 30 91 31 28 32 90 33 29 34
REMARK SMILES IDX 30 35 31 36 84 37 32 38 89 39 83 40 85 41 33 42 88 43 82 44
REMARK SMILES IDX 81 45 34 47 68 48 47 49 67 50 48 51 51 52 66 53 86 54 49 55
REMARK SMILES IDX 50 56 65 58 87 59 52 60 35 61 36 62 45 63 37 64 38 65 44 66
REMARK SMILES IDX 46 67 39 68 40 69 41 70 42 71 43 72 69 73 70 74 79 75 71 76
REMARK SMILES IDX 72 77 78 78 80 79 73 80 74 81 75 82 76 83 77 84 53 85 54 86
REMARK SMILES IDX 63 87 55 88 56 89 62 90 64 91 57 92 58 93 59 94 60 95 61 96
REMARK H PARENT 9 13 12 15 85 46 51 57
REMARK Flexibility Score: inf
ROOT
ATOM      1  C   UNL A   1      33.809  32.104  28.121  1.00  0.00     0.274 C 
ENDROOT
BRANCH   1   2
ATOM      2  O   UNL A   1      34.370  31.442  26.969  1.00  0.00    -0.462 OA
BRANCH   2   3
ATOM      3  C   UNL A   1      34.195  30.100  26.917  1.00  0.00     0.311 C 
ATOM      4  O   UNL A   1      35.110  29.291  26.797  1.00  0.00    -0.252 OA
BRANCH   3   5
ATOM      5  C   UNL A   1      32.749  29.653  26.849  1.00  0.00     0.121 C 
ATOM      6  C   UNL A   1      32.023  29.293  25.525  1.00  0.00     0.098 C 
ATOM      7  C   UNL A   1      31.246  27.995  25.847  1.00  0.00     0.026 C 
ATOM      8  C   UNL A   1      31.225  27.898  27.365  1.00  0.00     0.003 C 
ATOM      9  C   UNL A   1      32.589  28.427  27.748  1.00  0.00     0.017 C 
BRANCH   6  10
ATOM     10  N   UNL A   1      32.873  29.115  24.367  1.00  0.00    -0.334 N 
ATOM     11  N   UNL A   1      31.644  29.141  22.302  1.00  0.00    -0.305 N 
ATOM     12  C   UNL A   1      32.750  29.046  23.043  1.00  0.00     0.319 C 
ATOM     13  H   UNL A   1      31.852  28.906  21.368  1.00  0.00     0.171 HD
ATOM     14  O   UNL A   1      33.806  28.810  22.437  1.00  0.00    -0.248 OA
ATOM     15  H   UNL A   1      33.815  29.017  24.636  1.00  0.00     0.165 HD
BRANCH  11  16
ATOM     16  C   UNL A   1      30.283  29.465  22.413  1.00  0.00     0.082 A 
ATOM     17  C   UNL A   1      28.370  30.951  22.438  1.00  0.00     0.121 A 
ATOM     18  C   UNL A   1      27.524  29.922  22.841  1.00  0.00     0.049 A 
ATOM     19  C   UNL A   1      29.713  30.694  22.145  1.00  0.00     0.075 A 
ATOM     20  C   UNL A   1      28.048  28.641  22.992  1.00  0.00     0.045 A 
ATOM     21  C   UNL A   1      29.413  28.431  22.797  1.00  0.00     0.147 A 
ATOM     22  F   UNL A   1      29.907  27.197  22.996  1.00  0.00    -0.205 F 
BRANCH  17  23
ATOM     23  O   UNL A   1      27.960  32.241  22.245  1.00  0.00    -0.497 OA
ATOM     24  C   UNL A   1      27.784  32.566  20.868  1.00  0.00     0.278 C 
ENDBRANCH  17  23
ENDBRANCH  11  16
ENDBRANCH   6  10
ENDBRANCH   3   5
ENDBRANCH   2   3
ENDBRANCH   1   2
BRANCH   1  25
ATOM     25  C   UNL A   1      34.825  32.262  29.251  1.00  0.00     0.275 C 
BRANCH  25  26
ATOM     26  O   UNL A   1      35.507  31.019  29.489  1.00  0.00    -0.458 OA
BRANCH  26  27
ATOM     27  C   UNL A   1      36.333  31.010  30.558  1.00  0.00     0.338 C 
ATOM     28  O   UNL A   1      36.127  31.506  31.653  1.00  0.00    -0.246 OA
BRANCH  27  29
ATOM     29  C   UNL A   1      37.606  30.347  30.224  1.00  0.00     0.060 A 
ATOM     30  C   UNL A   1      38.385  29.743  31.211  1.00  0.00     0.016 A 
ATOM     31  C   UNL A   1      38.090  30.467  28.920  1.00  0.00     0.016 A 
ATOM     32  C   UNL A   1      39.689  29.344  30.907  1.00  0.00     0.010 A 
ATOM     33  C   UNL A   1      39.367  29.996  28.603  1.00  0.00     0.010 A 
ATOM     34  C   UNL A   1      40.197  29.467  29.602  1.00  0.00    -0.014 A 
BRANCH  34  35
ATOM     35  C   UNL A   1      41.583  29.029  29.283  1.00  0.00     0.031 A 
ATOM     36  C   UNL A   1      42.755  29.963  29.435  1.00  0.00     0.074 A 
ATOM     37  C   UNL A   1      41.791  27.769  28.855  1.00  0.00     0.049 A 
ATOM     38  N   UNL A   1      44.017  29.754  29.153  1.00  0.00    -0.248 NA
ATOM     39  C   UNL A   1      42.480  31.300  29.982  1.00  0.00     0.031 C 
ATOM     40  C   UNL A   1      40.750  26.752  28.701  1.00  0.00     0.029 A 
ATOM     41  N   UNL A   1      42.943  27.127  28.480  1.00  0.00    -0.354 N 
ATOM     42  C   UNL A   1      44.687  30.924  29.491  1.00  0.00     0.074 A 
ATOM     43  C   UNL A   1      43.687  31.851  29.979  1.00  0.00     0.031 C 
ATOM     44  C   UNL A   1      41.314  25.606  28.295  1.00  0.00     0.029 A 
ATOM     45  C   UNL A   1      42.742  25.825  28.088  1.00  0.00     0.049 A 
ATOM     46  H   UNL A   1      43.829  27.557  28.490  1.00  0.00     0.167 HD
ATOM     47  C   UNL A   1      46.011  31.199  29.405  1.00  0.00     0.037 A 
ATOM     48  C   UNL A   1      43.596  24.915  27.585  1.00  0.00     0.037 A 
ATOM     49  C   UNL A   1      47.002  30.290  28.887  1.00  0.00     0.049 A 
ATOM     50  C   UNL A   1      45.033  25.284  27.374  1.00  0.00     0.074 A 
ATOM     51  C   UNL A   1      48.366  30.488  28.749  1.00  0.00     0.029 A 
ATOM     52  N   UNL A   1      46.736  29.018  28.402  1.00  0.00    -0.354 N 
ATOM     53  N   UNL A   1      45.644  26.402  27.680  1.00  0.00    -0.248 NA
ATOM     54  C   UNL A   1      45.889  24.280  26.729  1.00  0.00     0.031 C 
ATOM     55  C   UNL A   1      48.916  29.354  28.141  1.00  0.00     0.029 A 
ATOM     56  C   UNL A   1      47.902  28.433  27.935  1.00  0.00     0.049 A 
ATOM     57  H   UNL A   1      45.848  28.593  28.392  1.00  0.00     0.167 HD
ATOM     58  C   UNL A   1      46.959  26.240  27.262  1.00  0.00     0.074 A 
ATOM     59  C   UNL A   1      47.058  24.910  26.695  1.00  0.00     0.031 C 
ATOM     60  C   UNL A   1      47.988  27.119  27.344  1.00  0.00     0.037 A 
BRANCH  47  61
ATOM     61  C   UNL A   1      46.468  32.558  29.861  1.00  0.00     0.058 A 
ATOM     62  C   UNL A   1      46.843  32.776  31.195  1.00  0.00     0.135 A 
ATOM     63  C   UNL A   1      46.500  33.653  28.982  1.00  0.00     0.135 A 
ATOM     64  F   UNL A   1      46.836  31.762  32.075  1.00  0.00    -0.206 F 
ATOM     65  C   UNL A   1      47.234  34.034  31.645  1.00  0.00     0.059 A 
ATOM     66  C   UNL A   1      46.904  34.917  29.408  1.00  0.00     0.059 A 
ATOM     67  F   UNL A   1      46.172  33.493  27.691  1.00  0.00    -0.206 F 
ATOM     68  C   UNL A   1      47.262  35.098  30.743  1.00  0.00     0.060 A 
BRANCH  68  69
ATOM     69  S   UNL A   1      47.839  36.710  31.322  1.00  0.00     0.124 S 
ATOM     70  O   UNL A   1      46.841  37.041  32.332  1.00  0.00    -0.237 OA
ATOM     71  O   UNL A   1      49.175  36.398  31.823  1.00  0.00    -0.237 OA
ATOM     72  O   UNL A   1      47.810  37.529  30.113  1.00  0.00    -0.744 OA
ENDBRANCH  68  69
ENDBRANCH  47  61
BRANCH  48  73
ATOM     73  C   UNL A   1      43.073  23.571  27.233  1.00  0.00     0.058 A 
ATOM     74  C   UNL A   1      43.002  22.551  28.195  1.00  0.00     0.135 A 
ATOM     75  C   UNL A   1      42.762  23.250  25.905  1.00  0.00     0.135 A 
ATOM     76  F   UNL A   1      43.297  22.814  29.478  1.00  0.00    -0.206 F 
ATOM     77  C   UNL A   1      42.701  21.242  27.841  1.00  0.00     0.059 A 
ATOM     78  C   UNL A   1      42.436  21.950  25.531  1.00  0.00     0.059 A 
ATOM     79  F   UNL A   1      42.804  24.199  24.958  1.00  0.00    -0.206 F 
ATOM     80  C   UNL A   1      42.442  20.948  26.502  1.00  0.00     0.060 A 
BRANCH  80  81
ATOM     81  S   UNL A   1      42.146  19.227  26.044  1.00  0.00     0.124 S 
ATOM     82  O   UNL A   1      40.705  19.233  25.815  1.00  0.00    -0.237 OA
ATOM     83  O   UNL A   1      42.978  19.076  24.855  1.00  0.00    -0.237 OA
ATOM     84  O   UNL A   1      42.594  18.485  27.218  1.00  0.00    -0.744 OA
ENDBRANCH  80  81
ENDBRANCH  48  73
BRANCH  60  85
ATOM     85  C   UNL A   1      49.314  26.680  26.796  1.00  0.00     0.058 A 
ATOM     86  C   UNL A   1      49.701  27.024  25.493  1.00  0.00     0.135 A 
ATOM     87  C   UNL A   1      50.183  25.875  27.551  1.00  0.00     0.135 A 
ATOM     88  F   UNL A   1      48.906  27.791  24.731  1.00  0.00    -0.206 F 
ATOM     89  C   UNL A   1      50.899  26.574  24.948  1.00  0.00     0.059 A 
ATOM     90  C   UNL A   1      51.396  25.429  27.032  1.00  0.00     0.059 A 
ATOM     91  F   UNL A   1      49.864  25.534  28.809  1.00  0.00    -0.206 F 
ATOM     92  C   UNL A   1      51.738  25.772  25.724  1.00  0.00     0.060 A 
BRANCH  92  93
ATOM     93  S   UNL A   1      53.301  25.212  25.013  1.00  0.00     0.124 S 
ATOM     94  O   UNL A   1      53.266  23.783  25.305  1.00  0.00    -0.237 OA
ATOM     95  O   UNL A   1      53.150  25.576  23.607  1.00  0.00    -0.237 OA
ATOM     96  O   UNL A   1      54.301  25.981  25.747  1.00  0.00    -0.744 OA
ENDBRANCH  92  93
ENDBRANCH  60  85
ENDBRANCH  34  35
ENDBRANCH  27  29
ENDBRANCH  26  27
ENDBRANCH  25  26
ENDBRANCH   1  25
TORSDOF 17
ENDMDL
MODEL 3
REMARK VINA RESULT:     -11.4      2.255      2.845
REMARK SMILES COc1ccc(F)c(NC(=O)N[C@H]2CCC[C@H]2C(=O)OCCOC(=O)c2ccc(-c3c4nc(c(-c5c(F)cc(S(=O)(=O)[O-])cc5F)c5ccc([nH]5)c(-c5c(F)cc(S(=O)(=O)[O-])cc5F)c5nc(c(-c6c(F)cc(S(=O)(=O)[O-])cc6F)c6ccc3[nH]6)C=C5)C=C4)cc2)c1
REMARK SMILES IDX 21 1 20 2 18 3 19 4 17 5 13 6 14 7 15 8 16 9 12 10 9 11
REMARK SMILES IDX 10 12 11 14 8 16 3 17 4 18 92 19 5 20 6 21 7 22 2 23 1 24
REMARK SMILES IDX 22 25 23 26 24 27 25 28 26 29 27 30 91 31 28 32 90 33 29 34
REMARK SMILES IDX 30 35 31 36 84 37 32 38 89 39 83 40 85 41 33 42 88 43 82 44
REMARK SMILES IDX 81 45 34 47 68 48 47 49 67 50 48 51 51 52 66 53 86 54 49 55
REMARK SMILES IDX 50 56 65 58 87 59 52 60 35 61 36 62 45 63 37 64 38 65 44 66
REMARK SMILES IDX 46 67 39 68 40 69 41 70 42 71 43 72 69 73 70 74 79 75 71 76
REMARK SMILES IDX 72 77 78 78 80 79 73 80 74 81 75 82 76 83 77 84 53 85 54 86
REMARK SMILES IDX 63 87 55 88 56 89 62 90 64 91 57 92 58 93 59 94 60 95 61 96
REMARK H PARENT 9 13 12 15 85 46 51 57
REMARK Flexibility Score: inf
ROOT
ATOM      1  C   UNL A   1      32.171  29.486  25.593  1.00  0.00     0.274 C 
ENDROOT
BRANCH   1   2
ATOM      2  O   UNL A   1      31.077  28.547  25.549  1.00  0.00    -0.462 OA
BRANCH   2   3
ATOM      3  C   UNL A   1      31.387  27.265  25.852  1.00  0.00     0.311 C 
ATOM      4  O   UNL A   1      31.550  26.848  26.995  1.00  0.00    -0.252 OA
BRANCH   3   5
ATOM      5  C   UNL A   1      31.689  26.388  24.655  1.00  0.00     0.121 C 
ATOM      6  C   UNL A   1      31.634  24.836  24.691  1.00  0.00     0.098 C 
ATOM      7  C   UNL A   1      30.895  24.441  23.390  1.00  0.00     0.026 C 
ATOM      8  C   UNL A   1      30.925  25.683  22.512  1.00  0.00     0.003 C 
ATOM      9  C   UNL A   1      30.756  26.801  23.516  1.00  0.00     0.017 C 
BRANCH   6  10
ATOM     10  N   UNL A   1      30.990  24.254  25.850  1.00  0.00    -0.334 N 
ATOM     11  N   UNL A   1      32.179  22.353  26.715  1.00  0.00    -0.305 N 
ATOM     12  C   UNL A   1      31.184  23.242  26.693  1.00  0.00     0.319 C 
ATOM     13  H   UNL A   1      31.972  21.642  27.365  1.00  0.00     0.171 HD
ATOM     14  O   UNL A   1      30.285  23.090  27.534  1.00  0.00    -0.248 OA
ATOM     15  H   UNL A   1      30.171  24.749  26.080  1.00  0.00     0.165 HD
BRANCH  11  16
ATOM     16  C   UNL A   1      33.422  22.095  26.116  1.00  0.00     0.082 A 
ATOM     17  C   UNL A   1      35.598  22.677  25.226  1.00  0.00     0.121 A 
ATOM     18  C   UNL A   1      35.794  21.386  24.748  1.00  0.00     0.049 A 
ATOM     19  C   UNL A   1      34.461  22.993  25.976  1.00  0.00     0.075 A 
ATOM     20  C   UNL A   1      34.817  20.423  24.991  1.00  0.00     0.045 A 
ATOM     21  C   UNL A   1      33.643  20.788  25.649  1.00  0.00     0.147 A 
ATOM     22  F   UNL A   1      32.692  19.857  25.830  1.00  0.00    -0.205 F 
BRANCH  17  23
ATOM     23  O   UNL A   1      36.496  23.694  25.057  1.00  0.00    -0.497 OA
ATOM     24  C   UNL A   1      37.438  23.783  26.124  1.00  0.00     0.278 C 
ENDBRANCH  17  23
ENDBRANCH  11  16
ENDBRANCH   6  10
ENDBRANCH   3   5
ENDBRANCH   2   3
ENDBRANCH   1   2
BRANCH   1  25
ATOM     25  C   UNL A   1      32.319  30.138  26.966  1.00  0.00     0.275 C 
BRANCH  25  26
ATOM     26  O   UNL A   1      33.472  29.617  27.647  1.00  0.00    -0.458 OA
BRANCH  26  27
ATOM     27  C   UNL A   1      34.292  30.545  28.189  1.00  0.00     0.338 C 
ATOM     28  O   UNL A   1      34.014  31.697  28.474  1.00  0.00    -0.246 OA
BRANCH  27  29
ATOM     29  C   UNL A   1      35.651  30.001  28.356  1.00  0.00     0.060 A 
ATOM     30  C   UNL A   1      36.104  29.561  29.599  1.00  0.00     0.016 A 
ATOM     31  C   UNL A   1      36.529  30.076  27.273  1.00  0.00     0.016 A 
ATOM     32  C   UNL A   1      37.461  29.284  29.777  1.00  0.00     0.010 A 
ATOM     33  C   UNL A   1      37.871  29.723  27.437  1.00  0.00     0.010 A 
ATOM     34  C   UNL A   1      38.362  29.364  28.701  1.00  0.00    -0.014 A 
BRANCH  34  35
ATOM     35  C   UNL A   1      39.805  29.057  28.894  1.00  0.00     0.031 A 
ATOM     36  C   UNL A   1      40.757  30.082  29.451  1.00  0.00     0.074 A 
ATOM     37  C   UNL A   1      40.265  27.833  28.569  1.00  0.00     0.049 A 
ATOM     38  N   UNL A   1      42.051  29.991  29.636  1.00  0.00    -0.248 NA
ATOM     39  C   UNL A   1      40.186  31.372  29.865  1.00  0.00     0.031 C 
ATOM     40  C   UNL A   1      39.443  26.737  28.056  1.00  0.00     0.029 A 
ATOM     41  N   UNL A   1      41.529  27.304  28.627  1.00  0.00    -0.354 N 
ATOM     42  C   UNL A   1      42.448  31.203  30.189  1.00  0.00     0.074 A 
ATOM     43  C   UNL A   1      41.260  32.025  30.290  1.00  0.00     0.031 C 
ATOM     44  C   UNL A   1      40.217  25.657  27.877  1.00  0.00     0.029 A 
ATOM     45  C   UNL A   1      41.599  26.004  28.191  1.00  0.00     0.049 A 
ATOM     46  H   UNL A   1      42.311  27.809  28.950  1.00  0.00     0.167 HD
ATOM     47  C   UNL A   1      43.687  31.593  30.578  1.00  0.00     0.037 A 
ATOM     48  C   UNL A   1      42.655  25.186  28.023  1.00  0.00     0.037 A 
ATOM     49  C   UNL A   1      44.875  30.789  30.446  1.00  0.00     0.049 A 
ATOM     50  C   UNL A   1      44.033  25.683  28.335  1.00  0.00     0.074 A 
ATOM     51  C   UNL A   1      46.176  31.107  30.801  1.00  0.00     0.029 A 
ATOM     52  N   UNL A   1      44.915  29.515  29.899  1.00  0.00    -0.354 N 
ATOM     53  N   UNL A   1      44.392  26.839  28.838  1.00  0.00    -0.248 NA
ATOM     54  C   UNL A   1      45.150  24.777  28.037  1.00  0.00     0.031 C 
ATOM     55  C   UNL A   1      47.007  30.044  30.428  1.00  0.00     0.029 A 
ATOM     56  C   UNL A   1      46.220  29.046  29.876  1.00  0.00     0.049 A 
ATOM     57  H   UNL A   1      44.130  29.015  29.575  1.00  0.00     0.167 HD
ATOM     58  C   UNL A   1      45.780  26.804  28.914  1.00  0.00     0.074 A 
ATOM     59  C   UNL A   1      46.193  25.506  28.420  1.00  0.00     0.031 C 
ATOM     60  C   UNL A   1      46.628  27.765  29.355  1.00  0.00     0.037 A 
BRANCH  47  61
ATOM     61  C   UNL A   1      43.827  32.970  31.166  1.00  0.00     0.058 A 
ATOM     62  C   UNL A   1      43.697  33.175  32.548  1.00  0.00     0.135 A 
ATOM     63  C   UNL A   1      44.054  34.094  30.354  1.00  0.00     0.135 A 
ATOM     64  F   UNL A   1      43.485  32.135  33.369  1.00  0.00    -0.206 F 
ATOM     65  C   UNL A   1      43.788  34.447  33.107  1.00  0.00     0.059 A 
ATOM     66  C   UNL A   1      44.165  35.373  30.894  1.00  0.00     0.059 A 
ATOM     67  F   UNL A   1      44.207  33.949  29.028  1.00  0.00    -0.206 F 
ATOM     68  C   UNL A   1      44.023  35.539  32.272  1.00  0.00     0.060 A 
BRANCH  68  69
ATOM     69  S   UNL A   1      44.209  37.175  33.017  1.00  0.00     0.124 S 
ATOM     70  O   UNL A   1      43.044  37.241  33.891  1.00  0.00    -0.237 OA
ATOM     71  O   UNL A   1      45.503  37.066  33.684  1.00  0.00    -0.237 OA
ATOM     72  O   UNL A   1      44.184  38.072  31.864  1.00  0.00    -0.744 OA
ENDBRANCH  68  69
ENDBRANCH  47  61
BRANCH  48  73
ATOM     73  C   UNL A   1      42.415  23.814  27.510  1.00  0.00     0.058 A 
ATOM     74  C   UNL A   1      42.305  22.724  28.388  1.00  0.00     0.135 A 
ATOM     75  C   UNL A   1      42.424  23.554  26.133  1.00  0.00     0.135 A 
ATOM     76  F   UNL A   1      42.299  22.928  29.715  1.00  0.00    -0.206 F 
ATOM     77  C   UNL A   1      42.276  21.417  27.920  1.00  0.00     0.059 A 
ATOM     78  C   UNL A   1      42.373  22.255  25.639  1.00  0.00     0.059 A 
ATOM     79  F   UNL A   1      42.512  24.569  25.259  1.00  0.00    -0.206 F 
ATOM     80  C   UNL A   1      42.333  21.193  26.544  1.00  0.00     0.060 A 
BRANCH  80  81
ATOM     81  S   UNL A   1      42.389  19.487  25.956  1.00  0.00     0.124 S 
ATOM     82  O   UNL A   1      43.281  19.606  24.808  1.00  0.00    -0.237 OA
ATOM     83  O   UNL A   1      42.932  18.780  27.112  1.00  0.00    -0.237 OA
ATOM     84  O   UNL A   1      40.995  19.192  25.643  1.00  0.00    -0.744 OA
ENDBRANCH  80  81
ENDBRANCH  48  73
BRANCH  60  85
ATOM     85  C   UNL A   1      48.096  27.458  29.314  1.00  0.00     0.058 A 
ATOM     86  C   UNL A   1      48.705  26.725  30.343  1.00  0.00     0.135 A 
ATOM     87  C   UNL A   1      48.911  27.934  28.275  1.00  0.00     0.135 A 
ATOM     88  F   UNL A   1      47.969  26.247  31.360  1.00  0.00    -0.206 F 
ATOM     89  C   UNL A   1      50.074  26.484  30.353  1.00  0.00     0.059 A 
ATOM     90  C   UNL A   1      50.282  27.689  28.253  1.00  0.00     0.059 A 
ATOM     91  F   UNL A   1      48.372  28.626  27.259  1.00  0.00    -0.206 F 
ATOM     92  C   UNL A   1      50.856  26.975  29.305  1.00  0.00     0.060 A 
BRANCH  92  93
ATOM     93  S   UNL A   1      52.630  26.637  29.318  1.00  0.00     0.124 S 
ATOM     94  O   UNL A   1      52.792  25.845  28.104  1.00  0.00    -0.237 OA
ATOM     95  O   UNL A   1      53.203  27.980  29.280  1.00  0.00    -0.237 OA
ATOM     96  O   UNL A   1      52.828  25.917  30.572  1.00  0.00    -0.744 OA
ENDBRANCH  92  93
ENDBRANCH  60  85
ENDBRANCH  34  35
ENDBRANCH  27  29
ENDBRANCH  26  27
ENDBRANCH  25  26
ENDBRANCH   1  25
TORSDOF 17
ENDMDL
