MODEL 1
REMARK VINA RESULT:     -11.0      0.000      0.000
REMARK SMILES CC(C)N1C(=O)C[C@@H]([N@@H+]2CC[C@H](C(=O)OCCOC(=O)c3ccc(-c4c5nc(c(-c6c(F)cc(S(=O)(=O)[O-])cc6F)c6ccc([nH]6)c(-c6c(F)cc(S(=O)(=O)[O-])cc6F)c6nc(c(-c7c(F)cc(S(=O)(=O)[O-])cc7F)c7ccc4[nH]7)C=C6)C=C5)cc3)[C@@H]2C)C1=O
REMARK SMILES IDX 17 1 16 2 15 3 13 4 14 5 12 6 9 7 10 8 87 9 11 11 88 12 8 13
REMARK SMILES IDX 4 14 5 15 89 16 6 17 7 18 90 19 2 20 1 21 3 22 18 23 19 24
REMARK SMILES IDX 20 25 21 26 22 27 86 28 23 29 85 30 24 31 25 32 26 33 79 34
REMARK SMILES IDX 27 35 84 36 78 37 80 38 28 39 83 40 77 41 76 42 29 44 63 45
REMARK SMILES IDX 42 46 62 47 43 48 46 49 61 50 81 51 44 52 45 53 60 55 82 56
REMARK SMILES IDX 47 57 30 58 31 59 40 60 32 61 33 62 39 63 41 64 34 65 35 66
REMARK SMILES IDX 36 67 37 68 38 69 64 70 65 71 74 72 66 73 67 74 73 75 75 76
REMARK SMILES IDX 68 77 69 78 70 79 71 80 72 81 48 82 49 83 58 84 50 85 51 86
REMARK SMILES IDX 57 87 59 88 52 89 53 90 54 91 55 92 56 93
REMARK H PARENT 9 10 80 43 46 54
REMARK Flexibility Score: inf
ROOT
ATOM      1  C   UNL A   1      32.735  28.333  26.480  1.00  0.00     0.275 C 
ENDROOT
BRANCH   1   2
ATOM      2  C   UNL A   1      32.336  26.877  26.234  1.00  0.00     0.274 C 
BRANCH   2   3
ATOM      3  O   UNL A   1      32.543  26.460  24.865  1.00  0.00    -0.462 OA
BRANCH   3   4
ATOM      4  C   UNL A   1      33.171  25.270  24.697  1.00  0.00     0.315 C 
ATOM      5  O   UNL A   1      34.384  25.113  24.795  1.00  0.00    -0.252 OA
BRANCH   4   6
ATOM      6  C   UNL A   1      32.244  24.112  24.374  1.00  0.00     0.162 C 
ATOM      7  N   UNL A   1      32.698  21.793  24.790  1.00  0.00    -0.321 N 
ATOM      8  C   UNL A   1      33.233  22.106  23.471  1.00  0.00     0.264 C 
ATOM      9  C   UNL A   1      32.097  22.982  25.400  1.00  0.00     0.196 C 
ATOM     10  H   UNL A   1      31.895  21.170  24.699  1.00  0.00     0.349 HD
ATOM     11  C   UNL A   1      32.580  23.405  23.070  1.00  0.00     0.083 C 
ATOM     12  C   UNL A   1      32.425  23.326  26.850  1.00  0.00     0.076 C 
BRANCH   7  13
ATOM     13  C   UNL A   1      33.487  20.855  25.588  1.00  0.00     0.284 C 
ATOM     14  N   UNL A   1      34.385  18.856  24.705  1.00  0.00    -0.275 N 
ATOM     15  C   UNL A   1      35.460  19.661  24.965  1.00  0.00     0.236 C 
ATOM     16  C   UNL A   1      33.213  19.423  25.128  1.00  0.00     0.288 C 
ATOM     17  O   UNL A   1      36.640  19.368  24.824  1.00  0.00    -0.274 OA
ATOM     18  C   UNL A   1      35.001  20.987  25.486  1.00  0.00     0.176 C 
ATOM     19  O   UNL A   1      32.107  18.898  25.157  1.00  0.00    -0.267 OA
BRANCH  14  20
ATOM     20  C   UNL A   1      34.547  17.552  24.050  1.00  0.00     0.087 C 
ATOM     21  C   UNL A   1      34.607  16.345  24.987  1.00  0.00     0.031 C 
ATOM     22  C   UNL A   1      33.434  17.334  23.017  1.00  0.00     0.031 C 
ENDBRANCH  14  20
ENDBRANCH   7  13
ENDBRANCH   4   6
ENDBRANCH   3   4
ENDBRANCH   2   3
ENDBRANCH   1   2
BRANCH   1  23
ATOM     23  O   UNL A   1      33.960  28.432  27.225  1.00  0.00    -0.458 OA
BRANCH  23  24
ATOM     24  C   UNL A   1      34.251  29.682  27.640  1.00  0.00     0.338 C 
ATOM     25  O   UNL A   1      33.479  30.629  27.728  1.00  0.00    -0.246 OA
BRANCH  24  26
ATOM     26  C   UNL A   1      35.639  29.765  28.107  1.00  0.00     0.060 A 
ATOM     27  C   UNL A   1      36.605  30.131  27.172  1.00  0.00     0.016 A 
ATOM     28  C   UNL A   1      36.015  29.304  29.368  1.00  0.00     0.016 A 
ATOM     29  C   UNL A   1      37.946  29.902  27.429  1.00  0.00     0.010 A 
ATOM     30  C   UNL A   1      37.377  29.163  29.662  1.00  0.00     0.010 A 
ATOM     31  C   UNL A   1      38.351  29.409  28.676  1.00  0.00    -0.014 A 
BRANCH  31  32
ATOM     32  C   UNL A   1      39.787  29.105  28.895  1.00  0.00     0.031 A 
ATOM     33  C   UNL A   1      40.690  30.138  29.514  1.00  0.00     0.074 A 
ATOM     34  C   UNL A   1      40.265  27.879  28.598  1.00  0.00     0.049 A 
ATOM     35  N   UNL A   1      41.985  30.101  29.693  1.00  0.00    -0.248 NA
ATOM     36  C   UNL A   1      40.059  31.382  29.987  1.00  0.00     0.031 C 
ATOM     37  C   UNL A   1      39.480  26.778  28.031  1.00  0.00     0.029 A 
ATOM     38  N   UNL A   1      41.519  27.346  28.746  1.00  0.00    -0.354 N 
ATOM     39  C   UNL A   1      42.331  31.331  30.238  1.00  0.00     0.074 A 
ATOM     40  C   UNL A   1      41.109  32.093  30.376  1.00  0.00     0.031 C 
ATOM     41  C   UNL A   1      40.262  25.695  27.910  1.00  0.00     0.029 A 
ATOM     42  C   UNL A   1      41.616  26.042  28.325  1.00  0.00     0.049 A 
ATOM     43  H   UNL A   1      42.279  27.851  29.118  1.00  0.00     0.167 HD
ATOM     44  C   UNL A   1      43.559  31.783  30.588  1.00  0.00     0.037 A 
ATOM     45  C   UNL A   1      42.683  25.224  28.255  1.00  0.00     0.037 A 
ATOM     46  C   UNL A   1      44.760  30.994  30.514  1.00  0.00     0.049 A 
ATOM     47  C   UNL A   1      44.025  25.736  28.691  1.00  0.00     0.074 A 
ATOM     48  C   UNL A   1      46.054  31.359  30.844  1.00  0.00     0.029 A 
ATOM     49  N   UNL A   1      44.809  29.669  30.107  1.00  0.00    -0.354 N 
ATOM     50  N   UNL A   1      44.341  26.923  29.150  1.00  0.00    -0.248 NA
ATOM     51  C   UNL A   1      45.156  24.805  28.594  1.00  0.00     0.031 C 
ATOM     52  C   UNL A   1      46.888  30.257  30.625  1.00  0.00     0.029 A 
ATOM     53  C   UNL A   1      46.109  29.200  30.183  1.00  0.00     0.049 A 
ATOM     54  H   UNL A   1      44.035  29.141  29.808  1.00  0.00     0.167 HD
ATOM     55  C   UNL A   1      45.707  26.879  29.402  1.00  0.00     0.074 A 
ATOM     56  C   UNL A   1      46.151  25.542  29.067  1.00  0.00     0.031 C 
ATOM     57  C   UNL A   1      46.521  27.860  29.861  1.00  0.00     0.037 A 
BRANCH  44  58
ATOM     58  C   UNL A   1      43.675  33.205  31.054  1.00  0.00     0.058 A 
ATOM     59  C   UNL A   1      43.601  33.551  32.411  1.00  0.00     0.135 A 
ATOM     60  C   UNL A   1      43.921  34.231  30.127  1.00  0.00     0.135 A 
ATOM     61  F   UNL A   1      43.346  32.612  33.335  1.00  0.00    -0.206 F 
ATOM     62  C   UNL A   1      43.758  34.868  32.833  1.00  0.00     0.059 A 
ATOM     63  C   UNL A   1      44.099  35.551  30.527  1.00  0.00     0.059 A 
ATOM     64  F   UNL A   1      43.995  33.952  28.815  1.00  0.00    -0.206 F 
ATOM     65  C   UNL A   1      44.007  35.861  31.883  1.00  0.00     0.060 A 
BRANCH  65  66
ATOM     66  S   UNL A   1      44.238  37.564  32.442  1.00  0.00     0.124 S 
ATOM     67  O   UNL A   1      45.653  37.560  32.802  1.00  0.00    -0.237 OA
ATOM     68  O   UNL A   1      43.890  38.336  31.254  1.00  0.00    -0.237 OA
ATOM     69  O   UNL A   1      43.306  37.683  33.558  1.00  0.00    -0.744 OA
ENDBRANCH  65  66
ENDBRANCH  44  58
BRANCH  45  70
ATOM     70  C   UNL A   1      42.531  23.848  27.712  1.00  0.00     0.058 A 
ATOM     71  C   UNL A   1      42.580  23.601  26.333  1.00  0.00     0.135 A 
ATOM     72  C   UNL A   1      42.334  22.754  28.569  1.00  0.00     0.135 A 
ATOM     73  F   UNL A   1      42.762  24.617  25.476  1.00  0.00    -0.206 F 
ATOM     74  C   UNL A   1      42.418  22.319  25.818  1.00  0.00     0.059 A 
ATOM     75  C   UNL A   1      42.193  21.461  28.079  1.00  0.00     0.059 A 
ATOM     76  F   UNL A   1      42.298  22.938  29.898  1.00  0.00    -0.206 F 
ATOM     77  C   UNL A   1      42.220  21.255  26.700  1.00  0.00     0.060 A 
BRANCH  77  78
ATOM     78  S   UNL A   1      42.044  19.584  26.039  1.00  0.00     0.124 S 
ATOM     79  O   UNL A   1      42.473  18.775  27.174  1.00  0.00    -0.237 OA
ATOM     80  O   UNL A   1      40.622  19.522  25.713  1.00  0.00    -0.237 OA
ATOM     81  O   UNL A   1      42.941  19.589  24.888  1.00  0.00    -0.744 OA
ENDBRANCH  77  78
ENDBRANCH  45  70
BRANCH  57  82
ATOM     82  C   UNL A   1      47.965  27.505  30.057  1.00  0.00     0.058 A 
ATOM     83  C   UNL A   1      48.902  27.660  29.026  1.00  0.00     0.135 A 
ATOM     84  C   UNL A   1      48.417  27.033  31.299  1.00  0.00     0.135 A 
ATOM     85  F   UNL A   1      48.513  28.104  27.820  1.00  0.00    -0.206 F 
ATOM     86  C   UNL A   1      50.240  27.334  29.211  1.00  0.00     0.059 A 
ATOM     87  C   UNL A   1      49.754  26.717  31.511  1.00  0.00     0.059 A 
ATOM     88  F   UNL A   1      47.557  26.875  32.317  1.00  0.00    -0.206 F 
ATOM     89  C   UNL A   1      50.656  26.858  30.457  1.00  0.00     0.060 A 
BRANCH  89  90
ATOM     90  S   UNL A   1      52.398  26.452  30.699  1.00  0.00     0.124 S 
ATOM     91  O   UNL A   1      52.889  27.652  31.367  1.00  0.00    -0.237 OA
ATOM     92  O   UNL A   1      52.335  25.249  31.523  1.00  0.00    -0.237 OA
ATOM     93  O   UNL A   1      52.886  26.245  29.338  1.00  0.00    -0.744 OA
ENDBRANCH  89  90
ENDBRANCH  57  82
ENDBRANCH  31  32
ENDBRANCH  24  26
ENDBRANCH  23  24
ENDBRANCH   1  23
TORSDOF 16
ENDMDL
MODEL 2
REMARK VINA RESULT:     -11.0      2.874      4.046
REMARK SMILES CC(C)N1C(=O)C[C@@H]([N@@H+]2CC[C@H](C(=O)OCCOC(=O)c3ccc(-c4c5nc(c(-c6c(F)cc(S(=O)(=O)[O-])cc6F)c6ccc([nH]6)c(-c6c(F)cc(S(=O)(=O)[O-])cc6F)c6nc(c(-c7c(F)cc(S(=O)(=O)[O-])cc7F)c7ccc4[nH]7)C=C6)C=C5)cc3)[C@@H]2C)C1=O
REMARK SMILES IDX 17 1 16 2 15 3 13 4 14 5 12 6 9 7 10 8 87 9 11 11 88 12 8 13
REMARK SMILES IDX 4 14 5 15 89 16 6 17 7 18 90 19 2 20 1 21 3 22 18 23 19 24
REMARK SMILES IDX 20 25 21 26 22 27 86 28 23 29 85 30 24 31 25 32 26 33 79 34
REMARK SMILES IDX 27 35 84 36 78 37 80 38 28 39 83 40 77 41 76 42 29 44 63 45
REMARK SMILES IDX 42 46 62 47 43 48 46 49 61 50 81 51 44 52 45 53 60 55 82 56
REMARK SMILES IDX 47 57 30 58 31 59 40 60 32 61 33 62 39 63 41 64 34 65 35 66
REMARK SMILES IDX 36 67 37 68 38 69 64 70 65 71 74 72 66 73 67 74 73 75 75 76
REMARK SMILES IDX 68 77 69 78 70 79 71 80 72 81 48 82 49 83 58 84 50 85 51 86
REMARK SMILES IDX 57 87 59 88 52 89 53 90 54 91 55 92 56 93
REMARK H PARENT 9 10 80 43 46 54
REMARK Flexibility Score: inf
ROOT
ATOM      1  C   UNL A   1      34.872  30.629  27.829  1.00  0.00     0.275 C 
ENDROOT
BRANCH   1   2
ATOM      2  C   UNL A   1      33.449  30.217  27.448  1.00  0.00     0.274 C 
BRANCH   2   3
ATOM      3  O   UNL A   1      33.350  29.722  26.094  1.00  0.00    -0.462 OA
BRANCH   3   4
ATOM      4  C   UNL A   1      32.159  29.923  25.475  1.00  0.00     0.315 C 
ATOM      5  O   UNL A   1      31.419  30.875  25.705  1.00  0.00    -0.252 OA
BRANCH   4   6
ATOM      6  C   UNL A   1      31.797  28.864  24.451  1.00  0.00     0.162 C 
ATOM      7  N   UNL A   1      32.521  26.576  24.483  1.00  0.00    -0.321 N 
ATOM      8  C   UNL A   1      33.533  27.337  23.760  1.00  0.00     0.264 C 
ATOM      9  C   UNL A   1      31.444  27.456  24.945  1.00  0.00     0.196 C 
ATOM     10  H   UNL A   1      32.029  25.956  23.839  1.00  0.00     0.349 HD
ATOM     11  C   UNL A   1      32.870  28.642  23.396  1.00  0.00     0.083 C 
ATOM     12  C   UNL A   1      30.949  27.339  26.384  1.00  0.00     0.076 C 
BRANCH   7  13
ATOM     13  C   UNL A   1      33.025  25.494  25.329  1.00  0.00     0.284 C 
ATOM     14  N   UNL A   1      33.307  23.282  24.552  1.00  0.00    -0.275 N 
ATOM     15  C   UNL A   1      34.569  23.761  24.767  1.00  0.00     0.236 C 
ATOM     16  C   UNL A   1      32.350  24.178  24.946  1.00  0.00     0.288 C 
ATOM     17  O   UNL A   1      35.616  23.139  24.641  1.00  0.00    -0.274 OA
ATOM     18  C   UNL A   1      34.512  25.187  25.217  1.00  0.00     0.176 C 
ATOM     19  O   UNL A   1      31.142  23.990  25.004  1.00  0.00    -0.267 OA
BRANCH  14  20
ATOM     20  C   UNL A   1      33.083  21.953  23.967  1.00  0.00     0.087 C 
ATOM     21  C   UNL A   1      32.295  20.973  24.836  1.00  0.00     0.031 C 
ATOM     22  C   UNL A   1      32.394  22.082  22.602  1.00  0.00     0.031 C 
ENDBRANCH  14  20
ENDBRANCH   7  13
ENDBRANCH   4   6
ENDBRANCH   3   4
ENDBRANCH   2   3
ENDBRANCH   1   2
BRANCH   1  23
ATOM     23  O   UNL A   1      35.654  29.506  28.267  1.00  0.00    -0.458 OA
BRANCH  23  24
ATOM     24  C   UNL A   1      36.317  29.716  29.423  1.00  0.00     0.338 C 
ATOM     25  O   UNL A   1      35.838  29.782  30.548  1.00  0.00    -0.246 OA
BRANCH  24  26
ATOM     26  C   UNL A   1      37.765  29.748  29.192  1.00  0.00     0.060 A 
ATOM     27  C   UNL A   1      38.201  29.674  27.871  1.00  0.00     0.016 A 
ATOM     28  C   UNL A   1      38.675  29.652  30.243  1.00  0.00     0.016 A 
ATOM     29  C   UNL A   1      39.519  29.354  27.589  1.00  0.00     0.010 A 
ATOM     30  C   UNL A   1      40.027  29.423  29.954  1.00  0.00     0.010 A 
ATOM     31  C   UNL A   1      40.449  29.219  28.626  1.00  0.00    -0.014 A 
BRANCH  31  32
ATOM     32  C   UNL A   1      41.836  28.803  28.297  1.00  0.00     0.031 A 
ATOM     33  C   UNL A   1      42.958  29.805  28.362  1.00  0.00     0.074 A 
ATOM     34  C   UNL A   1      42.097  27.513  28.004  1.00  0.00     0.049 A 
ATOM     35  N   UNL A   1      44.211  29.663  28.016  1.00  0.00    -0.248 NA
ATOM     36  C   UNL A   1      42.629  31.147  28.874  1.00  0.00     0.031 C 
ATOM     37  C   UNL A   1      41.101  26.439  27.949  1.00  0.00     0.029 A 
ATOM     38  N   UNL A   1      43.278  26.882  27.713  1.00  0.00    -0.354 N 
ATOM     39  C   UNL A   1      44.803  30.906  28.208  1.00  0.00     0.074 A 
ATOM     40  C   UNL A   1      43.776  31.791  28.714  1.00  0.00     0.031 C 
ATOM     41  C   UNL A   1      41.718  25.279  27.675  1.00  0.00     0.029 A 
ATOM     42  C   UNL A   1      43.138  25.537  27.469  1.00  0.00     0.049 A 
ATOM     43  H   UNL A   1      44.145  27.348  27.682  1.00  0.00     0.167 HD
ATOM     44  C   UNL A   1      46.086  31.273  27.978  1.00  0.00     0.037 A 
ATOM     45  C   UNL A   1      44.046  24.618  27.092  1.00  0.00     0.037 A 
ATOM     46  C   UNL A   1      47.117  30.370  27.541  1.00  0.00     0.049 A 
ATOM     47  C   UNL A   1      45.472  25.043  26.888  1.00  0.00     0.074 A 
ATOM     48  C   UNL A   1      48.449  30.643  27.279  1.00  0.00     0.029 A 
ATOM     49  N   UNL A   1      46.938  29.011  27.331  1.00  0.00    -0.354 N 
ATOM     50  N   UNL A   1      46.000  26.236  27.018  1.00  0.00    -0.248 NA
ATOM     51  C   UNL A   1      46.424  24.003  26.477  1.00  0.00     0.031 C 
ATOM     52  C   UNL A   1      49.073  29.449  26.898  1.00  0.00     0.029 A 
ATOM     53  C   UNL A   1      48.135  28.431  26.949  1.00  0.00     0.049 A 
ATOM     54  H   UNL A   1      46.086  28.530  27.438  1.00  0.00     0.167 HD
ATOM     55  C   UNL A   1      47.347  26.089  26.712  1.00  0.00     0.074 A 
ATOM     56  C   UNL A   1      47.557  24.688  26.412  1.00  0.00     0.031 C 
ATOM     57  C   UNL A   1      48.321  27.030  26.674  1.00  0.00     0.037 A 
BRANCH  44  58
ATOM     58  C   UNL A   1      46.445  32.719  28.163  1.00  0.00     0.058 A 
ATOM     59  C   UNL A   1      46.989  33.202  29.362  1.00  0.00     0.135 A 
ATOM     60  C   UNL A   1      46.292  33.623  27.099  1.00  0.00     0.135 A 
ATOM     61  F   UNL A   1      47.136  32.384  30.415  1.00  0.00    -0.206 F 
ATOM     62  C   UNL A   1      47.361  34.536  29.503  1.00  0.00     0.059 A 
ATOM     63  C   UNL A   1      46.673  34.956  27.211  1.00  0.00     0.059 A 
ATOM     64  F   UNL A   1      45.770  33.210  25.933  1.00  0.00    -0.206 F 
ATOM     65  C   UNL A   1      47.199  35.405  28.422  1.00  0.00     0.060 A 
BRANCH  65  66
ATOM     66  S   UNL A   1      47.712  37.128  28.604  1.00  0.00     0.124 S 
ATOM     67  O   UNL A   1      48.480  37.072  29.844  1.00  0.00    -0.237 OA
ATOM     68  O   UNL A   1      48.487  37.358  27.389  1.00  0.00    -0.237 OA
ATOM     69  O   UNL A   1      46.446  37.851  28.681  1.00  0.00    -0.744 OA
ENDBRANCH  65  66
ENDBRANCH  44  58
BRANCH  45  70
ATOM     70  C   UNL A   1      43.627  23.213  26.846  1.00  0.00     0.058 A 
ATOM     71  C   UNL A   1      43.265  22.367  27.902  1.00  0.00     0.135 A 
ATOM     72  C   UNL A   1      43.580  22.695  25.543  1.00  0.00     0.135 A 
ATOM     73  F   UNL A   1      43.299  22.818  29.166  1.00  0.00    -0.206 F 
ATOM     74  C   UNL A   1      42.891  21.045  27.680  1.00  0.00     0.059 A 
ATOM     75  C   UNL A   1      43.187  21.385  25.293  1.00  0.00     0.059 A 
ATOM     76  F   UNL A   1      43.900  23.473  24.497  1.00  0.00    -0.206 F 
ATOM     77  C   UNL A   1      42.860  20.562  26.370  1.00  0.00     0.060 A 
BRANCH  77  78
ATOM     78  S   UNL A   1      42.342  18.857  26.072  1.00  0.00     0.124 S 
ATOM     79  O   UNL A   1      42.603  18.244  27.369  1.00  0.00    -0.237 OA
ATOM     80  O   UNL A   1      40.937  19.013  25.711  1.00  0.00    -0.237 OA
ATOM     81  O   UNL A   1      43.217  18.434  24.983  1.00  0.00    -0.744 OA
ENDBRANCH  77  78
ENDBRANCH  45  70
BRANCH  57  82
ATOM     82  C   UNL A   1      49.703  26.562  26.328  1.00  0.00     0.058 A 
ATOM     83  C   UNL A   1      50.532  25.960  27.285  1.00  0.00     0.135 A 
ATOM     84  C   UNL A   1      50.188  26.691  25.017  1.00  0.00     0.135 A 
ATOM     85  F   UNL A   1      50.110  25.821  28.552  1.00  0.00    -0.206 F 
ATOM     86  C   UNL A   1      51.810  25.523  26.961  1.00  0.00     0.059 A 
ATOM     87  C   UNL A   1      51.457  26.245  24.667  1.00  0.00     0.059 A 
ATOM     88  F   UNL A   1      49.426  27.254  24.066  1.00  0.00    -0.206 F 
ATOM     89  C   UNL A   1      52.267  25.675  25.649  1.00  0.00     0.060 A 
BRANCH  89  90
ATOM     90  S   UNL A   1      53.921  25.090  25.228  1.00  0.00     0.124 S 
ATOM     91  O   UNL A   1      54.228  25.900  24.054  1.00  0.00    -0.237 OA
ATOM     92  O   UNL A   1      54.687  25.402  26.431  1.00  0.00    -0.237 OA
ATOM     93  O   UNL A   1      53.719  23.666  24.976  1.00  0.00    -0.744 OA
ENDBRANCH  89  90
ENDBRANCH  57  82
ENDBRANCH  31  32
ENDBRANCH  24  26
ENDBRANCH  23  24
ENDBRANCH   1  23
TORSDOF 16
ENDMDL
MODEL 3
REMARK VINA RESULT:     -10.9      5.058     10.658
REMARK SMILES CC(C)N1C(=O)C[C@@H]([N@@H+]2CC[C@H](C(=O)OCCOC(=O)c3ccc(-c4c5nc(c(-c6c(F)cc(S(=O)(=O)[O-])cc6F)c6ccc([nH]6)c(-c6c(F)cc(S(=O)(=O)[O-])cc6F)c6nc(c(-c7c(F)cc(S(=O)(=O)[O-])cc7F)c7ccc4[nH]7)C=C6)C=C5)cc3)[C@@H]2C)C1=O
REMARK SMILES IDX 17 1 16 2 15 3 13 4 14 5 12 6 9 7 10 8 87 9 11 11 88 12 8 13
REMARK SMILES IDX 4 14 5 15 89 16 6 17 7 18 90 19 2 20 1 21 3 22 18 23 19 24
REMARK SMILES IDX 20 25 21 26 22 27 86 28 23 29 85 30 24 31 25 32 26 33 79 34
REMARK SMILES IDX 27 35 84 36 78 37 80 38 28 39 83 40 77 41 76 42 29 44 63 45
REMARK SMILES IDX 42 46 62 47 43 48 46 49 61 50 81 51 44 52 45 53 60 55 82 56
REMARK SMILES IDX 47 57 30 58 31 59 40 60 32 61 33 62 39 63 41 64 34 65 35 66
REMARK SMILES IDX 36 67 37 68 38 69 64 70 65 71 74 72 66 73 67 74 73 75 75 76
REMARK SMILES IDX 68 77 69 78 70 79 71 80 72 81 48 82 49 83 58 84 50 85 51 86
REMARK SMILES IDX 57 87 59 88 52 89 53 90 54 91 55 92 56 93
REMARK H PARENT 9 10 80 43 46 54
REMARK Flexibility Score: inf
ROOT
ATOM      1  C   UNL A   1      39.081  22.964  26.512  1.00  0.00     0.275 C 
ENDROOT
BRANCH   1   2
ATOM      2  C   UNL A   1      38.134  22.360  25.473  1.00  0.00     0.274 C 
BRANCH   2   3
ATOM      3  O   UNL A   1      36.765  22.296  25.930  1.00  0.00    -0.462 OA
BRANCH   3   4
ATOM      4  C   UNL A   1      36.028  21.263  25.450  1.00  0.00     0.315 C 
ATOM      5  O   UNL A   1      36.502  20.186  25.099  1.00  0.00    -0.252 OA
BRANCH   4   6
ATOM      6  C   UNL A   1      34.537  21.536  25.378  1.00  0.00     0.162 C 
ATOM      7  N   UNL A   1      33.518  23.690  25.092  1.00  0.00    -0.321 N 
ATOM      8  C   UNL A   1      33.701  23.487  26.524  1.00  0.00     0.264 C 
ATOM      9  C   UNL A   1      34.025  22.540  24.339  1.00  0.00     0.196 C 
ATOM     10  H   UNL A   1      32.523  23.672  24.865  1.00  0.00     0.349 HD
ATOM     11  C   UNL A   1      33.937  22.007  26.694  1.00  0.00     0.083 C 
ATOM     12  C   UNL A   1      34.912  22.778  23.120  1.00  0.00     0.076 C 
BRANCH   7  13
ATOM     13  C   UNL A   1      33.726  25.056  24.613  1.00  0.00     0.284 C 
ATOM     14  N   UNL A   1      31.977  26.633  24.427  1.00  0.00    -0.275 N 
ATOM     15  C   UNL A   1      32.776  27.085  25.440  1.00  0.00     0.236 C 
ATOM     16  C   UNL A   1      32.503  25.522  23.824  1.00  0.00     0.288 C 
ATOM     17  O   UNL A   1      32.636  28.127  26.067  1.00  0.00    -0.274 OA
ATOM     18  C   UNL A   1      33.900  26.127  25.682  1.00  0.00     0.176 C 
ATOM     19  O   UNL A   1      32.095  24.968  22.811  1.00  0.00    -0.267 OA
BRANCH  14  20
ATOM     20  C   UNL A   1      30.720  27.310  24.083  1.00  0.00     0.087 C 
ATOM     21  C   UNL A   1      30.652  27.898  22.673  1.00  0.00     0.031 C 
ATOM     22  C   UNL A   1      29.531  26.364  24.293  1.00  0.00     0.031 C 
ENDBRANCH  14  20
ENDBRANCH   7  13
ENDBRANCH   4   6
ENDBRANCH   3   4
ENDBRANCH   2   3
ENDBRANCH   1   2
BRANCH   1  23
ATOM     23  O   UNL A   1      38.920  24.388  26.617  1.00  0.00    -0.458 OA
BRANCH  23  24
ATOM     24  C   UNL A   1      40.073  25.080  26.515  1.00  0.00     0.338 C 
ATOM     25  O   UNL A   1      40.794  25.174  25.529  1.00  0.00    -0.246 OA
BRANCH  24  26
ATOM     26  C   UNL A   1      40.331  25.842  27.742  1.00  0.00     0.060 A 
ATOM     27  C   UNL A   1      39.368  25.775  28.747  1.00  0.00     0.016 A 
ATOM     28  C   UNL A   1      41.382  26.752  27.830  1.00  0.00     0.016 A 
ATOM     29  C   UNL A   1      39.361  26.710  29.769  1.00  0.00     0.010 A 
ATOM     30  C   UNL A   1      41.427  27.637  28.915  1.00  0.00     0.010 A 
ATOM     31  C   UNL A   1      40.386  27.658  29.863  1.00  0.00    -0.014 A 
BRANCH  31  32
ATOM     32  C   UNL A   1      40.310  28.694  30.925  1.00  0.00     0.031 A 
ATOM     33  C   UNL A   1      41.273  28.658  32.082  1.00  0.00     0.074 A 
ATOM     34  C   UNL A   1      39.421  29.701  30.816  1.00  0.00     0.049 A 
ATOM     35  N   UNL A   1      41.303  29.408  33.153  1.00  0.00    -0.248 NA
ATOM     36  C   UNL A   1      42.339  27.642  32.035  1.00  0.00     0.031 C 
ATOM     37  C   UNL A   1      38.461  29.868  29.720  1.00  0.00     0.029 A 
ATOM     38  N   UNL A   1      39.188  30.782  31.625  1.00  0.00    -0.354 N 
ATOM     39  C   UNL A   1      42.344  28.917  33.933  1.00  0.00     0.074 A 
ATOM     40  C   UNL A   1      42.933  27.812  33.208  1.00  0.00     0.031 C 
ATOM     41  C   UNL A   1      37.767  31.001  29.911  1.00  0.00     0.029 A 
ATOM     42  C   UNL A   1      38.183  31.603  31.171  1.00  0.00     0.049 A 
ATOM     43  H   UNL A   1      39.692  30.954  32.453  1.00  0.00     0.167 HD
ATOM     44  C   UNL A   1      42.764  29.350  35.146  1.00  0.00     0.037 A 
ATOM     45  C   UNL A   1      37.638  32.703  31.723  1.00  0.00     0.037 A 
ATOM     46  C   UNL A   1      42.218  30.493  35.828  1.00  0.00     0.049 A 
ATOM     47  C   UNL A   1      38.153  33.187  33.048  1.00  0.00     0.074 A 
ATOM     48  C   UNL A   1      42.574  31.013  37.061  1.00  0.00     0.029 A 
ATOM     49  N   UNL A   1      41.220  31.311  35.321  1.00  0.00    -0.354 N 
ATOM     50  N   UNL A   1      39.100  32.675  33.797  1.00  0.00    -0.248 NA
ATOM     51  C   UNL A   1      37.525  34.391  33.607  1.00  0.00     0.031 C 
ATOM     52  C   UNL A   1      41.782  32.141  37.304  1.00  0.00     0.029 A 
ATOM     53  C   UNL A   1      40.952  32.336  36.213  1.00  0.00     0.049 A 
ATOM     54  H   UNL A   1      40.769  31.183  34.456  1.00  0.00     0.167 HD
ATOM     55  C   UNL A   1      39.185  33.497  34.914  1.00  0.00     0.074 A 
ATOM     56  C   UNL A   1      38.210  34.553  34.731  1.00  0.00     0.031 C 
ATOM     57  C   UNL A   1      39.990  33.384  35.997  1.00  0.00     0.037 A 
BRANCH  44  58
ATOM     58  C   UNL A   1      43.846  28.568  35.831  1.00  0.00     0.058 A 
ATOM     59  C   UNL A   1      43.561  27.481  36.671  1.00  0.00     0.135 A 
ATOM     60  C   UNL A   1      45.196  28.879  35.596  1.00  0.00     0.135 A 
ATOM     61  F   UNL A   1      42.288  27.156  36.946  1.00  0.00    -0.206 F 
ATOM     62  C   UNL A   1      44.576  26.736  37.263  1.00  0.00     0.059 A 
ATOM     63  C   UNL A   1      46.227  28.137  36.162  1.00  0.00     0.059 A 
ATOM     64  F   UNL A   1      45.521  29.914  34.804  1.00  0.00    -0.206 F 
ATOM     65  C   UNL A   1      45.906  27.071  37.001  1.00  0.00     0.060 A 
BRANCH  65  66
ATOM     66  S   UNL A   1      47.219  26.080  37.750  1.00  0.00     0.124 S 
ATOM     67  O   UNL A   1      48.339  26.363  36.857  1.00  0.00    -0.237 OA
ATOM     68  O   UNL A   1      47.319  26.649  39.090  1.00  0.00    -0.237 OA
ATOM     69  O   UNL A   1      46.693  24.721  37.688  1.00  0.00    -0.744 OA
ENDBRANCH  65  66
ENDBRANCH  44  58
BRANCH  45  70
ATOM     70  C   UNL A   1      36.514  33.398  31.042  1.00  0.00     0.058 A 
ATOM     71  C   UNL A   1      36.724  34.159  29.884  1.00  0.00     0.135 A 
ATOM     72  C   UNL A   1      35.206  33.311  31.542  1.00  0.00     0.135 A 
ATOM     73  F   UNL A   1      37.959  34.274  29.373  1.00  0.00    -0.206 F 
ATOM     74  C   UNL A   1      35.680  34.829  29.255  1.00  0.00     0.059 A 
ATOM     75  C   UNL A   1      34.142  33.952  30.917  1.00  0.00     0.059 A 
ATOM     76  F   UNL A   1      34.951  32.579  32.638  1.00  0.00    -0.206 F 
ATOM     77  C   UNL A   1      34.391  34.722  29.783  1.00  0.00     0.060 A 
BRANCH  77  78
ATOM     78  S   UNL A   1      33.026  35.561  28.950  1.00  0.00     0.124 S 
ATOM     79  O   UNL A   1      32.241  36.034  30.084  1.00  0.00    -0.237 OA
ATOM     80  O   UNL A   1      33.714  36.591  28.177  1.00  0.00    -0.237 OA
ATOM     81  O   UNL A   1      32.420  34.496  28.157  1.00  0.00    -0.744 OA
ENDBRANCH  77  78
ENDBRANCH  45  70
BRANCH  57  82
ATOM     82  C   UNL A   1      39.869  34.450  37.046  1.00  0.00     0.058 A 
ATOM     83  C   UNL A   1      39.014  34.298  38.147  1.00  0.00     0.135 A 
ATOM     84  C   UNL A   1      40.639  35.619  36.960  1.00  0.00     0.135 A 
ATOM     85  F   UNL A   1      38.255  33.197  38.266  1.00  0.00    -0.206 F 
ATOM     86  C   UNL A   1      38.906  35.285  39.119  1.00  0.00     0.059 A 
ATOM     87  C   UNL A   1      40.560  36.612  37.930  1.00  0.00     0.059 A 
ATOM     88  F   UNL A   1      41.476  35.805  35.927  1.00  0.00    -0.206 F 
ATOM     89  C   UNL A   1      39.680  36.442  38.999  1.00  0.00     0.060 A 
BRANCH  89  90
ATOM     90  S   UNL A   1      39.551  37.714  40.273  1.00  0.00     0.124 S 
ATOM     91  O   UNL A   1      39.016  36.951  41.396  1.00  0.00    -0.237 OA
ATOM     92  O   UNL A   1      40.931  38.167  40.414  1.00  0.00    -0.237 OA
ATOM     93  O   UNL A   1      38.638  38.688  39.682  1.00  0.00    -0.744 OA
ENDBRANCH  89  90
ENDBRANCH  57  82
ENDBRANCH  31  32
ENDBRANCH  24  26
ENDBRANCH  23  24
ENDBRANCH   1  23
TORSDOF 16
ENDMDL
