MODEL 1
REMARK VINA RESULT:     -11.7      0.000      0.000
REMARK SMILES O=C(OCCOC(=O)c1cc(S[C@H]2CCOC3(CCC3)C2)ccn1)c1ccc(-c2c3nc(c(-c4c(F)cc(S(=O)(=O)[O-])cc4F)c4ccc([nH]4)c(-c4c(F)cc(S(=O)(=O)[O-])cc4F)c4nc(c(-c5c(F)cc(S(=O)(=O)[O-])cc5F)c5ccc2[nH]5)C=C4)C=C3)cc1
REMARK SMILES IDX 4 1 3 2 2 3 1 4 25 5 26 6 90 7 27 8 89 9 28 10 29 11 30 12
REMARK SMILES IDX 83 13 31 14 88 15 82 16 84 17 32 18 87 19 81 20 80 21 33 23
REMARK SMILES IDX 67 24 46 25 66 26 47 27 50 28 65 29 85 30 48 31 49 32 64 34
REMARK SMILES IDX 86 35 51 36 34 37 35 38 44 39 36 40 37 41 43 42 45 43 38 44
REMARK SMILES IDX 39 45 40 46 41 47 42 48 68 49 69 50 78 51 70 52 71 53 77 54
REMARK SMILES IDX 79 55 72 56 73 57 74 58 75 59 76 60 52 61 53 62 62 63 54 64
REMARK SMILES IDX 55 65 61 66 63 67 56 68 57 69 58 70 59 71 60 72 5 73 6 74
REMARK SMILES IDX 7 75 8 76 9 77 10 78 24 79 11 80 23 81 22 82 12 83 13 84
REMARK SMILES IDX 14 85 21 86 15 87 17 88 16 89 18 90 20 91 19 92
REMARK H PARENT 84 22 50 33
REMARK Flexibility Score: inf
ROOT
ATOM      1  C   UNL A   1      42.709  23.120  25.518  1.00  0.00     0.275 C 
ENDROOT
BRANCH   1   2
ATOM      2  O   UNL A   1      41.675  23.948  26.075  1.00  0.00    -0.458 OA
BRANCH   2   3
ATOM      3  C   UNL A   1      41.539  25.293  26.130  1.00  0.00     0.338 C 
ATOM      4  O   UNL A   1      41.649  25.913  25.072  1.00  0.00    -0.246 OA
BRANCH   3   5
ATOM      5  C   UNL A   1      41.294  26.100  27.382  1.00  0.00     0.060 A 
ATOM      6  C   UNL A   1      40.362  25.841  28.391  1.00  0.00     0.016 A 
ATOM      7  C   UNL A   1      42.104  27.245  27.542  1.00  0.00     0.016 A 
ATOM      8  C   UNL A   1      40.233  26.686  29.506  1.00  0.00     0.010 A 
ATOM      9  C   UNL A   1      41.985  28.092  28.654  1.00  0.00     0.010 A 
ATOM     10  C   UNL A   1      41.035  27.823  29.640  1.00  0.00    -0.014 A 
BRANCH  10  11
ATOM     11  C   UNL A   1      40.829  28.740  30.790  1.00  0.00     0.031 A 
ATOM     12  C   UNL A   1      41.789  28.705  31.924  1.00  0.00     0.074 A 
ATOM     13  C   UNL A   1      39.766  29.566  30.831  1.00  0.00     0.049 A 
ATOM     14  N   UNL A   1      41.834  29.485  32.966  1.00  0.00    -0.248 NA
ATOM     15  C   UNL A   1      42.789  27.627  31.918  1.00  0.00     0.031 C 
ATOM     16  C   UNL A   1      38.712  29.521  29.841  1.00  0.00     0.029 A 
ATOM     17  N   UNL A   1      39.364  30.568  31.681  1.00  0.00    -0.354 N 
ATOM     18  C   UNL A   1      42.813  28.947  33.783  1.00  0.00     0.074 A 
ATOM     19  C   UNL A   1      43.369  27.801  33.096  1.00  0.00     0.031 C 
ATOM     20  C   UNL A   1      37.810  30.477  30.095  1.00  0.00     0.029 A 
ATOM     21  C   UNL A   1      38.234  31.246  31.249  1.00  0.00     0.049 A 
ATOM     22  H   UNL A   1      39.833  30.783  32.520  1.00  0.00     0.167 HD
ATOM     23  C   UNL A   1      43.163  29.360  35.020  1.00  0.00     0.037 A 
ATOM     24  C   UNL A   1      37.656  32.385  31.696  1.00  0.00     0.037 A 
ATOM     25  C   UNL A   1      42.573  30.497  35.675  1.00  0.00     0.049 A 
ATOM     26  C   UNL A   1      38.257  32.970  32.949  1.00  0.00     0.074 A 
ATOM     27  C   UNL A   1      42.859  31.014  36.924  1.00  0.00     0.029 A 
ATOM     28  N   UNL A   1      41.565  31.286  35.134  1.00  0.00    -0.354 N 
ATOM     29  N   UNL A   1      39.311  32.558  33.614  1.00  0.00    -0.248 NA
ATOM     30  C   UNL A   1      37.594  34.143  33.532  1.00  0.00     0.031 C 
ATOM     31  C   UNL A   1      41.996  32.091  37.155  1.00  0.00     0.029 A 
ATOM     32  C   UNL A   1      41.203  32.275  36.033  1.00  0.00     0.049 A 
ATOM     33  H   UNL A   1      41.167  31.162  34.242  1.00  0.00     0.167 HD
ATOM     34  C   UNL A   1      39.407  33.392  34.715  1.00  0.00     0.074 A 
ATOM     35  C   UNL A   1      38.394  34.416  34.552  1.00  0.00     0.031 C 
ATOM     36  C   UNL A   1      40.196  33.279  35.811  1.00  0.00     0.037 A 
BRANCH  23  37
ATOM     37  C   UNL A   1      44.170  28.534  35.758  1.00  0.00     0.058 A 
ATOM     38  C   UNL A   1      43.792  27.465  36.583  1.00  0.00     0.135 A 
ATOM     39  C   UNL A   1      45.539  28.815  35.623  1.00  0.00     0.135 A 
ATOM     40  F   UNL A   1      42.493  27.187  36.779  1.00  0.00    -0.206 F 
ATOM     41  C   UNL A   1      44.740  26.697  37.248  1.00  0.00     0.059 A 
ATOM     42  C   UNL A   1      46.506  28.045  36.259  1.00  0.00     0.059 A 
ATOM     43  F   UNL A   1      45.947  29.847  34.867  1.00  0.00    -0.206 F 
ATOM     44  C   UNL A   1      46.096  26.989  37.071  1.00  0.00     0.060 A 
BRANCH  44  45
ATOM     45  S   UNL A   1      47.314  25.943  37.892  1.00  0.00     0.124 S 
ATOM     46  O   UNL A   1      46.572  25.499  39.069  1.00  0.00    -0.237 OA
ATOM     47  O   UNL A   1      47.569  24.919  36.883  1.00  0.00    -0.237 OA
ATOM     48  O   UNL A   1      48.423  26.853  38.153  1.00  0.00    -0.744 OA
ENDBRANCH  44  45
ENDBRANCH  23  37
BRANCH  24  49
ATOM     49  C   UNL A   1      36.571  33.108  30.936  1.00  0.00     0.058 A 
ATOM     50  C   UNL A   1      35.246  33.110  31.419  1.00  0.00     0.135 A 
ATOM     51  C   UNL A   1      36.790  33.837  29.755  1.00  0.00     0.135 A 
ATOM     52  F   UNL A   1      34.934  32.394  32.510  1.00  0.00    -0.206 F 
ATOM     53  C   UNL A   1      34.210  33.806  30.801  1.00  0.00     0.059 A 
ATOM     54  C   UNL A   1      35.777  34.574  29.131  1.00  0.00     0.059 A 
ATOM     55  F   UNL A   1      38.007  33.857  29.190  1.00  0.00    -0.206 F 
ATOM     56  C   UNL A   1      34.487  34.548  29.659  1.00  0.00     0.060 A 
BRANCH  56  57
ATOM     57  S   UNL A   1      33.142  35.472  28.885  1.00  0.00     0.124 S 
ATOM     58  O   UNL A   1      32.402  35.945  30.049  1.00  0.00    -0.237 OA
ATOM     59  O   UNL A   1      33.863  36.493  28.132  1.00  0.00    -0.237 OA
ATOM     60  O   UNL A   1      32.463  34.465  28.075  1.00  0.00    -0.744 OA
ENDBRANCH  56  57
ENDBRANCH  24  49
BRANCH  36  61
ATOM     61  C   UNL A   1      39.928  34.257  36.915  1.00  0.00     0.058 A 
ATOM     62  C   UNL A   1      40.548  35.518  36.918  1.00  0.00     0.135 A 
ATOM     63  C   UNL A   1      39.040  33.951  37.953  1.00  0.00     0.135 A 
ATOM     64  F   UNL A   1      41.415  35.850  35.947  1.00  0.00    -0.206 F 
ATOM     65  C   UNL A   1      40.323  36.431  37.937  1.00  0.00     0.059 A 
ATOM     66  C   UNL A   1      38.774  34.865  38.967  1.00  0.00     0.059 A 
ATOM     67  F   UNL A   1      38.418  32.762  37.986  1.00  0.00    -0.206 F 
ATOM     68  C   UNL A   1      39.433  36.094  38.957  1.00  0.00     0.060 A 
BRANCH  68  69
ATOM     69  S   UNL A   1      39.129  37.305  40.258  1.00  0.00     0.124 S 
ATOM     70  O   UNL A   1      38.450  36.490  41.261  1.00  0.00    -0.237 OA
ATOM     71  O   UNL A   1      40.478  37.739  40.601  1.00  0.00    -0.237 OA
ATOM     72  O   UNL A   1      38.300  38.309  39.598  1.00  0.00    -0.744 OA
ENDBRANCH  68  69
ENDBRANCH  36  61
ENDBRANCH  10  11
ENDBRANCH   3   5
ENDBRANCH   2   3
ENDBRANCH   1   2
BRANCH   1  73
ATOM     73  C   UNL A   1      42.797  21.748  26.187  1.00  0.00     0.275 C 
BRANCH  73  74
ATOM     74  O   UNL A   1      41.788  20.844  25.722  1.00  0.00    -0.457 OA
BRANCH  74  75
ATOM     75  C   UNL A   1      40.822  20.516  26.634  1.00  0.00     0.357 C 
ATOM     76  O   UNL A   1      40.994  20.161  27.778  1.00  0.00    -0.244 OA
BRANCH  75  77
ATOM     77  C   UNL A   1      39.509  20.701  25.962  1.00  0.00     0.149 A 
ATOM     78  C   UNL A   1      38.887  21.936  26.064  1.00  0.00     0.051 A 
ATOM     79  N   UNL A   1      38.978  19.632  25.325  1.00  0.00    -0.249 NA
ATOM     80  C   UNL A   1      37.621  22.096  25.527  1.00  0.00     0.011 A 
ATOM     81  C   UNL A   1      37.771  19.823  24.756  1.00  0.00     0.113 A 
ATOM     82  C   UNL A   1      37.077  21.029  24.806  1.00  0.00     0.035 A 
BRANCH  80  83
ATOM     83  S   UNL A   1      36.725  23.635  25.723  1.00  0.00    -0.122 SA
BRANCH  83  84
ATOM     84  C   UNL A   1      34.941  23.092  25.943  1.00  0.00     0.057 C 
ATOM     85  C   UNL A   1      34.804  22.374  27.285  1.00  0.00     0.043 C 
ATOM     86  C   UNL A   1      33.992  24.315  25.910  1.00  0.00     0.050 C 
ATOM     87  C   UNL A   1      33.357  22.006  27.539  1.00  0.00     0.162 C 
ATOM     88  C   UNL A   1      32.559  23.962  26.348  1.00  0.00     0.069 C 
ATOM     89  O   UNL A   1      32.588  23.192  27.576  1.00  0.00    -0.375 OA
ATOM     90  C   UNL A   1      31.612  25.200  26.456  1.00  0.00     0.035 C 
ATOM     91  C   UNL A   1      31.550  23.442  25.265  1.00  0.00     0.035 C 
ATOM     92  C   UNL A   1      30.469  24.290  25.972  1.00  0.00     0.006 C 
ENDBRANCH  83  84
ENDBRANCH  80  83
ENDBRANCH  75  77
ENDBRANCH  74  75
ENDBRANCH  73  74
ENDBRANCH   1  73
TORSDOF 16
ENDMDL
MODEL 2
REMARK VINA RESULT:     -11.6      1.408      2.405
REMARK SMILES O=C(OCCOC(=O)c1cc(S[C@H]2CCOC3(CCC3)C2)ccn1)c1ccc(-c2c3nc(c(-c4c(F)cc(S(=O)(=O)[O-])cc4F)c4ccc([nH]4)c(-c4c(F)cc(S(=O)(=O)[O-])cc4F)c4nc(c(-c5c(F)cc(S(=O)(=O)[O-])cc5F)c5ccc2[nH]5)C=C4)C=C3)cc1
REMARK SMILES IDX 4 1 3 2 2 3 1 4 25 5 26 6 90 7 27 8 89 9 28 10 29 11 30 12
REMARK SMILES IDX 83 13 31 14 88 15 82 16 84 17 32 18 87 19 81 20 80 21 33 23
REMARK SMILES IDX 67 24 46 25 66 26 47 27 50 28 65 29 85 30 48 31 49 32 64 34
REMARK SMILES IDX 86 35 51 36 34 37 35 38 44 39 36 40 37 41 43 42 45 43 38 44
REMARK SMILES IDX 39 45 40 46 41 47 42 48 68 49 69 50 78 51 70 52 71 53 77 54
REMARK SMILES IDX 79 55 72 56 73 57 74 58 75 59 76 60 52 61 53 62 62 63 54 64
REMARK SMILES IDX 55 65 61 66 63 67 56 68 57 69 58 70 59 71 60 72 5 73 6 74
REMARK SMILES IDX 7 75 8 76 9 77 10 78 24 79 11 80 23 81 22 82 12 83 13 84
REMARK SMILES IDX 14 85 21 86 15 87 17 88 16 89 18 90 20 91 19 92
REMARK H PARENT 84 22 50 33
REMARK Flexibility Score: inf
ROOT
ATOM      1  C   UNL A   1      41.345  22.583  26.133  1.00  0.00     0.275 C 
ENDROOT
BRANCH   1   2
ATOM      2  O   UNL A   1      41.915  23.891  26.296  1.00  0.00    -0.458 OA
BRANCH   2   3
ATOM      3  C   UNL A   1      41.346  25.119  26.311  1.00  0.00     0.338 C 
ATOM      4  O   UNL A   1      41.022  25.602  25.225  1.00  0.00    -0.246 OA
BRANCH   3   5
ATOM      5  C   UNL A   1      41.105  25.960  27.541  1.00  0.00     0.060 A 
ATOM      6  C   UNL A   1      40.081  25.815  28.482  1.00  0.00     0.016 A 
ATOM      7  C   UNL A   1      42.024  27.009  27.758  1.00  0.00     0.016 A 
ATOM      8  C   UNL A   1      39.968  26.679  29.583  1.00  0.00     0.010 A 
ATOM      9  C   UNL A   1      41.922  27.874  28.857  1.00  0.00     0.010 A 
ATOM     10  C   UNL A   1      40.880  27.721  29.773  1.00  0.00    -0.014 A 
BRANCH  10  11
ATOM     11  C   UNL A   1      40.697  28.666  30.904  1.00  0.00     0.031 A 
ATOM     12  C   UNL A   1      41.661  28.636  32.035  1.00  0.00     0.074 A 
ATOM     13  C   UNL A   1      39.650  29.512  30.932  1.00  0.00     0.049 A 
ATOM     14  N   UNL A   1      41.726  29.436  33.060  1.00  0.00    -0.248 NA
ATOM     15  C   UNL A   1      42.641  27.539  32.047  1.00  0.00     0.031 C 
ATOM     16  C   UNL A   1      38.591  29.467  29.948  1.00  0.00     0.029 A 
ATOM     17  N   UNL A   1      39.271  30.539  31.763  1.00  0.00    -0.354 N 
ATOM     18  C   UNL A   1      42.697  28.897  33.885  1.00  0.00     0.074 A 
ATOM     19  C   UNL A   1      43.228  27.726  33.220  1.00  0.00     0.031 C 
ATOM     20  C   UNL A   1      37.709  30.446  30.185  1.00  0.00     0.029 A 
ATOM     21  C   UNL A   1      38.153  31.230  31.321  1.00  0.00     0.049 A 
ATOM     22  H   UNL A   1      39.748  30.763  32.596  1.00  0.00     0.167 HD
ATOM     23  C   UNL A   1      43.060  29.328  35.111  1.00  0.00     0.037 A 
ATOM     24  C   UNL A   1      37.598  32.389  31.747  1.00  0.00     0.037 A 
ATOM     25  C   UNL A   1      42.495  30.490  35.745  1.00  0.00     0.049 A 
ATOM     26  C   UNL A   1      38.215  32.988  32.985  1.00  0.00     0.074 A 
ATOM     27  C   UNL A   1      42.796  31.028  36.981  1.00  0.00     0.029 A 
ATOM     28  N   UNL A   1      41.501  31.287  35.191  1.00  0.00    -0.354 N 
ATOM     29  N   UNL A   1      39.264  32.570  33.655  1.00  0.00    -0.248 NA
ATOM     30  C   UNL A   1      37.577  34.185  33.546  1.00  0.00     0.031 C 
ATOM     31  C   UNL A   1      41.956  32.125  37.193  1.00  0.00     0.029 A 
ATOM     32  C   UNL A   1      41.162  32.301  36.071  1.00  0.00     0.049 A 
ATOM     33  H   UNL A   1      41.096  31.152  34.304  1.00  0.00     0.167 HD
ATOM     34  C   UNL A   1      39.381  33.425  34.738  1.00  0.00     0.074 A 
ATOM     35  C   UNL A   1      38.387  34.464  34.557  1.00  0.00     0.031 C 
ATOM     36  C   UNL A   1      40.173  33.319  35.832  1.00  0.00     0.037 A 
BRANCH  23  37
ATOM     37  C   UNL A   1      44.055  28.499  35.862  1.00  0.00     0.058 A 
ATOM     38  C   UNL A   1      45.434  28.733  35.774  1.00  0.00     0.135 A 
ATOM     39  C   UNL A   1      43.612  27.460  36.695  1.00  0.00     0.135 A 
ATOM     40  F   UNL A   1      45.908  29.687  34.956  1.00  0.00    -0.206 F 
ATOM     41  C   UNL A   1      46.344  27.966  36.492  1.00  0.00     0.059 A 
ATOM     42  C   UNL A   1      44.501  26.695  37.441  1.00  0.00     0.059 A 
ATOM     43  F   UNL A   1      42.302  27.179  36.789  1.00  0.00    -0.206 F 
ATOM     44  C   UNL A   1      45.866  26.956  37.331  1.00  0.00     0.060 A 
BRANCH  44  45
ATOM     45  S   UNL A   1      47.057  26.011  38.302  1.00  0.00     0.124 S 
ATOM     46  O   UNL A   1      47.065  26.755  39.558  1.00  0.00    -0.237 OA
ATOM     47  O   UNL A   1      46.435  24.691  38.352  1.00  0.00    -0.237 OA
ATOM     48  O   UNL A   1      48.281  26.095  37.513  1.00  0.00    -0.744 OA
ENDBRANCH  44  45
ENDBRANCH  23  37
BRANCH  24  49
ATOM     49  C   UNL A   1      36.523  33.116  30.976  1.00  0.00     0.058 A 
ATOM     50  C   UNL A   1      35.209  33.185  31.482  1.00  0.00     0.135 A 
ATOM     51  C   UNL A   1      36.744  33.787  29.762  1.00  0.00     0.135 A 
ATOM     52  F   UNL A   1      34.894  32.527  32.608  1.00  0.00    -0.206 F 
ATOM     53  C   UNL A   1      34.186  33.889  30.854  1.00  0.00     0.059 A 
ATOM     54  C   UNL A   1      35.745  34.532  29.125  1.00  0.00     0.059 A 
ATOM     55  F   UNL A   1      37.951  33.741  29.174  1.00  0.00    -0.206 F 
ATOM     56  C   UNL A   1      34.466  34.573  29.676  1.00  0.00     0.060 A 
BRANCH  56  57
ATOM     57  S   UNL A   1      33.138  35.510  28.887  1.00  0.00     0.124 S 
ATOM     58  O   UNL A   1      32.449  34.467  28.136  1.00  0.00    -0.237 OA
ATOM     59  O   UNL A   1      32.417  36.049  30.036  1.00  0.00    -0.237 OA
ATOM     60  O   UNL A   1      33.853  36.497  28.084  1.00  0.00    -0.744 OA
ENDBRANCH  56  57
ENDBRANCH  24  49
BRANCH  36  61
ATOM     61  C   UNL A   1      39.928  34.325  36.917  1.00  0.00     0.058 A 
ATOM     62  C   UNL A   1      39.098  34.011  38.006  1.00  0.00     0.135 A 
ATOM     63  C   UNL A   1      40.537  35.586  36.886  1.00  0.00     0.135 A 
ATOM     64  F   UNL A   1      38.486  32.818  38.071  1.00  0.00    -0.206 F 
ATOM     65  C   UNL A   1      38.848  34.933  39.013  1.00  0.00     0.059 A 
ATOM     66  C   UNL A   1      40.328  36.511  37.902  1.00  0.00     0.059 A 
ATOM     67  F   UNL A   1      41.346  35.924  35.870  1.00  0.00    -0.206 F 
ATOM     68  C   UNL A   1      39.470  36.180  38.951  1.00  0.00     0.060 A 
BRANCH  68  69
ATOM     69  S   UNL A   1      39.160  37.354  40.283  1.00  0.00     0.124 S 
ATOM     70  O   UNL A   1      38.312  38.337  39.614  1.00  0.00    -0.237 OA
ATOM     71  O   UNL A   1      38.499  36.523  41.284  1.00  0.00    -0.237 OA
ATOM     72  O   UNL A   1      40.496  37.818  40.643  1.00  0.00    -0.744 OA
ENDBRANCH  68  69
ENDBRANCH  36  61
ENDBRANCH  10  11
ENDBRANCH   3   5
ENDBRANCH   2   3
ENDBRANCH   1   2
BRANCH   1  73
ATOM     73  C   UNL A   1      40.001  22.428  26.848  1.00  0.00     0.275 C 
BRANCH  73  74
ATOM     74  O   UNL A   1      38.915  22.221  25.938  1.00  0.00    -0.457 OA
BRANCH  74  75
ATOM     75  C   UNL A   1      37.893  23.127  26.021  1.00  0.00     0.357 C 
ATOM     76  O   UNL A   1      37.972  24.280  26.379  1.00  0.00    -0.244 OA
BRANCH  75  77
ATOM     77  C   UNL A   1      36.660  22.435  25.561  1.00  0.00     0.149 A 
ATOM     78  C   UNL A   1      35.494  23.176  25.448  1.00  0.00     0.051 A 
ATOM     79  N   UNL A   1      36.744  21.105  25.322  1.00  0.00    -0.249 NA
ATOM     80  C   UNL A   1      34.317  22.527  25.114  1.00  0.00     0.011 A 
ATOM     81  C   UNL A   1      35.601  20.501  24.941  1.00  0.00     0.113 A 
ATOM     82  C   UNL A   1      34.387  21.167  24.797  1.00  0.00     0.035 A 
BRANCH  80  83
ATOM     83  S   UNL A   1      32.761  23.413  25.060  1.00  0.00    -0.122 SA
BRANCH  83  84
ATOM     84  C   UNL A   1      33.269  25.220  25.086  1.00  0.00     0.057 C 
ATOM     85  C   UNL A   1      32.943  25.845  23.730  1.00  0.00     0.043 C 
ATOM     86  C   UNL A   1      32.515  25.981  26.203  1.00  0.00     0.050 C 
ATOM     87  C   UNL A   1      33.253  27.327  23.746  1.00  0.00     0.162 C 
ATOM     88  C   UNL A   1      32.691  27.508  26.099  1.00  0.00     0.069 C 
ATOM     89  O   UNL A   1      32.455  27.946  24.736  1.00  0.00    -0.375 OA
ATOM     90  C   UNL A   1      31.833  28.311  27.128  1.00  0.00     0.035 C 
ATOM     91  C   UNL A   1      33.927  28.170  26.801  1.00  0.00     0.035 C 
ATOM     92  C   UNL A   1      32.984  29.328  27.201  1.00  0.00     0.006 C 
ENDBRANCH  83  84
ENDBRANCH  80  83
ENDBRANCH  75  77
ENDBRANCH  74  75
ENDBRANCH  73  74
ENDBRANCH   1  73
TORSDOF 16
ENDMDL
MODEL 3
REMARK VINA RESULT:     -11.6      6.876     12.902
REMARK SMILES O=C(OCCOC(=O)c1cc(S[C@H]2CCOC3(CCC3)C2)ccn1)c1ccc(-c2c3nc(c(-c4c(F)cc(S(=O)(=O)[O-])cc4F)c4ccc([nH]4)c(-c4c(F)cc(S(=O)(=O)[O-])cc4F)c4nc(c(-c5c(F)cc(S(=O)(=O)[O-])cc5F)c5ccc2[nH]5)C=C4)C=C3)cc1
REMARK SMILES IDX 4 1 3 2 2 3 1 4 25 5 26 6 90 7 27 8 89 9 28 10 29 11 30 12
REMARK SMILES IDX 83 13 31 14 88 15 82 16 84 17 32 18 87 19 81 20 80 21 33 23
REMARK SMILES IDX 67 24 46 25 66 26 47 27 50 28 65 29 85 30 48 31 49 32 64 34
REMARK SMILES IDX 86 35 51 36 34 37 35 38 44 39 36 40 37 41 43 42 45 43 38 44
REMARK SMILES IDX 39 45 40 46 41 47 42 48 68 49 69 50 78 51 70 52 71 53 77 54
REMARK SMILES IDX 79 55 72 56 73 57 74 58 75 59 76 60 52 61 53 62 62 63 54 64
REMARK SMILES IDX 55 65 61 66 63 67 56 68 57 69 58 70 59 71 60 72 5 73 6 74
REMARK SMILES IDX 7 75 8 76 9 77 10 78 24 79 11 80 23 81 22 82 12 83 13 84
REMARK SMILES IDX 14 85 21 86 15 87 17 88 16 89 18 90 20 91 19 92
REMARK H PARENT 84 22 50 33
REMARK Flexibility Score: inf
ROOT
ATOM      1  C   UNL A   1      34.718  31.977  29.180  1.00  0.00     0.275 C 
ENDROOT
BRANCH   1   2
ATOM      2  O   UNL A   1      35.509  30.778  29.167  1.00  0.00    -0.458 OA
BRANCH   2   3
ATOM      3  C   UNL A   1      36.411  30.292  30.051  1.00  0.00     0.338 C 
ATOM      4  O   UNL A   1      36.059  30.216  31.229  1.00  0.00    -0.246 OA
BRANCH   3   5
ATOM      5  C   UNL A   1      37.821  29.865  29.722  1.00  0.00     0.060 A 
ATOM      6  C   UNL A   1      38.804  29.423  30.612  1.00  0.00     0.016 A 
ATOM      7  C   UNL A   1      38.177  29.924  28.358  1.00  0.00     0.016 A 
ATOM      8  C   UNL A   1      40.087  29.063  30.168  1.00  0.00     0.010 A 
ATOM      9  C   UNL A   1      39.454  29.563  27.905  1.00  0.00     0.010 A 
ATOM     10  C   UNL A   1      40.425  29.141  28.815  1.00  0.00    -0.014 A 
BRANCH  10  11
ATOM     11  C   UNL A   1      41.810  28.825  28.380  1.00  0.00     0.031 A 
ATOM     12  C   UNL A   1      42.863  29.866  28.505  1.00  0.00     0.074 A 
ATOM     13  C   UNL A   1      42.106  27.627  27.839  1.00  0.00     0.049 A 
ATOM     14  N   UNL A   1      44.139  29.753  28.271  1.00  0.00    -0.248 NA
ATOM     15  C   UNL A   1      42.423  31.216  28.888  1.00  0.00     0.031 C 
ATOM     16  C   UNL A   1      41.091  26.642  27.536  1.00  0.00     0.029 A 
ATOM     17  N   UNL A   1      43.272  27.017  27.442  1.00  0.00    -0.354 N 
ATOM     18  C   UNL A   1      44.648  31.034  28.396  1.00  0.00     0.074 A 
ATOM     19  C   UNL A   1      43.552  31.901  28.773  1.00  0.00     0.031 C 
ATOM     20  C   UNL A   1      41.664  25.532  27.054  1.00  0.00     0.029 A 
ATOM     21  C   UNL A   1      43.105  25.698  27.048  1.00  0.00     0.049 A 
ATOM     22  H   UNL A   1      44.144  27.475  27.437  1.00  0.00     0.167 HD
ATOM     23  C   UNL A   1      45.914  31.437  28.160  1.00  0.00     0.037 A 
ATOM     24  C   UNL A   1      44.011  24.730  26.778  1.00  0.00     0.037 A 
ATOM     25  C   UNL A   1      46.974  30.544  27.771  1.00  0.00     0.049 A 
ATOM     26  C   UNL A   1      45.453  25.168  26.788  1.00  0.00     0.074 A 
ATOM     27  C   UNL A   1      48.299  30.841  27.517  1.00  0.00     0.029 A 
ATOM     28  N   UNL A   1      46.821  29.178  27.568  1.00  0.00    -0.354 N 
ATOM     29  N   UNL A   1      45.942  26.347  27.098  1.00  0.00    -0.248 NA
ATOM     30  C   UNL A   1      46.463  24.179  26.394  1.00  0.00     0.031 C 
ATOM     31  C   UNL A   1      48.939  29.662  27.121  1.00  0.00     0.029 A 
ATOM     32  C   UNL A   1      48.024  28.621  27.171  1.00  0.00     0.049 A 
ATOM     33  H   UNL A   1      45.981  28.679  27.688  1.00  0.00     0.167 HD
ATOM     34  C   UNL A   1      47.308  26.250  26.890  1.00  0.00     0.074 A 
ATOM     35  C   UNL A   1      47.584  24.864  26.568  1.00  0.00     0.031 C 
ATOM     36  C   UNL A   1      48.245  27.229  26.877  1.00  0.00     0.037 A 
BRANCH  23  37
ATOM     37  C   UNL A   1      46.193  32.906  28.246  1.00  0.00     0.058 A 
ATOM     38  C   UNL A   1      46.635  33.509  29.432  1.00  0.00     0.135 A 
ATOM     39  C   UNL A   1      46.024  33.717  27.113  1.00  0.00     0.135 A 
ATOM     40  F   UNL A   1      46.769  32.783  30.553  1.00  0.00    -0.206 F 
ATOM     41  C   UNL A   1      46.907  34.871  29.490  1.00  0.00     0.059 A 
ATOM     42  C   UNL A   1      46.312  35.076  27.142  1.00  0.00     0.059 A 
ATOM     43  F   UNL A   1      45.574  33.189  25.963  1.00  0.00    -0.206 F 
ATOM     44  C   UNL A   1      46.752  35.644  28.336  1.00  0.00     0.060 A 
BRANCH  44  45
ATOM     45  S   UNL A   1      47.169  37.397  28.415  1.00  0.00     0.124 S 
ATOM     46  O   UNL A   1      46.703  37.748  29.754  1.00  0.00    -0.237 OA
ATOM     47  O   UNL A   1      48.617  37.377  28.234  1.00  0.00    -0.237 OA
ATOM     48  O   UNL A   1      46.409  37.977  27.313  1.00  0.00    -0.744 OA
ENDBRANCH  44  45
ENDBRANCH  23  37
BRANCH  24  49
ATOM     49  C   UNL A   1      43.635  23.278  26.607  1.00  0.00     0.058 A 
ATOM     50  C   UNL A   1      43.198  22.522  27.713  1.00  0.00     0.135 A 
ATOM     51  C   UNL A   1      43.653  22.602  25.376  1.00  0.00     0.135 A 
ATOM     52  F   UNL A   1      43.201  23.071  28.938  1.00  0.00    -0.206 F 
ATOM     53  C   UNL A   1      42.779  21.198  27.614  1.00  0.00     0.059 A 
ATOM     54  C   UNL A   1      43.205  21.283  25.239  1.00  0.00     0.059 A 
ATOM     55  F   UNL A   1      44.098  23.222  24.271  1.00  0.00    -0.206 F 
ATOM     56  C   UNL A   1      42.775  20.586  26.366  1.00  0.00     0.060 A 
BRANCH  56  57
ATOM     57  S   UNL A   1      42.199  18.878  26.245  1.00  0.00     0.124 S 
ATOM     58  O   UNL A   1      42.303  18.434  27.631  1.00  0.00    -0.237 OA
ATOM     59  O   UNL A   1      40.843  19.046  25.732  1.00  0.00    -0.237 OA
ATOM     60  O   UNL A   1      43.145  18.268  25.316  1.00  0.00    -0.744 OA
ENDBRANCH  56  57
ENDBRANCH  24  49
BRANCH  36  61
ATOM     61  C   UNL A   1      49.618  26.816  26.440  1.00  0.00     0.058 A 
ATOM     62  C   UNL A   1      50.535  26.294  27.368  1.00  0.00     0.135 A 
ATOM     63  C   UNL A   1      50.012  26.915  25.100  1.00  0.00     0.135 A 
ATOM     64  F   UNL A   1      50.203  26.190  28.665  1.00  0.00    -0.206 F 
ATOM     65  C   UNL A   1      51.815  25.918  26.986  1.00  0.00     0.059 A 
ATOM     66  C   UNL A   1      51.278  26.512  24.690  1.00  0.00     0.059 A 
ATOM     67  F   UNL A   1      49.165  27.398  24.178  1.00  0.00    -0.206 F 
ATOM     68  C   UNL A   1      52.175  26.031  25.643  1.00  0.00     0.060 A 
BRANCH  68  69
ATOM     69  S   UNL A   1      53.831  25.509  25.158  1.00  0.00     0.124 S 
ATOM     70  O   UNL A   1      54.160  26.497  24.135  1.00  0.00    -0.237 OA
ATOM     71  O   UNL A   1      54.573  25.621  26.410  1.00  0.00    -0.237 OA
ATOM     72  O   UNL A   1      53.629  24.147  24.675  1.00  0.00    -0.744 OA
ENDBRANCH  68  69
ENDBRANCH  36  61
ENDBRANCH  10  11
ENDBRANCH   3   5
ENDBRANCH   2   3
ENDBRANCH   1   2
BRANCH   1  73
ATOM     73  C   UNL A   1      33.888  32.155  27.907  1.00  0.00     0.275 C 
BRANCH  73  74
ATOM     74  O   UNL A   1      33.453  30.908  27.356  1.00  0.00    -0.457 OA
BRANCH  74  75
ATOM     75  C   UNL A   1      32.204  30.912  26.797  1.00  0.00     0.357 C 
ATOM     76  O   UNL A   1      31.476  31.868  26.655  1.00  0.00    -0.244 OA
BRANCH  75  77
ATOM     77  C   UNL A   1      31.915  29.518  26.368  1.00  0.00     0.149 A 
ATOM     78  C   UNL A   1      31.883  29.242  25.010  1.00  0.00     0.051 A 
ATOM     79  N   UNL A   1      31.656  28.609  27.337  1.00  0.00    -0.249 NA
ATOM     80  C   UNL A   1      31.520  27.972  24.593  1.00  0.00     0.011 A 
ATOM     81  C   UNL A   1      31.363  27.363  26.914  1.00  0.00     0.113 A 
ATOM     82  C   UNL A   1      31.312  26.996  25.572  1.00  0.00     0.035 A 
BRANCH  80  83
ATOM     83  S   UNL A   1      31.354  27.588  22.851  1.00  0.00    -0.122 SA
BRANCH  83  84
ATOM     84  C   UNL A   1      29.789  28.488  22.337  1.00  0.00     0.057 C 
ATOM     85  C   UNL A   1      28.682  28.171  23.342  1.00  0.00     0.043 C 
ATOM     86  C   UNL A   1      30.030  30.016  22.294  1.00  0.00     0.050 C 
ATOM     87  C   UNL A   1      27.431  28.956  23.012  1.00  0.00     0.162 C 
ATOM     88  C   UNL A   1      28.722  30.815  22.140  1.00  0.00     0.069 C 
ATOM     89  O   UNL A   1      27.730  30.336  23.083  1.00  0.00    -0.375 OA
ATOM     90  C   UNL A   1      28.916  32.362  22.230  1.00  0.00     0.035 C 
ATOM     91  C   UNL A   1      28.179  31.094  20.695  1.00  0.00     0.035 C 
ATOM     92  C   UNL A   1      27.788  32.503  21.194  1.00  0.00     0.006 C 
ENDBRANCH  83  84
ENDBRANCH  80  83
ENDBRANCH  75  77
ENDBRANCH  74  75
ENDBRANCH  73  74
ENDBRANCH   1  73
TORSDOF 16
ENDMDL
