MODEL 1
REMARK VINA RESULT:     -11.0      0.000      0.000
REMARK SMILES C[C@@H](C(=O)OCCOC(=O)c1ccc(-c2c3nc(c(-c4c(F)cc(S(=O)(=O)[O-])cc4F)c4ccc([nH]4)c(-c4c(F)cc(S(=O)(=O)[O-])cc4F)c4nc(c(-c5c(F)cc(S(=O)(=O)[O-])cc5F)c5ccc2[nH]5)C=C4)C=C3)cc1)N(C)c1ccc(C(N)=O)nn1
REMARK SMILES IDX 6 1 5 2 3 3 4 4 2 5 1 6 77 7 78 8 79 9 80 10 87 11 81 12
REMARK SMILES IDX 86 13 82 14 83 15 84 16 85 17 7 20 8 21 9 22 10 23 11 24
REMARK SMILES IDX 12 25 76 26 13 27 75 28 14 29 15 30 16 31 69 32 17 33 74 34
REMARK SMILES IDX 68 35 70 36 18 37 73 38 67 39 66 40 19 42 53 43 32 44 52 45
REMARK SMILES IDX 33 46 36 47 51 48 71 49 34 50 35 51 50 53 72 54 37 55 20 56
REMARK SMILES IDX 21 57 30 58 22 59 23 60 29 61 31 62 24 63 25 64 26 65 27 66
REMARK SMILES IDX 28 67 54 68 55 69 64 70 56 71 57 72 63 73 65 74 58 75 59 76
REMARK SMILES IDX 60 77 61 78 62 79 38 80 39 81 48 82 40 83 41 84 47 85 49 86
REMARK SMILES IDX 42 87 43 88 44 89 45 90 46 91
REMARK H PARENT 84 18 84 19 70 41 36 52
REMARK Flexibility Score: inf
ROOT
ATOM      1  C   UNL A   1      33.355  29.163  26.201  1.00  0.00     0.274 C 
ENDROOT
BRANCH   1   2
ATOM      2  O   UNL A   1      33.932  28.071  25.454  1.00  0.00    -0.461 OA
BRANCH   2   3
ATOM      3  C   UNL A   1      33.169  27.554  24.451  1.00  0.00     0.328 C 
ATOM      4  O   UNL A   1      33.572  27.350  23.309  1.00  0.00    -0.250 OA
BRANCH   3   5
ATOM      5  C   UNL A   1      31.709  27.309  24.879  1.00  0.00     0.190 C 
ATOM      6  C   UNL A   1      31.500  26.103  25.787  1.00  0.00     0.044 C 
BRANCH   5   7
ATOM      7  N   UNL A   1      30.740  27.411  23.754  1.00  0.00    -0.345 N 
ATOM      8  C   UNL A   1      29.773  26.304  23.672  1.00  0.00     0.146 C 
BRANCH   7   9
ATOM      9  C   UNL A   1      30.252  28.626  23.276  1.00  0.00     0.151 A 
ATOM     10  C   UNL A   1      30.131  29.766  24.060  1.00  0.00     0.051 A 
ATOM     11  N   UNL A   1      29.906  28.746  21.978  1.00  0.00    -0.132 NA
ATOM     12  C   UNL A   1      29.567  30.946  23.556  1.00  0.00     0.040 A 
ATOM     13  N   UNL A   1      29.321  29.899  21.462  1.00  0.00    -0.143 NA
ATOM     14  C   UNL A   1      29.137  30.966  22.252  1.00  0.00     0.150 A 
BRANCH  14  15
ATOM     15  C   UNL A   1      28.453  32.157  21.678  1.00  0.00     0.269 C 
ATOM     16  N   UNL A   1      28.267  32.175  20.321  1.00  0.00    -0.364 N 
ATOM     17  O   UNL A   1      28.053  33.073  22.387  1.00  0.00    -0.268 OA
ATOM     18  H   UNL A   1      28.597  31.428  19.770  1.00  0.00     0.160 HD
ATOM     19  H   UNL A   1      27.806  32.933  19.898  1.00  0.00     0.160 HD
ENDBRANCH  14  15
ENDBRANCH   7   9
ENDBRANCH   5   7
ENDBRANCH   3   5
ENDBRANCH   2   3
ENDBRANCH   1   2
BRANCH   1  20
ATOM     20  C   UNL A   1      34.037  29.315  27.556  1.00  0.00     0.275 C 
BRANCH  20  21
ATOM     21  O   UNL A   1      34.608  30.629  27.653  1.00  0.00    -0.458 OA
BRANCH  21  22
ATOM     22  C   UNL A   1      35.342  30.876  28.760  1.00  0.00     0.338 C 
ATOM     23  O   UNL A   1      35.014  31.576  29.711  1.00  0.00    -0.246 OA
BRANCH  22  24
ATOM     24  C   UNL A   1      36.636  30.168  28.692  1.00  0.00     0.060 A 
ATOM     25  C   UNL A   1      37.200  29.615  29.841  1.00  0.00     0.016 A 
ATOM     26  C   UNL A   1      37.369  30.201  27.503  1.00  0.00     0.016 A 
ATOM     27  C   UNL A   1      38.535  29.207  29.830  1.00  0.00     0.010 A 
ATOM     28  C   UNL A   1      38.683  29.717  27.476  1.00  0.00     0.010 A 
ATOM     29  C   UNL A   1      39.296  29.255  28.652  1.00  0.00    -0.014 A 
BRANCH  29  30
ATOM     30  C   UNL A   1      40.720  28.827  28.638  1.00  0.00     0.031 A 
ATOM     31  C   UNL A   1      41.824  29.793  28.959  1.00  0.00     0.074 A 
ATOM     32  C   UNL A   1      41.046  27.558  28.342  1.00  0.00     0.049 A 
ATOM     33  N   UNL A   1      43.063  29.823  28.544  1.00  0.00    -0.248 NA
ATOM     34  C   UNL A   1      41.477  30.895  29.855  1.00  0.00     0.031 C 
ATOM     35  C   UNL A   1      40.100  26.468  28.104  1.00  0.00     0.029 A 
ATOM     36  N   UNL A   1      42.277  26.977  28.197  1.00  0.00    -0.354 N 
ATOM     37  C   UNL A   1      43.590  31.026  29.009  1.00  0.00     0.074 A 
ATOM     38  C   UNL A   1      42.546  31.677  29.770  1.00  0.00     0.031 C 
ATOM     39  C   UNL A   1      40.786  25.339  27.878  1.00  0.00     0.029 A 
ATOM     40  C   UNL A   1      42.211  25.654  27.846  1.00  0.00     0.049 A 
ATOM     41  H   UNL A   1      43.124  27.460  28.331  1.00  0.00     0.167 HD
ATOM     42  C   UNL A   1      44.840  31.517  28.822  1.00  0.00     0.037 A 
ATOM     43  C   UNL A   1      43.186  24.805  27.480  1.00  0.00     0.037 A 
ATOM     44  C   UNL A   1      45.921  30.718  28.302  1.00  0.00     0.049 A 
ATOM     45  C   UNL A   1      44.595  25.312  27.396  1.00  0.00     0.074 A 
ATOM     46  C   UNL A   1      47.243  31.068  28.097  1.00  0.00     0.029 A 
ATOM     47  N   UNL A   1      45.816  29.366  28.003  1.00  0.00    -0.354 N 
ATOM     48  N   UNL A   1      45.042  26.531  27.581  1.00  0.00    -0.248 NA
ATOM     49  C   UNL A   1      45.628  24.335  27.035  1.00  0.00     0.031 C 
ATOM     50  C   UNL A   1      47.944  29.920  27.702  1.00  0.00     0.029 A 
ATOM     51  C   UNL A   1      47.057  28.854  27.672  1.00  0.00     0.049 A 
ATOM     52  H   UNL A   1      44.980  28.846  28.024  1.00  0.00     0.167 HD
ATOM     53  C   UNL A   1      46.409  26.472  27.352  1.00  0.00     0.074 A 
ATOM     54  C   UNL A   1      46.719  25.089  27.042  1.00  0.00     0.031 C 
ATOM     55  C   UNL A   1      47.327  27.471  27.378  1.00  0.00     0.037 A 
BRANCH  42  56
ATOM     56  C   UNL A   1      45.118  32.959  29.162  1.00  0.00     0.058 A 
ATOM     57  C   UNL A   1      44.998  34.006  28.237  1.00  0.00     0.135 A 
ATOM     58  C   UNL A   1      45.445  33.303  30.488  1.00  0.00     0.135 A 
ATOM     59  F   UNL A   1      44.695  33.743  26.956  1.00  0.00    -0.206 F 
ATOM     60  C   UNL A   1      45.213  35.334  28.604  1.00  0.00     0.059 A 
ATOM     61  C   UNL A   1      45.637  34.624  30.884  1.00  0.00     0.059 A 
ATOM     62  F   UNL A   1      45.567  32.347  31.423  1.00  0.00    -0.206 F 
ATOM     63  C   UNL A   1      45.531  35.634  29.930  1.00  0.00     0.060 A 
BRANCH  63  64
ATOM     64  S   UNL A   1      45.766  37.361  30.412  1.00  0.00     0.124 S 
ATOM     65  O   UNL A   1      46.746  37.233  31.486  1.00  0.00    -0.237 OA
ATOM     66  O   UNL A   1      46.252  37.974  29.180  1.00  0.00    -0.237 OA
ATOM     67  O   UNL A   1      44.430  37.779  30.827  1.00  0.00    -0.744 OA
ENDBRANCH  63  64
ENDBRANCH  42  56
BRANCH  43  68
ATOM     68  C   UNL A   1      42.823  23.409  27.136  1.00  0.00     0.058 A 
ATOM     69  C   UNL A   1      42.891  22.958  25.812  1.00  0.00     0.135 A 
ATOM     70  C   UNL A   1      42.520  22.475  28.138  1.00  0.00     0.135 A 
ATOM     71  F   UNL A   1      43.178  23.819  24.824  1.00  0.00    -0.206 F 
ATOM     72  C   UNL A   1      42.687  21.621  25.493  1.00  0.00     0.059 A 
ATOM     73  C   UNL A   1      42.337  21.129  27.847  1.00  0.00     0.059 A 
ATOM     74  F   UNL A   1      42.469  22.859  29.424  1.00  0.00    -0.206 F 
ATOM     75  C   UNL A   1      42.423  20.711  26.519  1.00  0.00     0.060 A 
BRANCH  75  76
ATOM     76  S   UNL A   1      42.282  18.957  26.116  1.00  0.00     0.124 S 
ATOM     77  O   UNL A   1      40.883  18.862  25.714  1.00  0.00    -0.237 OA
ATOM     78  O   UNL A   1      43.265  18.801  25.048  1.00  0.00    -0.237 OA
ATOM     79  O   UNL A   1      42.627  18.298  27.373  1.00  0.00    -0.744 OA
ENDBRANCH  75  76
ENDBRANCH  43  68
BRANCH  55  80
ATOM     80  C   UNL A   1      48.746  27.088  27.089  1.00  0.00     0.058 A 
ATOM     81  C   UNL A   1      49.614  26.690  28.117  1.00  0.00     0.135 A 
ATOM     82  C   UNL A   1      49.234  27.098  25.775  1.00  0.00     0.135 A 
ATOM     83  F   UNL A   1      49.189  26.671  29.391  1.00  0.00    -0.206 F 
ATOM     84  C   UNL A   1      50.931  26.337  27.853  1.00  0.00     0.059 A 
ATOM     85  C   UNL A   1      50.544  26.733  25.485  1.00  0.00     0.059 A 
ATOM     86  F   UNL A   1      48.436  27.465  24.759  1.00  0.00    -0.206 F 
ATOM     87  C   UNL A   1      51.389  26.368  26.534  1.00  0.00     0.060 A 
BRANCH  87  88
ATOM     88  S   UNL A   1      53.101  25.904  26.202  1.00  0.00     0.124 S 
ATOM     89  O   UNL A   1      53.639  25.785  27.553  1.00  0.00    -0.237 OA
ATOM     90  O   UNL A   1      52.950  24.651  25.467  1.00  0.00    -0.237 OA
ATOM     91  O   UNL A   1      53.609  27.025  25.418  1.00  0.00    -0.744 OA
ENDBRANCH  87  88
ENDBRANCH  55  80
ENDBRANCH  29  30
ENDBRANCH  22  24
ENDBRANCH  21  22
ENDBRANCH  20  21
ENDBRANCH   1  20
TORSDOF 17
ENDMDL
MODEL 2
REMARK VINA RESULT:     -10.9      6.126     11.680
REMARK SMILES C[C@@H](C(=O)OCCOC(=O)c1ccc(-c2c3nc(c(-c4c(F)cc(S(=O)(=O)[O-])cc4F)c4ccc([nH]4)c(-c4c(F)cc(S(=O)(=O)[O-])cc4F)c4nc(c(-c5c(F)cc(S(=O)(=O)[O-])cc5F)c5ccc2[nH]5)C=C4)C=C3)cc1)N(C)c1ccc(C(N)=O)nn1
REMARK SMILES IDX 6 1 5 2 3 3 4 4 2 5 1 6 77 7 78 8 79 9 80 10 87 11 81 12
REMARK SMILES IDX 86 13 82 14 83 15 84 16 85 17 7 20 8 21 9 22 10 23 11 24
REMARK SMILES IDX 12 25 76 26 13 27 75 28 14 29 15 30 16 31 69 32 17 33 74 34
REMARK SMILES IDX 68 35 70 36 18 37 73 38 67 39 66 40 19 42 53 43 32 44 52 45
REMARK SMILES IDX 33 46 36 47 51 48 71 49 34 50 35 51 50 53 72 54 37 55 20 56
REMARK SMILES IDX 21 57 30 58 22 59 23 60 29 61 31 62 24 63 25 64 26 65 27 66
REMARK SMILES IDX 28 67 54 68 55 69 64 70 56 71 57 72 63 73 65 74 58 75 59 76
REMARK SMILES IDX 60 77 61 78 62 79 38 80 39 81 48 82 40 83 41 84 47 85 49 86
REMARK SMILES IDX 42 87 43 88 44 89 45 90 46 91
REMARK H PARENT 84 18 84 19 70 41 36 52
REMARK Flexibility Score: inf
ROOT
ATOM      1  C   UNL A   1      36.901  22.141  24.055  1.00  0.00     0.274 C 
ENDROOT
BRANCH   1   2
ATOM      2  O   UNL A   1      35.557  22.434  24.491  1.00  0.00    -0.461 OA
BRANCH   2   3
ATOM      3  C   UNL A   1      34.652  22.721  23.514  1.00  0.00     0.328 C 
ATOM      4  O   UNL A   1      34.726  23.690  22.765  1.00  0.00    -0.250 OA
BRANCH   3   5
ATOM      5  C   UNL A   1      33.471  21.731  23.487  1.00  0.00     0.190 C 
ATOM      6  C   UNL A   1      32.214  22.252  22.800  1.00  0.00     0.044 C 
BRANCH   5   7
ATOM      7  N   UNL A   1      33.229  21.065  24.795  1.00  0.00    -0.345 N 
ATOM      8  C   UNL A   1      32.222  21.722  25.645  1.00  0.00     0.146 C 
BRANCH   7   9
ATOM      9  C   UNL A   1      33.307  19.684  24.973  1.00  0.00     0.151 A 
ATOM     10  C   UNL A   1      34.399  18.920  24.583  1.00  0.00     0.051 A 
ATOM     11  N   UNL A   1      32.300  19.030  25.587  1.00  0.00    -0.132 NA
ATOM     12  C   UNL A   1      34.402  17.525  24.715  1.00  0.00     0.040 A 
ATOM     13  N   UNL A   1      32.271  17.643  25.707  1.00  0.00    -0.143 NA
ATOM     14  C   UNL A   1      33.297  16.912  25.253  1.00  0.00     0.150 A 
BRANCH  14  15
ATOM     15  C   UNL A   1      33.200  15.429  25.345  1.00  0.00     0.269 C 
ATOM     16  N   UNL A   1      31.945  14.892  25.444  1.00  0.00    -0.364 N 
ATOM     17  O   UNL A   1      34.196  14.715  25.311  1.00  0.00    -0.268 OA
ATOM     18  H   UNL A   1      31.158  15.484  25.469  1.00  0.00     0.160 HD
ATOM     19  H   UNL A   1      31.829  13.917  25.491  1.00  0.00     0.160 HD
ENDBRANCH  14  15
ENDBRANCH   7   9
ENDBRANCH   5   7
ENDBRANCH   3   5
ENDBRANCH   2   3
ENDBRANCH   1   2
BRANCH   1  20
ATOM     20  C   UNL A   1      37.772  21.708  25.229  1.00  0.00     0.275 C 
BRANCH  20  21
ATOM     21  O   UNL A   1      38.258  22.875  25.913  1.00  0.00    -0.458 OA
BRANCH  21  22
ATOM     22  C   UNL A   1      39.527  22.806  26.372  1.00  0.00     0.338 C 
ATOM     23  O   UNL A   1      40.283  21.846  26.285  1.00  0.00    -0.246 OA
BRANCH  22  24
ATOM     24  C   UNL A   1      39.915  24.079  27.012  1.00  0.00     0.060 A 
ATOM     25  C   UNL A   1      41.071  24.156  27.788  1.00  0.00     0.016 A 
ATOM     26  C   UNL A   1      39.030  25.159  26.972  1.00  0.00     0.016 A 
ATOM     27  C   UNL A   1      41.279  25.263  28.613  1.00  0.00     0.010 A 
ATOM     28  C   UNL A   1      39.284  26.302  27.741  1.00  0.00     0.010 A 
ATOM     29  C   UNL A   1      40.389  26.348  28.606  1.00  0.00    -0.014 A 
BRANCH  29  30
ATOM     30  C   UNL A   1      40.605  27.525  29.489  1.00  0.00     0.031 A 
ATOM     31  C   UNL A   1      41.786  27.594  30.415  1.00  0.00     0.074 A 
ATOM     32  C   UNL A   1      39.745  28.556  29.470  1.00  0.00     0.049 A 
ATOM     33  N   UNL A   1      41.917  28.200  31.565  1.00  0.00    -0.248 NA
ATOM     34  C   UNL A   1      42.978  26.857  29.997  1.00  0.00     0.031 C 
ATOM     35  C   UNL A   1      38.605  28.699  28.565  1.00  0.00     0.029 A 
ATOM     36  N   UNL A   1      39.709  29.686  30.242  1.00  0.00    -0.354 N 
ATOM     37  C   UNL A   1      43.150  27.789  32.070  1.00  0.00     0.074 A 
ATOM     38  C   UNL A   1      43.740  26.914  31.082  1.00  0.00     0.031 C 
ATOM     39  C   UNL A   1      38.001  29.870  28.809  1.00  0.00     0.029 A 
ATOM     40  C   UNL A   1      38.646  30.501  29.956  1.00  0.00     0.049 A 
ATOM     41  H   UNL A   1      40.380  29.893  30.932  1.00  0.00     0.167 HD
ATOM     42  C   UNL A   1      43.726  28.136  33.248  1.00  0.00     0.037 A 
ATOM     43  C   UNL A   1      38.203  31.602  30.588  1.00  0.00     0.037 A 
ATOM     44  C   UNL A   1      43.236  29.217  34.066  1.00  0.00     0.049 A 
ATOM     45  C   UNL A   1      38.917  32.066  31.822  1.00  0.00     0.074 A 
ATOM     46  C   UNL A   1      43.740  29.705  35.258  1.00  0.00     0.029 A 
ATOM     47  N   UNL A   1      42.179  30.045  33.712  1.00  0.00    -0.354 N 
ATOM     48  N   UNL A   1      39.927  31.507  32.446  1.00  0.00    -0.248 NA
ATOM     49  C   UNL A   1      38.422  33.296  32.448  1.00  0.00     0.031 C 
ATOM     50  C   UNL A   1      43.006  30.846  35.609  1.00  0.00     0.029 A 
ATOM     51  C   UNL A   1      42.052  31.073  34.628  1.00  0.00     0.049 A 
ATOM     52  H   UNL A   1      41.604  29.920  32.922  1.00  0.00     0.167 HD
ATOM     53  C   UNL A   1      40.186  32.314  33.545  1.00  0.00     0.074 A 
ATOM     54  C   UNL A   1      39.243  33.414  33.483  1.00  0.00     0.031 C 
ATOM     55  C   UNL A   1      41.107  32.154  34.528  1.00  0.00     0.037 A 
BRANCH  42  56
ATOM     56  C   UNL A   1      44.925  27.360  33.732  1.00  0.00     0.058 A 
ATOM     57  C   UNL A   1      44.826  26.168  34.463  1.00  0.00     0.135 A 
ATOM     58  C   UNL A   1      46.215  27.799  33.382  1.00  0.00     0.135 A 
ATOM     59  F   UNL A   1      43.624  25.700  34.833  1.00  0.00    -0.206 F 
ATOM     60  C   UNL A   1      45.959  25.451  34.848  1.00  0.00     0.059 A 
ATOM     61  C   UNL A   1      47.360  27.086  33.732  1.00  0.00     0.059 A 
ATOM     62  F   UNL A   1      46.376  28.930  32.676  1.00  0.00    -0.206 F 
ATOM     63  C   UNL A   1      47.222  25.917  34.477  1.00  0.00     0.060 A 
BRANCH  63  64
ATOM     64  S   UNL A   1      48.686  24.963  34.940  1.00  0.00     0.124 S 
ATOM     65  O   UNL A   1      49.575  26.011  35.430  1.00  0.00    -0.237 OA
ATOM     66  O   UNL A   1      48.165  24.049  35.952  1.00  0.00    -0.237 OA
ATOM     67  O   UNL A   1      49.088  24.334  33.685  1.00  0.00    -0.744 OA
ENDBRANCH  63  64
ENDBRANCH  42  56
BRANCH  43  68
ATOM     68  C   UNL A   1      37.000  32.290  30.061  1.00  0.00     0.058 A 
ATOM     69  C   UNL A   1      35.725  31.977  30.548  1.00  0.00     0.135 A 
ATOM     70  C   UNL A   1      37.118  33.353  29.151  1.00  0.00     0.135 A 
ATOM     71  F   UNL A   1      35.569  30.968  31.419  1.00  0.00    -0.206 F 
ATOM     72  C   UNL A   1      34.606  32.706  30.165  1.00  0.00     0.059 A 
ATOM     73  C   UNL A   1      36.018  34.112  28.774  1.00  0.00     0.059 A 
ATOM     74  F   UNL A   1      38.325  33.703  28.679  1.00  0.00    -0.206 F 
ATOM     75  C   UNL A   1      34.764  33.780  29.287  1.00  0.00     0.060 A 
BRANCH  75  76
ATOM     76  S   UNL A   1      33.329  34.802  28.888  1.00  0.00     0.124 S 
ATOM     77  O   UNL A   1      33.965  36.003  28.359  1.00  0.00    -0.237 OA
ATOM     78  O   UNL A   1      32.618  33.975  27.918  1.00  0.00    -0.237 OA
ATOM     79  O   UNL A   1      32.661  34.953  30.178  1.00  0.00    -0.744 OA
ENDBRANCH  75  76
ENDBRANCH  43  68
BRANCH  55  80
ATOM     80  C   UNL A   1      41.147  33.210  35.590  1.00  0.00     0.058 A 
ATOM     81  C   UNL A   1      40.444  33.054  36.794  1.00  0.00     0.135 A 
ATOM     82  C   UNL A   1      41.909  34.373  35.411  1.00  0.00     0.135 A 
ATOM     83  F   UNL A   1      39.697  31.959  37.004  1.00  0.00    -0.206 F 
ATOM     84  C   UNL A   1      40.476  34.033  37.780  1.00  0.00     0.059 A 
ATOM     85  C   UNL A   1      41.969  35.358  36.391  1.00  0.00     0.059 A 
ATOM     86  F   UNL A   1      42.603  34.560  34.277  1.00  0.00    -0.206 F 
ATOM     87  C   UNL A   1      41.237  35.184  37.566  1.00  0.00     0.060 A 
BRANCH  87  88
ATOM     88  S   UNL A   1      41.275  36.447  38.855  1.00  0.00     0.124 S 
ATOM     89  O   UNL A   1      40.159  37.301  38.460  1.00  0.00    -0.237 OA
ATOM     90  O   UNL A   1      41.075  35.663  40.069  1.00  0.00    -0.237 OA
ATOM     91  O   UNL A   1      42.602  37.038  38.710  1.00  0.00    -0.744 OA
ENDBRANCH  87  88
ENDBRANCH  55  80
ENDBRANCH  29  30
ENDBRANCH  22  24
ENDBRANCH  21  22
ENDBRANCH  20  21
ENDBRANCH   1  20
TORSDOF 17
ENDMDL
MODEL 3
REMARK VINA RESULT:     -10.9      2.607      4.437
REMARK SMILES C[C@@H](C(=O)OCCOC(=O)c1ccc(-c2c3nc(c(-c4c(F)cc(S(=O)(=O)[O-])cc4F)c4ccc([nH]4)c(-c4c(F)cc(S(=O)(=O)[O-])cc4F)c4nc(c(-c5c(F)cc(S(=O)(=O)[O-])cc5F)c5ccc2[nH]5)C=C4)C=C3)cc1)N(C)c1ccc(C(N)=O)nn1
REMARK SMILES IDX 6 1 5 2 3 3 4 4 2 5 1 6 77 7 78 8 79 9 80 10 87 11 81 12
REMARK SMILES IDX 86 13 82 14 83 15 84 16 85 17 7 20 8 21 9 22 10 23 11 24
REMARK SMILES IDX 12 25 76 26 13 27 75 28 14 29 15 30 16 31 69 32 17 33 74 34
REMARK SMILES IDX 68 35 70 36 18 37 73 38 67 39 66 40 19 42 53 43 32 44 52 45
REMARK SMILES IDX 33 46 36 47 51 48 71 49 34 50 35 51 50 53 72 54 37 55 20 56
REMARK SMILES IDX 21 57 30 58 22 59 23 60 29 61 31 62 24 63 25 64 26 65 27 66
REMARK SMILES IDX 28 67 54 68 55 69 64 70 56 71 57 72 63 73 65 74 58 75 59 76
REMARK SMILES IDX 60 77 61 78 62 79 38 80 39 81 48 82 40 83 41 84 47 85 49 86
REMARK SMILES IDX 42 87 43 88 44 89 45 90 46 91
REMARK H PARENT 84 18 84 19 70 41 36 52
REMARK Flexibility Score: inf
ROOT
ATOM      1  C   UNL A   1      33.553  28.253  25.708  1.00  0.00     0.274 C 
ENDROOT
BRANCH   1   2
ATOM      2  O   UNL A   1      32.300  27.665  25.299  1.00  0.00    -0.461 OA
BRANCH   2   3
ATOM      3  C   UNL A   1      31.821  26.654  26.077  1.00  0.00     0.328 C 
ATOM      4  O   UNL A   1      31.374  26.805  27.210  1.00  0.00    -0.250 OA
BRANCH   3   5
ATOM      5  C   UNL A   1      31.964  25.272  25.411  1.00  0.00     0.190 C 
ATOM      6  C   UNL A   1      30.740  24.806  24.630  1.00  0.00     0.044 C 
BRANCH   5   7
ATOM      7  N   UNL A   1      32.552  24.242  26.310  1.00  0.00    -0.345 N 
ATOM      8  C   UNL A   1      31.576  23.314  26.905  1.00  0.00     0.146 C 
BRANCH   7   9
ATOM      9  C   UNL A   1      33.814  23.685  26.108  1.00  0.00     0.151 A 
ATOM     10  C   UNL A   1      34.895  24.396  25.604  1.00  0.00     0.051 A 
ATOM     11  N   UNL A   1      34.040  22.399  26.445  1.00  0.00    -0.132 NA
ATOM     12  C   UNL A   1      36.125  23.777  25.349  1.00  0.00     0.040 A 
ATOM     13  N   UNL A   1      35.246  21.756  26.178  1.00  0.00    -0.143 NA
ATOM     14  C   UNL A   1      36.256  22.435  25.616  1.00  0.00     0.150 A 
BRANCH  14  15
ATOM     15  C   UNL A   1      37.506  21.696  25.291  1.00  0.00     0.269 C 
ATOM     16  N   UNL A   1      38.690  22.344  25.520  1.00  0.00    -0.364 N 
ATOM     17  O   UNL A   1      37.482  20.550  24.857  1.00  0.00    -0.268 OA
ATOM     18  H   UNL A   1      38.687  23.265  25.869  1.00  0.00     0.160 HD
ATOM     19  H   UNL A   1      39.543  21.890  25.336  1.00  0.00     0.160 HD
ENDBRANCH  14  15
ENDBRANCH   7   9
ENDBRANCH   5   7
ENDBRANCH   3   5
ENDBRANCH   2   3
ENDBRANCH   1   2
BRANCH   1  20
ATOM     20  C   UNL A   1      33.335  29.636  26.310  1.00  0.00     0.275 C 
BRANCH  20  21
ATOM     21  O   UNL A   1      33.674  29.603  27.706  1.00  0.00    -0.458 OA
BRANCH  21  22
ATOM     22  C   UNL A   1      34.548  30.544  28.125  1.00  0.00     0.338 C 
ATOM     23  O   UNL A   1      34.293  31.716  28.377  1.00  0.00    -0.246 OA
BRANCH  22  24
ATOM     24  C   UNL A   1      35.902  29.970  28.259  1.00  0.00     0.060 A 
ATOM     25  C   UNL A   1      36.337  29.461  29.482  1.00  0.00     0.016 A 
ATOM     26  C   UNL A   1      36.801  30.092  27.195  1.00  0.00     0.016 A 
ATOM     27  C   UNL A   1      37.692  29.189  29.676  1.00  0.00     0.010 A 
ATOM     28  C   UNL A   1      38.145  29.741  27.371  1.00  0.00     0.010 A 
ATOM     29  C   UNL A   1      38.615  29.328  28.628  1.00  0.00    -0.014 A 
BRANCH  29  30
ATOM     30  C   UNL A   1      40.060  29.044  28.834  1.00  0.00     0.031 A 
ATOM     31  C   UNL A   1      40.993  30.103  29.350  1.00  0.00     0.074 A 
ATOM     32  C   UNL A   1      40.560  27.827  28.567  1.00  0.00     0.049 A 
ATOM     33  N   UNL A   1      42.272  30.272  29.140  1.00  0.00    -0.248 NA
ATOM     34  C   UNL A   1      40.396  31.130  30.202  1.00  0.00     0.031 C 
ATOM     35  C   UNL A   1      39.782  26.658  28.156  1.00  0.00     0.029 A 
ATOM     36  N   UNL A   1      41.852  27.377  28.609  1.00  0.00    -0.354 N 
ATOM     37  C   UNL A   1      42.590  31.503  29.710  1.00  0.00     0.074 A 
ATOM     38  C   UNL A   1      41.378  32.017  30.307  1.00  0.00     0.031 C 
ATOM     39  C   UNL A   1      40.610  25.613  28.018  1.00  0.00     0.029 A 
ATOM     40  C   UNL A   1      41.981  26.069  28.223  1.00  0.00     0.049 A 
ATOM     41  H   UNL A   1      42.612  27.937  28.888  1.00  0.00     0.167 HD
ATOM     42  C   UNL A   1      43.796  32.123  29.737  1.00  0.00     0.037 A 
ATOM     43  C   UNL A   1      43.085  25.335  28.000  1.00  0.00     0.037 A 
ATOM     44  C   UNL A   1      45.023  31.456  29.380  1.00  0.00     0.049 A 
ATOM     45  C   UNL A   1      44.428  25.983  28.154  1.00  0.00     0.074 A 
ATOM     46  C   UNL A   1      46.317  31.944  29.398  1.00  0.00     0.029 A 
ATOM     47  N   UNL A   1      45.108  30.112  29.038  1.00  0.00    -0.354 N 
ATOM     48  N   UNL A   1      44.711  27.233  28.435  1.00  0.00    -0.248 NA
ATOM     49  C   UNL A   1      45.601  25.128  27.943  1.00  0.00     0.031 C 
ATOM     50  C   UNL A   1      47.187  30.887  29.095  1.00  0.00     0.029 A 
ATOM     51  C   UNL A   1      46.433  29.740  28.899  1.00  0.00     0.049 A 
ATOM     52  H   UNL A   1      44.338  29.512  28.913  1.00  0.00     0.167 HD
ATOM     53  C   UNL A   1      46.096  27.320  28.428  1.00  0.00     0.074 A 
ATOM     54  C   UNL A   1      46.593  25.987  28.142  1.00  0.00     0.031 C 
ATOM     55  C   UNL A   1      46.889  28.403  28.623  1.00  0.00     0.037 A 
BRANCH  42  56
ATOM     56  C   UNL A   1      43.865  33.572  30.149  1.00  0.00     0.058 A 
ATOM     57  C   UNL A   1      44.149  33.987  31.457  1.00  0.00     0.135 A 
ATOM     58  C   UNL A   1      43.712  34.573  29.171  1.00  0.00     0.135 A 
ATOM     59  F   UNL A   1      44.301  33.081  32.436  1.00  0.00    -0.206 F 
ATOM     60  C   UNL A   1      44.257  35.338  31.787  1.00  0.00     0.059 A 
ATOM     61  C   UNL A   1      43.842  35.927  29.472  1.00  0.00     0.059 A 
ATOM     62  F   UNL A   1      43.445  34.239  27.898  1.00  0.00    -0.206 F 
ATOM     63  C   UNL A   1      44.102  36.301  30.788  1.00  0.00     0.060 A 
BRANCH  63  64
ATOM     64  S   UNL A   1      44.286  38.049  31.211  1.00  0.00     0.124 S 
ATOM     65  O   UNL A   1      43.563  38.691  30.118  1.00  0.00    -0.237 OA
ATOM     66  O   UNL A   1      43.653  38.129  32.524  1.00  0.00    -0.237 OA
ATOM     67  O   UNL A   1      45.733  38.246  31.208  1.00  0.00    -0.744 OA
ENDBRANCH  63  64
ENDBRANCH  42  56
BRANCH  43  68
ATOM     68  C   UNL A   1      42.928  23.925  27.572  1.00  0.00     0.058 A 
ATOM     69  C   UNL A   1      42.745  22.907  28.516  1.00  0.00     0.135 A 
ATOM     70  C   UNL A   1      42.840  23.589  26.212  1.00  0.00     0.135 A 
ATOM     71  F   UNL A   1      42.822  23.185  29.827  1.00  0.00    -0.206 F 
ATOM     72  C   UNL A   1      42.461  21.603  28.128  1.00  0.00     0.059 A 
ATOM     73  C   UNL A   1      42.531  22.299  25.800  1.00  0.00     0.059 A 
ATOM     74  F   UNL A   1      42.984  24.539  25.274  1.00  0.00    -0.206 F 
ATOM     75  C   UNL A   1      42.343  21.312  26.768  1.00  0.00     0.060 A 
BRANCH  75  76
ATOM     76  S   UNL A   1      41.852  19.647  26.271  1.00  0.00     0.124 S 
ATOM     77  O   UNL A   1      42.259  18.863  27.432  1.00  0.00    -0.237 OA
ATOM     78  O   UNL A   1      40.413  19.792  26.071  1.00  0.00    -0.237 OA
ATOM     79  O   UNL A   1      42.625  19.422  25.052  1.00  0.00    -0.744 OA
ENDBRANCH  75  76
ENDBRANCH  43  68
BRANCH  55  80
ATOM     80  C   UNL A   1      48.367  28.174  28.557  1.00  0.00     0.058 A 
ATOM     81  C   UNL A   1      49.066  28.287  27.345  1.00  0.00     0.135 A 
ATOM     82  C   UNL A   1      49.093  27.862  29.716  1.00  0.00     0.135 A 
ATOM     83  F   UNL A   1      48.409  28.578  26.212  1.00  0.00    -0.206 F 
ATOM     84  C   UNL A   1      50.437  28.072  27.281  1.00  0.00     0.059 A 
ATOM     85  C   UNL A   1      50.468  27.659  29.677  1.00  0.00     0.059 A 
ATOM     86  F   UNL A   1      48.466  27.751  30.898  1.00  0.00    -0.206 F 
ATOM     87  C   UNL A   1      51.128  27.753  28.451  1.00  0.00     0.060 A 
BRANCH  87  88
ATOM     88  S   UNL A   1      52.910  27.480  28.356  1.00  0.00     0.124 S 
ATOM     89  O   UNL A   1      53.426  28.736  28.891  1.00  0.00    -0.237 OA
ATOM     90  O   UNL A   1      53.094  26.307  29.205  1.00  0.00    -0.237 OA
ATOM     91  O   UNL A   1      53.143  27.259  26.933  1.00  0.00    -0.744 OA
ENDBRANCH  87  88
ENDBRANCH  55  80
ENDBRANCH  29  30
ENDBRANCH  22  24
ENDBRANCH  21  22
ENDBRANCH  20  21
ENDBRANCH   1  20
TORSDOF 17
ENDMDL
