MODEL 1
REMARK VINA RESULT:     -12.0      0.000      0.000
REMARK SMILES O=C(CCC(=O)OCCOC(=O)c1ccc(-c2c3nc(c(-c4c(F)cc(S(=O)(=O)[O-])cc4F)c4ccc([nH]4)c(-c4c(F)cc(S(=O)(=O)[O-])cc4F)c4nc(c(-c5c(F)cc(S(=O)(=O)[O-])cc5F)c5ccc2[nH]5)C=C4)C=C3)cc1)/[NH+]=C1\S[C@H]2CS(=O)(=O)C[C@@H]2N1c1ccc(Oc2ccccc2)cc1
REMARK SMILES IDX 8 1 7 2 5 3 6 4 4 5 3 6 2 7 1 8 79 9 80 10 81 12 89 13 82 14
REMARK SMILES IDX 88 15 83 16 87 17 84 18 85 19 86 20 90 21 91 22 102 23 92 24
REMARK SMILES IDX 101 25 93 26 94 27 95 28 96 29 100 30 97 31 99 32 98 33 9 34
REMARK SMILES IDX 10 35 11 36 12 37 13 38 14 39 78 40 15 41 77 42 16 43 17 44
REMARK SMILES IDX 18 45 71 46 19 47 76 48 70 49 72 50 20 51 75 52 69 53 68 54
REMARK SMILES IDX 21 56 55 57 34 58 54 59 35 60 38 61 53 62 73 63 36 64 37 65
REMARK SMILES IDX 52 67 74 68 39 69 22 70 23 71 32 72 24 73 25 74 31 75 33 76
REMARK SMILES IDX 26 77 27 78 28 79 29 80 30 81 56 82 57 83 66 84 58 85 59 86
REMARK SMILES IDX 65 87 67 88 60 89 61 90 62 91 63 92 64 93 40 94 41 95 50 96
REMARK SMILES IDX 42 97 43 98 49 99 51 100 44 101 45 102 46 103 47 104 48 105
REMARK H PARENT 79 11 72 55 38 66
REMARK Flexibility Score: inf
ROOT
ATOM      1  C   UNL A   1      43.629  22.552  25.850  1.00  0.00     0.274 C 
ENDROOT
BRANCH   1   2
ATOM      2  O   UNL A   1      42.357  22.229  25.265  1.00  0.00    -0.462 OA
BRANCH   2   3
ATOM      3  C   UNL A   1      41.513  21.585  26.094  1.00  0.00     0.306 C 
ATOM      4  O   UNL A   1      41.224  20.397  25.998  1.00  0.00    -0.252 OA
BRANCH   3   5
ATOM      5  C   UNL A   1      40.908  22.483  27.135  1.00  0.00     0.135 C 
BRANCH   5   6
ATOM      6  C   UNL A   1      39.396  22.647  27.295  1.00  0.00     0.139 C 
BRANCH   6   7
ATOM      7  C   UNL A   1      38.494  23.585  26.486  1.00  0.00     0.308 C 
ATOM      8  O   UNL A   1      39.037  24.425  25.765  1.00  0.00    -0.247 OA
ATOM      9  N   UNL A   1      37.126  23.537  26.552  1.00  0.00    -0.204 N 
ATOM     10  C   UNL A   1      36.406  22.808  25.758  1.00  0.00     0.319 C 
ATOM     11  H   UNL A   1      36.669  24.082  27.233  1.00  0.00     0.316 HD
ATOM     12  S   UNL A   1      36.955  21.465  24.724  1.00  0.00    -0.029 SA
ATOM     13  N   UNL A   1      35.014  22.884  25.670  1.00  0.00    -0.217 N 
ATOM     14  C   UNL A   1      35.261  20.821  24.493  1.00  0.00     0.120 C 
ATOM     15  C   UNL A   1      34.384  21.597  25.482  1.00  0.00     0.212 C 
ATOM     16  C   UNL A   1      34.852  19.390  24.798  1.00  0.00     0.156 C 
ATOM     17  C   UNL A   1      32.981  21.347  24.988  1.00  0.00     0.188 C 
ATOM     18  S   UNL A   1      33.042  19.538  24.888  1.00  0.00     0.155 S 
ATOM     19  O   UNL A   1      32.461  19.120  23.632  1.00  0.00    -0.229 OA
ATOM     20  O   UNL A   1      32.603  19.016  26.165  1.00  0.00    -0.229 OA
BRANCH  13  21
ATOM     21  C   UNL A   1      34.324  24.066  25.423  1.00  0.00     0.128 A 
ATOM     22  C   UNL A   1      34.557  24.833  24.275  1.00  0.00     0.056 A 
ATOM     23  C   UNL A   1      33.390  24.533  26.356  1.00  0.00     0.056 A 
ATOM     24  C   UNL A   1      33.929  26.069  24.100  1.00  0.00     0.051 A 
ATOM     25  C   UNL A   1      32.762  25.763  26.186  1.00  0.00     0.051 A 
ATOM     26  C   UNL A   1      33.059  26.555  25.075  1.00  0.00     0.127 A 
BRANCH  26  27
ATOM     27  O   UNL A   1      32.531  27.812  24.849  1.00  0.00    -0.457 OA
BRANCH  27  28
ATOM     28  C   UNL A   1      32.863  28.789  25.756  1.00  0.00     0.127 A 
ATOM     29  C   UNL A   1      34.150  28.778  26.287  1.00  0.00     0.047 A 
ATOM     30  C   UNL A   1      31.949  29.786  26.111  1.00  0.00     0.047 A 
ATOM     31  C   UNL A   1      34.553  29.815  27.128  1.00  0.00     0.004 A 
ATOM     32  C   UNL A   1      32.360  30.826  26.942  1.00  0.00     0.004 A 
ATOM     33  C   UNL A   1      33.663  30.845  27.442  1.00  0.00     0.000 A 
ENDBRANCH  27  28
ENDBRANCH  26  27
ENDBRANCH  13  21
ENDBRANCH   6   7
ENDBRANCH   5   6
ENDBRANCH   3   5
ENDBRANCH   2   3
ENDBRANCH   1   2
BRANCH   1  34
ATOM     34  C   UNL A   1      43.933  24.019  25.582  1.00  0.00     0.275 C 
BRANCH  34  35
ATOM     35  O   UNL A   1      43.439  24.943  26.561  1.00  0.00    -0.458 OA
BRANCH  35  36
ATOM     36  C   UNL A   1      42.416  25.710  26.137  1.00  0.00     0.338 C 
ATOM     37  O   UNL A   1      42.036  25.874  24.985  1.00  0.00    -0.246 OA
BRANCH  36  38
ATOM     38  C   UNL A   1      41.918  26.556  27.188  1.00  0.00     0.060 A 
ATOM     39  C   UNL A   1      40.991  26.063  28.092  1.00  0.00     0.016 A 
ATOM     40  C   UNL A   1      42.391  27.872  27.228  1.00  0.00     0.016 A 
ATOM     41  C   UNL A   1      40.586  26.899  29.115  1.00  0.00     0.010 A 
ATOM     42  C   UNL A   1      42.063  28.671  28.298  1.00  0.00     0.010 A 
ATOM     43  C   UNL A   1      41.171  28.173  29.249  1.00  0.00    -0.014 A 
BRANCH  43  44
ATOM     44  C   UNL A   1      40.934  28.943  30.473  1.00  0.00     0.031 A 
ATOM     45  C   UNL A   1      41.807  28.726  31.662  1.00  0.00     0.074 A 
ATOM     46  C   UNL A   1      39.895  29.798  30.444  1.00  0.00     0.049 A 
ATOM     47  N   UNL A   1      41.791  29.349  32.804  1.00  0.00    -0.248 NA
ATOM     48  C   UNL A   1      42.815  27.653  31.575  1.00  0.00     0.031 C 
ATOM     49  C   UNL A   1      38.963  29.951  29.315  1.00  0.00     0.029 A 
ATOM     50  N   UNL A   1      39.459  30.714  31.353  1.00  0.00    -0.354 N 
ATOM     51  C   UNL A   1      42.767  28.737  33.580  1.00  0.00     0.074 A 
ATOM     52  C   UNL A   1      43.336  27.668  32.794  1.00  0.00     0.031 C 
ATOM     53  C   UNL A   1      38.116  30.957  29.571  1.00  0.00     0.029 A 
ATOM     54  C   UNL A   1      38.410  31.480  30.896  1.00  0.00     0.049 A 
ATOM     55  H   UNL A   1      39.853  30.818  32.249  1.00  0.00     0.167 HD
ATOM     56  C   UNL A   1      43.145  29.071  34.832  1.00  0.00     0.037 A 
ATOM     57  C   UNL A   1      37.774  32.499  31.497  1.00  0.00     0.037 A 
ATOM     58  C   UNL A   1      42.557  30.178  35.539  1.00  0.00     0.049 A 
ATOM     59  C   UNL A   1      38.274  32.896  32.856  1.00  0.00     0.074 A 
ATOM     60  C   UNL A   1      42.880  30.679  36.783  1.00  0.00     0.029 A 
ATOM     61  N   UNL A   1      41.516  30.959  35.044  1.00  0.00    -0.354 N 
ATOM     62  N   UNL A   1      39.254  32.363  33.553  1.00  0.00    -0.248 NA
ATOM     63  C   UNL A   1      37.603  34.019  33.513  1.00  0.00     0.031 C 
ATOM     64  C   UNL A   1      42.006  31.736  37.059  1.00  0.00     0.029 A 
ATOM     65  C   UNL A   1      41.171  31.928  35.965  1.00  0.00     0.049 A 
ATOM     66  H   UNL A   1      41.088  30.837  34.166  1.00  0.00     0.167 HD
ATOM     67  C   UNL A   1      39.327  33.093  34.727  1.00  0.00     0.074 A 
ATOM     68  C   UNL A   1      38.307  34.122  34.632  1.00  0.00     0.031 C 
ATOM     69  C   UNL A   1      40.147  32.931  35.795  1.00  0.00     0.037 A 
BRANCH  56  70
ATOM     70  C   UNL A   1      44.208  28.246  35.501  1.00  0.00     0.058 A 
ATOM     71  C   UNL A   1      45.574  28.545  35.377  1.00  0.00     0.135 A 
ATOM     72  C   UNL A   1      43.853  27.155  36.312  1.00  0.00     0.135 A 
ATOM     73  F   UNL A   1      45.977  29.557  34.592  1.00  0.00    -0.206 F 
ATOM     74  C   UNL A   1      46.549  27.790  36.024  1.00  0.00     0.059 A 
ATOM     75  C   UNL A   1      44.808  26.402  36.990  1.00  0.00     0.059 A 
ATOM     76  F   UNL A   1      42.563  26.812  36.455  1.00  0.00    -0.206 F 
ATOM     77  C   UNL A   1      46.156  26.723  36.835  1.00  0.00     0.060 A 
BRANCH  77  78
ATOM     78  S   UNL A   1      47.429  25.781  37.701  1.00  0.00     0.124 S 
ATOM     79  O   UNL A   1      46.633  24.756  38.368  1.00  0.00    -0.237 OA
ATOM     80  O   UNL A   1      48.271  25.314  36.604  1.00  0.00    -0.237 OA
ATOM     81  O   UNL A   1      48.044  26.769  38.582  1.00  0.00    -0.744 OA
ENDBRANCH  77  78
ENDBRANCH  56  70
BRANCH  57  82
ATOM     82  C   UNL A   1      36.645  33.191  30.820  1.00  0.00     0.058 A 
ATOM     83  C   UNL A   1      36.860  34.062  29.741  1.00  0.00     0.135 A 
ATOM     84  C   UNL A   1      35.316  32.973  31.220  1.00  0.00     0.135 A 
ATOM     85  F   UNL A   1      38.108  34.294  29.305  1.00  0.00    -0.206 F 
ATOM     86  C   UNL A   1      35.807  34.718  29.109  1.00  0.00     0.059 A 
ATOM     87  C   UNL A   1      34.245  33.593  30.585  1.00  0.00     0.059 A 
ATOM     88  F   UNL A   1      35.047  32.124  32.223  1.00  0.00    -0.206 F 
ATOM     89  C   UNL A   1      34.501  34.482  29.543  1.00  0.00     0.060 A 
BRANCH  89  90
ATOM     90  S   UNL A   1      33.139  35.338  28.722  1.00  0.00     0.124 S 
ATOM     91  O   UNL A   1      33.857  36.309  27.905  1.00  0.00    -0.237 OA
ATOM     92  O   UNL A   1      32.486  34.252  27.997  1.00  0.00    -0.237 OA
ATOM     93  O   UNL A   1      32.371  35.891  29.834  1.00  0.00    -0.744 OA
ENDBRANCH  89  90
ENDBRANCH  57  82
BRANCH  69  94
ATOM     94  C   UNL A   1      39.975  33.907  36.916  1.00  0.00     0.058 A 
ATOM     95  C   UNL A   1      40.562  35.178  36.871  1.00  0.00     0.135 A 
ATOM     96  C   UNL A   1      39.157  33.585  38.010  1.00  0.00     0.135 A 
ATOM     97  F   UNL A   1      41.358  35.521  35.846  1.00  0.00    -0.206 F 
ATOM     98  C   UNL A   1      40.358  36.099  37.889  1.00  0.00     0.059 A 
ATOM     99  C   UNL A   1      38.916  34.501  39.023  1.00  0.00     0.059 A 
ATOM    100  F   UNL A   1      38.568  32.380  38.084  1.00  0.00    -0.206 F 
ATOM    101  C   UNL A   1      39.529  35.752  38.957  1.00  0.00     0.060 A 
BRANCH 101 102
ATOM    102  S   UNL A   1      39.232  36.975  40.246  1.00  0.00     0.124 S 
ATOM    103  O   UNL A   1      38.352  36.240  41.149  1.00  0.00    -0.237 OA
ATOM    104  O   UNL A   1      40.577  37.238  40.744  1.00  0.00    -0.237 OA
ATOM    105  O   UNL A   1      38.609  38.082  39.525  1.00  0.00    -0.744 OA
ENDBRANCH 101 102
ENDBRANCH  69  94
ENDBRANCH  43  44
ENDBRANCH  36  38
ENDBRANCH  35  36
ENDBRANCH  34  35
ENDBRANCH   1  34
TORSDOF 19
ENDMDL
MODEL 2
REMARK VINA RESULT:     -11.4      5.720     12.144
REMARK SMILES O=C(CCC(=O)OCCOC(=O)c1ccc(-c2c3nc(c(-c4c(F)cc(S(=O)(=O)[O-])cc4F)c4ccc([nH]4)c(-c4c(F)cc(S(=O)(=O)[O-])cc4F)c4nc(c(-c5c(F)cc(S(=O)(=O)[O-])cc5F)c5ccc2[nH]5)C=C4)C=C3)cc1)/[NH+]=C1\S[C@H]2CS(=O)(=O)C[C@@H]2N1c1ccc(Oc2ccccc2)cc1
REMARK SMILES IDX 8 1 7 2 5 3 6 4 4 5 3 6 2 7 1 8 79 9 80 10 81 12 89 13 82 14
REMARK SMILES IDX 88 15 83 16 87 17 84 18 85 19 86 20 90 21 91 22 102 23 92 24
REMARK SMILES IDX 101 25 93 26 94 27 95 28 96 29 100 30 97 31 99 32 98 33 9 34
REMARK SMILES IDX 10 35 11 36 12 37 13 38 14 39 78 40 15 41 77 42 16 43 17 44
REMARK SMILES IDX 18 45 71 46 19 47 76 48 70 49 72 50 20 51 75 52 69 53 68 54
REMARK SMILES IDX 21 56 55 57 34 58 54 59 35 60 38 61 53 62 73 63 36 64 37 65
REMARK SMILES IDX 52 67 74 68 39 69 22 70 23 71 32 72 24 73 25 74 31 75 33 76
REMARK SMILES IDX 26 77 27 78 28 79 29 80 30 81 56 82 57 83 66 84 58 85 59 86
REMARK SMILES IDX 65 87 67 88 60 89 61 90 62 91 63 92 64 93 40 94 41 95 50 96
REMARK SMILES IDX 42 97 43 98 49 99 51 100 44 101 45 102 46 103 47 104 48 105
REMARK H PARENT 79 11 72 55 38 66
REMARK Flexibility Score: inf
ROOT
ATOM      1  C   UNL A   1      35.914  33.810  31.350  1.00  0.00     0.274 C 
ENDROOT
BRANCH   1   2
ATOM      2  O   UNL A   1      34.858  33.396  30.468  1.00  0.00    -0.462 OA
BRANCH   2   3
ATOM      3  C   UNL A   1      35.272  33.038  29.236  1.00  0.00     0.306 C 
ATOM      4  O   UNL A   1      36.192  33.581  28.634  1.00  0.00    -0.252 OA
BRANCH   3   5
ATOM      5  C   UNL A   1      34.457  31.928  28.639  1.00  0.00     0.135 C 
BRANCH   5   6
ATOM      6  C   UNL A   1      34.832  31.258  27.317  1.00  0.00     0.139 C 
BRANCH   6   7
ATOM      7  C   UNL A   1      34.720  29.764  26.992  1.00  0.00     0.308 C 
ATOM      8  O   UNL A   1      34.947  28.959  27.899  1.00  0.00    -0.247 OA
ATOM      9  N   UNL A   1      34.402  29.299  25.744  1.00  0.00    -0.204 N 
ATOM     10  C   UNL A   1      33.183  29.065  25.367  1.00  0.00     0.319 C 
ATOM     11  H   UNL A   1      35.131  29.133  25.103  1.00  0.00     0.316 HD
ATOM     12  S   UNL A   1      31.682  29.625  26.146  1.00  0.00    -0.029 SA
ATOM     13  N   UNL A   1      32.841  28.412  24.180  1.00  0.00    -0.217 N 
ATOM     14  C   UNL A   1      30.669  29.279  24.664  1.00  0.00     0.120 C 
ATOM     15  C   UNL A   1      31.666  28.966  23.544  1.00  0.00     0.212 C 
ATOM     16  C   UNL A   1      29.781  30.310  23.989  1.00  0.00     0.156 C 
ATOM     17  C   UNL A   1      30.820  28.301  22.487  1.00  0.00     0.188 C 
ATOM     18  S   UNL A   1      29.509  29.546  22.361  1.00  0.00     0.155 S 
ATOM     19  O   UNL A   1      28.228  28.877  22.351  1.00  0.00    -0.229 OA
ATOM     20  O   UNL A   1      29.904  30.492  21.339  1.00  0.00    -0.229 OA
BRANCH  13  21
ATOM     21  C   UNL A   1      33.329  27.160  23.824  1.00  0.00     0.128 A 
ATOM     22  C   UNL A   1      33.446  26.764  22.487  1.00  0.00     0.056 A 
ATOM     23  C   UNL A   1      33.685  26.244  24.822  1.00  0.00     0.056 A 
ATOM     24  C   UNL A   1      33.839  25.465  22.155  1.00  0.00     0.051 A 
ATOM     25  C   UNL A   1      34.077  24.949  24.497  1.00  0.00     0.051 A 
ATOM     26  C   UNL A   1      34.117  24.541  23.162  1.00  0.00     0.127 A 
BRANCH  26  27
ATOM     27  O   UNL A   1      34.437  23.264  22.745  1.00  0.00    -0.457 OA
BRANCH  27  28
ATOM     28  C   UNL A   1      35.202  22.511  23.604  1.00  0.00     0.127 A 
ATOM     29  C   UNL A   1      34.559  21.549  24.378  1.00  0.00     0.047 A 
ATOM     30  C   UNL A   1      36.588  22.681  23.675  1.00  0.00     0.047 A 
ATOM     31  C   UNL A   1      35.317  20.697  25.180  1.00  0.00     0.004 A 
ATOM     32  C   UNL A   1      37.342  21.819  24.469  1.00  0.00     0.004 A 
ATOM     33  C   UNL A   1      36.708  20.823  25.213  1.00  0.00     0.000 A 
ENDBRANCH  27  28
ENDBRANCH  26  27
ENDBRANCH  13  21
ENDBRANCH   6   7
ENDBRANCH   5   6
ENDBRANCH   3   5
ENDBRANCH   2   3
ENDBRANCH   1   2
BRANCH   1  34
ATOM     34  C   UNL A   1      36.211  32.678  32.323  1.00  0.00     0.275 C 
BRANCH  34  35
ATOM     35  O   UNL A   1      37.349  31.866  32.000  1.00  0.00    -0.458 OA
BRANCH  35  36
ATOM     36  C   UNL A   1      37.050  30.718  31.362  1.00  0.00     0.338 C 
ATOM     37  O   UNL A   1      36.016  30.066  31.447  1.00  0.00    -0.246 OA
BRANCH  36  38
ATOM     38  C   UNL A   1      38.203  30.159  30.710  1.00  0.00     0.060 A 
ATOM     39  C   UNL A   1      38.321  30.232  29.331  1.00  0.00     0.016 A 
ATOM     40  C   UNL A   1      39.157  29.534  31.521  1.00  0.00     0.016 A 
ATOM     41  C   UNL A   1      39.474  29.729  28.759  1.00  0.00     0.010 A 
ATOM     42  C   UNL A   1      40.344  29.121  30.963  1.00  0.00     0.010 A 
ATOM     43  C   UNL A   1      40.505  29.236  29.582  1.00  0.00    -0.014 A 
BRANCH  43  44
ATOM     44  C   UNL A   1      41.815  28.951  28.992  1.00  0.00     0.031 A 
ATOM     45  C   UNL A   1      42.844  30.028  28.926  1.00  0.00     0.074 A 
ATOM     46  C   UNL A   1      41.993  27.706  28.514  1.00  0.00     0.049 A 
ATOM     47  N   UNL A   1      44.071  29.952  28.498  1.00  0.00    -0.248 NA
ATOM     48  C   UNL A   1      42.443  31.376  29.369  1.00  0.00     0.031 C 
ATOM     49  C   UNL A   1      40.955  26.662  28.481  1.00  0.00     0.029 A 
ATOM     50  N   UNL A   1      43.092  27.089  27.996  1.00  0.00    -0.354 N 
ATOM     51  C   UNL A   1      44.585  31.239  28.601  1.00  0.00     0.074 A 
ATOM     52  C   UNL A   1      43.528  32.087  29.098  1.00  0.00     0.031 C 
ATOM     53  C   UNL A   1      41.493  25.516  28.042  1.00  0.00     0.029 A 
ATOM     54  C   UNL A   1      42.889  25.757  27.715  1.00  0.00     0.049 A 
ATOM     55  H   UNL A   1      43.947  27.551  27.838  1.00  0.00     0.167 HD
ATOM     56  C   UNL A   1      45.840  31.643  28.313  1.00  0.00     0.037 A 
ATOM     57  C   UNL A   1      43.756  24.842  27.251  1.00  0.00     0.037 A 
ATOM     58  C   UNL A   1      46.853  30.728  27.858  1.00  0.00     0.049 A 
ATOM     59  C   UNL A   1      45.165  25.309  27.019  1.00  0.00     0.074 A 
ATOM     60  C   UNL A   1      48.184  30.975  27.590  1.00  0.00     0.029 A 
ATOM     61  N   UNL A   1      46.632  29.376  27.609  1.00  0.00    -0.354 N 
ATOM     62  N   UNL A   1      45.666  26.512  27.196  1.00  0.00    -0.248 NA
ATOM     63  C   UNL A   1      46.125  24.316  26.534  1.00  0.00     0.031 C 
ATOM     64  C   UNL A   1      48.758  29.781  27.138  1.00  0.00     0.029 A 
ATOM     65  C   UNL A   1      47.798  28.778  27.173  1.00  0.00     0.049 A 
ATOM     66  H   UNL A   1      45.771  28.915  27.726  1.00  0.00     0.167 HD
ATOM     67  C   UNL A   1      47.004  26.420  26.855  1.00  0.00     0.074 A 
ATOM     68  C   UNL A   1      47.239  25.034  26.487  1.00  0.00     0.031 C 
ATOM     69  C   UNL A   1      47.958  27.385  26.834  1.00  0.00     0.037 A 
BRANCH  56  70
ATOM     70  C   UNL A   1      46.174  33.100  28.468  1.00  0.00     0.058 A 
ATOM     71  C   UNL A   1      46.034  34.015  27.412  1.00  0.00     0.135 A 
ATOM     72  C   UNL A   1      46.610  33.600  29.707  1.00  0.00     0.135 A 
ATOM     73  F   UNL A   1      45.649  33.592  26.197  1.00  0.00    -0.206 F 
ATOM     74  C   UNL A   1      46.319  35.368  27.575  1.00  0.00     0.059 A 
ATOM     75  C   UNL A   1      46.877  34.953  29.900  1.00  0.00     0.059 A 
ATOM     76  F   UNL A   1      46.779  32.770  30.748  1.00  0.00    -0.206 F 
ATOM     77  C   UNL A   1      46.734  35.830  28.826  1.00  0.00     0.060 A 
BRANCH  77  78
ATOM     78  S   UNL A   1      47.059  37.593  29.032  1.00  0.00     0.124 S 
ATOM     79  O   UNL A   1      48.518  37.627  29.005  1.00  0.00    -0.237 OA
ATOM     80  O   UNL A   1      46.391  38.171  27.870  1.00  0.00    -0.237 OA
ATOM     81  O   UNL A   1      46.448  37.905  30.320  1.00  0.00    -0.744 OA
ENDBRANCH  77  78
ENDBRANCH  56  70
BRANCH  57  82
ATOM     82  C   UNL A   1      43.320  23.441  27.006  1.00  0.00     0.058 A 
ATOM     83  C   UNL A   1      43.086  22.550  28.063  1.00  0.00     0.135 A 
ATOM     84  C   UNL A   1      43.098  22.970  25.701  1.00  0.00     0.135 A 
ATOM     85  F   UNL A   1      43.266  22.952  29.332  1.00  0.00    -0.206 F 
ATOM     86  C   UNL A   1      42.685  21.236  27.838  1.00  0.00     0.059 A 
ATOM     87  C   UNL A   1      42.668  21.671  25.451  1.00  0.00     0.059 A 
ATOM     88  F   UNL A   1      43.272  23.788  24.652  1.00  0.00    -0.206 F 
ATOM     89  C   UNL A   1      42.484  20.803  26.526  1.00  0.00     0.060 A 
BRANCH  89  90
ATOM     90  S   UNL A   1      41.967  19.097  26.238  1.00  0.00     0.124 S 
ATOM     91  O   UNL A   1      42.226  18.491  27.539  1.00  0.00    -0.237 OA
ATOM     92  O   UNL A   1      40.561  19.258  25.877  1.00  0.00    -0.237 OA
ATOM     93  O   UNL A   1      42.840  18.660  25.152  1.00  0.00    -0.744 OA
ENDBRANCH  89  90
ENDBRANCH  57  82
BRANCH  69  94
ATOM     94  C   UNL A   1      49.329  26.950  26.421  1.00  0.00     0.058 A 
ATOM     95  C   UNL A   1      50.260  26.486  27.361  1.00  0.00     0.135 A 
ATOM     96  C   UNL A   1      49.684  26.937  25.063  1.00  0.00     0.135 A 
ATOM     97  F   UNL A   1      49.961  26.492  28.669  1.00  0.00    -0.206 F 
ATOM     98  C   UNL A   1      51.512  26.037  26.968  1.00  0.00     0.059 A 
ATOM     99  C   UNL A   1      50.919  26.464  24.647  1.00  0.00     0.059 A 
ATOM    100  F   UNL A   1      48.816  27.364  24.132  1.00  0.00    -0.206 F 
ATOM    101  C   UNL A   1      51.830  26.025  25.608  1.00  0.00     0.060 A 
BRANCH 101 102
ATOM    102  S   UNL A   1      53.440  25.390  25.108  1.00  0.00     0.124 S 
ATOM    103  O   UNL A   1      53.484  25.780  23.703  1.00  0.00    -0.237 OA
ATOM    104  O   UNL A   1      54.348  26.109  25.995  1.00  0.00    -0.237 OA
ATOM    105  O   UNL A   1      53.332  23.956  25.359  1.00  0.00    -0.744 OA
ENDBRANCH 101 102
ENDBRANCH  69  94
ENDBRANCH  43  44
ENDBRANCH  36  38
ENDBRANCH  35  36
ENDBRANCH  34  35
ENDBRANCH   1  34
TORSDOF 19
ENDMDL
MODEL 3
REMARK VINA RESULT:     -11.1      1.070      2.048
REMARK SMILES O=C(CCC(=O)OCCOC(=O)c1ccc(-c2c3nc(c(-c4c(F)cc(S(=O)(=O)[O-])cc4F)c4ccc([nH]4)c(-c4c(F)cc(S(=O)(=O)[O-])cc4F)c4nc(c(-c5c(F)cc(S(=O)(=O)[O-])cc5F)c5ccc2[nH]5)C=C4)C=C3)cc1)/[NH+]=C1\S[C@H]2CS(=O)(=O)C[C@@H]2N1c1ccc(Oc2ccccc2)cc1
REMARK SMILES IDX 8 1 7 2 5 3 6 4 4 5 3 6 2 7 1 8 79 9 80 10 81 12 89 13 82 14
REMARK SMILES IDX 88 15 83 16 87 17 84 18 85 19 86 20 90 21 91 22 102 23 92 24
REMARK SMILES IDX 101 25 93 26 94 27 95 28 96 29 100 30 97 31 99 32 98 33 9 34
REMARK SMILES IDX 10 35 11 36 12 37 13 38 14 39 78 40 15 41 77 42 16 43 17 44
REMARK SMILES IDX 18 45 71 46 19 47 76 48 70 49 72 50 20 51 75 52 69 53 68 54
REMARK SMILES IDX 21 56 55 57 34 58 54 59 35 60 38 61 53 62 73 63 36 64 37 65
REMARK SMILES IDX 52 67 74 68 39 69 22 70 23 71 32 72 24 73 25 74 31 75 33 76
REMARK SMILES IDX 26 77 27 78 28 79 29 80 30 81 56 82 57 83 66 84 58 85 59 86
REMARK SMILES IDX 65 87 67 88 60 89 61 90 62 91 63 92 64 93 40 94 41 95 50 96
REMARK SMILES IDX 42 97 43 98 49 99 51 100 44 101 45 102 46 103 47 104 48 105
REMARK H PARENT 79 11 72 55 38 66
REMARK Flexibility Score: inf
ROOT
ATOM      1  C   UNL A   1      43.651  22.977  25.577  1.00  0.00     0.274 C 
ENDROOT
BRANCH   1   2
ATOM      2  O   UNL A   1      42.336  22.528  25.209  1.00  0.00    -0.462 OA
BRANCH   2   3
ATOM      3  C   UNL A   1      41.693  21.843  26.175  1.00  0.00     0.306 C 
ATOM      4  O   UNL A   1      41.986  20.705  26.525  1.00  0.00    -0.252 OA
BRANCH   3   5
ATOM      5  C   UNL A   1      40.534  22.597  26.761  1.00  0.00     0.135 C 
BRANCH   5   6
ATOM      6  C   UNL A   1      39.083  22.170  26.534  1.00  0.00     0.139 C 
BRANCH   6   7
ATOM      7  C   UNL A   1      37.913  23.090  26.167  1.00  0.00     0.308 C 
ATOM      8  O   UNL A   1      38.166  24.117  25.533  1.00  0.00    -0.247 OA
ATOM      9  N   UNL A   1      36.620  22.825  26.533  1.00  0.00    -0.204 N 
ATOM     10  C   UNL A   1      35.801  22.149  25.789  1.00  0.00     0.319 C 
ATOM     11  H   UNL A   1      36.297  23.165  27.399  1.00  0.00     0.316 HD
ATOM     12  S   UNL A   1      36.204  21.109  24.401  1.00  0.00    -0.029 SA
ATOM     13  N   UNL A   1      34.432  22.028  26.040  1.00  0.00    -0.217 N 
ATOM     14  C   UNL A   1      34.582  20.268  24.434  1.00  0.00     0.120 C 
ATOM     15  C   UNL A   1      33.911  20.714  25.737  1.00  0.00     0.212 C 
ATOM     16  C   UNL A   1      34.415  18.760  24.518  1.00  0.00     0.156 C 
ATOM     17  C   UNL A   1      32.461  20.347  25.536  1.00  0.00     0.188 C 
ATOM     18  S   UNL A   1      32.681  18.615  25.048  1.00  0.00     0.155 S 
ATOM     19  O   UNL A   1      31.847  18.343  23.900  1.00  0.00    -0.229 OA
ATOM     20  O   UNL A   1      32.637  17.814  26.254  1.00  0.00    -0.229 OA
BRANCH  13  21
ATOM     21  C   UNL A   1      33.583  23.117  26.210  1.00  0.00     0.128 A 
ATOM     22  C   UNL A   1      32.412  23.030  26.972  1.00  0.00     0.056 A 
ATOM     23  C   UNL A   1      33.877  24.332  25.579  1.00  0.00     0.056 A 
ATOM     24  C   UNL A   1      31.521  24.104  27.042  1.00  0.00     0.051 A 
ATOM     25  C   UNL A   1      32.994  25.405  25.647  1.00  0.00     0.051 A 
ATOM     26  C   UNL A   1      31.791  25.282  26.347  1.00  0.00     0.127 A 
BRANCH  26  27
ATOM     27  O   UNL A   1      30.828  26.269  26.422  1.00  0.00    -0.457 OA
BRANCH  27  28
ATOM     28  C   UNL A   1      30.782  27.163  25.380  1.00  0.00     0.127 A 
ATOM     29  C   UNL A   1      30.066  26.804  24.241  1.00  0.00     0.047 A 
ATOM     30  C   UNL A   1      31.406  28.411  25.471  1.00  0.00     0.047 A 
ATOM     31  C   UNL A   1      29.911  27.729  23.209  1.00  0.00     0.004 A 
ATOM     32  C   UNL A   1      31.238  29.336  24.442  1.00  0.00     0.004 A 
ATOM     33  C   UNL A   1      30.484  28.998  23.317  1.00  0.00     0.000 A 
ENDBRANCH  27  28
ENDBRANCH  26  27
ENDBRANCH  13  21
ENDBRANCH   6   7
ENDBRANCH   5   6
ENDBRANCH   3   5
ENDBRANCH   2   3
ENDBRANCH   1   2
BRANCH   1  34
ATOM     34  C   UNL A   1      43.516  24.165  26.518  1.00  0.00     0.275 C 
BRANCH  34  35
ATOM     35  O   UNL A   1      43.233  25.424  25.891  1.00  0.00    -0.458 OA
BRANCH  35  36
ATOM     36  C   UNL A   1      42.006  25.913  26.154  1.00  0.00     0.338 C 
ATOM     37  O   UNL A   1      41.061  26.011  25.381  1.00  0.00    -0.246 OA
BRANCH  36  38
ATOM     38  C   UNL A   1      41.961  26.568  27.433  1.00  0.00     0.060 A 
ATOM     39  C   UNL A   1      42.886  27.553  27.739  1.00  0.00     0.016 A 
ATOM     40  C   UNL A   1      40.974  26.148  28.333  1.00  0.00     0.016 A 
ATOM     41  C   UNL A   1      42.765  28.189  28.960  1.00  0.00     0.010 A 
ATOM     42  C   UNL A   1      40.795  26.845  29.505  1.00  0.00     0.010 A 
ATOM     43  C   UNL A   1      41.684  27.877  29.807  1.00  0.00    -0.014 A 
BRANCH  43  44
ATOM     44  C   UNL A   1      41.415  28.731  30.967  1.00  0.00     0.031 A 
ATOM     45  C   UNL A   1      42.284  28.630  32.174  1.00  0.00     0.074 A 
ATOM     46  C   UNL A   1      40.354  29.552  30.865  1.00  0.00     0.049 A 
ATOM     47  N   UNL A   1      42.241  29.338  33.265  1.00  0.00    -0.248 NA
ATOM     48  C   UNL A   1      43.322  27.582  32.177  1.00  0.00     0.031 C 
ATOM     49  C   UNL A   1      39.428  29.592  29.722  1.00  0.00     0.029 A 
ATOM     50  N   UNL A   1      39.885  30.523  31.698  1.00  0.00    -0.354 N 
ATOM     51  C   UNL A   1      43.227  28.815  34.091  1.00  0.00     0.074 A 
ATOM     52  C   UNL A   1      43.831  27.705  33.394  1.00  0.00     0.031 C 
ATOM     53  C   UNL A   1      38.552  30.590  29.895  1.00  0.00     0.029 A 
ATOM     54  C   UNL A   1      38.820  31.222  31.178  1.00  0.00     0.049 A 
ATOM     55  H   UNL A   1      40.269  30.706  32.587  1.00  0.00     0.167 HD
ATOM     56  C   UNL A   1      43.585  29.254  35.317  1.00  0.00     0.037 A 
ATOM     57  C   UNL A   1      38.150  32.266  31.694  1.00  0.00     0.037 A 
ATOM     58  C   UNL A   1      42.960  30.395  35.933  1.00  0.00     0.049 A 
ATOM     59  C   UNL A   1      38.628  32.779  33.022  1.00  0.00     0.074 A 
ATOM     60  C   UNL A   1      43.259  30.999  37.138  1.00  0.00     0.029 A 
ATOM     61  N   UNL A   1      41.903  31.107  35.373  1.00  0.00    -0.354 N 
ATOM     62  N   UNL A   1      39.616  32.328  33.764  1.00  0.00    -0.248 NA
ATOM     63  C   UNL A   1      37.921  33.929  33.586  1.00  0.00     0.031 C 
ATOM     64  C   UNL A   1      42.354  32.049  37.325  1.00  0.00     0.029 A 
ATOM     65  C   UNL A   1      41.524  32.133  36.215  1.00  0.00     0.049 A 
ATOM     66  H   UNL A   1      41.486  30.906  34.504  1.00  0.00     0.167 HD
ATOM     67  C   UNL A   1      39.659  33.148  34.879  1.00  0.00     0.074 A 
ATOM     68  C   UNL A   1      38.612  34.138  34.699  1.00  0.00     0.031 C 
ATOM     69  C   UNL A   1      40.474  33.091  35.962  1.00  0.00     0.037 A 
BRANCH  56  70
ATOM     70  C   UNL A   1      44.664  28.513  36.054  1.00  0.00     0.058 A 
ATOM     71  C   UNL A   1      44.379  27.454  36.931  1.00  0.00     0.135 A 
ATOM     72  C   UNL A   1      46.015  28.844  35.854  1.00  0.00     0.135 A 
ATOM     73  F   UNL A   1      43.105  27.111  37.185  1.00  0.00    -0.206 F 
ATOM     74  C   UNL A   1      45.389  26.756  37.587  1.00  0.00     0.059 A 
ATOM     75  C   UNL A   1      47.043  28.144  36.479  1.00  0.00     0.059 A 
ATOM     76  F   UNL A   1      46.348  29.858  35.040  1.00  0.00    -0.206 F 
ATOM     77  C   UNL A   1      46.720  27.103  37.349  1.00  0.00     0.060 A 
BRANCH  77  78
ATOM     78  S   UNL A   1      48.020  26.161  38.175  1.00  0.00     0.124 S 
ATOM     79  O   UNL A   1      48.541  25.355  37.075  1.00  0.00    -0.237 OA
ATOM     80  O   UNL A   1      48.905  27.213  38.664  1.00  0.00    -0.237 OA
ATOM     81  O   UNL A   1      47.301  25.422  39.208  1.00  0.00    -0.744 OA
ENDBRANCH  77  78
ENDBRANCH  56  70
BRANCH  57  82
ATOM     82  C   UNL A   1      37.009  32.872  30.958  1.00  0.00     0.058 A 
ATOM     83  C   UNL A   1      35.685  32.488  31.215  1.00  0.00     0.135 A 
ATOM     84  C   UNL A   1      37.218  33.875  29.997  1.00  0.00     0.135 A 
ATOM     85  F   UNL A   1      35.425  31.547  32.136  1.00  0.00    -0.206 F 
ATOM     86  C   UNL A   1      34.613  33.048  30.523  1.00  0.00     0.059 A 
ATOM     87  C   UNL A   1      36.162  34.471  29.314  1.00  0.00     0.059 A 
ATOM     88  F   UNL A   1      38.460  34.307  29.734  1.00  0.00    -0.206 F 
ATOM     89  C   UNL A   1      34.863  34.035  29.568  1.00  0.00     0.060 A 
BRANCH  89  90
ATOM     90  S   UNL A   1      33.471  34.755  28.671  1.00  0.00     0.124 S 
ATOM     91  O   UNL A   1      32.530  35.015  29.754  1.00  0.00    -0.237 OA
ATOM     92  O   UNL A   1      34.077  35.932  28.055  1.00  0.00    -0.237 OA
ATOM     93  O   UNL A   1      33.087  33.697  27.741  1.00  0.00    -0.744 OA
ENDBRANCH  89  90
ENDBRANCH  57  82
BRANCH  69  94
ATOM     94  C   UNL A   1      40.265  34.145  37.003  1.00  0.00     0.058 A 
ATOM     95  C   UNL A   1      41.022  35.324  37.007  1.00  0.00     0.135 A 
ATOM     96  C   UNL A   1      39.251  33.996  37.961  1.00  0.00     0.135 A 
ATOM     97  F   UNL A   1      42.007  35.500  36.113  1.00  0.00    -0.206 F 
ATOM     98  C   UNL A   1      40.791  36.321  37.944  1.00  0.00     0.059 A 
ATOM     99  C   UNL A   1      38.984  34.993  38.888  1.00  0.00     0.059 A 
ATOM    100  F   UNL A   1      38.497  32.884  37.983  1.00  0.00    -0.206 F 
ATOM    101  C   UNL A   1      39.766  36.148  38.876  1.00  0.00     0.060 A 
BRANCH 101 102
ATOM    102  S   UNL A   1      39.443  37.472  40.054  1.00  0.00     0.124 S 
ATOM    103  O   UNL A   1      40.699  38.213  40.012  1.00  0.00    -0.237 OA
ATOM    104  O   UNL A   1      38.290  38.143  39.461  1.00  0.00    -0.237 OA
ATOM    105  O   UNL A   1      39.174  36.761  41.300  1.00  0.00    -0.744 OA
ENDBRANCH 101 102
ENDBRANCH  69  94
ENDBRANCH  43  44
ENDBRANCH  36  38
ENDBRANCH  35  36
ENDBRANCH  34  35
ENDBRANCH   1  34
TORSDOF 19
ENDMDL
