MODEL 1
REMARK VINA RESULT:     -11.1      0.000      0.000
REMARK SMILES O=C(CSCC(=O)N1CCN(c2ccc(F)cc2)CC1)OCCOC(=O)c1ccc(-c2c3nc(c(-c4c(F)cc(S(=O)(=O)[O-])cc4F)c4ccc([nH]4)c(-c4c(F)cc(S(=O)(=O)[O-])cc4F)c4nc(c(-c5c(F)cc(S(=O)(=O)[O-])cc5F)c5ccc2[nH]5)C=C4)C=C3)cc1
REMARK SMILES IDX 22 1 21 2 2 3 1 4 3 5 4 6 5 7 6 8 7 9 8 10 9 11 20 12 10 13
REMARK SMILES IDX 19 14 11 15 12 16 13 17 18 18 14 19 17 20 15 21 16 22 23 23
REMARK SMILES IDX 24 24 25 25 26 26 27 27 28 28 92 29 29 30 91 31 30 32 31 33
REMARK SMILES IDX 32 34 85 35 33 36 90 37 84 38 86 39 34 40 89 41 83 42 82 43
REMARK SMILES IDX 35 45 69 46 48 47 68 48 49 49 52 50 67 51 87 52 50 53 51 54
REMARK SMILES IDX 66 56 88 57 53 58 36 59 37 60 46 61 38 62 39 63 45 64 47 65
REMARK SMILES IDX 40 66 41 67 42 68 43 69 44 70 70 71 71 72 80 73 72 74 73 75
REMARK SMILES IDX 79 76 81 77 74 78 75 79 76 80 77 81 78 82 54 83 55 84 64 85
REMARK SMILES IDX 56 86 57 87 63 88 65 89 58 90 59 91 60 92 61 93 62 94
REMARK H PARENT 86 44 52 55
REMARK Flexibility Score: inf
ROOT
ATOM      1  C   UNL A   1      34.470  31.227  27.615  1.00  0.00     0.274 C 
ENDROOT
BRANCH   1   2
ATOM      2  O   UNL A   1      33.038  31.088  27.727  1.00  0.00    -0.461 OA
BRANCH   2   3
ATOM      3  C   UNL A   1      32.223  30.631  26.746  1.00  0.00     0.316 C 
ATOM      4  O   UNL A   1      31.455  31.400  26.171  1.00  0.00    -0.251 OA
BRANCH   3   5
ATOM      5  C   UNL A   1      32.292  29.174  26.365  1.00  0.00     0.192 C 
BRANCH   5   6
ATOM      6  S   UNL A   1      32.688  28.956  24.610  1.00  0.00    -0.140 SA
BRANCH   6   7
ATOM      7  C   UNL A   1      31.033  28.617  23.969  1.00  0.00     0.170 C 
BRANCH   7   8
ATOM      8  C   UNL A   1      30.882  27.535  22.905  1.00  0.00     0.232 C 
ATOM      9  O   UNL A   1      30.625  27.861  21.744  1.00  0.00    -0.274 OA
ATOM     10  N   UNL A   1      31.304  26.258  23.206  1.00  0.00    -0.338 N 
ATOM     11  C   UNL A   1      32.139  25.550  22.229  1.00  0.00     0.141 C 
ATOM     12  C   UNL A   1      30.742  25.381  24.243  1.00  0.00     0.141 C 
ATOM     13  C   UNL A   1      33.289  24.818  22.947  1.00  0.00     0.138 C 
ATOM     14  C   UNL A   1      31.832  24.595  24.983  1.00  0.00     0.138 C 
ATOM     15  N   UNL A   1      32.743  23.973  24.021  1.00  0.00    -0.368 N 
BRANCH  15  16
ATOM     16  C   UNL A   1      33.172  22.675  24.167  1.00  0.00     0.037 A 
ATOM     17  C   UNL A   1      34.515  22.394  24.459  1.00  0.00     0.029 A 
ATOM     18  C   UNL A   1      32.276  21.601  24.078  1.00  0.00     0.029 A 
ATOM     19  C   UNL A   1      34.945  21.083  24.672  1.00  0.00     0.041 A 
ATOM     20  C   UNL A   1      32.704  20.286  24.273  1.00  0.00     0.041 A 
ATOM     21  C   UNL A   1      34.036  20.041  24.572  1.00  0.00     0.123 A 
ATOM     22  F   UNL A   1      34.449  18.781  24.765  1.00  0.00    -0.207 F 
ENDBRANCH  15  16
ENDBRANCH   7   8
ENDBRANCH   6   7
ENDBRANCH   5   6
ENDBRANCH   3   5
ENDBRANCH   2   3
ENDBRANCH   1   2
BRANCH   1  23
ATOM     23  C   UNL A   1      35.063  32.002  28.794  1.00  0.00     0.275 C 
BRANCH  23  24
ATOM     24  O   UNL A   1      35.720  31.122  29.727  1.00  0.00    -0.458 OA
BRANCH  24  25
ATOM     25  C   UNL A   1      36.868  31.603  30.271  1.00  0.00     0.338 C 
ATOM     26  O   UNL A   1      36.948  32.477  31.116  1.00  0.00    -0.246 OA
BRANCH  25  27
ATOM     27  C   UNL A   1      38.028  30.798  29.818  1.00  0.00     0.060 A 
ATOM     28  C   UNL A   1      39.070  30.586  30.731  1.00  0.00     0.016 A 
ATOM     29  C   UNL A   1      38.123  30.284  28.520  1.00  0.00     0.016 A 
ATOM     30  C   UNL A   1      40.234  29.927  30.328  1.00  0.00     0.010 A 
ATOM     31  C   UNL A   1      39.289  29.618  28.121  1.00  0.00     0.010 A 
ATOM     32  C   UNL A   1      40.371  29.478  29.008  1.00  0.00    -0.014 A 
BRANCH  32  33
ATOM     33  C   UNL A   1      41.704  29.032  28.520  1.00  0.00     0.031 A 
ATOM     34  C   UNL A   1      42.831  30.031  28.466  1.00  0.00     0.074 A 
ATOM     35  C   UNL A   1      41.936  27.752  28.176  1.00  0.00     0.049 A 
ATOM     36  N   UNL A   1      44.082  29.849  28.132  1.00  0.00    -0.248 NA
ATOM     37  C   UNL A   1      42.502  31.416  28.839  1.00  0.00     0.031 C 
ATOM     38  C   UNL A   1      40.947  26.680  28.212  1.00  0.00     0.029 A 
ATOM     39  N   UNL A   1      43.081  27.137  27.733  1.00  0.00    -0.354 N 
ATOM     40  C   UNL A   1      44.695  31.087  28.277  1.00  0.00     0.074 A 
ATOM     41  C   UNL A   1      43.665  32.026  28.667  1.00  0.00     0.031 C 
ATOM     42  C   UNL A   1      41.522  25.539  27.797  1.00  0.00     0.029 A 
ATOM     43  C   UNL A   1      42.924  25.797  27.472  1.00  0.00     0.049 A 
ATOM     44  H   UNL A   1      43.936  27.613  27.614  1.00  0.00     0.167 HD
ATOM     45  C   UNL A   1      46.001  31.412  28.130  1.00  0.00     0.037 A 
ATOM     46  C   UNL A   1      43.808  24.876  27.037  1.00  0.00     0.037 A 
ATOM     47  C   UNL A   1      47.029  30.485  27.734  1.00  0.00     0.049 A 
ATOM     48  C   UNL A   1      45.247  25.266  26.826  1.00  0.00     0.074 A 
ATOM     49  C   UNL A   1      48.380  30.726  27.551  1.00  0.00     0.029 A 
ATOM     50  N   UNL A   1      46.823  29.141  27.458  1.00  0.00    -0.354 N 
ATOM     51  N   UNL A   1      45.815  26.437  26.992  1.00  0.00    -0.248 NA
ATOM     52  C   UNL A   1      46.170  24.208  26.389  1.00  0.00     0.031 C 
ATOM     53  C   UNL A   1      48.984  29.538  27.127  1.00  0.00     0.029 A 
ATOM     54  C   UNL A   1      48.018  28.544  27.094  1.00  0.00     0.049 A 
ATOM     55  H   UNL A   1      45.955  28.681  27.514  1.00  0.00     0.167 HD
ATOM     56  C   UNL A   1      47.167  26.247  26.720  1.00  0.00     0.074 A 
ATOM     57  C   UNL A   1      47.331  24.850  26.375  1.00  0.00     0.031 C 
ATOM     58  C   UNL A   1      48.179  27.149  26.763  1.00  0.00     0.037 A 
BRANCH  45  59
ATOM     59  C   UNL A   1      46.392  32.838  28.399  1.00  0.00     0.058 A 
ATOM     60  C   UNL A   1      46.377  33.791  27.369  1.00  0.00     0.135 A 
ATOM     61  C   UNL A   1      46.804  33.256  29.675  1.00  0.00     0.135 A 
ATOM     62  F   UNL A   1      45.984  33.447  26.133  1.00  0.00    -0.206 F 
ATOM     63  C   UNL A   1      46.761  35.108  27.594  1.00  0.00     0.059 A 
ATOM     64  C   UNL A   1      47.166  34.576  29.929  1.00  0.00     0.059 A 
ATOM     65  F   UNL A   1      46.810  32.389  30.700  1.00  0.00    -0.206 F 
ATOM     66  C   UNL A   1      47.151  35.492  28.879  1.00  0.00     0.060 A 
BRANCH  66  67
ATOM     67  S   UNL A   1      47.584  37.221  29.168  1.00  0.00     0.124 S 
ATOM     68  O   UNL A   1      46.294  37.883  29.017  1.00  0.00    -0.237 OA
ATOM     69  O   UNL A   1      48.123  37.178  30.525  1.00  0.00    -0.237 OA
ATOM     70  O   UNL A   1      48.565  37.502  28.125  1.00  0.00    -0.744 OA
ENDBRANCH  66  67
ENDBRANCH  45  59
BRANCH  46  71
ATOM     71  C   UNL A   1      43.357  23.475  26.823  1.00  0.00     0.058 A 
ATOM     72  C   UNL A   1      43.104  22.623  27.909  1.00  0.00     0.135 A 
ATOM     73  C   UNL A   1      43.211  22.950  25.530  1.00  0.00     0.135 A 
ATOM     74  F   UNL A   1      43.230  23.080  29.165  1.00  0.00    -0.206 F 
ATOM     75  C   UNL A   1      42.755  21.290  27.722  1.00  0.00     0.059 A 
ATOM     76  C   UNL A   1      42.838  21.626  25.316  1.00  0.00     0.059 A 
ATOM     77  F   UNL A   1      43.427  23.733  24.461  1.00  0.00    -0.206 F 
ATOM     78  C   UNL A   1      42.633  20.799  26.421  1.00  0.00     0.060 A 
BRANCH  78  79
ATOM     79  S   UNL A   1      42.221  19.055  26.198  1.00  0.00     0.124 S 
ATOM     80  O   UNL A   1      43.140  18.675  25.128  1.00  0.00    -0.237 OA
ATOM     81  O   UNL A   1      42.515  18.498  27.514  1.00  0.00    -0.237 OA
ATOM     82  O   UNL A   1      40.809  19.084  25.831  1.00  0.00    -0.744 OA
ENDBRANCH  78  79
ENDBRANCH  46  71
BRANCH  58  83
ATOM     83  C   UNL A   1      49.573  26.661  26.471  1.00  0.00     0.058 A 
ATOM     84  C   UNL A   1      50.086  26.729  25.166  1.00  0.00     0.135 A 
ATOM     85  C   UNL A   1      50.371  26.061  27.458  1.00  0.00     0.135 A 
ATOM     86  F   UNL A   1      49.362  27.287  24.181  1.00  0.00    -0.206 F 
ATOM     87  C   UNL A   1      51.335  26.207  24.845  1.00  0.00     0.059 A 
ATOM     88  C   UNL A   1      51.635  25.555  27.164  1.00  0.00     0.059 A 
ATOM     89  F   UNL A   1      49.931  25.978  28.723  1.00  0.00    -0.206 F 
ATOM     90  C   UNL A   1      52.102  25.619  25.851  1.00  0.00     0.060 A 
BRANCH  90  91
ATOM     91  S   UNL A   1      53.730  24.965  25.422  1.00  0.00     0.124 S 
ATOM     92  O   UNL A   1      53.460  23.535  25.322  1.00  0.00    -0.237 OA
ATOM     93  O   UNL A   1      54.017  25.648  24.164  1.00  0.00    -0.237 OA
ATOM     94  O   UNL A   1      54.564  25.370  26.550  1.00  0.00    -0.744 OA
ENDBRANCH  90  91
ENDBRANCH  58  83
ENDBRANCH  32  33
ENDBRANCH  25  27
ENDBRANCH  24  25
ENDBRANCH  23  24
ENDBRANCH   1  23
TORSDOF 18
ENDMDL
MODEL 2
REMARK VINA RESULT:     -11.0      1.179      2.096
REMARK SMILES O=C(CSCC(=O)N1CCN(c2ccc(F)cc2)CC1)OCCOC(=O)c1ccc(-c2c3nc(c(-c4c(F)cc(S(=O)(=O)[O-])cc4F)c4ccc([nH]4)c(-c4c(F)cc(S(=O)(=O)[O-])cc4F)c4nc(c(-c5c(F)cc(S(=O)(=O)[O-])cc5F)c5ccc2[nH]5)C=C4)C=C3)cc1
REMARK SMILES IDX 22 1 21 2 2 3 1 4 3 5 4 6 5 7 6 8 7 9 8 10 9 11 20 12 10 13
REMARK SMILES IDX 19 14 11 15 12 16 13 17 18 18 14 19 17 20 15 21 16 22 23 23
REMARK SMILES IDX 24 24 25 25 26 26 27 27 28 28 92 29 29 30 91 31 30 32 31 33
REMARK SMILES IDX 32 34 85 35 33 36 90 37 84 38 86 39 34 40 89 41 83 42 82 43
REMARK SMILES IDX 35 45 69 46 48 47 68 48 49 49 52 50 67 51 87 52 50 53 51 54
REMARK SMILES IDX 66 56 88 57 53 58 36 59 37 60 46 61 38 62 39 63 45 64 47 65
REMARK SMILES IDX 40 66 41 67 42 68 43 69 44 70 70 71 71 72 80 73 72 74 73 75
REMARK SMILES IDX 79 76 81 77 74 78 75 79 76 80 77 81 78 82 54 83 55 84 64 85
REMARK SMILES IDX 56 86 57 87 63 88 65 89 58 90 59 91 60 92 61 93 62 94
REMARK H PARENT 86 44 52 55
REMARK Flexibility Score: inf
ROOT
ATOM      1  C   UNL A   1      34.165  31.256  28.083  1.00  0.00     0.274 C 
ENDROOT
BRANCH   1   2
ATOM      2  O   UNL A   1      33.788  30.184  27.193  1.00  0.00    -0.461 OA
BRANCH   2   3
ATOM      3  C   UNL A   1      32.621  30.118  26.508  1.00  0.00     0.316 C 
ATOM      4  O   UNL A   1      31.850  31.076  26.505  1.00  0.00    -0.251 OA
BRANCH   3   5
ATOM      5  C   UNL A   1      32.299  28.860  25.741  1.00  0.00     0.192 C 
BRANCH   5   6
ATOM      6  S   UNL A   1      33.553  27.576  25.999  1.00  0.00    -0.140 SA
BRANCH   6   7
ATOM      7  C   UNL A   1      32.724  26.183  25.202  1.00  0.00     0.170 C 
BRANCH   7   8
ATOM      8  C   UNL A   1      32.221  25.046  26.084  1.00  0.00     0.232 C 
ATOM      9  O   UNL A   1      31.318  25.265  26.896  1.00  0.00    -0.274 OA
ATOM     10  N   UNL A   1      32.588  23.757  25.764  1.00  0.00    -0.338 N 
ATOM     11  C   UNL A   1      31.550  22.720  25.740  1.00  0.00     0.141 C 
ATOM     12  C   UNL A   1      33.955  23.218  25.772  1.00  0.00     0.141 C 
ATOM     13  C   UNL A   1      31.739  21.810  24.511  1.00  0.00     0.138 C 
ATOM     14  C   UNL A   1      34.208  22.276  24.588  1.00  0.00     0.138 C 
ATOM     15  N   UNL A   1      33.120  21.303  24.480  1.00  0.00    -0.368 N 
BRANCH  15  16
ATOM     16  C   UNL A   1      33.363  19.970  24.244  1.00  0.00     0.037 A 
ATOM     17  C   UNL A   1      32.456  19.197  23.504  1.00  0.00     0.029 A 
ATOM     18  C   UNL A   1      34.542  19.358  24.690  1.00  0.00     0.029 A 
ATOM     19  C   UNL A   1      32.725  17.861  23.206  1.00  0.00     0.041 A 
ATOM     20  C   UNL A   1      34.810  18.016  24.410  1.00  0.00     0.041 A 
ATOM     21  C   UNL A   1      33.898  17.281  23.666  1.00  0.00     0.123 A 
ATOM     22  F   UNL A   1      34.154  15.995  23.391  1.00  0.00    -0.207 F 
ENDBRANCH  15  16
ENDBRANCH   7   8
ENDBRANCH   6   7
ENDBRANCH   5   6
ENDBRANCH   3   5
ENDBRANCH   2   3
ENDBRANCH   1   2
BRANCH   1  23
ATOM     23  C   UNL A   1      35.680  31.321  28.289  1.00  0.00     0.275 C 
BRANCH  23  24
ATOM     24  O   UNL A   1      36.020  31.362  29.689  1.00  0.00    -0.458 OA
BRANCH  24  25
ATOM     25  C   UNL A   1      36.592  30.232  30.181  1.00  0.00     0.338 C 
ATOM     26  O   UNL A   1      36.019  29.347  30.793  1.00  0.00    -0.246 OA
BRANCH  25  27
ATOM     27  C   UNL A   1      38.001  30.129  29.729  1.00  0.00     0.060 A 
ATOM     28  C   UNL A   1      38.232  29.918  28.363  1.00  0.00     0.016 A 
ATOM     29  C   UNL A   1      39.080  30.205  30.615  1.00  0.00     0.016 A 
ATOM     30  C   UNL A   1      39.531  29.708  27.894  1.00  0.00     0.010 A 
ATOM     31  C   UNL A   1      40.384  30.001  30.142  1.00  0.00     0.010 A 
ATOM     32  C   UNL A   1      40.612  29.702  28.787  1.00  0.00    -0.014 A 
BRANCH  32  33
ATOM     33  C   UNL A   1      41.939  29.209  28.328  1.00  0.00     0.031 A 
ATOM     34  C   UNL A   1      43.092  30.175  28.266  1.00  0.00     0.074 A 
ATOM     35  C   UNL A   1      42.140  27.915  28.018  1.00  0.00     0.049 A 
ATOM     36  N   UNL A   1      44.342  29.952  27.953  1.00  0.00    -0.248 NA
ATOM     37  C   UNL A   1      42.796  31.578  28.602  1.00  0.00     0.031 C 
ATOM     38  C   UNL A   1      41.122  26.871  28.066  1.00  0.00     0.029 A 
ATOM     39  N   UNL A   1      43.274  27.260  27.605  1.00  0.00    -0.354 N 
ATOM     40  C   UNL A   1      44.987  31.177  28.078  1.00  0.00     0.074 A 
ATOM     41  C   UNL A   1      43.978  32.152  28.431  1.00  0.00     0.031 C 
ATOM     42  C   UNL A   1      41.672  25.705  27.686  1.00  0.00     0.029 A 
ATOM     43  C   UNL A   1      43.085  25.918  27.374  1.00  0.00     0.049 A 
ATOM     44  H   UNL A   1      44.143  27.709  27.487  1.00  0.00     0.167 HD
ATOM     45  C   UNL A   1      46.303  31.463  27.940  1.00  0.00     0.037 A 
ATOM     46  C   UNL A   1      43.949  24.964  26.973  1.00  0.00     0.037 A 
ATOM     47  C   UNL A   1      47.311  30.500  27.581  1.00  0.00     0.049 A 
ATOM     48  C   UNL A   1      45.401  25.310  26.772  1.00  0.00     0.074 A 
ATOM     49  C   UNL A   1      48.670  30.701  27.411  1.00  0.00     0.029 A 
ATOM     50  N   UNL A   1      47.072  29.156  27.334  1.00  0.00    -0.354 N 
ATOM     51  N   UNL A   1      45.998  26.469  26.919  1.00  0.00    -0.248 NA
ATOM     52  C   UNL A   1      46.300  24.218  26.374  1.00  0.00     0.031 C 
ATOM     53  C   UNL A   1      49.247  29.486  27.024  1.00  0.00     0.029 A 
ATOM     54  C   UNL A   1      48.255  28.518  27.001  1.00  0.00     0.049 A 
ATOM     55  H   UNL A   1      46.191  28.720  27.389  1.00  0.00     0.167 HD
ATOM     56  C   UNL A   1      47.348  26.237  26.669  1.00  0.00     0.074 A 
ATOM     57  C   UNL A   1      47.478  24.827  26.361  1.00  0.00     0.031 C 
ATOM     58  C   UNL A   1      48.383  27.112  26.706  1.00  0.00     0.037 A 
BRANCH  45  59
ATOM     59  C   UNL A   1      46.728  32.884  28.181  1.00  0.00     0.058 A 
ATOM     60  C   UNL A   1      47.155  33.299  29.452  1.00  0.00     0.135 A 
ATOM     61  C   UNL A   1      46.691  33.844  27.156  1.00  0.00     0.135 A 
ATOM     62  F   UNL A   1      47.217  32.421  30.465  1.00  0.00    -0.206 F 
ATOM     63  C   UNL A   1      47.526  34.616  29.700  1.00  0.00     0.059 A 
ATOM     64  C   UNL A   1      47.084  35.161  27.375  1.00  0.00     0.059 A 
ATOM     65  F   UNL A   1      46.316  33.492  25.916  1.00  0.00    -0.206 F 
ATOM     66  C   UNL A   1      47.490  35.539  28.653  1.00  0.00     0.060 A 
BRANCH  66  67
ATOM     67  S   UNL A   1      48.037  37.229  28.976  1.00  0.00     0.124 S 
ATOM     68  O   UNL A   1      49.224  37.326  28.135  1.00  0.00    -0.237 OA
ATOM     69  O   UNL A   1      46.883  38.012  28.541  1.00  0.00    -0.237 OA
ATOM     70  O   UNL A   1      48.279  37.237  30.415  1.00  0.00    -0.744 OA
ENDBRANCH  66  67
ENDBRANCH  45  59
BRANCH  46  71
ATOM     71  C   UNL A   1      43.463  23.571  26.786  1.00  0.00     0.058 A 
ATOM     72  C   UNL A   1      43.228  22.732  27.888  1.00  0.00     0.135 A 
ATOM     73  C   UNL A   1      43.265  23.038  25.503  1.00  0.00     0.135 A 
ATOM     74  F   UNL A   1      43.403  23.197  29.134  1.00  0.00    -0.206 F 
ATOM     75  C   UNL A   1      42.846  21.406  27.723  1.00  0.00     0.059 A 
ATOM     76  C   UNL A   1      42.859  21.720  25.314  1.00  0.00     0.059 A 
ATOM     77  F   UNL A   1      43.462  23.807  24.421  1.00  0.00    -0.206 F 
ATOM     78  C   UNL A   1      42.673  20.906  26.431  1.00  0.00     0.060 A 
BRANCH  78  79
ATOM     79  S   UNL A   1      42.219  19.169  26.237  1.00  0.00     0.124 S 
ATOM     80  O   UNL A   1      40.861  19.282  25.712  1.00  0.00    -0.237 OA
ATOM     81  O   UNL A   1      43.226  18.691  25.296  1.00  0.00    -0.237 OA
ATOM     82  O   UNL A   1      42.325  18.637  27.592  1.00  0.00    -0.744 OA
ENDBRANCH  78  79
ENDBRANCH  46  71
BRANCH  58  83
ATOM     83  C   UNL A   1      49.766  26.581  26.444  1.00  0.00     0.058 A 
ATOM     84  C   UNL A   1      50.278  26.554  25.137  1.00  0.00     0.135 A 
ATOM     85  C   UNL A   1      50.556  26.030  27.467  1.00  0.00     0.135 A 
ATOM     86  F   UNL A   1      49.563  27.061  24.119  1.00  0.00    -0.206 F 
ATOM     87  C   UNL A   1      51.516  25.989  24.849  1.00  0.00     0.059 A 
ATOM     88  C   UNL A   1      51.810  25.483  27.205  1.00  0.00     0.059 A 
ATOM     89  F   UNL A   1      50.117  26.037  28.735  1.00  0.00    -0.206 F 
ATOM     90  C   UNL A   1      52.274  25.453  25.891  1.00  0.00     0.060 A 
BRANCH  90  91
ATOM     91  S   UNL A   1      53.889  24.742  25.503  1.00  0.00     0.124 S 
ATOM     92  O   UNL A   1      54.347  25.613  24.426  1.00  0.00    -0.237 OA
ATOM     93  O   UNL A   1      54.598  24.873  26.772  1.00  0.00    -0.237 OA
ATOM     94  O   UNL A   1      53.570  23.373  25.111  1.00  0.00    -0.744 OA
ENDBRANCH  90  91
ENDBRANCH  58  83
ENDBRANCH  32  33
ENDBRANCH  25  27
ENDBRANCH  24  25
ENDBRANCH  23  24
ENDBRANCH   1  23
TORSDOF 18
ENDMDL
MODEL 3
REMARK VINA RESULT:     -10.9      1.003      8.304
REMARK SMILES O=C(CSCC(=O)N1CCN(c2ccc(F)cc2)CC1)OCCOC(=O)c1ccc(-c2c3nc(c(-c4c(F)cc(S(=O)(=O)[O-])cc4F)c4ccc([nH]4)c(-c4c(F)cc(S(=O)(=O)[O-])cc4F)c4nc(c(-c5c(F)cc(S(=O)(=O)[O-])cc5F)c5ccc2[nH]5)C=C4)C=C3)cc1
REMARK SMILES IDX 22 1 21 2 2 3 1 4 3 5 4 6 5 7 6 8 7 9 8 10 9 11 20 12 10 13
REMARK SMILES IDX 19 14 11 15 12 16 13 17 18 18 14 19 17 20 15 21 16 22 23 23
REMARK SMILES IDX 24 24 25 25 26 26 27 27 28 28 92 29 29 30 91 31 30 32 31 33
REMARK SMILES IDX 32 34 85 35 33 36 90 37 84 38 86 39 34 40 89 41 83 42 82 43
REMARK SMILES IDX 35 45 69 46 48 47 68 48 49 49 52 50 67 51 87 52 50 53 51 54
REMARK SMILES IDX 66 56 88 57 53 58 36 59 37 60 46 61 38 62 39 63 45 64 47 65
REMARK SMILES IDX 40 66 41 67 42 68 43 69 44 70 70 71 71 72 80 73 72 74 73 75
REMARK SMILES IDX 79 76 81 77 74 78 75 79 76 80 77 81 78 82 54 83 55 84 64 85
REMARK SMILES IDX 56 86 57 87 63 88 65 89 58 90 59 91 60 92 61 93 62 94
REMARK H PARENT 86 44 52 55
REMARK Flexibility Score: inf
ROOT
ATOM      1  C   UNL A   1      34.273  30.674  27.261  1.00  0.00     0.274 C 
ENDROOT
BRANCH   1   2
ATOM      2  O   UNL A   1      32.878  30.766  26.902  1.00  0.00    -0.461 OA
BRANCH   2   3
ATOM      3  C   UNL A   1      32.245  29.944  26.031  1.00  0.00     0.316 C 
ATOM      4  O   UNL A   1      31.357  30.381  25.301  1.00  0.00    -0.251 OA
BRANCH   3   5
ATOM      5  C   UNL A   1      32.662  28.497  25.965  1.00  0.00     0.192 C 
BRANCH   5   6
ATOM      6  S   UNL A   1      33.485  28.106  24.397  1.00  0.00    -0.140 SA
BRANCH   6   7
ATOM      7  C   UNL A   1      32.460  26.719  23.858  1.00  0.00     0.170 C 
BRANCH   7   8
ATOM      8  C   UNL A   1      33.047  25.743  22.846  1.00  0.00     0.232 C 
ATOM      9  O   UNL A   1      33.866  26.150  22.017  1.00  0.00    -0.274 OA
ATOM     10  N   UNL A   1      32.863  24.393  23.054  1.00  0.00    -0.338 N 
ATOM     11  C   UNL A   1      34.022  23.502  22.928  1.00  0.00     0.141 C 
ATOM     12  C   UNL A   1      31.576  23.685  23.058  1.00  0.00     0.141 C 
ATOM     13  C   UNL A   1      34.021  22.466  24.069  1.00  0.00     0.138 C 
ATOM     14  C   UNL A   1      31.513  22.614  24.155  1.00  0.00     0.138 C 
ATOM     15  N   UNL A   1      32.718  21.784  24.115  1.00  0.00    -0.368 N 
BRANCH  15  16
ATOM     16  C   UNL A   1      32.657  20.415  24.230  1.00  0.00     0.037 A 
ATOM     17  C   UNL A   1      32.435  19.611  23.102  1.00  0.00     0.029 A 
ATOM     18  C   UNL A   1      32.865  19.781  25.463  1.00  0.00     0.029 A 
ATOM     19  C   UNL A   1      32.436  18.219  23.200  1.00  0.00     0.041 A 
ATOM     20  C   UNL A   1      32.850  18.389  25.570  1.00  0.00     0.041 A 
ATOM     21  C   UNL A   1      32.639  17.621  24.435  1.00  0.00     0.123 A 
ATOM     22  F   UNL A   1      32.629  16.285  24.533  1.00  0.00    -0.207 F 
ENDBRANCH  15  16
ENDBRANCH   7   8
ENDBRANCH   6   7
ENDBRANCH   5   6
ENDBRANCH   3   5
ENDBRANCH   2   3
ENDBRANCH   1   2
BRANCH   1  23
ATOM     23  C   UNL A   1      34.602  31.518  28.494  1.00  0.00     0.275 C 
BRANCH  23  24
ATOM     24  O   UNL A   1      36.021  31.733  28.622  1.00  0.00    -0.458 OA
BRANCH  24  25
ATOM     25  C   UNL A   1      36.581  31.254  29.764  1.00  0.00     0.338 C 
ATOM     26  O   UNL A   1      36.068  31.258  30.870  1.00  0.00    -0.246 OA
BRANCH  25  27
ATOM     27  C   UNL A   1      37.857  30.561  29.460  1.00  0.00     0.060 A 
ATOM     28  C   UNL A   1      38.786  30.423  30.499  1.00  0.00     0.016 A 
ATOM     29  C   UNL A   1      38.164  30.082  28.182  1.00  0.00     0.016 A 
ATOM     30  C   UNL A   1      40.046  29.874  30.248  1.00  0.00     0.010 A 
ATOM     31  C   UNL A   1      39.426  29.526  27.933  1.00  0.00     0.010 A 
ATOM     32  C   UNL A   1      40.392  29.464  28.953  1.00  0.00    -0.014 A 
BRANCH  32  33
ATOM     33  C   UNL A   1      41.811  29.144  28.640  1.00  0.00     0.031 A 
ATOM     34  C   UNL A   1      42.175  27.728  28.278  1.00  0.00     0.074 A 
ATOM     35  C   UNL A   1      42.761  30.097  28.626  1.00  0.00     0.049 A 
ATOM     36  N   UNL A   1      43.331  27.238  27.914  1.00  0.00    -0.248 NA
ATOM     37  C   UNL A   1      41.090  26.735  28.331  1.00  0.00     0.031 C 
ATOM     38  C   UNL A   1      42.540  31.508  28.925  1.00  0.00     0.029 A 
ATOM     39  N   UNL A   1      44.103  30.019  28.343  1.00  0.00    -0.354 N 
ATOM     40  C   UNL A   1      43.110  25.888  27.672  1.00  0.00     0.074 A 
ATOM     41  C   UNL A   1      41.724  25.622  27.992  1.00  0.00     0.031 C 
ATOM     42  C   UNL A   1      43.708  32.165  28.821  1.00  0.00     0.029 A 
ATOM     43  C   UNL A   1      44.759  31.223  28.441  1.00  0.00     0.049 A 
ATOM     44  H   UNL A   1      44.552  29.180  28.091  1.00  0.00     0.167 HD
ATOM     45  C   UNL A   1      43.972  24.957  27.198  1.00  0.00     0.037 A 
ATOM     46  C   UNL A   1      46.054  31.538  28.235  1.00  0.00     0.037 A 
ATOM     47  C   UNL A   1      45.353  25.213  26.886  1.00  0.00     0.049 A 
ATOM     48  C   UNL A   1      47.012  30.477  27.760  1.00  0.00     0.074 A 
ATOM     49  C   UNL A   1      46.304  24.328  26.407  1.00  0.00     0.029 A 
ATOM     50  N   UNL A   1      45.984  26.441  27.021  1.00  0.00    -0.354 N 
ATOM     51  N   UNL A   1      46.780  29.211  27.512  1.00  0.00    -0.248 NA
ATOM     52  C   UNL A   1      48.401  30.892  27.515  1.00  0.00     0.031 C 
ATOM     53  C   UNL A   1      47.519  25.011  26.291  1.00  0.00     0.029 A 
ATOM     54  C   UNL A   1      47.313  26.334  26.648  1.00  0.00     0.049 A 
ATOM     55  H   UNL A   1      45.550  27.266  27.335  1.00  0.00     0.167 HD
ATOM     56  C   UNL A   1      47.982  28.687  27.045  1.00  0.00     0.074 A 
ATOM     57  C   UNL A   1      48.940  29.774  27.047  1.00  0.00     0.031 C 
ATOM     58  C   UNL A   1      48.260  27.422  26.641  1.00  0.00     0.037 A 
BRANCH  45  59
ATOM     59  C   UNL A   1      43.438  23.568  26.989  1.00  0.00     0.058 A 
ATOM     60  C   UNL A   1      43.232  22.708  28.079  1.00  0.00     0.135 A 
ATOM     61  C   UNL A   1      43.151  23.078  25.704  1.00  0.00     0.135 A 
ATOM     62  F   UNL A   1      43.482  23.127  29.329  1.00  0.00    -0.206 F 
ATOM     63  C   UNL A   1      42.765  21.410  27.902  1.00  0.00     0.059 A 
ATOM     64  C   UNL A   1      42.657  21.792  25.506  1.00  0.00     0.059 A 
ATOM     65  F   UNL A   1      43.306  23.870  24.631  1.00  0.00    -0.206 F 
ATOM     66  C   UNL A   1      42.477  20.963  26.611  1.00  0.00     0.060 A 
BRANCH  66  67
ATOM     67  S   UNL A   1      41.810  19.298  26.405  1.00  0.00     0.124 S 
ATOM     68  O   UNL A   1      40.408  19.570  26.111  1.00  0.00    -0.237 OA
ATOM     69  O   UNL A   1      42.606  18.786  25.292  1.00  0.00    -0.237 OA
ATOM     70  O   UNL A   1      42.075  18.666  27.694  1.00  0.00    -0.744 OA
ENDBRANCH  66  67
ENDBRANCH  45  59
BRANCH  46  71
ATOM     71  C   UNL A   1      46.504  32.941  28.431  1.00  0.00     0.058 A 
ATOM     72  C   UNL A   1      46.980  33.382  29.677  1.00  0.00     0.135 A 
ATOM     73  C   UNL A   1      46.429  33.879  27.390  1.00  0.00     0.135 A 
ATOM     74  F   UNL A   1      47.070  32.522  30.703  1.00  0.00    -0.206 F 
ATOM     75  C   UNL A   1      47.333  34.709  29.892  1.00  0.00     0.059 A 
ATOM     76  C   UNL A   1      46.801  35.208  27.574  1.00  0.00     0.059 A 
ATOM     77  F   UNL A   1      45.996  33.500  26.178  1.00  0.00    -0.206 F 
ATOM     78  C   UNL A   1      47.232  35.616  28.837  1.00  0.00     0.060 A 
BRANCH  78  79
ATOM     79  S   UNL A   1      47.655  37.344  29.148  1.00  0.00     0.124 S 
ATOM     80  O   UNL A   1      48.269  37.725  27.879  1.00  0.00    -0.237 OA
ATOM     81  O   UNL A   1      46.350  37.936  29.423  1.00  0.00    -0.237 OA
ATOM     82  O   UNL A   1      48.563  37.272  30.288  1.00  0.00    -0.744 OA
ENDBRANCH  78  79
ENDBRANCH  46  71
BRANCH  58  83
ATOM     83  C   UNL A   1      49.644  27.134  26.124  1.00  0.00     0.058 A 
ATOM     84  C   UNL A   1      49.917  27.216  24.749  1.00  0.00     0.135 A 
ATOM     85  C   UNL A   1      50.679  26.706  26.971  1.00  0.00     0.135 A 
ATOM     86  F   UNL A   1      48.962  27.613  23.892  1.00  0.00    -0.206 F 
ATOM     87  C   UNL A   1      51.161  26.872  24.230  1.00  0.00     0.059 A 
ATOM     88  C   UNL A   1      51.939  26.382  26.476  1.00  0.00     0.059 A 
ATOM     89  F   UNL A   1      50.473  26.617  28.294  1.00  0.00    -0.206 F 
ATOM     90  C   UNL A   1      52.166  26.453  25.102  1.00  0.00     0.060 A 
BRANCH  90  91
ATOM     91  S   UNL A   1      53.781  26.030  24.413  1.00  0.00     0.124 S 
ATOM     92  O   UNL A   1      53.577  26.289  22.993  1.00  0.00    -0.237 OA
ATOM     93  O   UNL A   1      54.667  26.958  25.109  1.00  0.00    -0.237 OA
ATOM     94  O   UNL A   1      53.946  24.626  24.778  1.00  0.00    -0.744 OA
ENDBRANCH  90  91
ENDBRANCH  58  83
ENDBRANCH  32  33
ENDBRANCH  25  27
ENDBRANCH  24  25
ENDBRANCH  23  24
ENDBRANCH   1  23
TORSDOF 18
ENDMDL
