MODEL 1
REMARK VINA RESULT:     -12.6      0.000      0.000
REMARK SMILES CC1=C(C)C[C@@H](C(=O)OCCOC(=O)c2ccc(-c3c4nc(c(-c5c(F)cc(S(=O)(=O)[O-])cc5F)c5ccc([nH]5)c(-c5c(F)cc(S(=O)(=O)[O-])cc5F)c5nc(c(-c6c(F)cc(S(=O)(=O)[O-])cc6F)c6ccc3[nH]6)C=C5)C=C4)cc2)[C@@H](C(=O)N2CCN(c3cccc(C(F)(F)F)c3)CC2)C1
REMARK SMILES IDX 10 1 9 2 7 3 8 4 6 5 1 6 2 7 3 8 100 9 4 10 5 11 81 12 82 13
REMARK SMILES IDX 83 14 84 15 85 16 99 17 86 18 98 19 87 20 88 21 89 22 97 23
REMARK SMILES IDX 90 24 92 25 91 26 93 27 94 28 95 29 96 30 11 31 12 32 13 33
REMARK SMILES IDX 14 34 15 35 16 36 80 37 17 38 79 39 18 40 19 41 20 42 73 43
REMARK SMILES IDX 21 44 78 45 72 46 74 47 22 48 77 49 71 50 70 51 23 53 57 54
REMARK SMILES IDX 36 55 56 56 37 57 40 58 55 59 75 60 38 61 39 62 54 64 76 65
REMARK SMILES IDX 41 66 24 67 25 68 34 69 26 70 27 71 33 72 35 73 28 74 29 75
REMARK SMILES IDX 30 76 31 77 32 78 58 79 59 80 68 81 60 82 61 83 67 84 69 85
REMARK SMILES IDX 62 86 63 87 64 88 65 89 66 90 42 91 43 92 52 93 44 94 45 95
REMARK SMILES IDX 51 96 53 97 46 98 47 99 48 100 49 101 50 102
REMARK H PARENT 74 52 40 63
REMARK Flexibility Score: inf
ROOT
ATOM      1  C   UNL A   1      32.598  29.969  25.559  1.00  0.00     0.274 C 
ENDROOT
BRANCH   1   2
ATOM      2  O   UNL A   1      31.499  29.541  24.721  1.00  0.00    -0.462 OA
BRANCH   2   3
ATOM      3  C   UNL A   1      31.889  28.978  23.554  1.00  0.00     0.310 C 
ATOM      4  O   UNL A   1      32.987  29.186  23.038  1.00  0.00    -0.252 OA
BRANCH   3   5
ATOM      5  C   UNL A   1      30.857  28.105  22.841  1.00  0.00     0.116 C 
ATOM      6  C   UNL A   1      26.537  28.128  23.838  1.00  0.00     0.039 C 
ATOM      7  C   UNL A   1      27.961  28.130  23.350  1.00  0.00    -0.074 C 
ATOM      8  C   UNL A   1      28.526  29.181  22.730  1.00  0.00    -0.073 C 
ATOM      9  C   UNL A   1      28.689  26.823  23.503  1.00  0.00     0.045 C 
ATOM     10  C   UNL A   1      27.846  30.497  22.460  1.00  0.00     0.039 C 
ATOM     11  C   UNL A   1      29.896  29.068  22.133  1.00  0.00     0.046 C 
ATOM     12  C   UNL A   1      30.232  26.825  23.463  1.00  0.00     0.097 C 
BRANCH  12  13
ATOM     13  C   UNL A   1      30.906  26.334  24.750  1.00  0.00     0.227 C 
ATOM     14  O   UNL A   1      30.537  26.702  25.859  1.00  0.00    -0.275 OA
ATOM     15  N   UNL A   1      32.004  25.526  24.644  1.00  0.00    -0.339 N 
ATOM     16  C   UNL A   1      32.061  24.304  25.431  1.00  0.00     0.141 C 
ATOM     17  C   UNL A   1      33.307  26.023  24.201  1.00  0.00     0.141 C 
ATOM     18  C   UNL A   1      32.640  23.199  24.541  1.00  0.00     0.138 C 
ATOM     19  C   UNL A   1      34.111  24.940  23.449  1.00  0.00     0.138 C 
ATOM     20  N   UNL A   1      33.972  23.601  24.053  1.00  0.00    -0.368 N 
BRANCH  20  21
ATOM     21  C   UNL A   1      35.046  22.870  24.513  1.00  0.00     0.037 A 
ATOM     22  C   UNL A   1      34.994  21.469  24.479  1.00  0.00     0.026 A 
ATOM     23  C   UNL A   1      36.166  23.476  25.090  1.00  0.00     0.039 A 
ATOM     24  C   UNL A   1      36.018  20.689  25.010  1.00  0.00     0.003 A 
ATOM     25  C   UNL A   1      37.197  22.706  25.655  1.00  0.00     0.058 A 
ATOM     26  C   UNL A   1      37.114  21.306  25.601  1.00  0.00     0.013 A 
BRANCH  25  27
ATOM     27  C   UNL A   1      38.373  23.361  26.331  1.00  0.00     0.416 C 
ATOM     28  F   UNL A   1      38.944  24.326  25.556  1.00  0.00    -0.166 F 
ATOM     29  F   UNL A   1      38.024  23.979  27.494  1.00  0.00    -0.166 F 
ATOM     30  F   UNL A   1      39.377  22.499  26.651  1.00  0.00    -0.166 F 
ENDBRANCH  25  27
ENDBRANCH  20  21
ENDBRANCH  12  13
ENDBRANCH   3   5
ENDBRANCH   2   3
ENDBRANCH   1   2
BRANCH   1  31
ATOM     31  C   UNL A   1      32.522  29.383  26.981  1.00  0.00     0.275 C 
BRANCH  31  32
ATOM     32  O   UNL A   1      33.842  29.110  27.491  1.00  0.00    -0.458 OA
BRANCH  32  33
ATOM     33  C   UNL A   1      34.469  30.145  28.087  1.00  0.00     0.338 C 
ATOM     34  O   UNL A   1      34.028  31.279  28.262  1.00  0.00    -0.246 OA
BRANCH  33  35
ATOM     35  C   UNL A   1      35.863  29.795  28.418  1.00  0.00     0.060 A 
ATOM     36  C   UNL A   1      36.261  29.337  29.677  1.00  0.00     0.016 A 
ATOM     37  C   UNL A   1      36.815  30.002  27.422  1.00  0.00     0.016 A 
ATOM     38  C   UNL A   1      37.614  29.152  29.963  1.00  0.00     0.010 A 
ATOM     39  C   UNL A   1      38.155  29.735  27.677  1.00  0.00     0.010 A 
ATOM     40  C   UNL A   1      38.569  29.327  28.954  1.00  0.00    -0.014 A 
BRANCH  40  41
ATOM     41  C   UNL A   1      40.004  29.036  29.173  1.00  0.00     0.031 A 
ATOM     42  C   UNL A   1      40.940  30.148  29.556  1.00  0.00     0.074 A 
ATOM     43  C   UNL A   1      40.460  27.799  28.901  1.00  0.00     0.049 A 
ATOM     44  N   UNL A   1      42.246  30.169  29.552  1.00  0.00    -0.248 NA
ATOM     45  C   UNL A   1      40.320  31.415  29.979  1.00  0.00     0.031 C 
ATOM     46  C   UNL A   1      39.623  26.659  28.520  1.00  0.00     0.029 A 
ATOM     47  N   UNL A   1      41.736  27.300  28.862  1.00  0.00    -0.354 N 
ATOM     48  C   UNL A   1      42.607  31.456  29.935  1.00  0.00     0.074 A 
ATOM     49  C   UNL A   1      41.381  32.193  30.150  1.00  0.00     0.031 C 
ATOM     50  C   UNL A   1      40.404  25.597  28.277  1.00  0.00     0.029 A 
ATOM     51  C   UNL A   1      41.797  26.001  28.413  1.00  0.00     0.049 A 
ATOM     52  H   UNL A   1      42.529  27.819  29.129  1.00  0.00     0.167 HD
ATOM     53  C   UNL A   1      43.853  31.965  30.085  1.00  0.00     0.037 A 
ATOM     54  C   UNL A   1      42.859  25.239  28.093  1.00  0.00     0.037 A 
ATOM     55  C   UNL A   1      45.052  31.197  29.859  1.00  0.00     0.049 A 
ATOM     56  C   UNL A   1      44.228  25.835  28.238  1.00  0.00     0.074 A 
ATOM     57  C   UNL A   1      46.371  31.588  30.001  1.00  0.00     0.029 A 
ATOM     58  N   UNL A   1      45.073  29.872  29.436  1.00  0.00    -0.354 N 
ATOM     59  N   UNL A   1      44.560  27.049  28.613  1.00  0.00    -0.248 NA
ATOM     60  C   UNL A   1      45.367  24.967  27.915  1.00  0.00     0.031 C 
ATOM     61  C   UNL A   1      47.187  30.518  29.620  1.00  0.00     0.029 A 
ATOM     62  C   UNL A   1      46.379  29.438  29.295  1.00  0.00     0.049 A 
ATOM     63  H   UNL A   1      44.274  29.323  29.262  1.00  0.00     0.167 HD
ATOM     64  C   UNL A   1      45.948  27.086  28.593  1.00  0.00     0.074 A 
ATOM     65  C   UNL A   1      46.391  25.766  28.183  1.00  0.00     0.031 C 
ATOM     66  C   UNL A   1      46.783  28.115  28.885  1.00  0.00     0.037 A 
BRANCH  53  67
ATOM     67  C   UNL A   1      43.984  33.413  30.482  1.00  0.00     0.058 A 
ATOM     68  C   UNL A   1      44.074  33.810  31.827  1.00  0.00     0.135 A 
ATOM     69  C   UNL A   1      44.058  34.420  29.504  1.00  0.00     0.135 A 
ATOM     70  F   UNL A   1      43.996  32.896  32.808  1.00  0.00    -0.206 F 
ATOM     71  C   UNL A   1      44.204  35.149  32.187  1.00  0.00     0.059 A 
ATOM     72  C   UNL A   1      44.217  35.763  29.840  1.00  0.00     0.059 A 
ATOM     73  F   UNL A   1      43.977  34.105  28.202  1.00  0.00    -0.206 F 
ATOM     74  C   UNL A   1      44.275  36.119  31.186  1.00  0.00     0.060 A 
BRANCH  74  75
ATOM     75  S   UNL A   1      44.451  37.850  31.673  1.00  0.00     0.124 S 
ATOM     76  O   UNL A   1      43.744  38.531  30.593  1.00  0.00    -0.237 OA
ATOM     77  O   UNL A   1      43.793  37.876  32.975  1.00  0.00    -0.237 OA
ATOM     78  O   UNL A   1      45.897  38.052  31.701  1.00  0.00    -0.744 OA
ENDBRANCH  74  75
ENDBRANCH  53  67
BRANCH  54  79
ATOM     79  C   UNL A   1      42.650  23.853  27.598  1.00  0.00     0.058 A 
ATOM     80  C   UNL A   1      42.661  23.569  26.225  1.00  0.00     0.135 A 
ATOM     81  C   UNL A   1      42.490  22.775  28.485  1.00  0.00     0.135 A 
ATOM     82  F   UNL A   1      42.809  24.564  25.337  1.00  0.00    -0.206 F 
ATOM     83  C   UNL A   1      42.513  22.272  25.746  1.00  0.00     0.059 A 
ATOM     84  C   UNL A   1      42.370  21.464  28.032  1.00  0.00     0.059 A 
ATOM     85  F   UNL A   1      42.494  22.987  29.811  1.00  0.00    -0.206 F 
ATOM     86  C   UNL A   1      42.373  21.224  26.659  1.00  0.00     0.060 A 
BRANCH  86  87
ATOM     87  S   UNL A   1      42.235  19.538  26.026  1.00  0.00     0.124 S 
ATOM     88  O   UNL A   1      40.815  19.463  25.702  1.00  0.00    -0.237 OA
ATOM     89  O   UNL A   1      43.149  19.562  24.888  1.00  0.00    -0.237 OA
ATOM     90  O   UNL A   1      42.669  18.718  27.153  1.00  0.00    -0.744 OA
ENDBRANCH  86  87
ENDBRANCH  54  79
BRANCH  66  91
ATOM     91  C   UNL A   1      48.256  27.833  28.806  1.00  0.00     0.058 A 
ATOM     92  C   UNL A   1      48.991  27.431  29.931  1.00  0.00     0.135 A 
ATOM     93  C   UNL A   1      48.927  27.925  27.576  1.00  0.00     0.135 A 
ATOM     94  F   UNL A   1      48.398  27.341  31.131  1.00  0.00    -0.206 F 
ATOM     95  C   UNL A   1      50.351  27.151  29.843  1.00  0.00     0.059 A 
ATOM     96  C   UNL A   1      50.277  27.619  27.460  1.00  0.00     0.059 A 
ATOM     97  F   UNL A   1      48.264  28.297  26.469  1.00  0.00    -0.206 F 
ATOM     98  C   UNL A   1      50.984  27.245  28.602  1.00  0.00     0.060 A 
BRANCH  98  99
ATOM     99  S   UNL A   1      52.738  26.840  28.496  1.00  0.00     0.124 S 
ATOM    100  O   UNL A   1      52.771  25.986  27.312  1.00  0.00    -0.237 OA
ATOM    101  O   UNL A   1      53.352  28.156  28.346  1.00  0.00    -0.237 OA
ATOM    102  O   UNL A   1      53.009  26.169  29.763  1.00  0.00    -0.744 OA
ENDBRANCH  98  99
ENDBRANCH  66  91
ENDBRANCH  40  41
ENDBRANCH  33  35
ENDBRANCH  32  33
ENDBRANCH  31  32
ENDBRANCH   1  31
TORSDOF 17
ENDMDL
MODEL 2
REMARK VINA RESULT:     -12.5      2.193      2.776
REMARK SMILES CC1=C(C)C[C@@H](C(=O)OCCOC(=O)c2ccc(-c3c4nc(c(-c5c(F)cc(S(=O)(=O)[O-])cc5F)c5ccc([nH]5)c(-c5c(F)cc(S(=O)(=O)[O-])cc5F)c5nc(c(-c6c(F)cc(S(=O)(=O)[O-])cc6F)c6ccc3[nH]6)C=C5)C=C4)cc2)[C@@H](C(=O)N2CCN(c3cccc(C(F)(F)F)c3)CC2)C1
REMARK SMILES IDX 10 1 9 2 7 3 8 4 6 5 1 6 2 7 3 8 100 9 4 10 5 11 81 12 82 13
REMARK SMILES IDX 83 14 84 15 85 16 99 17 86 18 98 19 87 20 88 21 89 22 97 23
REMARK SMILES IDX 90 24 92 25 91 26 93 27 94 28 95 29 96 30 11 31 12 32 13 33
REMARK SMILES IDX 14 34 15 35 16 36 80 37 17 38 79 39 18 40 19 41 20 42 73 43
REMARK SMILES IDX 21 44 78 45 72 46 74 47 22 48 77 49 71 50 70 51 23 53 57 54
REMARK SMILES IDX 36 55 56 56 37 57 40 58 55 59 75 60 38 61 39 62 54 64 76 65
REMARK SMILES IDX 41 66 24 67 25 68 34 69 26 70 27 71 33 72 35 73 28 74 29 75
REMARK SMILES IDX 30 76 31 77 32 78 58 79 59 80 68 81 60 82 61 83 67 84 69 85
REMARK SMILES IDX 62 86 63 87 64 88 65 89 66 90 42 91 43 92 52 93 44 94 45 95
REMARK SMILES IDX 51 96 53 97 46 98 47 99 48 100 49 101 50 102
REMARK H PARENT 74 52 40 63
REMARK Flexibility Score: inf
ROOT
ATOM      1  C   UNL A   1      33.116  29.366  26.914  1.00  0.00     0.274 C 
ENDROOT
BRANCH   1   2
ATOM      2  O   UNL A   1      32.906  29.251  25.487  1.00  0.00    -0.462 OA
BRANCH   2   3
ATOM      3  C   UNL A   1      31.718  29.747  25.069  1.00  0.00     0.310 C 
ATOM      4  O   UNL A   1      31.115  30.643  25.659  1.00  0.00    -0.252 OA
BRANCH   3   5
ATOM      5  C   UNL A   1      31.099  29.084  23.839  1.00  0.00     0.116 C 
ATOM      6  C   UNL A   1      26.747  28.370  23.384  1.00  0.00     0.039 C 
ATOM      7  C   UNL A   1      28.223  28.670  23.394  1.00  0.00    -0.074 C 
ATOM      8  C   UNL A   1      28.721  29.916  23.331  1.00  0.00    -0.073 C 
ATOM      9  C   UNL A   1      29.118  27.461  23.366  1.00  0.00     0.045 C 
ATOM     10  C   UNL A   1      27.900  31.177  23.272  1.00  0.00     0.039 C 
ATOM     11  C   UNL A   1      30.197  30.140  23.190  1.00  0.00     0.046 C 
ATOM     12  C   UNL A   1      30.587  27.617  23.815  1.00  0.00     0.097 C 
BRANCH  12  13
ATOM     13  C   UNL A   1      30.973  26.775  25.037  1.00  0.00     0.227 C 
ATOM     14  O   UNL A   1      30.605  27.064  26.169  1.00  0.00    -0.275 OA
ATOM     15  N   UNL A   1      31.823  25.719  24.858  1.00  0.00    -0.339 N 
ATOM     16  C   UNL A   1      31.476  24.427  25.430  1.00  0.00     0.141 C 
ATOM     17  C   UNL A   1      33.249  25.894  24.581  1.00  0.00     0.141 C 
ATOM     18  C   UNL A   1      31.829  23.348  24.400  1.00  0.00     0.138 C 
ATOM     19  C   UNL A   1      33.810  24.754  23.704  1.00  0.00     0.138 C 
ATOM     20  N   UNL A   1      33.262  23.433  24.064  1.00  0.00    -0.368 N 
BRANCH  20  21
ATOM     21  C   UNL A   1      34.052  22.373  24.453  1.00  0.00     0.037 A 
ATOM     22  C   UNL A   1      35.367  22.611  24.877  1.00  0.00     0.026 A 
ATOM     23  C   UNL A   1      33.614  21.048  24.368  1.00  0.00     0.039 A 
ATOM     24  C   UNL A   1      36.229  21.565  25.199  1.00  0.00     0.003 A 
ATOM     25  C   UNL A   1      34.477  19.979  24.662  1.00  0.00     0.058 A 
ATOM     26  C   UNL A   1      35.787  20.252  25.086  1.00  0.00     0.013 A 
BRANCH  25  27
ATOM     27  C   UNL A   1      34.023  18.550  24.511  1.00  0.00     0.416 C 
ATOM     28  F   UNL A   1      33.235  18.372  23.412  1.00  0.00    -0.166 F 
ATOM     29  F   UNL A   1      35.068  17.688  24.359  1.00  0.00    -0.166 F 
ATOM     30  F   UNL A   1      33.301  18.085  25.566  1.00  0.00    -0.166 F 
ENDBRANCH  25  27
ENDBRANCH  20  21
ENDBRANCH  12  13
ENDBRANCH   3   5
ENDBRANCH   2   3
ENDBRANCH   1   2
BRANCH   1  31
ATOM     31  C   UNL A   1      34.326  30.251  27.265  1.00  0.00     0.275 C 
BRANCH  31  32
ATOM     32  O   UNL A   1      35.329  29.489  27.965  1.00  0.00    -0.458 OA
BRANCH  32  33
ATOM     33  C   UNL A   1      36.037  30.161  28.896  1.00  0.00     0.338 C 
ATOM     34  O   UNL A   1      35.648  31.097  29.592  1.00  0.00    -0.246 OA
BRANCH  33  35
ATOM     35  C   UNL A   1      37.442  29.715  28.912  1.00  0.00     0.060 A 
ATOM     36  C   UNL A   1      38.129  29.383  30.083  1.00  0.00     0.016 A 
ATOM     37  C   UNL A   1      38.109  29.697  27.688  1.00  0.00     0.016 A 
ATOM     38  C   UNL A   1      39.495  29.098  30.040  1.00  0.00     0.010 A 
ATOM     39  C   UNL A   1      39.448  29.329  27.631  1.00  0.00     0.010 A 
ATOM     40  C   UNL A   1      40.158  29.047  28.808  1.00  0.00    -0.014 A 
BRANCH  40  41
ATOM     41  C   UNL A   1      41.578  28.641  28.698  1.00  0.00     0.031 A 
ATOM     42  C   UNL A   1      42.656  29.687  28.728  1.00  0.00     0.074 A 
ATOM     43  C   UNL A   1      41.861  27.349  28.446  1.00  0.00     0.049 A 
ATOM     44  N   UNL A   1      43.917  29.585  28.403  1.00  0.00    -0.248 NA
ATOM     45  C   UNL A   1      42.254  31.035  29.162  1.00  0.00     0.031 C 
ATOM     46  C   UNL A   1      40.876  26.265  28.395  1.00  0.00     0.029 A 
ATOM     47  N   UNL A   1      43.047  26.731  28.146  1.00  0.00    -0.354 N 
ATOM     48  C   UNL A   1      44.453  30.859  28.556  1.00  0.00     0.074 A 
ATOM     49  C   UNL A   1      43.376  31.721  28.991  1.00  0.00     0.031 C 
ATOM     50  C   UNL A   1      41.493  25.120  28.075  1.00  0.00     0.029 A 
ATOM     51  C   UNL A   1      42.900  25.401  27.826  1.00  0.00     0.049 A 
ATOM     52  H   UNL A   1      43.916  27.193  28.158  1.00  0.00     0.167 HD
ATOM     53  C   UNL A   1      45.730  31.260  28.345  1.00  0.00     0.037 A 
ATOM     54  C   UNL A   1      43.791  24.521  27.333  1.00  0.00     0.037 A 
ATOM     55  C   UNL A   1      46.775  30.368  27.911  1.00  0.00     0.049 A 
ATOM     56  C   UNL A   1      45.191  24.996  27.079  1.00  0.00     0.074 A 
ATOM     57  C   UNL A   1      48.112  30.644  27.687  1.00  0.00     0.029 A 
ATOM     58  N   UNL A   1      46.595  29.018  27.629  1.00  0.00    -0.354 N 
ATOM     59  N   UNL A   1      45.692  26.199  27.239  1.00  0.00    -0.248 NA
ATOM     60  C   UNL A   1      46.147  24.003  26.576  1.00  0.00     0.031 C 
ATOM     61  C   UNL A   1      48.727  29.476  27.225  1.00  0.00     0.029 A 
ATOM     62  C   UNL A   1      47.789  28.454  27.216  1.00  0.00     0.049 A 
ATOM     63  H   UNL A   1      45.741  28.534  27.711  1.00  0.00     0.167 HD
ATOM     64  C   UNL A   1      47.029  26.105  26.877  1.00  0.00     0.074 A 
ATOM     65  C   UNL A   1      47.260  24.721  26.504  1.00  0.00     0.031 C 
ATOM     66  C   UNL A   1      47.982  27.071  26.853  1.00  0.00     0.037 A 
BRANCH  53  67
ATOM     67  C   UNL A   1      46.059  32.716  28.554  1.00  0.00     0.058 A 
ATOM     68  C   UNL A   1      46.507  33.207  29.791  1.00  0.00     0.135 A 
ATOM     69  C   UNL A   1      45.960  33.631  27.491  1.00  0.00     0.135 A 
ATOM     70  F   UNL A   1      46.609  32.385  30.848  1.00  0.00    -0.206 F 
ATOM     71  C   UNL A   1      46.819  34.553  29.974  1.00  0.00     0.059 A 
ATOM     72  C   UNL A   1      46.294  34.976  27.644  1.00  0.00     0.059 A 
ATOM     73  F   UNL A   1      45.537  33.223  26.285  1.00  0.00    -0.206 F 
ATOM     74  C   UNL A   1      46.709  35.429  28.894  1.00  0.00     0.060 A 
BRANCH  74  75
ATOM     75  S   UNL A   1      47.124  37.169  29.150  1.00  0.00     0.124 S 
ATOM     76  O   UNL A   1      46.461  37.444  30.421  1.00  0.00    -0.237 OA
ATOM     77  O   UNL A   1      48.583  37.139  29.191  1.00  0.00    -0.237 OA
ATOM     78  O   UNL A   1      46.547  37.833  27.985  1.00  0.00    -0.744 OA
ENDBRANCH  74  75
ENDBRANCH  53  67
BRANCH  54  79
ATOM     79  C   UNL A   1      43.366  23.126  27.044  1.00  0.00     0.058 A 
ATOM     80  C   UNL A   1      43.254  22.666  25.724  1.00  0.00     0.135 A 
ATOM     81  C   UNL A   1      43.118  22.207  28.077  1.00  0.00     0.135 A 
ATOM     82  F   UNL A   1      43.479  23.506  24.702  1.00  0.00    -0.206 F 
ATOM     83  C   UNL A   1      42.903  21.352  25.436  1.00  0.00     0.059 A 
ATOM     84  C   UNL A   1      42.794  20.878  27.815  1.00  0.00     0.059 A 
ATOM     85  F   UNL A   1      43.233  22.587  29.359  1.00  0.00    -0.206 F 
ATOM     86  C   UNL A   1      42.679  20.463  26.490  1.00  0.00     0.060 A 
BRANCH  86  87
ATOM     87  S   UNL A   1      42.275  18.746  26.102  1.00  0.00     0.124 S 
ATOM     88  O   UNL A   1      42.542  18.088  27.376  1.00  0.00    -0.237 OA
ATOM     89  O   UNL A   1      40.871  18.842  25.714  1.00  0.00    -0.237 OA
ATOM     90  O   UNL A   1      43.196  18.419  25.018  1.00  0.00    -0.744 OA
ENDBRANCH  86  87
ENDBRANCH  54  79
BRANCH  66  91
ATOM     91  C   UNL A   1      49.364  26.648  26.444  1.00  0.00     0.058 A 
ATOM     92  C   UNL A   1      50.232  26.002  27.337  1.00  0.00     0.135 A 
ATOM     93  C   UNL A   1      49.804  26.853  25.127  1.00  0.00     0.135 A 
ATOM     94  F   UNL A   1      49.862  25.795  28.610  1.00  0.00    -0.206 F 
ATOM     95  C   UNL A   1      51.501  25.594  26.944  1.00  0.00     0.059 A 
ATOM     96  C   UNL A   1      51.056  26.425  24.704  1.00  0.00     0.059 A 
ATOM     97  F   UNL A   1      49.005  27.459  24.233  1.00  0.00    -0.206 F 
ATOM     98  C   UNL A   1      51.903  25.807  25.623  1.00  0.00     0.060 A 
BRANCH  98  99
ATOM     99  S   UNL A   1      53.536  25.237  25.116  1.00  0.00     0.124 S 
ATOM    100  O   UNL A   1      53.446  23.806  25.389  1.00  0.00    -0.237 OA
ATOM    101  O   UNL A   1      53.574  25.612  23.706  1.00  0.00    -0.237 OA
ATOM    102  O   UNL A   1      54.442  25.985  25.982  1.00  0.00    -0.744 OA
ENDBRANCH  98  99
ENDBRANCH  66  91
ENDBRANCH  40  41
ENDBRANCH  33  35
ENDBRANCH  32  33
ENDBRANCH  31  32
ENDBRANCH   1  31
TORSDOF 17
ENDMDL
MODEL 3
REMARK VINA RESULT:     -12.4      5.307     10.858
REMARK SMILES CC1=C(C)C[C@@H](C(=O)OCCOC(=O)c2ccc(-c3c4nc(c(-c5c(F)cc(S(=O)(=O)[O-])cc5F)c5ccc([nH]5)c(-c5c(F)cc(S(=O)(=O)[O-])cc5F)c5nc(c(-c6c(F)cc(S(=O)(=O)[O-])cc6F)c6ccc3[nH]6)C=C5)C=C4)cc2)[C@@H](C(=O)N2CCN(c3cccc(C(F)(F)F)c3)CC2)C1
REMARK SMILES IDX 10 1 9 2 7 3 8 4 6 5 1 6 2 7 3 8 100 9 4 10 5 11 81 12 82 13
REMARK SMILES IDX 83 14 84 15 85 16 99 17 86 18 98 19 87 20 88 21 89 22 97 23
REMARK SMILES IDX 90 24 92 25 91 26 93 27 94 28 95 29 96 30 11 31 12 32 13 33
REMARK SMILES IDX 14 34 15 35 16 36 80 37 17 38 79 39 18 40 19 41 20 42 73 43
REMARK SMILES IDX 21 44 78 45 72 46 74 47 22 48 77 49 71 50 70 51 23 53 57 54
REMARK SMILES IDX 36 55 56 56 37 57 40 58 55 59 75 60 38 61 39 62 54 64 76 65
REMARK SMILES IDX 41 66 24 67 25 68 34 69 26 70 27 71 33 72 35 73 28 74 29 75
REMARK SMILES IDX 30 76 31 77 32 78 58 79 59 80 68 81 60 82 61 83 67 84 69 85
REMARK SMILES IDX 62 86 63 87 64 88 65 89 66 90 42 91 43 92 52 93 44 94 45 95
REMARK SMILES IDX 51 96 53 97 46 98 47 99 48 100 49 101 50 102
REMARK H PARENT 74 52 40 63
REMARK Flexibility Score: inf
ROOT
ATOM      1  C   UNL A   1      37.191  22.615  25.375  1.00  0.00     0.274 C 
ENDROOT
BRANCH   1   2
ATOM      2  O   UNL A   1      36.130  21.858  26.004  1.00  0.00    -0.462 OA
BRANCH   2   3
ATOM      3  C   UNL A   1      35.704  20.803  25.272  1.00  0.00     0.310 C 
ATOM      4  O   UNL A   1      36.461  20.088  24.615  1.00  0.00    -0.252 OA
BRANCH   3   5
ATOM      5  C   UNL A   1      34.195  20.567  25.232  1.00  0.00     0.116 C 
ATOM      6  C   UNL A   1      32.115  18.661  21.812  1.00  0.00     0.039 C 
ATOM      7  C   UNL A   1      32.740  19.212  23.066  1.00  0.00    -0.074 C 
ATOM      8  C   UNL A   1      33.533  18.488  23.873  1.00  0.00    -0.073 C 
ATOM      9  C   UNL A   1      32.325  20.614  23.420  1.00  0.00     0.045 C 
ATOM     10  C   UNL A   1      33.932  17.055  23.640  1.00  0.00     0.039 C 
ATOM     11  C   UNL A   1      33.999  19.046  25.184  1.00  0.00     0.046 C 
ATOM     12  C   UNL A   1      33.209  21.425  24.392  1.00  0.00     0.097 C 
BRANCH  12  13
ATOM     13  C   UNL A   1      33.810  22.703  23.793  1.00  0.00     0.227 C 
ATOM     14  O   UNL A   1      34.575  22.676  22.837  1.00  0.00    -0.275 OA
ATOM     15  N   UNL A   1      33.542  23.896  24.403  1.00  0.00    -0.339 N 
ATOM     16  C   UNL A   1      33.095  25.020  23.594  1.00  0.00     0.141 C 
ATOM     17  C   UNL A   1      34.130  24.273  25.689  1.00  0.00     0.141 C 
ATOM     18  C   UNL A   1      31.978  25.737  24.361  1.00  0.00     0.138 C 
ATOM     19  C   UNL A   1      33.188  25.182  26.509  1.00  0.00     0.138 C 
ATOM     20  N   UNL A   1      32.482  26.173  25.677  1.00  0.00    -0.368 N 
BRANCH  20  21
ATOM     21  C   UNL A   1      32.581  27.532  25.881  1.00  0.00     0.037 A 
ATOM     22  C   UNL A   1      31.640  28.390  25.294  1.00  0.00     0.026 A 
ATOM     23  C   UNL A   1      33.639  28.101  26.596  1.00  0.00     0.039 A 
ATOM     24  C   UNL A   1      31.749  29.775  25.402  1.00  0.00     0.003 A 
ATOM     25  C   UNL A   1      33.781  29.496  26.694  1.00  0.00     0.058 A 
ATOM     26  C   UNL A   1      32.820  30.326  26.096  1.00  0.00     0.013 A 
BRANCH  25  27
ATOM     27  C   UNL A   1      34.955  30.108  27.412  1.00  0.00     0.416 C 
ATOM     28  F   UNL A   1      34.882  31.469  27.457  1.00  0.00    -0.166 F 
ATOM     29  F   UNL A   1      35.038  29.700  28.710  1.00  0.00    -0.166 F 
ATOM     30  F   UNL A   1      36.160  29.819  26.849  1.00  0.00    -0.166 F 
ENDBRANCH  25  27
ENDBRANCH  20  21
ENDBRANCH  12  13
ENDBRANCH   3   5
ENDBRANCH   2   3
ENDBRANCH   1   2
BRANCH   1  31
ATOM     31  C   UNL A   1      38.498  22.592  26.188  1.00  0.00     0.275 C 
BRANCH  31  32
ATOM     32  O   UNL A   1      38.764  23.886  26.763  1.00  0.00    -0.458 OA
BRANCH  32  33
ATOM     33  C   UNL A   1      40.063  24.242  26.838  1.00  0.00     0.338 C 
ATOM     34  O   UNL A   1      41.023  23.653  26.347  1.00  0.00    -0.246 OA
BRANCH  33  35
ATOM     35  C   UNL A   1      40.238  25.409  27.721  1.00  0.00     0.060 A 
ATOM     36  C   UNL A   1      41.334  26.273  27.643  1.00  0.00     0.016 A 
ATOM     37  C   UNL A   1      39.278  25.594  28.714  1.00  0.00     0.016 A 
ATOM     38  C   UNL A   1      41.507  27.278  28.596  1.00  0.00     0.010 A 
ATOM     39  C   UNL A   1      39.401  26.649  29.611  1.00  0.00     0.010 A 
ATOM     40  C   UNL A   1      40.526  27.487  29.573  1.00  0.00    -0.014 A 
BRANCH  40  41
ATOM     41  C   UNL A   1      40.606  28.609  30.537  1.00  0.00     0.031 A 
ATOM     42  C   UNL A   1      41.534  28.516  31.714  1.00  0.00     0.074 A 
ATOM     43  C   UNL A   1      39.747  29.637  30.401  1.00  0.00     0.049 A 
ATOM     44  N   UNL A   1      41.580  29.250  32.793  1.00  0.00    -0.248 NA
ATOM     45  C   UNL A   1      42.532  27.433  31.682  1.00  0.00     0.031 C 
ATOM     46  C   UNL A   1      38.807  29.808  29.290  1.00  0.00     0.029 A 
ATOM     47  N   UNL A   1      39.493  30.709  31.216  1.00  0.00    -0.354 N 
ATOM     48  C   UNL A   1      42.582  28.702  33.585  1.00  0.00     0.074 A 
ATOM     49  C   UNL A   1      43.111  27.562  32.869  1.00  0.00     0.031 C 
ATOM     50  C   UNL A   1      38.074  30.911  29.495  1.00  0.00     0.029 A 
ATOM     51  C   UNL A   1      38.440  31.482  30.784  1.00  0.00     0.049 A 
ATOM     52  H   UNL A   1      40.013  30.907  32.029  1.00  0.00     0.167 HD
ATOM     53  C   UNL A   1      43.009  29.119  34.801  1.00  0.00     0.037 A 
ATOM     54  C   UNL A   1      37.803  32.503  31.388  1.00  0.00     0.037 A 
ATOM     55  C   UNL A   1      42.455  30.262  35.483  1.00  0.00     0.049 A 
ATOM     56  C   UNL A   1      38.275  32.927  32.747  1.00  0.00     0.074 A 
ATOM     57  C   UNL A   1      42.817  30.801  36.704  1.00  0.00     0.029 A 
ATOM     58  N   UNL A   1      41.409  31.040  34.998  1.00  0.00    -0.354 N 
ATOM     59  N   UNL A   1      39.232  32.411  33.483  1.00  0.00    -0.248 NA
ATOM     60  C   UNL A   1      37.584  34.066  33.363  1.00  0.00     0.031 C 
ATOM     61  C   UNL A   1      41.962  31.873  36.978  1.00  0.00     0.029 A 
ATOM     62  C   UNL A   1      41.102  32.042  35.902  1.00  0.00     0.049 A 
ATOM     63  H   UNL A   1      40.954  30.898  34.136  1.00  0.00     0.167 HD
ATOM     64  C   UNL A   1      39.275  33.175  34.642  1.00  0.00     0.074 A 
ATOM     65  C   UNL A   1      38.255  34.198  34.500  1.00  0.00     0.031 C 
ATOM     66  C   UNL A   1      40.080  33.045  35.726  1.00  0.00     0.037 A 
BRANCH  53  67
ATOM     67  C   UNL A   1      44.101  28.330  35.478  1.00  0.00     0.058 A 
ATOM     68  C   UNL A   1      45.461  28.628  35.287  1.00  0.00     0.135 A 
ATOM     69  C   UNL A   1      43.785  27.282  36.360  1.00  0.00     0.135 A 
ATOM     70  F   UNL A   1      45.827  29.608  34.446  1.00  0.00    -0.206 F 
ATOM     71  C   UNL A   1      46.464  27.900  35.923  1.00  0.00     0.059 A 
ATOM     72  C   UNL A   1      44.771  26.560  37.029  1.00  0.00     0.059 A 
ATOM     73  F   UNL A   1      42.504  26.949  36.582  1.00  0.00    -0.206 F 
ATOM     74  C   UNL A   1      46.110  26.868  36.792  1.00  0.00     0.060 A 
BRANCH  74  75
ATOM     75  S   UNL A   1      47.425  25.941  37.613  1.00  0.00     0.124 S 
ATOM     76  O   UNL A   1      47.406  24.685  36.869  1.00  0.00    -0.237 OA
ATOM     77  O   UNL A   1      48.591  26.790  37.390  1.00  0.00    -0.237 OA
ATOM     78  O   UNL A   1      46.971  25.857  38.998  1.00  0.00    -0.744 OA
ENDBRANCH  74  75
ENDBRANCH  53  67
BRANCH  54  79
ATOM     79  C   UNL A   1      36.658  33.163  30.708  1.00  0.00     0.058 A 
ATOM     80  C   UNL A   1      35.345  32.971  31.160  1.00  0.00     0.135 A 
ATOM     81  C   UNL A   1      36.855  34.042  29.630  1.00  0.00     0.135 A 
ATOM     82  F   UNL A   1      35.105  32.140  32.185  1.00  0.00    -0.206 F 
ATOM     83  C   UNL A   1      34.266  33.617  30.565  1.00  0.00     0.059 A 
ATOM     84  C   UNL A   1      35.795  34.724  29.037  1.00  0.00     0.059 A 
ATOM     85  F   UNL A   1      38.094  34.280  29.171  1.00  0.00    -0.206 F 
ATOM     86  C   UNL A   1      34.503  34.496  29.506  1.00  0.00     0.060 A 
BRANCH  86  87
ATOM     87  S   UNL A   1      33.100  35.369  28.776  1.00  0.00     0.124 S 
ATOM     88  O   UNL A   1      33.770  36.424  28.025  1.00  0.00    -0.237 OA
ATOM     89  O   UNL A   1      32.468  34.321  27.980  1.00  0.00    -0.237 OA
ATOM     90  O   UNL A   1      32.335  35.810  29.939  1.00  0.00    -0.744 OA
ENDBRANCH  86  87
ENDBRANCH  54  79
BRANCH  66  91
ATOM     91  C   UNL A   1      39.910  34.060  36.820  1.00  0.00     0.058 A 
ATOM     92  C   UNL A   1      40.538  35.313  36.767  1.00  0.00     0.135 A 
ATOM     93  C   UNL A   1      39.070  33.787  37.911  1.00  0.00     0.135 A 
ATOM     94  F   UNL A   1      41.360  35.616  35.751  1.00  0.00    -0.206 F 
ATOM     95  C   UNL A   1      40.357  36.255  37.774  1.00  0.00     0.059 A 
ATOM     96  C   UNL A   1      38.850  34.725  38.912  1.00  0.00     0.059 A 
ATOM     97  F   UNL A   1      38.440  32.604  38.002  1.00  0.00    -0.206 F 
ATOM     98  C   UNL A   1      39.508  35.953  38.841  1.00  0.00     0.060 A 
BRANCH  98  99
ATOM     99  S   UNL A   1      39.251  37.198  40.119  1.00  0.00     0.124 S 
ATOM    100  O   UNL A   1      38.610  36.413  41.170  1.00  0.00    -0.237 OA
ATOM    101  O   UNL A   1      40.612  37.643  40.399  1.00  0.00    -0.237 OA
ATOM    102  O   UNL A   1      38.398  38.186  39.465  1.00  0.00    -0.744 OA
ENDBRANCH  98  99
ENDBRANCH  66  91
ENDBRANCH  40  41
ENDBRANCH  33  35
ENDBRANCH  32  33
ENDBRANCH  31  32
ENDBRANCH   1  31
TORSDOF 17
ENDMDL
