MODEL 1
REMARK VINA RESULT:     -10.4      0.000      0.000
REMARK SMILES COc1cc2c(cc1OC)C1=C(C#N)C[N@@H+](CC(=O)OCCOC(=O)c3ccc(-c4c5nc(c(-c6c(F)cc(S(=O)(=O)[O-])cc6F)c6ccc([nH]6)c(-c6c(F)cc(S(=O)(=O)[O-])cc6F)c6nc(c(-c7c(F)cc(S(=O)(=O)[O-])cc7F)c7ccc4[nH]7)C=C6)C=C5)cc3)CN1CC2
REMARK SMILES IDX 22 1 21 2 20 3 18 4 19 5 17 6 16 7 3 8 4 9 8 10 5 11 7 12
REMARK SMILES IDX 6 13 95 14 11 15 94 16 12 17 93 18 15 19 92 20 2 22 1 23
REMARK SMILES IDX 9 24 10 25 13 26 14 27 23 28 24 29 25 30 26 31 27 32 91 33
REMARK SMILES IDX 28 34 90 35 29 36 30 37 31 38 84 39 32 40 89 41 83 42 85 43
REMARK SMILES IDX 33 44 88 45 82 46 81 47 34 49 68 50 47 51 67 52 48 53 51 54
REMARK SMILES IDX 66 55 86 56 49 57 50 58 65 60 87 61 52 62 35 63 36 64 45 65
REMARK SMILES IDX 37 66 38 67 44 68 46 69 39 70 40 71 41 72 42 73 43 74 69 75
REMARK SMILES IDX 70 76 79 77 71 78 72 79 78 80 80 81 73 82 74 83 75 84 76 85
REMARK SMILES IDX 77 86 53 87 54 88 63 89 55 90 56 91 62 92 64 93 57 94 58 95
REMARK SMILES IDX 59 96 60 97 61 98
REMARK H PARENT 16 21 85 48 51 59
REMARK Flexibility Score: inf
ROOT
ATOM      1  C   UNL A   1      44.746  26.718  25.164  1.00  0.00     0.275 C 
ENDROOT
BRANCH   1   2
ATOM      2  C   UNL A   1      45.999  27.546  24.859  1.00  0.00     0.274 C 
BRANCH   2   3
ATOM      3  O   UNL A   1      46.412  28.380  25.963  1.00  0.00    -0.458 OA
BRANCH   3   4
ATOM      4  C   UNL A   1      46.568  27.758  27.157  1.00  0.00     0.361 C 
ATOM      5  O   UNL A   1      45.853  27.973  28.135  1.00  0.00    -0.245 OA
BRANCH   4   6
ATOM      6  C   UNL A   1      47.768  26.822  27.262  1.00  0.00     0.388 C 
BRANCH   6   7
ATOM      7  N   UNL A   1      47.559  25.422  27.627  1.00  0.00    -0.304 N 
ATOM      8  C   UNL A   1      41.351  21.652  27.105  1.00  0.00     0.161 A 
ATOM      9  C   UNL A   1      41.580  22.643  28.064  1.00  0.00     0.055 A 
ATOM     10  C   UNL A   1      42.424  21.179  26.353  1.00  0.00     0.161 A 
ATOM     11  C   UNL A   1      42.847  23.241  28.197  1.00  0.00    -0.033 A 
ATOM     12  C   UNL A   1      43.676  21.809  26.486  1.00  0.00     0.061 A 
ATOM     13  C   UNL A   1      43.892  22.924  27.314  1.00  0.00     0.006 A 
ATOM     14  C   UNL A   1      43.082  24.226  29.312  1.00  0.00     0.058 C 
ATOM     15  C   UNL A   1      45.171  23.731  27.359  1.00  0.00     0.068 C 
ATOM     16  C   UNL A   1      44.559  24.249  29.730  1.00  0.00     0.127 C 
ATOM     17  C   UNL A   1      46.042  23.899  26.335  1.00  0.00     0.108 C 
ATOM     18  N   UNL A   1      45.449  24.364  28.569  1.00  0.00    -0.323 N 
ATOM     19  C   UNL A   1      47.390  24.526  26.506  1.00  0.00     0.314 C 
ATOM     20  C   UNL A   1      46.684  25.123  28.756  1.00  0.00     0.390 C 
ATOM     21  H   UNL A   1      48.474  25.212  28.028  1.00  0.00     0.350 HD
BRANCH   8  22
ATOM     22  O   UNL A   1      40.105  21.093  27.007  1.00  0.00    -0.493 OA
ATOM     23  C   UNL A   1      39.212  21.923  26.263  1.00  0.00     0.278 C 
ENDBRANCH   8  22
BRANCH  10  24
ATOM     24  O   UNL A   1      42.450  20.148  25.452  1.00  0.00    -0.493 OA
ATOM     25  C   UNL A   1      43.597  19.317  25.399  1.00  0.00     0.278 C 
ENDBRANCH  10  24
BRANCH  17  26
ATOM     26  C   UNL A   1      45.856  23.155  25.024  1.00  0.00     0.103 C 
ATOM     27  N   UNL A   1      45.701  22.538  23.935  1.00  0.00    -0.192 NA
ENDBRANCH  17  26
ENDBRANCH   6   7
ENDBRANCH   4   6
ENDBRANCH   3   4
ENDBRANCH   2   3
ENDBRANCH   1   2
BRANCH   1  28
ATOM     28  O   UNL A   1      43.529  27.450  24.912  1.00  0.00    -0.458 OA
BRANCH  28  29
ATOM     29  C   UNL A   1      42.438  26.854  25.433  1.00  0.00     0.338 C 
ATOM     30  O   UNL A   1      41.910  25.835  25.038  1.00  0.00    -0.246 OA
BRANCH  29  31
ATOM     31  C   UNL A   1      41.954  27.472  26.658  1.00  0.00     0.060 A 
ATOM     32  C   UNL A   1      41.100  26.785  27.516  1.00  0.00     0.016 A 
ATOM     33  C   UNL A   1      42.556  28.674  27.044  1.00  0.00     0.016 A 
ATOM     34  C   UNL A   1      40.803  27.354  28.753  1.00  0.00     0.010 A 
ATOM     35  C   UNL A   1      42.283  29.225  28.280  1.00  0.00     0.010 A 
ATOM     36  C   UNL A   1      41.377  28.582  29.124  1.00  0.00    -0.014 A 
BRANCH  36  37
ATOM     37  C   UNL A   1      40.968  29.256  30.366  1.00  0.00     0.031 A 
ATOM     38  C   UNL A   1      41.759  29.001  31.613  1.00  0.00     0.074 A 
ATOM     39  C   UNL A   1      39.893  30.060  30.361  1.00  0.00     0.049 A 
ATOM     40  N   UNL A   1      41.654  29.574  32.782  1.00  0.00    -0.248 NA
ATOM     41  C   UNL A   1      42.793  27.953  31.544  1.00  0.00     0.031 C 
ATOM     42  C   UNL A   1      39.016  30.295  29.212  1.00  0.00     0.029 A 
ATOM     43  N   UNL A   1      39.361  30.836  31.355  1.00  0.00    -0.354 N 
ATOM     44  C   UNL A   1      42.626  28.979  33.574  1.00  0.00     0.074 A 
ATOM     45  C   UNL A   1      43.259  27.949  32.783  1.00  0.00     0.031 C 
ATOM     46  C   UNL A   1      38.075  31.189  29.558  1.00  0.00     0.029 A 
ATOM     47  C   UNL A   1      38.288  31.589  30.947  1.00  0.00     0.049 A 
ATOM     48  H   UNL A   1      39.715  30.852  32.274  1.00  0.00     0.167 HD
ATOM     49  C   UNL A   1      42.983  29.299  34.839  1.00  0.00     0.037 A 
ATOM     50  C   UNL A   1      37.588  32.522  31.617  1.00  0.00     0.037 A 
ATOM     51  C   UNL A   1      42.341  30.329  35.605  1.00  0.00     0.049 A 
ATOM     52  C   UNL A   1      38.011  32.872  33.016  1.00  0.00     0.074 A 
ATOM     53  C   UNL A   1      42.643  30.775  36.878  1.00  0.00     0.029 A 
ATOM     54  N   UNL A   1      41.257  31.075  35.160  1.00  0.00    -0.354 N 
ATOM     55  N   UNL A   1      38.994  32.371  33.729  1.00  0.00    -0.248 NA
ATOM     56  C   UNL A   1      37.245  33.923  33.698  1.00  0.00     0.031 C 
ATOM     57  C   UNL A   1      41.722  31.775  37.214  1.00  0.00     0.029 A 
ATOM     58  C   UNL A   1      40.868  31.970  36.138  1.00  0.00     0.049 A 
ATOM     59  H   UNL A   1      40.830  30.979  34.280  1.00  0.00     0.167 HD
ATOM     60  C   UNL A   1      38.975  33.056  34.937  1.00  0.00     0.074 A 
ATOM     61  C   UNL A   1      37.891  34.016  34.853  1.00  0.00     0.031 C 
ATOM     62  C   UNL A   1      39.779  32.907  36.019  1.00  0.00     0.037 A 
BRANCH  49  63
ATOM     63  C   UNL A   1      44.134  28.547  35.439  1.00  0.00     0.058 A 
ATOM     64  C   UNL A   1      43.922  27.384  36.199  1.00  0.00     0.135 A 
ATOM     65  C   UNL A   1      45.456  28.976  35.251  1.00  0.00     0.135 A 
ATOM     66  F   UNL A   1      42.674  26.945  36.428  1.00  0.00    -0.206 F 
ATOM     67  C   UNL A   1      44.978  26.684  36.768  1.00  0.00     0.059 A 
ATOM     68  C   UNL A   1      46.531  28.279  35.796  1.00  0.00     0.059 A 
ATOM     69  F   UNL A   1      45.712  30.087  34.544  1.00  0.00    -0.206 F 
ATOM     70  C   UNL A   1      46.281  27.140  36.563  1.00  0.00     0.060 A 
BRANCH  70  71
ATOM     71  S   UNL A   1      47.642  26.214  37.302  1.00  0.00     0.124 S 
ATOM     72  O   UNL A   1      47.337  26.332  38.725  1.00  0.00    -0.237 OA
ATOM     73  O   UNL A   1      47.467  24.886  36.725  1.00  0.00    -0.237 OA
ATOM     74  O   UNL A   1      48.828  26.938  36.854  1.00  0.00    -0.744 OA
ENDBRANCH  70  71
ENDBRANCH  49  63
BRANCH  50  75
ATOM     75  C   UNL A   1      36.483  33.241  30.936  1.00  0.00     0.058 A 
ATOM     76  C   UNL A   1      35.152  33.045  31.330  1.00  0.00     0.135 A 
ATOM     77  C   UNL A   1      36.736  34.172  29.918  1.00  0.00     0.135 A 
ATOM     78  F   UNL A   1      34.863  32.166  32.301  1.00  0.00    -0.206 F 
ATOM     79  C   UNL A   1      34.106  33.744  30.736  1.00  0.00     0.059 A 
ATOM     80  C   UNL A   1      35.709  34.895  29.319  1.00  0.00     0.059 A 
ATOM     81  F   UNL A   1      37.997  34.408  29.520  1.00  0.00    -0.206 F 
ATOM     82  C   UNL A   1      34.396  34.670  29.733  1.00  0.00     0.060 A 
BRANCH  82  83
ATOM     83  S   UNL A   1      33.038  35.623  29.019  1.00  0.00     0.124 S 
ATOM     84  O   UNL A   1      32.366  34.613  28.207  1.00  0.00    -0.237 OA
ATOM     85  O   UNL A   1      32.318  36.069  30.207  1.00  0.00    -0.237 OA
ATOM     86  O   UNL A   1      33.722  36.678  28.277  1.00  0.00    -0.744 OA
ENDBRANCH  82  83
ENDBRANCH  50  75
BRANCH  62  87
ATOM     87  C   UNL A   1      39.513  33.798  37.196  1.00  0.00     0.058 A 
ATOM     88  C   UNL A   1      38.750  33.350  38.284  1.00  0.00     0.135 A 
ATOM     89  C   UNL A   1      40.093  35.073  37.271  1.00  0.00     0.135 A 
ATOM     90  F   UNL A   1      38.173  32.139  38.253  1.00  0.00    -0.206 F 
ATOM     91  C   UNL A   1      38.560  34.145  39.407  1.00  0.00     0.059 A 
ATOM     92  C   UNL A   1      39.932  35.878  38.393  1.00  0.00     0.059 A 
ATOM     93  F   UNL A   1      40.840  35.538  36.257  1.00  0.00    -0.206 F 
ATOM     94  C   UNL A   1      39.157  35.407  39.453  1.00  0.00     0.060 A 
BRANCH  94  95
ATOM     95  S   UNL A   1      38.945  36.409  40.940  1.00  0.00     0.124 S 
ATOM     96  O   UNL A   1      38.576  37.701  40.371  1.00  0.00    -0.237 OA
ATOM     97  O   UNL A   1      37.884  35.700  41.648  1.00  0.00    -0.237 OA
ATOM     98  O   UNL A   1      40.258  36.354  41.575  1.00  0.00    -0.744 OA
ENDBRANCH  94  95
ENDBRANCH  62  87
ENDBRANCH  36  37
ENDBRANCH  29  31
ENDBRANCH  28  29
ENDBRANCH   1  28
TORSDOF 18
ENDMDL
MODEL 2
REMARK VINA RESULT:     -10.3      6.067      9.509
REMARK SMILES COc1cc2c(cc1OC)C1=C(C#N)C[N@@H+](CC(=O)OCCOC(=O)c3ccc(-c4c5nc(c(-c6c(F)cc(S(=O)(=O)[O-])cc6F)c6ccc([nH]6)c(-c6c(F)cc(S(=O)(=O)[O-])cc6F)c6nc(c(-c7c(F)cc(S(=O)(=O)[O-])cc7F)c7ccc4[nH]7)C=C6)C=C5)cc3)CN1CC2
REMARK SMILES IDX 22 1 21 2 20 3 18 4 19 5 17 6 16 7 3 8 4 9 8 10 5 11 7 12
REMARK SMILES IDX 6 13 95 14 11 15 94 16 12 17 93 18 15 19 92 20 2 22 1 23
REMARK SMILES IDX 9 24 10 25 13 26 14 27 23 28 24 29 25 30 26 31 27 32 91 33
REMARK SMILES IDX 28 34 90 35 29 36 30 37 31 38 84 39 32 40 89 41 83 42 85 43
REMARK SMILES IDX 33 44 88 45 82 46 81 47 34 49 68 50 47 51 67 52 48 53 51 54
REMARK SMILES IDX 66 55 86 56 49 57 50 58 65 60 87 61 52 62 35 63 36 64 45 65
REMARK SMILES IDX 37 66 38 67 44 68 46 69 39 70 40 71 41 72 42 73 43 74 69 75
REMARK SMILES IDX 70 76 79 77 71 78 72 79 78 80 80 81 73 82 74 83 75 84 76 85
REMARK SMILES IDX 77 86 53 87 54 88 63 89 55 90 56 91 62 92 64 93 57 94 58 95
REMARK SMILES IDX 59 96 60 97 61 98
REMARK H PARENT 16 21 85 48 51 59
REMARK Flexibility Score: inf
ROOT
ATOM      1  C   UNL A   1      36.426  22.853  26.113  1.00  0.00     0.275 C 
ENDROOT
BRANCH   1   2
ATOM      2  C   UNL A   1      35.867  21.482  25.714  1.00  0.00     0.274 C 
BRANCH   2   3
ATOM      3  O   UNL A   1      34.566  21.212  26.279  1.00  0.00    -0.458 OA
BRANCH   3   4
ATOM      4  C   UNL A   1      33.700  20.530  25.490  1.00  0.00     0.361 C 
ATOM      5  O   UNL A   1      33.151  19.483  25.829  1.00  0.00    -0.245 OA
BRANCH   4   6
ATOM      6  C   UNL A   1      33.510  21.089  24.084  1.00  0.00     0.388 C 
BRANCH   6   7
ATOM      7  N   UNL A   1      32.315  21.875  23.778  1.00  0.00    -0.304 N 
ATOM      8  C   UNL A   1      31.401  29.022  24.833  1.00  0.00     0.161 A 
ATOM      9  C   UNL A   1      31.427  28.081  25.866  1.00  0.00     0.055 A 
ATOM     10  C   UNL A   1      31.309  28.578  23.516  1.00  0.00     0.161 A 
ATOM     11  C   UNL A   1      31.473  26.702  25.588  1.00  0.00    -0.033 A 
ATOM     12  C   UNL A   1      31.381  27.194  23.261  1.00  0.00     0.061 A 
ATOM     13  C   UNL A   1      31.585  26.235  24.267  1.00  0.00     0.006 A 
ATOM     14  C   UNL A   1      31.390  25.719  26.725  1.00  0.00     0.058 C 
ATOM     15  C   UNL A   1      31.835  24.764  24.021  1.00  0.00     0.068 C 
ATOM     16  C   UNL A   1      30.788  24.385  26.262  1.00  0.00     0.127 C 
ATOM     17  C   UNL A   1      32.427  24.231  22.925  1.00  0.00     0.108 C 
ATOM     18  N   UNL A   1      31.428  23.899  25.034  1.00  0.00    -0.323 N 
ATOM     19  C   UNL A   1      32.450  22.762  22.645  1.00  0.00     0.314 C 
ATOM     20  C   UNL A   1      31.561  22.451  24.888  1.00  0.00     0.390 C 
ATOM     21  H   UNL A   1      31.688  21.126  23.484  1.00  0.00     0.350 HD
BRANCH   8  22
ATOM     22  O   UNL A   1      31.355  30.355  25.144  1.00  0.00    -0.493 OA
ATOM     23  C   UNL A   1      31.940  30.619  26.420  1.00  0.00     0.278 C 
ENDBRANCH   8  22
BRANCH  10  24
ATOM     24  O   UNL A   1      31.157  29.314  22.371  1.00  0.00    -0.493 OA
ATOM     25  C   UNL A   1      29.855  29.723  21.990  1.00  0.00     0.278 C 
ENDBRANCH  10  24
BRANCH  17  26
ATOM     26  C   UNL A   1      32.801  25.104  21.739  1.00  0.00     0.103 C 
ATOM     27  N   UNL A   1      33.111  25.828  20.754  1.00  0.00    -0.192 NA
ENDBRANCH  17  26
ENDBRANCH   6   7
ENDBRANCH   4   6
ENDBRANCH   3   4
ENDBRANCH   2   3
ENDBRANCH   1   2
BRANCH   1  28
ATOM     28  O   UNL A   1      37.673  23.151  25.455  1.00  0.00    -0.458 OA
BRANCH  28  29
ATOM     29  C   UNL A   1      38.750  22.878  26.217  1.00  0.00     0.338 C 
ATOM     30  O   UNL A   1      39.225  21.782  26.436  1.00  0.00    -0.246 OA
BRANCH  29  31
ATOM     31  C   UNL A   1      39.442  24.059  26.710  1.00  0.00     0.060 A 
ATOM     32  C   UNL A   1      40.043  24.955  25.830  1.00  0.00     0.016 A 
ATOM     33  C   UNL A   1      39.281  24.371  28.064  1.00  0.00     0.016 A 
ATOM     34  C   UNL A   1      40.543  26.152  26.339  1.00  0.00     0.010 A 
ATOM     35  C   UNL A   1      39.752  25.569  28.564  1.00  0.00     0.010 A 
ATOM     36  C   UNL A   1      40.416  26.448  27.707  1.00  0.00    -0.014 A 
BRANCH  36  37
ATOM     37  C   UNL A   1      41.056  27.642  28.279  1.00  0.00     0.031 A 
ATOM     38  C   UNL A   1      42.549  27.755  28.214  1.00  0.00     0.074 A 
ATOM     39  C   UNL A   1      40.300  28.585  28.863  1.00  0.00     0.049 A 
ATOM     40  N   UNL A   1      43.310  28.763  28.544  1.00  0.00    -0.248 NA
ATOM     41  C   UNL A   1      43.287  26.574  27.730  1.00  0.00     0.031 C 
ATOM     42  C   UNL A   1      38.849  28.514  29.047  1.00  0.00     0.029 A 
ATOM     43  N   UNL A   1      40.648  29.794  29.400  1.00  0.00    -0.354 N 
ATOM     44  C   UNL A   1      44.609  28.350  28.278  1.00  0.00     0.074 A 
ATOM     45  C   UNL A   1      44.543  26.976  27.836  1.00  0.00     0.031 C 
ATOM     46  C   UNL A   1      38.426  29.650  29.623  1.00  0.00     0.029 A 
ATOM     47  C   UNL A   1      39.574  30.527  29.841  1.00  0.00     0.049 A 
ATOM     48  H   UNL A   1      41.579  30.108  29.464  1.00  0.00     0.167 HD
ATOM     49  C   UNL A   1      45.749  29.073  28.359  1.00  0.00     0.037 A 
ATOM     50  C   UNL A   1      39.529  31.780  30.329  1.00  0.00     0.037 A 
ATOM     51  C   UNL A   1      45.788  30.439  28.800  1.00  0.00     0.049 A 
ATOM     52  C   UNL A   1      40.806  32.571  30.398  1.00  0.00     0.074 A 
ATOM     53  C   UNL A   1      46.874  31.289  28.882  1.00  0.00     0.029 A 
ATOM     54  N   UNL A   1      44.680  31.152  29.239  1.00  0.00    -0.354 N 
ATOM     55  N   UNL A   1      42.020  32.206  30.055  1.00  0.00    -0.248 NA
ATOM     56  C   UNL A   1      40.708  33.947  30.901  1.00  0.00     0.031 C 
ATOM     57  C   UNL A   1      46.426  32.513  29.396  1.00  0.00     0.029 A 
ATOM     58  C   UNL A   1      45.057  32.430  29.606  1.00  0.00     0.049 A 
ATOM     59  H   UNL A   1      43.763  30.800  29.282  1.00  0.00     0.167 HD
ATOM     60  C   UNL A   1      42.829  33.311  30.286  1.00  0.00     0.074 A 
ATOM     61  C   UNL A   1      41.963  34.362  30.785  1.00  0.00     0.031 C 
ATOM     62  C   UNL A   1      44.166  33.448  30.104  1.00  0.00     0.037 A 
BRANCH  49  63
ATOM     63  C   UNL A   1      47.019  28.403  27.930  1.00  0.00     0.058 A 
ATOM     64  C   UNL A   1      47.832  27.730  28.857  1.00  0.00     0.135 A 
ATOM     65  C   UNL A   1      47.429  28.420  26.588  1.00  0.00     0.135 A 
ATOM     66  F   UNL A   1      47.498  27.705  30.157  1.00  0.00    -0.206 F 
ATOM     67  C   UNL A   1      49.017  27.114  28.473  1.00  0.00     0.059 A 
ATOM     68  C   UNL A   1      48.602  27.792  26.178  1.00  0.00     0.059 A 
ATOM     69  F   UNL A   1      46.694  29.060  25.665  1.00  0.00    -0.206 F 
ATOM     70  C   UNL A   1      49.396  27.152  27.131  1.00  0.00     0.060 A 
BRANCH  70  71
ATOM     71  S   UNL A   1      50.933  26.339  26.647  1.00  0.00     0.124 S 
ATOM     72  O   UNL A   1      50.828  26.358  25.191  1.00  0.00    -0.237 OA
ATOM     73  O   UNL A   1      51.946  27.219  27.220  1.00  0.00    -0.237 OA
ATOM     74  O   UNL A   1      50.830  25.021  27.266  1.00  0.00    -0.744 OA
ENDBRANCH  70  71
ENDBRANCH  49  63
BRANCH  50  75
ATOM     75  C   UNL A   1      38.224  32.377  30.702  1.00  0.00     0.058 A 
ATOM     76  C   UNL A   1      37.716  32.235  32.002  1.00  0.00     0.135 A 
ATOM     77  C   UNL A   1      37.484  33.142  29.789  1.00  0.00     0.135 A 
ATOM     78  F   UNL A   1      38.391  31.513  32.909  1.00  0.00    -0.206 F 
ATOM     79  C   UNL A   1      36.517  32.827  32.384  1.00  0.00     0.059 A 
ATOM     80  C   UNL A   1      36.289  33.757  30.152  1.00  0.00     0.059 A 
ATOM     81  F   UNL A   1      37.939  33.324  28.539  1.00  0.00    -0.206 F 
ATOM     82  C   UNL A   1      35.812  33.590  31.451  1.00  0.00     0.060 A 
BRANCH  82  83
ATOM     83  S   UNL A   1      34.293  34.411  31.980  1.00  0.00     0.124 S 
ATOM     84  O   UNL A   1      33.728  33.424  32.894  1.00  0.00    -0.237 OA
ATOM     85  O   UNL A   1      34.802  35.633  32.594  1.00  0.00    -0.237 OA
ATOM     86  O   UNL A   1      33.564  34.605  30.729  1.00  0.00    -0.744 OA
ENDBRANCH  82  83
ENDBRANCH  50  75
BRANCH  62  87
ATOM     87  C   UNL A   1      44.771  34.776  30.448  1.00  0.00     0.058 A 
ATOM     88  C   UNL A   1      44.825  35.812  29.505  1.00  0.00     0.135 A 
ATOM     89  C   UNL A   1      45.223  35.038  31.750  1.00  0.00     0.135 A 
ATOM     90  F   UNL A   1      44.407  35.605  28.246  1.00  0.00    -0.206 F 
ATOM     91  C   UNL A   1      45.319  37.067  29.840  1.00  0.00     0.059 A 
ATOM     92  C   UNL A   1      45.704  36.291  32.112  1.00  0.00     0.059 A 
ATOM     93  F   UNL A   1      45.180  34.078  32.687  1.00  0.00    -0.206 F 
ATOM     94  C   UNL A   1      45.754  37.297  31.147  1.00  0.00     0.060 A 
BRANCH  94  95
ATOM     95  S   UNL A   1      46.345  38.947  31.582  1.00  0.00     0.124 S 
ATOM     96  O   UNL A   1      46.268  38.909  33.039  1.00  0.00    -0.237 OA
ATOM     97  O   UNL A   1      47.691  38.957  31.018  1.00  0.00    -0.237 OA
ATOM     98  O   UNL A   1      45.390  39.833  30.925  1.00  0.00    -0.744 OA
ENDBRANCH  94  95
ENDBRANCH  62  87
ENDBRANCH  36  37
ENDBRANCH  29  31
ENDBRANCH  28  29
ENDBRANCH   1  28
TORSDOF 18
ENDMDL
MODEL 3
REMARK VINA RESULT:     -10.3      6.018     11.499
REMARK SMILES COc1cc2c(cc1OC)C1=C(C#N)C[N@@H+](CC(=O)OCCOC(=O)c3ccc(-c4c5nc(c(-c6c(F)cc(S(=O)(=O)[O-])cc6F)c6ccc([nH]6)c(-c6c(F)cc(S(=O)(=O)[O-])cc6F)c6nc(c(-c7c(F)cc(S(=O)(=O)[O-])cc7F)c7ccc4[nH]7)C=C6)C=C5)cc3)CN1CC2
REMARK SMILES IDX 22 1 21 2 20 3 18 4 19 5 17 6 16 7 3 8 4 9 8 10 5 11 7 12
REMARK SMILES IDX 6 13 95 14 11 15 94 16 12 17 93 18 15 19 92 20 2 22 1 23
REMARK SMILES IDX 9 24 10 25 13 26 14 27 23 28 24 29 25 30 26 31 27 32 91 33
REMARK SMILES IDX 28 34 90 35 29 36 30 37 31 38 84 39 32 40 89 41 83 42 85 43
REMARK SMILES IDX 33 44 88 45 82 46 81 47 34 49 68 50 47 51 67 52 48 53 51 54
REMARK SMILES IDX 66 55 86 56 49 57 50 58 65 60 87 61 52 62 35 63 36 64 45 65
REMARK SMILES IDX 37 66 38 67 44 68 46 69 39 70 40 71 41 72 42 73 43 74 69 75
REMARK SMILES IDX 70 76 79 77 71 78 72 79 78 80 80 81 73 82 74 83 75 84 76 85
REMARK SMILES IDX 77 86 53 87 54 88 63 89 55 90 56 91 62 92 64 93 57 94 58 95
REMARK SMILES IDX 59 96 60 97 61 98
REMARK H PARENT 16 21 85 48 51 59
REMARK Flexibility Score: inf
ROOT
ATOM      1  C   UNL A   1      33.405  28.618  26.121  1.00  0.00     0.275 C 
ENDROOT
BRANCH   1   2
ATOM      2  C   UNL A   1      31.902  28.676  25.824  1.00  0.00     0.274 C 
BRANCH   2   3
ATOM      3  O   UNL A   1      31.605  28.829  24.420  1.00  0.00    -0.458 OA
BRANCH   3   4
ATOM      4  C   UNL A   1      30.470  29.504  24.117  1.00  0.00     0.361 C 
ATOM      5  O   UNL A   1      30.311  30.703  24.344  1.00  0.00    -0.245 OA
BRANCH   4   6
ATOM      6  C   UNL A   1      29.330  28.661  23.556  1.00  0.00     0.388 C 
BRANCH   6   7
ATOM      7  N   UNL A   1      29.584  27.273  23.172  1.00  0.00    -0.304 N 
ATOM      8  C   UNL A   1      35.094  23.064  25.395  1.00  0.00     0.161 A 
ATOM      9  C   UNL A   1      35.239  24.121  24.494  1.00  0.00     0.055 A 
ATOM     10  C   UNL A   1      33.813  22.622  25.719  1.00  0.00     0.161 A 
ATOM     11  C   UNL A   1      34.115  24.812  24.001  1.00  0.00    -0.033 A 
ATOM     12  C   UNL A   1      32.705  23.344  25.234  1.00  0.00     0.061 A 
ATOM     13  C   UNL A   1      32.824  24.516  24.469  1.00  0.00     0.006 A 
ATOM     14  C   UNL A   1      34.306  25.873  22.950  1.00  0.00     0.058 C 
ATOM     15  C   UNL A   1      31.671  25.410  24.072  1.00  0.00     0.068 C 
ATOM     16  C   UNL A   1      33.053  26.021  22.077  1.00  0.00     0.127 C 
ATOM     17  C   UNL A   1      30.519  25.578  24.766  1.00  0.00     0.108 C 
ATOM     18  N   UNL A   1      31.836  26.129  22.891  1.00  0.00    -0.323 N 
ATOM     19  C   UNL A   1      29.333  26.304  24.215  1.00  0.00     0.314 C 
ATOM     20  C   UNL A   1      30.767  26.981  22.370  1.00  0.00     0.390 C 
ATOM     21  H   UNL A   1      28.843  27.149  22.481  1.00  0.00     0.350 HD
BRANCH   8  22
ATOM     22  O   UNL A   1      36.211  22.416  25.850  1.00  0.00    -0.493 OA
ATOM     23  C   UNL A   1      36.831  21.647  24.818  1.00  0.00     0.278 C 
ENDBRANCH   8  22
BRANCH  10  24
ATOM     24  O   UNL A   1      33.444  21.545  26.480  1.00  0.00    -0.493 OA
ATOM     25  C   UNL A   1      33.398  20.265  25.874  1.00  0.00     0.278 C 
ENDBRANCH  10  24
BRANCH  17  26
ATOM     26  C   UNL A   1      30.229  24.748  26.006  1.00  0.00     0.103 C 
ATOM     27  N   UNL A   1      29.987  24.059  27.034  1.00  0.00    -0.192 NA
ENDBRANCH  17  26
ENDBRANCH   6   7
ENDBRANCH   4   6
ENDBRANCH   3   4
ENDBRANCH   2   3
ENDBRANCH   1   2
BRANCH   1  28
ATOM     28  O   UNL A   1      33.697  28.806  27.520  1.00  0.00    -0.458 OA
BRANCH  28  29
ATOM     29  C   UNL A   1      34.330  29.968  27.775  1.00  0.00     0.338 C 
ATOM     30  O   UNL A   1      33.832  31.076  27.801  1.00  0.00    -0.246 OA
BRANCH  29  31
ATOM     31  C   UNL A   1      35.723  29.811  28.165  1.00  0.00     0.060 A 
ATOM     32  C   UNL A   1      36.063  29.345  29.431  1.00  0.00     0.016 A 
ATOM     33  C   UNL A   1      36.682  29.925  27.153  1.00  0.00     0.016 A 
ATOM     34  C   UNL A   1      37.399  29.052  29.695  1.00  0.00     0.010 A 
ATOM     35  C   UNL A   1      38.002  29.610  27.405  1.00  0.00     0.010 A 
ATOM     36  C   UNL A   1      38.369  29.205  28.689  1.00  0.00    -0.014 A 
BRANCH  36  37
ATOM     37  C   UNL A   1      39.798  29.029  28.992  1.00  0.00     0.031 A 
ATOM     38  C   UNL A   1      40.436  27.707  28.691  1.00  0.00     0.074 A 
ATOM     39  C   UNL A   1      40.488  30.038  29.546  1.00  0.00     0.049 A 
ATOM     40  N   UNL A   1      41.695  27.369  28.763  1.00  0.00    -0.248 NA
ATOM     41  C   UNL A   1      39.540  26.615  28.269  1.00  0.00     0.031 C 
ATOM     42  C   UNL A   1      39.925  31.328  29.951  1.00  0.00     0.029 A 
ATOM     43  N   UNL A   1      41.817  30.139  29.856  1.00  0.00    -0.354 N 
ATOM     44  C   UNL A   1      41.745  26.039  28.367  1.00  0.00     0.074 A 
ATOM     45  C   UNL A   1      40.387  25.607  28.131  1.00  0.00     0.031 C 
ATOM     46  C   UNL A   1      40.913  32.106  30.423  1.00  0.00     0.029 A 
ATOM     47  C   UNL A   1      42.173  31.371  30.346  1.00  0.00     0.049 A 
ATOM     48  H   UNL A   1      42.457  29.399  29.737  1.00  0.00     0.167 HD
ATOM     49  C   UNL A   1      42.837  25.264  28.178  1.00  0.00     0.037 A 
ATOM     50  C   UNL A   1      43.389  31.853  30.660  1.00  0.00     0.037 A 
ATOM     51  C   UNL A   1      44.178  25.717  28.417  1.00  0.00     0.049 A 
ATOM     52  C   UNL A   1      44.591  30.980  30.430  1.00  0.00     0.074 A 
ATOM     53  C   UNL A   1      45.367  25.041  28.220  1.00  0.00     0.029 A 
ATOM     54  N   UNL A   1      44.503  26.973  28.913  1.00  0.00    -0.354 N 
ATOM     55  N   UNL A   1      44.640  29.753  29.963  1.00  0.00    -0.248 NA
ATOM     56  C   UNL A   1      45.903  31.558  30.748  1.00  0.00     0.031 C 
ATOM     57  C   UNL A   1      46.413  25.880  28.622  1.00  0.00     0.029 A 
ATOM     58  C   UNL A   1      45.875  27.088  29.042  1.00  0.00     0.049 A 
ATOM     59  H   UNL A   1      43.854  27.676  29.140  1.00  0.00     0.167 HD
ATOM     60  C   UNL A   1      45.987  29.417  29.918  1.00  0.00     0.074 A 
ATOM     61  C   UNL A   1      46.720  30.575  30.392  1.00  0.00     0.031 C 
ATOM     62  C   UNL A   1      46.568  28.257  29.523  1.00  0.00     0.037 A 
BRANCH  49  63
ATOM     63  C   UNL A   1      42.613  23.875  27.660  1.00  0.00     0.058 A 
ATOM     64  C   UNL A   1      42.510  22.782  28.538  1.00  0.00     0.135 A 
ATOM     65  C   UNL A   1      42.488  23.625  26.285  1.00  0.00     0.135 A 
ATOM     66  F   UNL A   1      42.646  22.964  29.862  1.00  0.00    -0.206 F 
ATOM     67  C   UNL A   1      42.313  21.489  28.070  1.00  0.00     0.059 A 
ATOM     68  C   UNL A   1      42.270  22.341  25.796  1.00  0.00     0.059 A 
ATOM     69  F   UNL A   1      42.591  24.633  25.404  1.00  0.00    -0.206 F 
ATOM     70  C   UNL A   1      42.195  21.277  26.696  1.00  0.00     0.060 A 
BRANCH  70  71
ATOM     71  S   UNL A   1      41.929  19.593  26.106  1.00  0.00     0.124 S 
ATOM     72  O   UNL A   1      40.503  19.614  25.794  1.00  0.00    -0.237 OA
ATOM     73  O   UNL A   1      42.827  19.517  24.958  1.00  0.00    -0.237 OA
ATOM     74  O   UNL A   1      42.309  18.768  27.249  1.00  0.00    -0.744 OA
ENDBRANCH  70  71
ENDBRANCH  49  63
BRANCH  50  75
ATOM     75  C   UNL A   1      43.524  33.251  31.137  1.00  0.00     0.058 A 
ATOM     76  C   UNL A   1      43.551  33.540  32.509  1.00  0.00     0.135 A 
ATOM     77  C   UNL A   1      43.681  34.317  30.239  1.00  0.00     0.135 A 
ATOM     78  F   UNL A   1      43.407  32.552  33.405  1.00  0.00    -0.206 F 
ATOM     79  C   UNL A   1      43.724  34.839  32.976  1.00  0.00     0.059 A 
ATOM     80  C   UNL A   1      43.871  35.623  30.682  1.00  0.00     0.059 A 
ATOM     81  F   UNL A   1      43.682  34.087  28.916  1.00  0.00    -0.206 F 
ATOM     82  C   UNL A   1      43.886  35.874  32.053  1.00  0.00     0.060 A 
BRANCH  82  83
ATOM     83  S   UNL A   1      44.181  37.545  32.673  1.00  0.00     0.124 S 
ATOM     84  O   UNL A   1      45.544  37.433  33.182  1.00  0.00    -0.237 OA
ATOM     85  O   UNL A   1      44.012  38.352  31.470  1.00  0.00    -0.237 OA
ATOM     86  O   UNL A   1      43.140  37.715  33.684  1.00  0.00    -0.744 OA
ENDBRANCH  82  83
ENDBRANCH  50  75
BRANCH  62  87
ATOM     87  C   UNL A   1      48.064  28.184  29.588  1.00  0.00     0.058 A 
ATOM     88  C   UNL A   1      48.716  27.723  30.741  1.00  0.00     0.135 A 
ATOM     89  C   UNL A   1      48.844  28.502  28.466  1.00  0.00     0.135 A 
ATOM     90  F   UNL A   1      48.010  27.413  31.839  1.00  0.00    -0.206 F 
ATOM     91  C   UNL A   1      50.098  27.587  30.782  1.00  0.00     0.059 A 
ATOM     92  C   UNL A   1      50.226  28.355  28.479  1.00  0.00     0.059 A 
ATOM     93  F   UNL A   1      48.261  28.938  27.338  1.00  0.00    -0.206 F 
ATOM     94  C   UNL A   1      50.844  27.903  29.645  1.00  0.00     0.060 A 
BRANCH  94  95
ATOM     95  S   UNL A   1      52.634  27.672  29.695  1.00  0.00     0.124 S 
ATOM     96  O   UNL A   1      52.737  26.296  30.170  1.00  0.00    -0.237 OA
ATOM     97  O   UNL A   1      53.018  27.895  28.306  1.00  0.00    -0.237 OA
ATOM     98  O   UNL A   1      53.081  28.696  30.634  1.00  0.00    -0.744 OA
ENDBRANCH  94  95
ENDBRANCH  62  87
ENDBRANCH  36  37
ENDBRANCH  29  31
ENDBRANCH  28  29
ENDBRANCH   1  28
TORSDOF 18
ENDMDL
