MODEL 1
REMARK VINA RESULT:     -12.3      0.000      0.000
REMARK SMILES COc1ccc(NC(=O)[C@@H]2[C@@H](C(=O)OCCOC(=O)c3ccc(-c4c5nc(c(-c6c(F)cc(S(=O)(=O)[O-])cc6F)c6ccc([nH]6)c(-c6c(F)cc(S(=O)(=O)[O-])cc6F)c6nc(c(-c7c(F)cc(S(=O)(=O)[O-])cc7F)c7ccc4[nH]7)C=C6)C=C5)cc3)[C@@H]3CC[C@H]2C3=C(C)C)cc1
REMARK SMILES IDX 15 1 14 2 12 3 13 4 11 5 10 6 89 7 86 8 88 9 90 10 87 11
REMARK SMILES IDX 91 12 92 13 93 14 8 15 7 16 9 18 6 19 3 20 4 21 95 22 5 23
REMARK SMILES IDX 94 24 2 25 1 26 16 27 17 28 18 29 19 30 20 31 21 32 85 33
REMARK SMILES IDX 22 34 84 35 23 36 24 37 25 38 78 39 26 40 83 41 77 42 79 43
REMARK SMILES IDX 27 44 82 45 76 46 75 47 28 49 62 50 41 51 61 52 42 53 45 54
REMARK SMILES IDX 60 55 80 56 43 57 44 58 59 60 81 61 46 62 29 63 30 64 39 65
REMARK SMILES IDX 31 66 32 67 38 68 40 69 33 70 34 71 35 72 36 73 37 74 63 75
REMARK SMILES IDX 64 76 73 77 65 78 66 79 72 80 74 81 67 82 68 83 69 84 70 85
REMARK SMILES IDX 71 86 47 87 48 88 57 89 49 90 50 91 56 92 58 93 51 94 52 95
REMARK SMILES IDX 53 96 54 97 55 98
REMARK H PARENT 7 17 79 48 45 59
REMARK Flexibility Score: inf
ROOT
ATOM      1  C   UNL A   1      33.155  29.592  26.548  1.00  0.00     0.274 C 
ENDROOT
BRANCH   1   2
ATOM      2  O   UNL A   1      33.096  28.234  27.029  1.00  0.00    -0.462 OA
BRANCH   2   3
ATOM      3  C   UNL A   1      31.832  27.782  27.208  1.00  0.00     0.310 C 
ATOM      4  O   UNL A   1      31.060  28.211  28.063  1.00  0.00    -0.252 OA
BRANCH   3   5
ATOM      5  C   UNL A   1      31.405  26.660  26.293  1.00  0.00     0.119 C 
ATOM      6  C   UNL A   1      32.468  25.654  25.945  1.00  0.00     0.101 C 
ATOM      7  C   UNL A   1      32.471  25.655  24.396  1.00  0.00     0.029 C 
ATOM      8  C   UNL A   1      30.764  27.031  24.951  1.00  0.00     0.030 C 
ATOM      9  C   UNL A   1      31.246  24.906  23.854  1.00  0.00     0.009 C 
ATOM     10  C   UNL A   1      31.970  27.049  24.066  1.00  0.00    -0.064 C 
ATOM     11  C   UNL A   1      30.083  25.849  24.227  1.00  0.00     0.009 C 
ATOM     12  C   UNL A   1      32.282  27.925  23.094  1.00  0.00    -0.077 C 
ATOM     13  C   UNL A   1      31.387  29.086  22.723  1.00  0.00     0.039 C 
ATOM     14  C   UNL A   1      33.451  27.741  22.173  1.00  0.00     0.039 C 
BRANCH   6  15
ATOM     15  C   UNL A   1      32.304  24.275  26.597  1.00  0.00     0.228 C 
ATOM     16  N   UNL A   1      33.153  23.218  26.708  1.00  0.00    -0.326 N 
ATOM     17  H   UNL A   1      32.733  22.574  27.322  1.00  0.00     0.169 HD
ATOM     18  O   UNL A   1      31.236  24.105  27.218  1.00  0.00    -0.274 OA
BRANCH  16  19
ATOM     19  C   UNL A   1      34.400  22.659  26.303  1.00  0.00     0.041 A 
ATOM     20  C   UNL A   1      37.064  21.897  25.528  1.00  0.00     0.119 A 
ATOM     21  C   UNL A   1      36.040  20.972  25.569  1.00  0.00     0.048 A 
ATOM     22  C   UNL A   1      36.769  23.208  25.879  1.00  0.00     0.048 A 
ATOM     23  C   UNL A   1      34.745  21.348  25.971  1.00  0.00     0.030 A 
ATOM     24  C   UNL A   1      35.466  23.578  26.264  1.00  0.00     0.030 A 
BRANCH  20  25
ATOM     25  O   UNL A   1      38.358  21.636  25.181  1.00  0.00    -0.497 OA
ATOM     26  C   UNL A   1      39.352  21.895  26.175  1.00  0.00     0.278 C 
ENDBRANCH  20  25
ENDBRANCH  16  19
ENDBRANCH   6  15
ENDBRANCH   3   5
ENDBRANCH   2   3
ENDBRANCH   1   2
BRANCH   1  27
ATOM     27  C   UNL A   1      34.017  30.471  27.454  1.00  0.00     0.275 C 
BRANCH  27  28
ATOM     28  O   UNL A   1      35.313  29.877  27.655  1.00  0.00    -0.458 OA
BRANCH  28  29
ATOM     29  C   UNL A   1      36.003  30.327  28.729  1.00  0.00     0.338 C 
ATOM     30  O   UNL A   1      35.529  30.882  29.707  1.00  0.00    -0.246 OA
BRANCH  29  31
ATOM     31  C   UNL A   1      37.454  30.028  28.610  1.00  0.00     0.060 A 
ATOM     32  C   UNL A   1      38.081  29.817  27.380  1.00  0.00     0.016 A 
ATOM     33  C   UNL A   1      38.183  29.832  29.787  1.00  0.00     0.016 A 
ATOM     34  C   UNL A   1      39.382  29.307  27.332  1.00  0.00     0.010 A 
ATOM     35  C   UNL A   1      39.521  29.431  29.732  1.00  0.00     0.010 A 
ATOM     36  C   UNL A   1      40.134  29.133  28.506  1.00  0.00    -0.014 A 
BRANCH  36  37
ATOM     37  C   UNL A   1      41.561  28.691  28.470  1.00  0.00     0.031 A 
ATOM     38  C   UNL A   1      42.686  29.694  28.568  1.00  0.00     0.074 A 
ATOM     39  C   UNL A   1      41.857  27.388  28.271  1.00  0.00     0.049 A 
ATOM     40  N   UNL A   1      43.956  29.540  28.288  1.00  0.00    -0.248 NA
ATOM     41  C   UNL A   1      42.338  31.050  29.025  1.00  0.00     0.031 C 
ATOM     42  C   UNL A   1      40.882  26.301  28.157  1.00  0.00     0.029 A 
ATOM     43  N   UNL A   1      43.068  26.761  28.096  1.00  0.00    -0.354 N 
ATOM     44  C   UNL A   1      44.545  30.787  28.469  1.00  0.00     0.074 A 
ATOM     45  C   UNL A   1      43.497  31.686  28.902  1.00  0.00     0.031 C 
ATOM     46  C   UNL A   1      41.528  25.146  27.941  1.00  0.00     0.029 A 
ATOM     47  C   UNL A   1      42.952  25.421  27.804  1.00  0.00     0.049 A 
ATOM     48  H   UNL A   1      43.933  27.225  28.174  1.00  0.00     0.167 HD
ATOM     49  C   UNL A   1      45.839  31.147  28.283  1.00  0.00     0.037 A 
ATOM     50  C   UNL A   1      43.867  24.519  27.400  1.00  0.00     0.037 A 
ATOM     51  C   UNL A   1      46.897  30.237  27.919  1.00  0.00     0.049 A 
ATOM     52  C   UNL A   1      45.291  24.944  27.198  1.00  0.00     0.074 A 
ATOM     53  C   UNL A   1      48.248  30.505  27.775  1.00  0.00     0.029 A 
ATOM     54  N   UNL A   1      46.728  28.888  27.649  1.00  0.00    -0.354 N 
ATOM     55  N   UNL A   1      45.823  26.132  27.351  1.00  0.00    -0.248 NA
ATOM     56  C   UNL A   1      46.234  23.911  26.748  1.00  0.00     0.031 C 
ATOM     57  C   UNL A   1      48.893  29.325  27.386  1.00  0.00     0.029 A 
ATOM     58  C   UNL A   1      47.947  28.315  27.323  1.00  0.00     0.049 A 
ATOM     59  H   UNL A   1      45.870  28.408  27.684  1.00  0.00     0.167 HD
ATOM     60  C   UNL A   1      47.164  25.989  27.014  1.00  0.00     0.074 A 
ATOM     61  C   UNL A   1      47.367  24.596  26.675  1.00  0.00     0.031 C 
ATOM     62  C   UNL A   1      48.137  26.931  26.982  1.00  0.00     0.037 A 
BRANCH  49  63
ATOM     63  C   UNL A   1      46.212  32.595  28.447  1.00  0.00     0.058 A 
ATOM     64  C   UNL A   1      46.732  33.096  29.648  1.00  0.00     0.135 A 
ATOM     65  C   UNL A   1      46.165  33.460  27.339  1.00  0.00     0.135 A 
ATOM     66  F   UNL A   1      46.788  32.315  30.738  1.00  0.00    -0.206 F 
ATOM     67  C   UNL A   1      47.199  34.404  29.746  1.00  0.00     0.059 A 
ATOM     68  C   UNL A   1      46.642  34.765  27.410  1.00  0.00     0.059 A 
ATOM     69  F   UNL A   1      45.677  33.027  26.166  1.00  0.00    -0.206 F 
ATOM     70  C   UNL A   1      47.158  35.229  28.619  1.00  0.00     0.060 A 
BRANCH  70  71
ATOM     71  S   UNL A   1      47.827  36.902  28.742  1.00  0.00     0.124 S 
ATOM     72  O   UNL A   1      47.047  37.602  27.725  1.00  0.00    -0.237 OA
ATOM     73  O   UNL A   1      47.529  37.259  30.125  1.00  0.00    -0.237 OA
ATOM     74  O   UNL A   1      49.243  36.725  28.436  1.00  0.00    -0.744 OA
ENDBRANCH  70  71
ENDBRANCH  49  63
BRANCH  50  75
ATOM     75  C   UNL A   1      43.440  23.131  27.086  1.00  0.00     0.058 A 
ATOM     76  C   UNL A   1      43.383  22.673  25.763  1.00  0.00     0.135 A 
ATOM     77  C   UNL A   1      43.101  22.232  28.110  1.00  0.00     0.135 A 
ATOM     78  F   UNL A   1      43.693  23.500  24.753  1.00  0.00    -0.206 F 
ATOM     79  C   UNL A   1      42.995  21.373  25.462  1.00  0.00     0.059 A 
ATOM     80  C   UNL A   1      42.736  20.920  27.835  1.00  0.00     0.059 A 
ATOM     81  F   UNL A   1      43.158  22.621  29.393  1.00  0.00    -0.206 F 
ATOM     82  C   UNL A   1      42.674  20.502  26.506  1.00  0.00     0.060 A 
BRANCH  82  83
ATOM     83  S   UNL A   1      42.232  18.795  26.121  1.00  0.00     0.124 S 
ATOM     84  O   UNL A   1      42.449  18.142  27.406  1.00  0.00    -0.237 OA
ATOM     85  O   UNL A   1      40.842  18.921  25.694  1.00  0.00    -0.237 OA
ATOM     86  O   UNL A   1      43.173  18.443  25.061  1.00  0.00    -0.744 OA
ENDBRANCH  82  83
ENDBRANCH  50  75
BRANCH  62  87
ATOM     87  C   UNL A   1      49.511  26.479  26.582  1.00  0.00     0.058 A 
ATOM     88  C   UNL A   1      49.943  26.540  25.248  1.00  0.00     0.135 A 
ATOM     89  C   UNL A   1      50.409  25.989  27.544  1.00  0.00     0.135 A 
ATOM     90  F   UNL A   1      49.117  26.992  24.292  1.00  0.00    -0.206 F 
ATOM     91  C   UNL A   1      51.210  26.104  24.876  1.00  0.00     0.059 A 
ATOM     92  C   UNL A   1      51.688  25.567  27.197  1.00  0.00     0.059 A 
ATOM     93  F   UNL A   1      50.045  25.918  28.834  1.00  0.00    -0.206 F 
ATOM     94  C   UNL A   1      52.073  25.614  25.857  1.00  0.00     0.060 A 
BRANCH  94  95
ATOM     95  S   UNL A   1      53.718  25.053  25.367  1.00  0.00     0.124 S 
ATOM     96  O   UNL A   1      53.898  25.749  24.097  1.00  0.00    -0.237 OA
ATOM     97  O   UNL A   1      54.553  25.520  26.470  1.00  0.00    -0.237 OA
ATOM     98  O   UNL A   1      53.567  23.604  25.274  1.00  0.00    -0.744 OA
ENDBRANCH  94  95
ENDBRANCH  62  87
ENDBRANCH  36  37
ENDBRANCH  29  31
ENDBRANCH  28  29
ENDBRANCH  27  28
ENDBRANCH   1  27
TORSDOF 17
ENDMDL
MODEL 2
REMARK VINA RESULT:     -11.9      2.120      4.106
REMARK SMILES COc1ccc(NC(=O)[C@@H]2[C@@H](C(=O)OCCOC(=O)c3ccc(-c4c5nc(c(-c6c(F)cc(S(=O)(=O)[O-])cc6F)c6ccc([nH]6)c(-c6c(F)cc(S(=O)(=O)[O-])cc6F)c6nc(c(-c7c(F)cc(S(=O)(=O)[O-])cc7F)c7ccc4[nH]7)C=C6)C=C5)cc3)[C@@H]3CC[C@H]2C3=C(C)C)cc1
REMARK SMILES IDX 15 1 14 2 12 3 13 4 11 5 10 6 89 7 86 8 88 9 90 10 87 11
REMARK SMILES IDX 91 12 92 13 93 14 8 15 7 16 9 18 6 19 3 20 4 21 95 22 5 23
REMARK SMILES IDX 94 24 2 25 1 26 16 27 17 28 18 29 19 30 20 31 21 32 85 33
REMARK SMILES IDX 22 34 84 35 23 36 24 37 25 38 78 39 26 40 83 41 77 42 79 43
REMARK SMILES IDX 27 44 82 45 76 46 75 47 28 49 62 50 41 51 61 52 42 53 45 54
REMARK SMILES IDX 60 55 80 56 43 57 44 58 59 60 81 61 46 62 29 63 30 64 39 65
REMARK SMILES IDX 31 66 32 67 38 68 40 69 33 70 34 71 35 72 36 73 37 74 63 75
REMARK SMILES IDX 64 76 73 77 65 78 66 79 72 80 74 81 67 82 68 83 69 84 70 85
REMARK SMILES IDX 71 86 47 87 48 88 57 89 49 90 50 91 56 92 58 93 51 94 52 95
REMARK SMILES IDX 53 96 54 97 55 98
REMARK H PARENT 7 17 79 48 45 59
REMARK Flexibility Score: inf
ROOT
ATOM      1  C   UNL A   1      32.785  27.710  25.903  1.00  0.00     0.274 C 
ENDROOT
BRANCH   1   2
ATOM      2  O   UNL A   1      33.823  27.109  25.101  1.00  0.00    -0.462 OA
BRANCH   2   3
ATOM      3  C   UNL A   1      34.035  25.803  25.389  1.00  0.00     0.310 C 
ATOM      4  O   UNL A   1      34.788  25.405  26.276  1.00  0.00    -0.252 OA
BRANCH   3   5
ATOM      5  C   UNL A   1      33.300  24.815  24.516  1.00  0.00     0.119 C 
ATOM      6  C   UNL A   1      32.508  23.761  25.240  1.00  0.00     0.101 C 
ATOM      7  C   UNL A   1      33.058  22.435  24.657  1.00  0.00     0.029 C 
ATOM      8  C   UNL A   1      34.108  24.045  23.466  1.00  0.00     0.030 C 
ATOM      9  C   UNL A   1      32.522  22.205  23.238  1.00  0.00     0.009 C 
ATOM     10  C   UNL A   1      34.467  22.816  24.241  1.00  0.00    -0.064 C 
ATOM     11  C   UNL A   1      33.244  23.299  22.424  1.00  0.00     0.009 C 
ATOM     12  C   UNL A   1      35.637  22.154  24.266  1.00  0.00    -0.077 C 
ATOM     13  C   UNL A   1      36.834  22.578  23.445  1.00  0.00     0.039 C 
ATOM     14  C   UNL A   1      35.818  20.842  24.970  1.00  0.00     0.039 C 
BRANCH   6  15
ATOM     15  C   UNL A   1      30.984  23.923  25.168  1.00  0.00     0.228 C 
ATOM     16  N   UNL A   1      30.197  24.817  24.510  1.00  0.00    -0.326 N 
ATOM     17  H   UNL A   1      29.269  24.502  24.595  1.00  0.00     0.169 HD
ATOM     18  O   UNL A   1      30.327  23.030  25.740  1.00  0.00    -0.274 OA
BRANCH  16  19
ATOM     19  C   UNL A   1      30.163  26.021  23.749  1.00  0.00     0.041 A 
ATOM     20  C   UNL A   1      29.729  28.505  22.362  1.00  0.00     0.119 A 
ATOM     21  C   UNL A   1      30.906  27.800  22.213  1.00  0.00     0.048 A 
ATOM     22  C   UNL A   1      28.761  27.980  23.208  1.00  0.00     0.048 A 
ATOM     23  C   UNL A   1      31.120  26.597  22.912  1.00  0.00     0.030 A 
ATOM     24  C   UNL A   1      28.977  26.768  23.891  1.00  0.00     0.030 A 
BRANCH  20  25
ATOM     25  O   UNL A   1      29.430  29.691  21.756  1.00  0.00    -0.497 OA
ATOM     26  C   UNL A   1      28.055  30.082  21.759  1.00  0.00     0.278 C 
ENDBRANCH  20  25
ENDBRANCH  16  19
ENDBRANCH   6  15
ENDBRANCH   3   5
ENDBRANCH   2   3
ENDBRANCH   1   2
BRANCH   1  27
ATOM     27  C   UNL A   1      33.136  29.147  26.288  1.00  0.00     0.275 C 
BRANCH  27  28
ATOM     28  O   UNL A   1      33.603  29.209  27.648  1.00  0.00    -0.458 OA
BRANCH  28  29
ATOM     29  C   UNL A   1      34.427  30.244  27.938  1.00  0.00     0.338 C 
ATOM     30  O   UNL A   1      34.106  31.419  28.007  1.00  0.00    -0.246 OA
BRANCH  29  31
ATOM     31  C   UNL A   1      35.811  29.780  28.215  1.00  0.00     0.060 A 
ATOM     32  C   UNL A   1      36.216  29.328  29.472  1.00  0.00     0.016 A 
ATOM     33  C   UNL A   1      36.765  29.921  27.202  1.00  0.00     0.016 A 
ATOM     34  C   UNL A   1      37.574  29.131  29.745  1.00  0.00     0.010 A 
ATOM     35  C   UNL A   1      38.107  29.613  27.447  1.00  0.00     0.010 A 
ATOM     36  C   UNL A   1      38.539  29.242  28.730  1.00  0.00    -0.014 A 
BRANCH  36  37
ATOM     37  C   UNL A   1      39.979  28.932  28.974  1.00  0.00     0.031 A 
ATOM     38  C   UNL A   1      40.945  30.016  29.396  1.00  0.00     0.074 A 
ATOM     39  C   UNL A   1      40.450  27.687  28.745  1.00  0.00     0.049 A 
ATOM     40  N   UNL A   1      42.254  30.002  29.391  1.00  0.00    -0.248 NA
ATOM     41  C   UNL A   1      40.364  31.283  29.870  1.00  0.00     0.031 C 
ATOM     42  C   UNL A   1      39.643  26.535  28.335  1.00  0.00     0.029 A 
ATOM     43  N   UNL A   1      41.730  27.188  28.793  1.00  0.00    -0.354 N 
ATOM     44  C   UNL A   1      42.654  31.272  29.795  1.00  0.00     0.074 A 
ATOM     45  C   UNL A   1      41.448  32.028  30.056  1.00  0.00     0.031 C 
ATOM     46  C   UNL A   1      40.440  25.468  28.176  1.00  0.00     0.029 A 
ATOM     47  C   UNL A   1      41.823  25.880  28.379  1.00  0.00     0.049 A 
ATOM     48  H   UNL A   1      42.505  27.716  29.095  1.00  0.00     0.167 HD
ATOM     49  C   UNL A   1      43.911  31.761  29.927  1.00  0.00     0.037 A 
ATOM     50  C   UNL A   1      42.894  25.106  28.117  1.00  0.00     0.037 A 
ATOM     51  C   UNL A   1      45.114  30.987  29.734  1.00  0.00     0.049 A 
ATOM     52  C   UNL A   1      44.274  25.672  28.266  1.00  0.00     0.074 A 
ATOM     53  C   UNL A   1      46.429  31.386  29.913  1.00  0.00     0.029 A 
ATOM     54  N   UNL A   1      45.152  29.663  29.330  1.00  0.00    -0.354 N 
ATOM     55  N   UNL A   1      44.631  26.881  28.625  1.00  0.00    -0.248 NA
ATOM     56  C   UNL A   1      45.397  24.776  27.956  1.00  0.00     0.031 C 
ATOM     57  C   UNL A   1      47.264  30.312  29.585  1.00  0.00     0.029 A 
ATOM     58  C   UNL A   1      46.466  29.234  29.236  1.00  0.00     0.049 A 
ATOM     59  H   UNL A   1      44.362  29.108  29.137  1.00  0.00     0.167 HD
ATOM     60  C   UNL A   1      46.020  26.891  28.582  1.00  0.00     0.074 A 
ATOM     61  C   UNL A   1      46.439  25.562  28.188  1.00  0.00     0.031 C 
ATOM     62  C   UNL A   1      46.872  27.913  28.838  1.00  0.00     0.037 A 
BRANCH  49  63
ATOM     63  C   UNL A   1      44.084  33.212  30.281  1.00  0.00     0.058 A 
ATOM     64  C   UNL A   1      44.252  33.638  31.606  1.00  0.00     0.135 A 
ATOM     65  C   UNL A   1      44.211  34.172  29.262  1.00  0.00     0.135 A 
ATOM     66  F   UNL A   1      44.130  32.764  32.617  1.00  0.00    -0.206 F 
ATOM     67  C   UNL A   1      44.545  34.965  31.909  1.00  0.00     0.059 A 
ATOM     68  C   UNL A   1      44.520  35.499  29.541  1.00  0.00     0.059 A 
ATOM     69  F   UNL A   1      44.059  33.814  27.976  1.00  0.00    -0.206 F 
ATOM     70  C   UNL A   1      44.685  35.887  30.870  1.00  0.00     0.060 A 
BRANCH  70  71
ATOM     71  S   UNL A   1      45.131  37.591  31.273  1.00  0.00     0.124 S 
ATOM     72  O   UNL A   1      45.367  38.151  29.946  1.00  0.00    -0.237 OA
ATOM     73  O   UNL A   1      43.937  38.072  31.959  1.00  0.00    -0.237 OA
ATOM     74  O   UNL A   1      46.315  37.443  32.113  1.00  0.00    -0.744 OA
ENDBRANCH  70  71
ENDBRANCH  49  63
BRANCH  50  75
ATOM     75  C   UNL A   1      42.694  23.724  27.608  1.00  0.00     0.058 A 
ATOM     76  C   UNL A   1      42.666  23.455  26.234  1.00  0.00     0.135 A 
ATOM     77  C   UNL A   1      42.549  22.645  28.494  1.00  0.00     0.135 A 
ATOM     78  F   UNL A   1      42.795  24.458  25.351  1.00  0.00    -0.206 F 
ATOM     79  C   UNL A   1      42.490  22.164  25.751  1.00  0.00     0.059 A 
ATOM     80  C   UNL A   1      42.400  21.341  28.036  1.00  0.00     0.059 A 
ATOM     81  F   UNL A   1      42.588  22.852  29.820  1.00  0.00    -0.206 F 
ATOM     82  C   UNL A   1      42.360  21.112  26.661  1.00  0.00     0.060 A 
BRANCH  82  83
ATOM     83  S   UNL A   1      42.196  19.426  26.037  1.00  0.00     0.124 S 
ATOM     84  O   UNL A   1      40.768  19.360  25.750  1.00  0.00    -0.237 OA
ATOM     85  O   UNL A   1      43.082  19.435  24.877  1.00  0.00    -0.237 OA
ATOM     86  O   UNL A   1      42.657  18.614  27.159  1.00  0.00    -0.744 OA
ENDBRANCH  82  83
ENDBRANCH  50  75
BRANCH  62  87
ATOM     87  C   UNL A   1      48.340  27.625  28.717  1.00  0.00     0.058 A 
ATOM     88  C   UNL A   1      49.008  27.733  27.487  1.00  0.00     0.135 A 
ATOM     89  C   UNL A   1      49.088  27.248  29.842  1.00  0.00     0.135 A 
ATOM     90  F   UNL A   1      48.332  28.082  26.381  1.00  0.00    -0.206 F 
ATOM     91  C   UNL A   1      50.365  27.449  27.372  1.00  0.00     0.059 A 
ATOM     92  C   UNL A   1      50.450  26.979  29.755  1.00  0.00     0.059 A 
ATOM     93  F   UNL A   1      48.496  27.137  31.042  1.00  0.00    -0.206 F 
ATOM     94  C   UNL A   1      51.075  27.067  28.510  1.00  0.00     0.060 A 
BRANCH  94  95
ATOM     95  S   UNL A   1      52.837  26.704  28.355  1.00  0.00     0.124 S 
ATOM     96  O   UNL A   1      52.849  25.796  27.212  1.00  0.00    -0.237 OA
ATOM     97  O   UNL A   1      53.414  28.024  28.122  1.00  0.00    -0.237 OA
ATOM     98  O   UNL A   1      53.172  26.100  29.641  1.00  0.00    -0.744 OA
ENDBRANCH  94  95
ENDBRANCH  62  87
ENDBRANCH  36  37
ENDBRANCH  29  31
ENDBRANCH  28  29
ENDBRANCH  27  28
ENDBRANCH   1  27
TORSDOF 17
ENDMDL
MODEL 3
REMARK VINA RESULT:     -11.7      2.282      4.670
REMARK SMILES COc1ccc(NC(=O)[C@@H]2[C@@H](C(=O)OCCOC(=O)c3ccc(-c4c5nc(c(-c6c(F)cc(S(=O)(=O)[O-])cc6F)c6ccc([nH]6)c(-c6c(F)cc(S(=O)(=O)[O-])cc6F)c6nc(c(-c7c(F)cc(S(=O)(=O)[O-])cc7F)c7ccc4[nH]7)C=C6)C=C5)cc3)[C@@H]3CC[C@H]2C3=C(C)C)cc1
REMARK SMILES IDX 15 1 14 2 12 3 13 4 11 5 10 6 89 7 86 8 88 9 90 10 87 11
REMARK SMILES IDX 91 12 92 13 93 14 8 15 7 16 9 18 6 19 3 20 4 21 95 22 5 23
REMARK SMILES IDX 94 24 2 25 1 26 16 27 17 28 18 29 19 30 20 31 21 32 85 33
REMARK SMILES IDX 22 34 84 35 23 36 24 37 25 38 78 39 26 40 83 41 77 42 79 43
REMARK SMILES IDX 27 44 82 45 76 46 75 47 28 49 62 50 41 51 61 52 42 53 45 54
REMARK SMILES IDX 60 55 80 56 43 57 44 58 59 60 81 61 46 62 29 63 30 64 39 65
REMARK SMILES IDX 31 66 32 67 38 68 40 69 33 70 34 71 35 72 36 73 37 74 63 75
REMARK SMILES IDX 64 76 73 77 65 78 66 79 72 80 74 81 67 82 68 83 69 84 70 85
REMARK SMILES IDX 71 86 47 87 48 88 57 89 49 90 50 91 56 92 58 93 51 94 52 95
REMARK SMILES IDX 53 96 54 97 55 98
REMARK H PARENT 7 17 79 48 45 59
REMARK Flexibility Score: inf
ROOT
ATOM      1  C   UNL A   1      32.442  28.261  25.870  1.00  0.00     0.274 C 
ENDROOT
BRANCH   1   2
ATOM      2  O   UNL A   1      32.016  27.222  26.775  1.00  0.00    -0.462 OA
BRANCH   2   3
ATOM      3  C   UNL A   1      31.805  26.032  26.163  1.00  0.00     0.310 C 
ATOM      4  O   UNL A   1      30.819  25.323  26.354  1.00  0.00    -0.252 OA
BRANCH   3   5
ATOM      5  C   UNL A   1      32.895  25.581  25.221  1.00  0.00     0.119 C 
ATOM      6  C   UNL A   1      32.433  24.948  23.937  1.00  0.00     0.101 C 
ATOM      7  C   UNL A   1      33.159  23.579  23.931  1.00  0.00     0.029 C 
ATOM      8  C   UNL A   1      33.966  24.629  25.764  1.00  0.00     0.030 C 
ATOM      9  C   UNL A   1      34.645  23.758  23.589  1.00  0.00     0.009 C 
ATOM     10  C   UNL A   1      33.364  23.306  25.410  1.00  0.00    -0.064 C 
ATOM     11  C   UNL A   1      35.196  24.468  24.843  1.00  0.00     0.009 C 
ATOM     12  C   UNL A   1      33.324  22.181  26.144  1.00  0.00    -0.077 C 
ATOM     13  C   UNL A   1      33.941  22.082  27.522  1.00  0.00     0.039 C 
ATOM     14  C   UNL A   1      32.823  20.873  25.608  1.00  0.00     0.039 C 
BRANCH   6  15
ATOM     15  C   UNL A   1      32.634  25.799  22.677  1.00  0.00     0.228 C 
ATOM     16  N   UNL A   1      32.017  26.930  22.240  1.00  0.00    -0.326 N 
ATOM     17  H   UNL A   1      32.527  27.255  21.463  1.00  0.00     0.169 HD
ATOM     18  O   UNL A   1      33.589  25.458  21.951  1.00  0.00    -0.274 OA
BRANCH  16  19
ATOM     19  C   UNL A   1      30.939  27.840  22.443  1.00  0.00     0.041 A 
ATOM     20  C   UNL A   1      28.570  29.370  23.015  1.00  0.00     0.119 A 
ATOM     21  C   UNL A   1      29.664  29.949  22.404  1.00  0.00     0.048 A 
ATOM     22  C   UNL A   1      28.651  28.024  23.351  1.00  0.00     0.048 A 
ATOM     23  C   UNL A   1      30.828  29.200  22.149  1.00  0.00     0.030 A 
ATOM     24  C   UNL A   1      29.813  27.279  23.076  1.00  0.00     0.030 A 
BRANCH  20  25
ATOM     25  O   UNL A   1      27.406  30.007  23.334  1.00  0.00    -0.497 OA
ATOM     26  C   UNL A   1      27.469  31.429  23.462  1.00  0.00     0.278 C 
ENDBRANCH  20  25
ENDBRANCH  16  19
ENDBRANCH   6  15
ENDBRANCH   3   5
ENDBRANCH   2   3
ENDBRANCH   1   2
BRANCH   1  27
ATOM     27  C   UNL A   1      33.767  28.882  26.314  1.00  0.00     0.275 C 
BRANCH  27  28
ATOM     28  O   UNL A   1      33.681  29.346  27.674  1.00  0.00    -0.458 OA
BRANCH  28  29
ATOM     29  C   UNL A   1      34.508  30.367  27.998  1.00  0.00     0.338 C 
ATOM     30  O   UNL A   1      34.194  31.541  28.102  1.00  0.00    -0.246 OA
BRANCH  29  31
ATOM     31  C   UNL A   1      35.890  29.888  28.265  1.00  0.00     0.060 A 
ATOM     32  C   UNL A   1      36.284  29.377  29.503  1.00  0.00     0.016 A 
ATOM     33  C   UNL A   1      36.852  30.073  27.268  1.00  0.00     0.016 A 
ATOM     34  C   UNL A   1      37.639  29.166  29.778  1.00  0.00     0.010 A 
ATOM     35  C   UNL A   1      38.191  29.751  27.509  1.00  0.00     0.010 A 
ATOM     36  C   UNL A   1      38.612  29.320  28.777  1.00  0.00    -0.014 A 
BRANCH  36  37
ATOM     37  C   UNL A   1      40.050  28.996  29.019  1.00  0.00     0.031 A 
ATOM     38  C   UNL A   1      41.027  30.071  29.439  1.00  0.00     0.074 A 
ATOM     39  C   UNL A   1      40.507  27.747  28.789  1.00  0.00     0.049 A 
ATOM     40  N   UNL A   1      42.336  30.044  29.432  1.00  0.00    -0.248 NA
ATOM     41  C   UNL A   1      40.460  31.344  29.913  1.00  0.00     0.031 C 
ATOM     42  C   UNL A   1      39.689  26.602  28.381  1.00  0.00     0.029 A 
ATOM     43  N   UNL A   1      41.783  27.235  28.835  1.00  0.00    -0.354 N 
ATOM     44  C   UNL A   1      42.749  31.310  29.834  1.00  0.00     0.074 A 
ATOM     45  C   UNL A   1      41.551  32.077  30.097  1.00  0.00     0.031 C 
ATOM     46  C   UNL A   1      40.474  25.528  28.221  1.00  0.00     0.029 A 
ATOM     47  C   UNL A   1      41.862  25.926  28.421  1.00  0.00     0.049 A 
ATOM     48  H   UNL A   1      42.563  27.756  29.135  1.00  0.00     0.167 HD
ATOM     49  C   UNL A   1      44.011  31.786  29.964  1.00  0.00     0.037 A 
ATOM     50  C   UNL A   1      42.924  25.141  28.157  1.00  0.00     0.037 A 
ATOM     51  C   UNL A   1      45.206  31.001  29.769  1.00  0.00     0.049 A 
ATOM     52  C   UNL A   1      44.311  25.694  28.304  1.00  0.00     0.074 A 
ATOM     53  C   UNL A   1      46.525  31.387  29.946  1.00  0.00     0.029 A 
ATOM     54  N   UNL A   1      45.230  29.676  29.365  1.00  0.00    -0.354 N 
ATOM     55  N   UNL A   1      44.680  26.899  28.662  1.00  0.00    -0.248 NA
ATOM     56  C   UNL A   1      45.424  24.786  27.992  1.00  0.00     0.031 C 
ATOM     57  C   UNL A   1      47.348  30.304  29.616  1.00  0.00     0.029 A 
ATOM     58  C   UNL A   1      46.540  29.234  29.269  1.00  0.00     0.049 A 
ATOM     59  H   UNL A   1      44.434  29.129  29.174  1.00  0.00     0.167 HD
ATOM     60  C   UNL A   1      46.070  26.895  28.616  1.00  0.00     0.074 A 
ATOM     61  C   UNL A   1      46.474  25.562  28.222  1.00  0.00     0.031 C 
ATOM     62  C   UNL A   1      46.932  27.909  28.870  1.00  0.00     0.037 A 
BRANCH  49  63
ATOM     63  C   UNL A   1      44.199  33.236  30.317  1.00  0.00     0.058 A 
ATOM     64  C   UNL A   1      44.301  34.232  29.336  1.00  0.00     0.135 A 
ATOM     65  C   UNL A   1      44.147  33.642  31.662  1.00  0.00     0.135 A 
ATOM     66  F   UNL A   1      44.366  33.896  28.038  1.00  0.00    -0.206 F 
ATOM     67  C   UNL A   1      44.339  35.582  29.674  1.00  0.00     0.059 A 
ATOM     68  C   UNL A   1      44.166  34.986  32.022  1.00  0.00     0.059 A 
ATOM     69  F   UNL A   1      44.048  32.726  32.639  1.00  0.00    -0.206 F 
ATOM     70  C   UNL A   1      44.262  35.950  31.019  1.00  0.00     0.060 A 
BRANCH  70  71
ATOM     71  S   UNL A   1      44.246  37.707  31.440  1.00  0.00     0.124 S 
ATOM     72  O   UNL A   1      43.529  37.694  32.712  1.00  0.00    -0.237 OA
ATOM     73  O   UNL A   1      45.669  38.023  31.519  1.00  0.00    -0.237 OA
ATOM     74  O   UNL A   1      43.533  38.318  30.323  1.00  0.00    -0.744 OA
ENDBRANCH  70  71
ENDBRANCH  49  63
BRANCH  50  75
ATOM     75  C   UNL A   1      42.710  23.762  27.649  1.00  0.00     0.058 A 
ATOM     76  C   UNL A   1      42.652  22.669  28.524  1.00  0.00     0.135 A 
ATOM     77  C   UNL A   1      42.540  23.517  26.277  1.00  0.00     0.135 A 
ATOM     78  F   UNL A   1      42.816  22.856  29.842  1.00  0.00    -0.206 F 
ATOM     79  C   UNL A   1      42.442  21.376  28.057  1.00  0.00     0.059 A 
ATOM     80  C   UNL A   1      42.301  22.238  25.789  1.00  0.00     0.059 A 
ATOM     81  F   UNL A   1      42.570  24.536  25.403  1.00  0.00    -0.206 F 
ATOM     82  C   UNL A   1      42.266  21.172  26.686  1.00  0.00     0.060 A 
BRANCH  82  83
ATOM     83  S   UNL A   1      41.929  19.503  26.085  1.00  0.00     0.124 S 
ATOM     84  O   UNL A   1      40.511  19.593  25.758  1.00  0.00    -0.237 OA
ATOM     85  O   UNL A   1      42.841  19.389  24.951  1.00  0.00    -0.237 OA
ATOM     86  O   UNL A   1      42.264  18.666  27.233  1.00  0.00    -0.744 OA
ENDBRANCH  82  83
ENDBRANCH  50  75
BRANCH  62  87
ATOM     87  C   UNL A   1      48.396  27.607  28.747  1.00  0.00     0.058 A 
ATOM     88  C   UNL A   1      49.157  27.208  29.857  1.00  0.00     0.135 A 
ATOM     89  C   UNL A   1      49.043  27.708  27.506  1.00  0.00     0.135 A 
ATOM     90  F   UNL A   1      48.585  27.106  31.066  1.00  0.00    -0.206 F 
ATOM     91  C   UNL A   1      50.519  26.946  29.745  1.00  0.00     0.059 A 
ATOM     92  C   UNL A   1      50.400  27.430  27.367  1.00  0.00     0.059 A 
ATOM     93  F   UNL A   1      48.357  28.079  26.414  1.00  0.00    -0.206 F 
ATOM     94  C   UNL A   1      51.132  27.065  28.497  1.00  0.00     0.060 A 
BRANCH  94  95
ATOM     95  S   UNL A   1      52.898  26.720  28.359  1.00  0.00     0.124 S 
ATOM     96  O   UNL A   1      52.915  25.688  27.327  1.00  0.00    -0.237 OA
ATOM     97  O   UNL A   1      53.445  28.016  27.969  1.00  0.00    -0.237 OA
ATOM     98  O   UNL A   1      53.261  26.273  29.700  1.00  0.00    -0.744 OA
ENDBRANCH  94  95
ENDBRANCH  62  87
ENDBRANCH  36  37
ENDBRANCH  29  31
ENDBRANCH  28  29
ENDBRANCH  27  28
ENDBRANCH   1  27
TORSDOF 17
ENDMDL
