MODEL 1
REMARK VINA RESULT:     -12.1      0.000      0.000
REMARK SMILES O=C1O[C@@H](c2ccc(O)c(O)c2)[C@H](C(=O)OCCOC(=O)c2ccc(-c3c4nc(c(-c5c(F)cc(S(=O)(=O)[O-])cc5F)c5ccc([nH]5)c(-c5c(F)cc(S(=O)(=O)[O-])cc5F)c5nc(c(-c6c(F)cc(S(=O)(=O)[O-])cc6F)c6ccc3[nH]6)C=C5)C=C4)cc2)/C1=C\c1ccc(O)c(O)c1
REMARK SMILES IDX 18 1 17 2 16 3 14 4 15 5 13 6 1 7 2 8 3 9 88 10 4 11 89 12
REMARK SMILES IDX 5 13 6 14 12 15 7 16 10 17 8 18 11 19 9 21 90 23 91 24 97 25
REMARK SMILES IDX 92 26 95 27 93 28 96 29 94 31 19 33 20 34 21 35 22 36 23 37
REMARK SMILES IDX 87 38 24 39 86 40 25 41 26 42 27 43 80 44 28 45 85 46 79 47
REMARK SMILES IDX 81 48 29 49 84 50 78 51 77 52 30 54 64 55 43 56 63 57 44 58
REMARK SMILES IDX 47 59 62 60 82 61 45 62 46 63 61 65 83 66 48 67 31 68 32 69
REMARK SMILES IDX 41 70 33 71 34 72 40 73 42 74 35 75 36 76 37 77 38 78 39 79
REMARK SMILES IDX 65 80 66 81 75 82 67 83 68 84 74 85 76 86 69 87 70 88 71 89
REMARK SMILES IDX 72 90 73 91 49 92 50 93 59 94 51 95 52 96 58 97 60 98 53 99
REMARK SMILES IDX 54 100 55 101 56 102 57 103
REMARK H PARENT 11 20 9 22 96 30 94 32 81 53 47 64
REMARK Flexibility Score: inf
ROOT
ATOM      1  C   UNL A   1      33.278  27.562  26.333  1.00  0.00     0.275 C 
ENDROOT
BRANCH   1   2
ATOM      2  C   UNL A   1      33.360  26.624  25.120  1.00  0.00     0.274 C 
BRANCH   2   3
ATOM      3  O   UNL A   1      33.654  25.258  25.495  1.00  0.00    -0.461 OA
BRANCH   3   4
ATOM      4  C   UNL A   1      32.666  24.346  25.261  1.00  0.00     0.318 C 
ATOM      5  O   UNL A   1      31.488  24.534  25.528  1.00  0.00    -0.251 OA
BRANCH   4   6
ATOM      6  C   UNL A   1      33.245  23.034  24.739  1.00  0.00     0.182 C 
ATOM      7  O   UNL A   1      33.351  23.713  21.268  1.00  0.00    -0.247 OA
ATOM      8  C   UNL A   1      33.121  23.290  22.376  1.00  0.00     0.335 C 
ATOM      9  O   UNL A   1      31.918  22.808  22.818  1.00  0.00    -0.453 OA
ATOM     10  C   UNL A   1      34.073  23.187  23.509  1.00  0.00     0.056 C 
ATOM     11  C   UNL A   1      32.067  22.266  24.144  1.00  0.00     0.226 C 
ATOM     12  C   UNL A   1      35.393  23.101  23.269  1.00  0.00     0.020 C 
BRANCH  11  13
ATOM     13  C   UNL A   1      32.258  20.755  24.083  1.00  0.00    -0.002 A 
ATOM     14  C   UNL A   1      32.625  20.038  25.238  1.00  0.00     0.012 A 
ATOM     15  C   UNL A   1      32.061  20.043  22.886  1.00  0.00     0.057 A 
ATOM     16  C   UNL A   1      32.859  18.662  25.188  1.00  0.00     0.050 A 
ATOM     17  C   UNL A   1      32.290  18.675  22.847  1.00  0.00     0.157 A 
ATOM     18  C   UNL A   1      32.701  17.989  23.984  1.00  0.00     0.157 A 
BRANCH  17  19
ATOM     19  O   UNL A   1      32.119  18.006  21.670  1.00  0.00    -0.504 OA
ATOM     20  H   UNL A   1      32.805  17.463  21.336  1.00  0.00     0.293 HD
ENDBRANCH  17  19
BRANCH  18  21
ATOM     21  O   UNL A   1      32.937  16.648  23.871  1.00  0.00    -0.504 OA
ATOM     22  H   UNL A   1      32.907  16.236  23.029  1.00  0.00     0.293 HD
ENDBRANCH  18  21
ENDBRANCH  11  13
BRANCH  12  23
ATOM     23  C   UNL A   1      36.455  22.933  24.270  1.00  0.00    -0.021 A 
ATOM     24  C   UNL A   1      36.870  23.952  25.130  1.00  0.00     0.012 A 
ATOM     25  C   UNL A   1      37.040  21.678  24.413  1.00  0.00     0.058 A 
ATOM     26  C   UNL A   1      37.865  23.706  26.095  1.00  0.00     0.051 A 
ATOM     27  C   UNL A   1      38.065  21.448  25.311  1.00  0.00     0.157 A 
ATOM     28  C   UNL A   1      38.465  22.452  26.169  1.00  0.00     0.157 A 
BRANCH  27  29
ATOM     29  O   UNL A   1      38.658  20.218  25.352  1.00  0.00    -0.504 OA
ATOM     30  H   UNL A   1      38.778  19.783  26.173  1.00  0.00     0.293 HD
ENDBRANCH  27  29
BRANCH  28  31
ATOM     31  O   UNL A   1      39.436  22.147  27.077  1.00  0.00    -0.504 OA
ATOM     32  H   UNL A   1      39.242  21.585  27.801  1.00  0.00     0.293 HD
ENDBRANCH  28  31
ENDBRANCH  12  23
ENDBRANCH   4   6
ENDBRANCH   3   4
ENDBRANCH   2   3
ENDBRANCH   1   2
BRANCH   1  33
ATOM     33  O   UNL A   1      34.580  28.023  26.757  1.00  0.00    -0.458 OA
BRANCH  33  34
ATOM     34  C   UNL A   1      34.524  29.188  27.437  1.00  0.00     0.338 C 
ATOM     35  O   UNL A   1      33.503  29.820  27.663  1.00  0.00    -0.246 OA
BRANCH  34  36
ATOM     36  C   UNL A   1      35.824  29.617  27.990  1.00  0.00     0.060 A 
ATOM     37  C   UNL A   1      36.811  29.991  27.079  1.00  0.00     0.016 A 
ATOM     38  C   UNL A   1      36.188  29.204  29.276  1.00  0.00     0.016 A 
ATOM     39  C   UNL A   1      38.154  29.772  27.393  1.00  0.00     0.010 A 
ATOM     40  C   UNL A   1      37.549  29.092  29.622  1.00  0.00     0.010 A 
ATOM     41  C   UNL A   1      38.553  29.306  28.664  1.00  0.00    -0.014 A 
BRANCH  41  42
ATOM     42  C   UNL A   1      40.003  29.040  28.946  1.00  0.00     0.031 A 
ATOM     43  C   UNL A   1      40.930  30.075  29.561  1.00  0.00     0.074 A 
ATOM     44  C   UNL A   1      40.492  27.809  28.698  1.00  0.00     0.049 A 
ATOM     45  N   UNL A   1      42.229  30.024  29.755  1.00  0.00    -0.248 NA
ATOM     46  C   UNL A   1      40.325  31.326  30.032  1.00  0.00     0.031 C 
ATOM     47  C   UNL A   1      39.719  26.687  28.163  1.00  0.00     0.029 A 
ATOM     48  N   UNL A   1      41.751  27.288  28.869  1.00  0.00    -0.354 N 
ATOM     49  C   UNL A   1      42.592  31.237  30.342  1.00  0.00     0.074 A 
ATOM     50  C   UNL A   1      41.375  32.006  30.482  1.00  0.00     0.031 C 
ATOM     51  C   UNL A   1      40.497  25.603  28.097  1.00  0.00     0.029 A 
ATOM     52  C   UNL A   1      41.859  25.987  28.443  1.00  0.00     0.049 A 
ATOM     53  H   UNL A   1      42.501  27.796  29.256  1.00  0.00     0.167 HD
ATOM     54  C   UNL A   1      43.823  31.672  30.716  1.00  0.00     0.037 A 
ATOM     55  C   UNL A   1      42.932  25.198  28.259  1.00  0.00     0.037 A 
ATOM     56  C   UNL A   1      45.032  30.890  30.586  1.00  0.00     0.049 A 
ATOM     57  C   UNL A   1      44.293  25.728  28.576  1.00  0.00     0.074 A 
ATOM     58  C   UNL A   1      46.328  31.237  30.936  1.00  0.00     0.029 A 
ATOM     59  N   UNL A   1      45.097  29.606  30.064  1.00  0.00    -0.354 N 
ATOM     60  N   UNL A   1      44.626  26.902  29.054  1.00  0.00    -0.248 NA
ATOM     61  C   UNL A   1      45.425  24.834  28.310  1.00  0.00     0.031 C 
ATOM     62  C   UNL A   1      47.181  30.190  30.572  1.00  0.00     0.029 A 
ATOM     63  C   UNL A   1      46.412  29.162  30.051  1.00  0.00     0.049 A 
ATOM     64  H   UNL A   1      44.323  29.087  29.747  1.00  0.00     0.167 HD
ATOM     65  C   UNL A   1      46.011  26.888  29.152  1.00  0.00     0.074 A 
ATOM     66  C   UNL A   1      46.448  25.581  28.702  1.00  0.00     0.031 C 
ATOM     67  C   UNL A   1      46.842  27.872  29.577  1.00  0.00     0.037 A 
BRANCH  54  68
ATOM     68  C   UNL A   1      43.969  33.075  31.264  1.00  0.00     0.058 A 
ATOM     69  C   UNL A   1      44.106  34.197  30.433  1.00  0.00     0.135 A 
ATOM     70  C   UNL A   1      43.853  33.306  32.646  1.00  0.00     0.135 A 
ATOM     71  F   UNL A   1      44.226  34.047  29.105  1.00  0.00    -0.206 F 
ATOM     72  C   UNL A   1      44.133  35.493  30.951  1.00  0.00     0.059 A 
ATOM     73  C   UNL A   1      43.854  34.592  33.185  1.00  0.00     0.059 A 
ATOM     74  F   UNL A   1      43.710  32.274  33.493  1.00  0.00    -0.206 F 
ATOM     75  C   UNL A   1      44.002  35.681  32.329  1.00  0.00     0.060 A 
BRANCH  75  76
ATOM     76  S   UNL A   1      44.016  37.367  32.983  1.00  0.00     0.124 S 
ATOM     77  O   UNL A   1      43.774  38.151  31.775  1.00  0.00    -0.237 OA
ATOM     78  O   UNL A   1      42.922  37.339  33.948  1.00  0.00    -0.237 OA
ATOM     79  O   UNL A   1      45.351  37.501  33.558  1.00  0.00    -0.744 OA
ENDBRANCH  75  76
ENDBRANCH  54  68
BRANCH  55  80
ATOM     80  C   UNL A   1      42.730  23.860  27.647  1.00  0.00     0.058 A 
ATOM     81  C   UNL A   1      42.779  23.673  26.262  1.00  0.00     0.135 A 
ATOM     82  C   UNL A   1      42.593  22.721  28.462  1.00  0.00     0.135 A 
ATOM     83  F   UNL A   1      42.895  24.731  25.445  1.00  0.00    -0.206 F 
ATOM     84  C   UNL A   1      42.720  22.402  25.701  1.00  0.00     0.059 A 
ATOM     85  C   UNL A   1      42.568  21.440  27.928  1.00  0.00     0.059 A 
ATOM     86  F   UNL A   1      42.558  22.849  29.798  1.00  0.00    -0.206 F 
ATOM     87  C   UNL A   1      42.630  21.291  26.544  1.00  0.00     0.060 A 
BRANCH  87  88
ATOM     88  S   UNL A   1      42.662  19.639  25.819  1.00  0.00     0.124 S 
ATOM     89  O   UNL A   1      43.622  19.814  24.735  1.00  0.00    -0.237 OA
ATOM     90  O   UNL A   1      43.107  18.816  26.939  1.00  0.00    -0.237 OA
ATOM     91  O   UNL A   1      41.277  19.425  25.408  1.00  0.00    -0.744 OA
ENDBRANCH  87  88
ENDBRANCH  55  80
BRANCH  67  92
ATOM     92  C   UNL A   1      48.309  27.552  29.591  1.00  0.00     0.058 A 
ATOM     93  C   UNL A   1      48.918  26.937  30.695  1.00  0.00     0.135 A 
ATOM     94  C   UNL A   1      49.120  27.884  28.493  1.00  0.00     0.135 A 
ATOM     95  F   UNL A   1      48.188  26.608  31.773  1.00  0.00    -0.206 F 
ATOM     96  C   UNL A   1      50.289  26.704  30.732  1.00  0.00     0.059 A 
ATOM     97  C   UNL A   1      50.488  27.635  28.497  1.00  0.00     0.059 A 
ATOM     98  F   UNL A   1      48.585  28.465  27.407  1.00  0.00    -0.206 F 
ATOM     99  C   UNL A   1      51.067  27.065  29.630  1.00  0.00     0.060 A 
BRANCH  99 100
ATOM    100  S   UNL A   1      52.848  26.778  29.696  1.00  0.00     0.124 S 
ATOM    101  O   UNL A   1      53.358  28.137  29.850  1.00  0.00    -0.237 OA
ATOM    102  O   UNL A   1      52.983  25.914  30.865  1.00  0.00    -0.237 OA
ATOM    103  O   UNL A   1      53.137  26.140  28.416  1.00  0.00    -0.744 OA
ENDBRANCH  99 100
ENDBRANCH  67  92
ENDBRANCH  41  42
ENDBRANCH  34  36
ENDBRANCH  33  34
ENDBRANCH   1  33
TORSDOF 20
ENDMDL
MODEL 2
REMARK VINA RESULT:     -12.0      3.649      9.831
REMARK SMILES O=C1O[C@@H](c2ccc(O)c(O)c2)[C@H](C(=O)OCCOC(=O)c2ccc(-c3c4nc(c(-c5c(F)cc(S(=O)(=O)[O-])cc5F)c5ccc([nH]5)c(-c5c(F)cc(S(=O)(=O)[O-])cc5F)c5nc(c(-c6c(F)cc(S(=O)(=O)[O-])cc6F)c6ccc3[nH]6)C=C5)C=C4)cc2)/C1=C\c1ccc(O)c(O)c1
REMARK SMILES IDX 18 1 17 2 16 3 14 4 15 5 13 6 1 7 2 8 3 9 88 10 4 11 89 12
REMARK SMILES IDX 5 13 6 14 12 15 7 16 10 17 8 18 11 19 9 21 90 23 91 24 97 25
REMARK SMILES IDX 92 26 95 27 93 28 96 29 94 31 19 33 20 34 21 35 22 36 23 37
REMARK SMILES IDX 87 38 24 39 86 40 25 41 26 42 27 43 80 44 28 45 85 46 79 47
REMARK SMILES IDX 81 48 29 49 84 50 78 51 77 52 30 54 64 55 43 56 63 57 44 58
REMARK SMILES IDX 47 59 62 60 82 61 45 62 46 63 61 65 83 66 48 67 31 68 32 69
REMARK SMILES IDX 41 70 33 71 34 72 40 73 42 74 35 75 36 76 37 77 38 78 39 79
REMARK SMILES IDX 65 80 66 81 75 82 67 83 68 84 74 85 76 86 69 87 70 88 71 89
REMARK SMILES IDX 72 90 73 91 49 92 50 93 59 94 51 95 52 96 58 97 60 98 53 99
REMARK SMILES IDX 54 100 55 101 56 102 57 103
REMARK H PARENT 11 20 9 22 96 30 94 32 81 53 47 64
REMARK Flexibility Score: inf
ROOT
ATOM      1  C   UNL A   1      35.754  23.896  24.820  1.00  0.00     0.275 C 
ENDROOT
BRANCH   1   2
ATOM      2  C   UNL A   1      34.303  24.054  25.293  1.00  0.00     0.274 C 
BRANCH   2   3
ATOM      3  O   UNL A   1      33.780  25.380  25.043  1.00  0.00    -0.461 OA
BRANCH   3   4
ATOM      4  C   UNL A   1      32.850  25.481  24.049  1.00  0.00     0.318 C 
ATOM      5  O   UNL A   1      32.876  24.818  23.022  1.00  0.00    -0.251 OA
BRANCH   4   6
ATOM      6  C   UNL A   1      31.857  26.602  24.341  1.00  0.00     0.182 C 
ATOM      7  O   UNL A   1      29.729  24.989  26.663  1.00  0.00    -0.247 OA
ATOM      8  C   UNL A   1      30.225  25.536  25.707  1.00  0.00     0.335 C 
ATOM      9  O   UNL A   1      29.892  25.321  24.397  1.00  0.00    -0.453 OA
ATOM     10  C   UNL A   1      31.294  26.565  25.721  1.00  0.00     0.056 C 
ATOM     11  C   UNL A   1      30.594  26.256  23.555  1.00  0.00     0.226 C 
ATOM     12  C   UNL A   1      31.471  27.332  26.811  1.00  0.00     0.020 C 
BRANCH  11  13
ATOM     13  C   UNL A   1      29.703  27.448  23.225  1.00  0.00    -0.002 A 
ATOM     14  C   UNL A   1      30.266  28.641  22.734  1.00  0.00     0.012 A 
ATOM     15  C   UNL A   1      28.308  27.381  23.387  1.00  0.00     0.057 A 
ATOM     16  C   UNL A   1      29.472  29.761  22.480  1.00  0.00     0.050 A 
ATOM     17  C   UNL A   1      27.526  28.497  23.126  1.00  0.00     0.157 A 
ATOM     18  C   UNL A   1      28.101  29.685  22.690  1.00  0.00     0.157 A 
BRANCH  17  19
ATOM     19  O   UNL A   1      26.176  28.422  23.315  1.00  0.00    -0.504 OA
ATOM     20  H   UNL A   1      25.593  28.585  22.600  1.00  0.00     0.293 HD
ENDBRANCH  17  19
BRANCH  18  21
ATOM     21  O   UNL A   1      27.278  30.755  22.479  1.00  0.00    -0.504 OA
ATOM     22  H   UNL A   1      27.614  31.626  22.556  1.00  0.00     0.293 HD
ENDBRANCH  18  21
ENDBRANCH  11  13
BRANCH  12  23
ATOM     23  C   UNL A   1      32.438  28.428  26.960  1.00  0.00    -0.021 A 
ATOM     24  C   UNL A   1      33.805  28.227  27.158  1.00  0.00     0.012 A 
ATOM     25  C   UNL A   1      31.980  29.737  26.842  1.00  0.00     0.058 A 
ATOM     26  C   UNL A   1      34.680  29.326  27.250  1.00  0.00     0.051 A 
ATOM     27  C   UNL A   1      32.822  30.822  27.000  1.00  0.00     0.157 A 
ATOM     28  C   UNL A   1      34.175  30.621  27.182  1.00  0.00     0.157 A 
BRANCH  27  29
ATOM     29  O   UNL A   1      32.304  32.086  26.954  1.00  0.00    -0.504 OA
ATOM     30  H   UNL A   1      31.735  32.384  27.636  1.00  0.00     0.293 HD
ENDBRANCH  27  29
BRANCH  28  31
ATOM     31  O   UNL A   1      34.965  31.731  27.266  1.00  0.00    -0.504 OA
ATOM     32  H   UNL A   1      35.866  31.686  27.013  1.00  0.00     0.293 HD
ENDBRANCH  28  31
ENDBRANCH  12  23
ENDBRANCH   4   6
ENDBRANCH   3   4
ENDBRANCH   2   3
ENDBRANCH   1   2
BRANCH   1  33
ATOM     33  O   UNL A   1      36.700  24.456  25.757  1.00  0.00    -0.458 OA
BRANCH  33  34
ATOM     34  C   UNL A   1      37.863  23.771  25.797  1.00  0.00     0.338 C 
ATOM     35  O   UNL A   1      38.099  22.753  25.164  1.00  0.00    -0.246 OA
BRANCH  34  36
ATOM     36  C   UNL A   1      38.903  24.413  26.624  1.00  0.00     0.060 A 
ATOM     37  C   UNL A   1      38.739  24.361  28.008  1.00  0.00     0.016 A 
ATOM     38  C   UNL A   1      39.706  25.409  26.059  1.00  0.00     0.016 A 
ATOM     39  C   UNL A   1      39.220  25.409  28.796  1.00  0.00     0.010 A 
ATOM     40  C   UNL A   1      40.281  26.400  26.877  1.00  0.00     0.010 A 
ATOM     41  C   UNL A   1      39.989  26.457  28.249  1.00  0.00    -0.014 A 
BRANCH  41  42
ATOM     42  C   UNL A   1      40.448  27.587  29.123  1.00  0.00     0.031 A 
ATOM     43  C   UNL A   1      41.771  27.572  29.870  1.00  0.00     0.074 A 
ATOM     44  C   UNL A   1      39.681  28.693  29.203  1.00  0.00     0.049 A 
ATOM     45  N   UNL A   1      42.245  28.426  30.749  1.00  0.00    -0.248 NA
ATOM     46  C   UNL A   1      42.691  26.463  29.589  1.00  0.00     0.031 C 
ATOM     47  C   UNL A   1      38.411  28.890  28.501  1.00  0.00     0.029 A 
ATOM     48  N   UNL A   1      39.856  29.863  29.900  1.00  0.00    -0.354 N 
ATOM     49  C   UNL A   1      43.496  27.943  31.139  1.00  0.00     0.074 A 
ATOM     50  C   UNL A   1      43.715  26.722  30.395  1.00  0.00     0.031 C 
ATOM     51  C   UNL A   1      37.948  30.116  28.758  1.00  0.00     0.029 A 
ATOM     52  C   UNL A   1      38.807  30.738  29.756  1.00  0.00     0.049 A 
ATOM     53  H   UNL A   1      40.651  30.055  30.448  1.00  0.00     0.167 HD
ATOM     54  C   UNL A   1      44.371  28.462  32.039  1.00  0.00     0.037 A 
ATOM     55  C   UNL A   1      38.503  31.875  30.406  1.00  0.00     0.037 A 
ATOM     56  C   UNL A   1      44.149  29.691  32.767  1.00  0.00     0.049 A 
ATOM     57  C   UNL A   1      39.424  32.379  31.470  1.00  0.00     0.074 A 
ATOM     58  C   UNL A   1      44.972  30.304  33.700  1.00  0.00     0.029 A 
ATOM     59  N   UNL A   1      43.025  30.495  32.648  1.00  0.00    -0.354 N 
ATOM     60  N   UNL A   1      40.560  31.870  31.881  1.00  0.00    -0.248 NA
ATOM     61  C   UNL A   1      39.013  33.599  32.173  1.00  0.00     0.031 C 
ATOM     62  C   UNL A   1      44.321  31.442  34.186  1.00  0.00     0.029 A 
ATOM     63  C   UNL A   1      43.117  31.577  33.513  1.00  0.00     0.049 A 
ATOM     64  H   UNL A   1      42.270  30.322  32.040  1.00  0.00     0.167 HD
ATOM     65  C   UNL A   1      41.005  32.713  32.891  1.00  0.00     0.074 A 
ATOM     66  C   UNL A   1      40.024  33.773  33.012  1.00  0.00     0.031 C 
ATOM     67  C   UNL A   1      42.126  32.613  33.648  1.00  0.00     0.037 A 
BRANCH  54  68
ATOM     68  C   UNL A   1      45.640  27.700  32.349  1.00  0.00     0.058 A 
ATOM     69  C   UNL A   1      45.680  26.645  33.273  1.00  0.00     0.135 A 
ATOM     70  C   UNL A   1      46.814  27.962  31.618  1.00  0.00     0.135 A 
ATOM     71  F   UNL A   1      44.597  26.346  34.007  1.00  0.00    -0.206 F 
ATOM     72  C   UNL A   1      46.835  25.885  33.468  1.00  0.00     0.059 A 
ATOM     73  C   UNL A   1      47.972  27.202  31.779  1.00  0.00     0.059 A 
ATOM     74  F   UNL A   1      46.837  28.953  30.712  1.00  0.00    -0.206 F 
ATOM     75  C   UNL A   1      47.975  26.169  32.713  1.00  0.00     0.060 A 
BRANCH  75  76
ATOM     76  S   UNL A   1      49.456  25.161  32.961  1.00  0.00     0.124 S 
ATOM     77  O   UNL A   1      48.927  24.055  33.754  1.00  0.00    -0.237 OA
ATOM     78  O   UNL A   1      49.843  24.829  31.594  1.00  0.00    -0.237 OA
ATOM     79  O   UNL A   1      50.367  26.057  33.667  1.00  0.00    -0.744 OA
ENDBRANCH  75  76
ENDBRANCH  54  68
BRANCH  55  80
ATOM     80  C   UNL A   1      37.205  32.535  30.110  1.00  0.00     0.058 A 
ATOM     81  C   UNL A   1      36.027  32.156  30.762  1.00  0.00     0.135 A 
ATOM     82  C   UNL A   1      37.154  33.638  29.240  1.00  0.00     0.135 A 
ATOM     83  F   UNL A   1      36.026  31.100  31.590  1.00  0.00    -0.206 F 
ATOM     84  C   UNL A   1      34.842  32.861  30.578  1.00  0.00     0.059 A 
ATOM     85  C   UNL A   1      35.992  34.379  29.069  1.00  0.00     0.059 A 
ATOM     86  F   UNL A   1      38.263  34.049  28.605  1.00  0.00    -0.206 F 
ATOM     87  C   UNL A   1      34.839  33.980  29.742  1.00  0.00     0.060 A 
BRANCH  87  88
ATOM     88  S   UNL A   1      33.328  34.954  29.591  1.00  0.00     0.124 S 
ATOM     89  O   UNL A   1      32.841  34.954  30.966  1.00  0.00    -0.237 OA
ATOM     90  O   UNL A   1      33.829  36.230  29.091  1.00  0.00    -0.237 OA
ATOM     91  O   UNL A   1      32.528  34.188  28.638  1.00  0.00    -0.744 OA
ENDBRANCH  87  88
ENDBRANCH  55  80
BRANCH  67  92
ATOM     92  C   UNL A   1      42.352  33.699  34.659  1.00  0.00     0.058 A 
ATOM     93  C   UNL A   1      43.072  34.861  34.343  1.00  0.00     0.135 A 
ATOM     94  C   UNL A   1      41.860  33.567  35.968  1.00  0.00     0.135 A 
ATOM     95  F   UNL A   1      43.572  35.031  33.108  1.00  0.00    -0.206 F 
ATOM     96  C   UNL A   1      43.338  35.834  35.301  1.00  0.00     0.059 A 
ATOM     97  C   UNL A   1      42.089  34.540  36.934  1.00  0.00     0.059 A 
ATOM     98  F   UNL A   1      41.155  32.479  36.320  1.00  0.00    -0.206 F 
ATOM     99  C   UNL A   1      42.849  35.660  36.596  1.00  0.00     0.060 A 
BRANCH  99 100
ATOM    100  S   UNL A   1      43.217  36.917  37.838  1.00  0.00     0.124 S 
ATOM    101  O   UNL A   1      43.779  37.985  37.017  1.00  0.00    -0.237 OA
ATOM    102  O   UNL A   1      41.902  37.184  38.413  1.00  0.00    -0.237 OA
ATOM    103  O   UNL A   1      44.160  36.249  38.730  1.00  0.00    -0.744 OA
ENDBRANCH  99 100
ENDBRANCH  67  92
ENDBRANCH  41  42
ENDBRANCH  34  36
ENDBRANCH  33  34
ENDBRANCH   1  33
TORSDOF 20
ENDMDL
MODEL 3
REMARK VINA RESULT:     -11.8      2.892      8.254
REMARK SMILES O=C1O[C@@H](c2ccc(O)c(O)c2)[C@H](C(=O)OCCOC(=O)c2ccc(-c3c4nc(c(-c5c(F)cc(S(=O)(=O)[O-])cc5F)c5ccc([nH]5)c(-c5c(F)cc(S(=O)(=O)[O-])cc5F)c5nc(c(-c6c(F)cc(S(=O)(=O)[O-])cc6F)c6ccc3[nH]6)C=C5)C=C4)cc2)/C1=C\c1ccc(O)c(O)c1
REMARK SMILES IDX 18 1 17 2 16 3 14 4 15 5 13 6 1 7 2 8 3 9 88 10 4 11 89 12
REMARK SMILES IDX 5 13 6 14 12 15 7 16 10 17 8 18 11 19 9 21 90 23 91 24 97 25
REMARK SMILES IDX 92 26 95 27 93 28 96 29 94 31 19 33 20 34 21 35 22 36 23 37
REMARK SMILES IDX 87 38 24 39 86 40 25 41 26 42 27 43 80 44 28 45 85 46 79 47
REMARK SMILES IDX 81 48 29 49 84 50 78 51 77 52 30 54 64 55 43 56 63 57 44 58
REMARK SMILES IDX 47 59 62 60 82 61 45 62 46 63 61 65 83 66 48 67 31 68 32 69
REMARK SMILES IDX 41 70 33 71 34 72 40 73 42 74 35 75 36 76 37 77 38 78 39 79
REMARK SMILES IDX 65 80 66 81 75 82 67 83 68 84 74 85 76 86 69 87 70 88 71 89
REMARK SMILES IDX 72 90 73 91 49 92 50 93 59 94 51 95 52 96 58 97 60 98 53 99
REMARK SMILES IDX 54 100 55 101 56 102 57 103
REMARK H PARENT 11 20 9 22 96 30 94 32 81 53 47 64
REMARK Flexibility Score: inf
ROOT
ATOM      1  C   UNL A   1      33.280  27.609  25.715  1.00  0.00     0.275 C 
ENDROOT
BRANCH   1   2
ATOM      2  C   UNL A   1      33.650  26.502  24.719  1.00  0.00     0.274 C 
BRANCH   2   3
ATOM      3  O   UNL A   1      33.942  25.244  25.373  1.00  0.00    -0.461 OA
BRANCH   3   4
ATOM      4  C   UNL A   1      32.947  24.309  25.347  1.00  0.00     0.318 C 
ATOM      5  O   UNL A   1      31.819  24.503  25.778  1.00  0.00    -0.251 OA
BRANCH   4   6
ATOM      6  C   UNL A   1      33.465  22.973  24.823  1.00  0.00     0.182 C 
ATOM      7  O   UNL A   1      33.556  23.634  21.349  1.00  0.00    -0.247 OA
ATOM      8  C   UNL A   1      33.322  23.226  22.461  1.00  0.00     0.335 C 
ATOM      9  O   UNL A   1      32.106  22.795  22.919  1.00  0.00    -0.453 OA
ATOM     10  C   UNL A   1      34.283  23.087  23.583  1.00  0.00     0.056 C 
ATOM     11  C   UNL A   1      32.249  22.252  24.245  1.00  0.00     0.226 C 
ATOM     12  C   UNL A   1      35.596  22.946  23.327  1.00  0.00     0.020 C 
BRANCH  11  13
ATOM     13  C   UNL A   1      32.377  20.734  24.189  1.00  0.00    -0.002 A 
ATOM     14  C   UNL A   1      32.780  20.012  25.328  1.00  0.00     0.012 A 
ATOM     15  C   UNL A   1      32.083  20.022  23.012  1.00  0.00     0.057 A 
ATOM     16  C   UNL A   1      32.958  18.627  25.278  1.00  0.00     0.050 A 
ATOM     17  C   UNL A   1      32.256  18.646  22.973  1.00  0.00     0.157 A 
ATOM     18  C   UNL A   1      32.704  17.952  24.091  1.00  0.00     0.157 A 
BRANCH  17  19
ATOM     19  O   UNL A   1      31.991  17.975  21.814  1.00  0.00    -0.504 OA
ATOM     20  H   UNL A   1      31.782  18.450  21.035  1.00  0.00     0.293 HD
ENDBRANCH  17  19
BRANCH  18  21
ATOM     21  O   UNL A   1      32.880  16.602  23.978  1.00  0.00    -0.504 OA
ATOM     22  H   UNL A   1      33.691  16.211  24.242  1.00  0.00     0.293 HD
ENDBRANCH  18  21
ENDBRANCH  11  13
BRANCH  12  23
ATOM     23  C   UNL A   1      36.662  22.738  24.316  1.00  0.00    -0.021 A 
ATOM     24  C   UNL A   1      37.131  23.743  25.165  1.00  0.00     0.012 A 
ATOM     25  C   UNL A   1      37.193  21.460  24.459  1.00  0.00     0.058 A 
ATOM     26  C   UNL A   1      38.127  23.460  26.119  1.00  0.00     0.051 A 
ATOM     27  C   UNL A   1      38.219  21.191  25.346  1.00  0.00     0.157 A 
ATOM     28  C   UNL A   1      38.673  22.182  26.192  1.00  0.00     0.157 A 
BRANCH  27  29
ATOM     29  O   UNL A   1      38.759  19.937  25.387  1.00  0.00    -0.504 OA
ATOM     30  H   UNL A   1      39.345  19.701  26.080  1.00  0.00     0.293 HD
ENDBRANCH  27  29
BRANCH  28  31
ATOM     31  O   UNL A   1      39.642  21.840  27.091  1.00  0.00    -0.504 OA
ATOM     32  H   UNL A   1      40.374  21.323  26.818  1.00  0.00     0.293 HD
ENDBRANCH  28  31
ENDBRANCH  12  23
ENDBRANCH   4   6
ENDBRANCH   3   4
ENDBRANCH   2   3
ENDBRANCH   1   2
BRANCH   1  33
ATOM     33  O   UNL A   1      34.399  28.000  26.540  1.00  0.00    -0.458 OA
BRANCH  33  34
ATOM     34  C   UNL A   1      34.388  29.315  26.846  1.00  0.00     0.338 C 
ATOM     35  O   UNL A   1      33.487  30.092  26.566  1.00  0.00    -0.246 OA
BRANCH  34  36
ATOM     36  C   UNL A   1      35.545  29.748  27.653  1.00  0.00     0.060 A 
ATOM     37  C   UNL A   1      36.743  29.976  26.977  1.00  0.00     0.016 A 
ATOM     38  C   UNL A   1      35.565  29.467  29.023  1.00  0.00     0.016 A 
ATOM     39  C   UNL A   1      37.955  29.738  27.629  1.00  0.00     0.010 A 
ATOM     40  C   UNL A   1      36.794  29.338  29.699  1.00  0.00     0.010 A 
ATOM     41  C   UNL A   1      38.009  29.401  28.998  1.00  0.00    -0.014 A 
BRANCH  41  42
ATOM     42  C   UNL A   1      39.329  29.108  29.649  1.00  0.00     0.031 A 
ATOM     43  C   UNL A   1      40.281  28.036  29.146  1.00  0.00     0.074 A 
ATOM     44  C   UNL A   1      39.716  29.870  30.692  1.00  0.00     0.049 A 
ATOM     45  N   UNL A   1      41.400  27.596  29.676  1.00  0.00    -0.248 NA
ATOM     46  C   UNL A   1      39.944  27.376  27.879  1.00  0.00     0.031 C 
ATOM     47  C   UNL A   1      38.944  30.978  31.258  1.00  0.00     0.029 A 
ATOM     48  N   UNL A   1      40.856  29.839  31.456  1.00  0.00    -0.354 N 
ATOM     49  C   UNL A   1      41.880  26.600  28.823  1.00  0.00     0.074 A 
ATOM     50  C   UNL A   1      40.933  26.501  27.734  1.00  0.00     0.031 C 
ATOM     51  C   UNL A   1      39.646  31.552  32.239  1.00  0.00     0.029 A 
ATOM     52  C   UNL A   1      40.849  30.765  32.471  1.00  0.00     0.049 A 
ATOM     53  H   UNL A   1      41.601  29.216  31.295  1.00  0.00     0.167 HD
ATOM     54  C   UNL A   1      42.994  25.833  28.946  1.00  0.00     0.037 A 
ATOM     55  C   UNL A   1      41.661  30.926  33.531  1.00  0.00     0.037 A 
ATOM     56  C   UNL A   1      43.942  25.949  30.031  1.00  0.00     0.049 A 
ATOM     57  C   UNL A   1      42.825  30.006  33.709  1.00  0.00     0.074 A 
ATOM     58  C   UNL A   1      45.103  25.222  30.247  1.00  0.00     0.029 A 
ATOM     59  N   UNL A   1      43.839  26.847  31.085  1.00  0.00    -0.354 N 
ATOM     60  N   UNL A   1      43.218  29.021  32.940  1.00  0.00    -0.248 NA
ATOM     61  C   UNL A   1      43.644  30.206  34.910  1.00  0.00     0.031 C 
ATOM     62  C   UNL A   1      45.668  25.639  31.457  1.00  0.00     0.029 A 
ATOM     63  C   UNL A   1      44.895  26.669  31.968  1.00  0.00     0.049 A 
ATOM     64  H   UNL A   1      43.122  27.512  31.190  1.00  0.00     0.167 HD
ATOM     65  C   UNL A   1      44.337  28.484  33.560  1.00  0.00     0.074 A 
ATOM     66  C   UNL A   1      44.567  29.268  34.758  1.00  0.00     0.031 C 
ATOM     67  C   UNL A   1      45.103  27.434  33.170  1.00  0.00     0.037 A 
BRANCH  54  68
ATOM     68  C   UNL A   1      43.256  24.754  27.919  1.00  0.00     0.058 A 
ATOM     69  C   UNL A   1      44.013  24.985  26.759  1.00  0.00     0.135 A 
ATOM     70  C   UNL A   1      42.835  23.434  28.162  1.00  0.00     0.135 A 
ATOM     71  F   UNL A   1      44.442  26.222  26.466  1.00  0.00    -0.206 F 
ATOM     72  C   UNL A   1      44.334  23.953  25.877  1.00  0.00     0.059 A 
ATOM     73  C   UNL A   1      43.163  22.382  27.306  1.00  0.00     0.059 A 
ATOM     74  F   UNL A   1      42.116  23.146  29.258  1.00  0.00    -0.206 F 
ATOM     75  C   UNL A   1      43.908  22.653  26.160  1.00  0.00     0.060 A 
BRANCH  75  76
ATOM     76  S   UNL A   1      44.350  21.323  25.018  1.00  0.00     0.124 S 
ATOM     77  O   UNL A   1      45.710  21.009  25.448  1.00  0.00    -0.237 OA
ATOM     78  O   UNL A   1      43.345  20.307  25.314  1.00  0.00    -0.237 OA
ATOM     79  O   UNL A   1      44.238  21.947  23.704  1.00  0.00    -0.744 OA
ENDBRANCH  75  76
ENDBRANCH  54  68
BRANCH  55  80
ATOM     80  C   UNL A   1      41.306  31.954  34.544  1.00  0.00     0.058 A 
ATOM     81  C   UNL A   1      41.706  33.287  34.404  1.00  0.00     0.135 A 
ATOM     82  C   UNL A   1      40.460  31.627  35.619  1.00  0.00     0.135 A 
ATOM     83  F   UNL A   1      42.524  33.642  33.402  1.00  0.00    -0.206 F 
ATOM     84  C   UNL A   1      41.263  34.270  35.284  1.00  0.00     0.059 A 
ATOM     85  C   UNL A   1      39.976  32.596  36.487  1.00  0.00     0.059 A 
ATOM     86  F   UNL A   1      40.036  30.364  35.784  1.00  0.00    -0.206 F 
ATOM     87  C   UNL A   1      40.386  33.916  36.312  1.00  0.00     0.060 A 
BRANCH  87  88
ATOM     88  S   UNL A   1      39.730  35.211  37.385  1.00  0.00     0.124 S 
ATOM     89  O   UNL A   1      39.589  36.321  36.449  1.00  0.00    -0.237 OA
ATOM     90  O   UNL A   1      38.486  34.617  37.863  1.00  0.00    -0.237 OA
ATOM     91  O   UNL A   1      40.770  35.367  38.398  1.00  0.00    -0.744 OA
ENDBRANCH  87  88
ENDBRANCH  55  80
BRANCH  67  92
ATOM     92  C   UNL A   1      46.274  27.095  34.047  1.00  0.00     0.058 A 
ATOM     93  C   UNL A   1      47.531  27.688  33.858  1.00  0.00     0.135 A 
ATOM     94  C   UNL A   1      46.142  26.148  35.076  1.00  0.00     0.135 A 
ATOM     95  F   UNL A   1      47.711  28.593  32.882  1.00  0.00    -0.206 F 
ATOM     96  C   UNL A   1      48.630  27.321  34.628  1.00  0.00     0.059 A 
ATOM     97  C   UNL A   1      47.220  25.787  35.875  1.00  0.00     0.059 A 
ATOM     98  F   UNL A   1      44.958  25.557  35.305  1.00  0.00    -0.206 F 
ATOM     99  C   UNL A   1      48.466  26.364  35.629  1.00  0.00     0.060 A 
BRANCH  99 100
ATOM    100  S   UNL A   1      49.903  25.878  36.608  1.00  0.00     0.124 S 
ATOM    101  O   UNL A   1      50.984  26.548  35.894  1.00  0.00    -0.237 OA
ATOM    102  O   UNL A   1      49.581  26.421  37.925  1.00  0.00    -0.237 OA
ATOM    103  O   UNL A   1      49.899  24.422  36.520  1.00  0.00    -0.744 OA
ENDBRANCH  99 100
ENDBRANCH  67  92
ENDBRANCH  41  42
ENDBRANCH  34  36
ENDBRANCH  33  34
ENDBRANCH   1  33
TORSDOF 20
ENDMDL
