MODEL 1
REMARK VINA RESULT:      -9.8      0.000      0.000
REMARK SMILES C[C@H](c1ccccc1)[N@@H+](CC(=O)OCCOC(=O)c1ccc(-c2c3nc(c(-c4c(F)cc(S(=O)(=O)[O-])cc4F)c4ccc([nH]4)c(-c4c(F)cc(S(=O)(=O)[O-])cc4F)c4nc(c(-c5c(F)cc(S(=O)(=O)[O-])cc5F)c5ccc2[nH]5)C=C4)C=C3)cc1)CC(F)(F)F
REMARK SMILES IDX 14 1 13 2 11 3 12 4 10 5 9 6 2 8 1 9 3 10 4 11 8 12 5 13
REMARK SMILES IDX 7 14 6 15 85 16 86 17 87 18 88 19 89 20 15 21 16 22 17 23
REMARK SMILES IDX 18 24 19 25 20 26 84 27 21 28 83 29 22 30 23 31 24 32 77 33
REMARK SMILES IDX 25 34 82 35 76 36 78 37 26 38 81 39 75 40 74 41 27 43 61 44
REMARK SMILES IDX 40 45 60 46 41 47 44 48 59 49 79 50 42 51 43 52 58 54 80 55
REMARK SMILES IDX 45 56 28 57 29 58 38 59 30 60 31 61 37 62 39 63 32 64 33 65
REMARK SMILES IDX 34 66 35 67 36 68 62 69 63 70 72 71 64 72 65 73 71 74 73 75
REMARK SMILES IDX 66 76 67 77 68 78 69 79 70 80 46 81 47 82 56 83 48 84 49 85
REMARK SMILES IDX 55 86 57 87 50 88 51 89 52 90 53 91 54 92
REMARK H PARENT 9 7 78 42 44 53
REMARK Flexibility Score: inf
ROOT
ATOM      1  C   UNL A   1      32.756  27.553  26.013  1.00  0.00     0.274 C 
ENDROOT
BRANCH   1   2
ATOM      2  O   UNL A   1      33.813  26.887  25.287  1.00  0.00    -0.458 OA
BRANCH   2   3
ATOM      3  C   UNL A   1      33.448  26.111  24.235  1.00  0.00     0.361 C 
ATOM      4  O   UNL A   1      33.782  26.335  23.075  1.00  0.00    -0.245 OA
BRANCH   3   5
ATOM      5  C   UNL A   1      32.506  24.955  24.591  1.00  0.00     0.387 C 
BRANCH   5   6
ATOM      6  N   UNL A   1      33.129  23.742  25.143  1.00  0.00    -0.312 N 
ATOM      7  H   UNL A   1      34.014  23.732  25.650  1.00  0.00     0.349 HD
BRANCH   6   8
ATOM      8  C   UNL A   1      34.011  22.986  24.261  1.00  0.00     0.212 C 
ATOM      9  C   UNL A   1      33.491  21.607  23.843  1.00  0.00     0.081 C 
BRANCH   8  10
ATOM     10  C   UNL A   1      35.484  22.892  24.676  1.00  0.00     0.009 A 
ATOM     11  C   UNL A   1      36.211  23.953  25.230  1.00  0.00     0.010 A 
ATOM     12  C   UNL A   1      36.125  21.639  24.619  1.00  0.00     0.010 A 
ATOM     13  C   UNL A   1      37.492  23.772  25.761  1.00  0.00     0.001 A 
ATOM     14  C   UNL A   1      37.416  21.458  25.128  1.00  0.00     0.001 A 
ATOM     15  C   UNL A   1      38.092  22.522  25.718  1.00  0.00     0.000 A 
ENDBRANCH   8  10
ENDBRANCH   6   8
BRANCH   6  16
ATOM     16  C   UNL A   1      32.634  23.291  26.454  1.00  0.00     0.380 C 
BRANCH  16  17
ATOM     17  C   UNL A   1      33.416  22.400  27.462  1.00  0.00     0.438 C 
ATOM     18  F   UNL A   1      33.745  21.201  26.926  1.00  0.00    -0.165 F 
ATOM     19  F   UNL A   1      34.592  22.997  27.786  1.00  0.00    -0.165 F 
ATOM     20  F   UNL A   1      32.757  22.138  28.606  1.00  0.00    -0.165 F 
ENDBRANCH  16  17
ENDBRANCH   6  16
ENDBRANCH   5   6
ENDBRANCH   3   5
ENDBRANCH   2   3
ENDBRANCH   1   2
BRANCH   1  21
ATOM     21  C   UNL A   1      33.153  28.968  26.442  1.00  0.00     0.275 C 
BRANCH  21  22
ATOM     22  O   UNL A   1      33.845  28.962  27.705  1.00  0.00    -0.458 OA
BRANCH  22  23
ATOM     23  C   UNL A   1      34.475  30.121  27.978  1.00  0.00     0.338 C 
ATOM     24  O   UNL A   1      33.970  31.230  28.036  1.00  0.00    -0.246 OA
BRANCH  23  25
ATOM     25  C   UNL A   1      35.890  29.945  28.274  1.00  0.00     0.060 A 
ATOM     26  C   UNL A   1      36.816  30.091  27.238  1.00  0.00     0.016 A 
ATOM     27  C   UNL A   1      36.264  29.419  29.511  1.00  0.00     0.016 A 
ATOM     28  C   UNL A   1      38.137  29.712  27.443  1.00  0.00     0.010 A 
ATOM     29  C   UNL A   1      37.594  29.065  29.724  1.00  0.00     0.010 A 
ATOM     30  C   UNL A   1      38.535  29.211  28.692  1.00  0.00    -0.014 A 
BRANCH  30  31
ATOM     31  C   UNL A   1      39.966  28.964  28.958  1.00  0.00     0.031 A 
ATOM     32  C   UNL A   1      40.850  30.028  29.530  1.00  0.00     0.074 A 
ATOM     33  C   UNL A   1      40.453  27.751  28.637  1.00  0.00     0.049 A 
ATOM     34  N   UNL A   1      42.141  29.998  29.733  1.00  0.00    -0.248 NA
ATOM     35  C   UNL A   1      40.205  31.290  29.925  1.00  0.00     0.031 C 
ATOM     36  C   UNL A   1      39.658  26.648  28.086  1.00  0.00     0.029 A 
ATOM     37  N   UNL A   1      41.719  27.241  28.718  1.00  0.00    -0.354 N 
ATOM     38  C   UNL A   1      42.473  31.238  30.263  1.00  0.00     0.074 A 
ATOM     39  C   UNL A   1      41.244  32.001  30.349  1.00  0.00     0.031 C 
ATOM     40  C   UNL A   1      40.456  25.591  27.884  1.00  0.00     0.029 A 
ATOM     41  C   UNL A   1      41.820  25.957  28.243  1.00  0.00     0.049 A 
ATOM     42  H   UNL A   1      42.482  27.745  29.082  1.00  0.00     0.167 HD
ATOM     43  C   UNL A   1      43.696  31.690  30.633  1.00  0.00     0.037 A 
ATOM     44  C   UNL A   1      42.900  25.172  28.085  1.00  0.00     0.037 A 
ATOM     45  C   UNL A   1      44.904  30.910  30.536  1.00  0.00     0.049 A 
ATOM     46  C   UNL A   1      44.243  25.706  28.477  1.00  0.00     0.074 A 
ATOM     47  C   UNL A   1      46.193  31.266  30.894  1.00  0.00     0.029 A 
ATOM     48  N   UNL A   1      44.972  29.615  30.040  1.00  0.00    -0.354 N 
ATOM     49  N   UNL A   1      44.542  26.883  28.974  1.00  0.00    -0.248 NA
ATOM     50  C   UNL A   1      45.393  24.818  28.281  1.00  0.00     0.031 C 
ATOM     51  C   UNL A   1      47.044  30.196  30.587  1.00  0.00     0.029 A 
ATOM     52  C   UNL A   1      46.282  29.163  30.067  1.00  0.00     0.049 A 
ATOM     53  H   UNL A   1      44.202  29.093  29.716  1.00  0.00     0.167 HD
ATOM     54  C   UNL A   1      45.918  26.878  29.154  1.00  0.00     0.074 A 
ATOM     55  C   UNL A   1      46.387  25.573  28.727  1.00  0.00     0.031 C 
ATOM     56  C   UNL A   1      46.721  27.862  29.625  1.00  0.00     0.037 A 
BRANCH  43  57
ATOM     57  C   UNL A   1      43.794  33.098  31.147  1.00  0.00     0.058 A 
ATOM     58  C   UNL A   1      43.963  34.190  30.282  1.00  0.00     0.135 A 
ATOM     59  C   UNL A   1      43.673  33.364  32.521  1.00  0.00     0.135 A 
ATOM     60  F   UNL A   1      44.096  33.991  28.962  1.00  0.00    -0.206 F 
ATOM     61  C   UNL A   1      44.026  35.496  30.763  1.00  0.00     0.059 A 
ATOM     62  C   UNL A   1      43.717  34.662  33.022  1.00  0.00     0.059 A 
ATOM     63  F   UNL A   1      43.511  32.354  33.391  1.00  0.00    -0.206 F 
ATOM     64  C   UNL A   1      43.906  35.721  32.136  1.00  0.00     0.060 A 
BRANCH  64  65
ATOM     65  S   UNL A   1      43.985  37.419  32.749  1.00  0.00     0.124 S 
ATOM     66  O   UNL A   1      45.334  37.464  33.305  1.00  0.00    -0.237 OA
ATOM     67  O   UNL A   1      43.772  38.203  31.538  1.00  0.00    -0.237 OA
ATOM     68  O   UNL A   1      42.902  37.476  33.727  1.00  0.00    -0.744 OA
ENDBRANCH  64  65
ENDBRANCH  43  57
BRANCH  44  69
ATOM     69  C   UNL A   1      42.732  23.813  27.515  1.00  0.00     0.058 A 
ATOM     70  C   UNL A   1      42.918  23.580  26.147  1.00  0.00     0.135 A 
ATOM     71  C   UNL A   1      42.455  22.712  28.341  1.00  0.00     0.135 A 
ATOM     72  F   UNL A   1      43.186  24.602  25.322  1.00  0.00    -0.206 F 
ATOM     73  C   UNL A   1      42.838  22.298  25.613  1.00  0.00     0.059 A 
ATOM     74  C   UNL A   1      42.390  21.419  27.833  1.00  0.00     0.059 A 
ATOM     75  F   UNL A   1      42.290  22.885  29.661  1.00  0.00    -0.206 F 
ATOM     76  C   UNL A   1      42.579  21.223  26.466  1.00  0.00     0.060 A 
BRANCH  76  77
ATOM     77  S   UNL A   1      42.558  19.551  25.783  1.00  0.00     0.124 S 
ATOM     78  O   UNL A   1      43.503  19.674  24.680  1.00  0.00    -0.237 OA
ATOM     79  O   UNL A   1      43.000  18.745  26.916  1.00  0.00    -0.237 OA
ATOM     80  O   UNL A   1      41.160  19.365  25.403  1.00  0.00    -0.744 OA
ENDBRANCH  76  77
ENDBRANCH  44  69
BRANCH  56  81
ATOM     81  C   UNL A   1      48.185  27.551  29.705  1.00  0.00     0.058 A 
ATOM     82  C   UNL A   1      48.724  26.866  30.804  1.00  0.00     0.135 A 
ATOM     83  C   UNL A   1      49.052  27.930  28.669  1.00  0.00     0.135 A 
ATOM     84  F   UNL A   1      47.933  26.494  31.822  1.00  0.00    -0.206 F 
ATOM     85  C   UNL A   1      50.082  26.583  30.884  1.00  0.00     0.059 A 
ATOM     86  C   UNL A   1      50.411  27.643  28.721  1.00  0.00     0.059 A 
ATOM     87  F   UNL A   1      48.579  28.585  27.597  1.00  0.00    -0.206 F 
ATOM     88  C   UNL A   1      50.919  26.980  29.839  1.00  0.00     0.060 A 
BRANCH  88  89
ATOM     89  S   UNL A   1      52.680  26.597  29.940  1.00  0.00     0.124 S 
ATOM     90  O   UNL A   1      52.712  25.662  31.060  1.00  0.00    -0.237 OA
ATOM     91  O   UNL A   1      52.956  26.022  28.627  1.00  0.00    -0.237 OA
ATOM     92  O   UNL A   1      53.293  27.899  30.188  1.00  0.00    -0.744 OA
ENDBRANCH  88  89
ENDBRANCH  56  81
ENDBRANCH  30  31
ENDBRANCH  23  25
ENDBRANCH  22  23
ENDBRANCH  21  22
ENDBRANCH   1  21
TORSDOF 19
ENDMDL
MODEL 2
REMARK VINA RESULT:      -9.6      1.702      2.405
REMARK SMILES C[C@H](c1ccccc1)[N@@H+](CC(=O)OCCOC(=O)c1ccc(-c2c3nc(c(-c4c(F)cc(S(=O)(=O)[O-])cc4F)c4ccc([nH]4)c(-c4c(F)cc(S(=O)(=O)[O-])cc4F)c4nc(c(-c5c(F)cc(S(=O)(=O)[O-])cc5F)c5ccc2[nH]5)C=C4)C=C3)cc1)CC(F)(F)F
REMARK SMILES IDX 14 1 13 2 11 3 12 4 10 5 9 6 2 8 1 9 3 10 4 11 8 12 5 13
REMARK SMILES IDX 7 14 6 15 85 16 86 17 87 18 88 19 89 20 15 21 16 22 17 23
REMARK SMILES IDX 18 24 19 25 20 26 84 27 21 28 83 29 22 30 23 31 24 32 77 33
REMARK SMILES IDX 25 34 82 35 76 36 78 37 26 38 81 39 75 40 74 41 27 43 61 44
REMARK SMILES IDX 40 45 60 46 41 47 44 48 59 49 79 50 42 51 43 52 58 54 80 55
REMARK SMILES IDX 45 56 28 57 29 58 38 59 30 60 31 61 37 62 39 63 32 64 33 65
REMARK SMILES IDX 34 66 35 67 36 68 62 69 63 70 72 71 64 72 65 73 71 74 73 75
REMARK SMILES IDX 66 76 67 77 68 78 69 79 70 80 46 81 47 82 56 83 48 84 49 85
REMARK SMILES IDX 55 86 57 87 50 88 51 89 52 90 53 91 54 92
REMARK H PARENT 9 7 78 42 44 53
REMARK Flexibility Score: inf
ROOT
ATOM      1  C   UNL A   1      31.851  28.350  25.977  1.00  0.00     0.274 C 
ENDROOT
BRANCH   1   2
ATOM      2  O   UNL A   1      31.404  27.059  26.448  1.00  0.00    -0.458 OA
BRANCH   2   3
ATOM      3  C   UNL A   1      31.164  26.108  25.510  1.00  0.00     0.361 C 
ATOM      4  O   UNL A   1      30.108  26.014  24.891  1.00  0.00    -0.245 OA
BRANCH   3   5
ATOM      5  C   UNL A   1      32.295  25.089  25.329  1.00  0.00     0.387 C 
BRANCH   5   6
ATOM      6  N   UNL A   1      32.945  25.052  24.009  1.00  0.00    -0.312 N 
ATOM      7  H   UNL A   1      32.455  25.194  23.126  1.00  0.00     0.349 HD
BRANCH   6   8
ATOM      8  C   UNL A   1      33.052  23.753  23.356  1.00  0.00     0.212 C 
ATOM      9  C   UNL A   1      31.793  22.883  23.423  1.00  0.00     0.081 C 
BRANCH   8  10
ATOM     10  C   UNL A   1      34.292  22.915  23.691  1.00  0.00     0.009 A 
ATOM     11  C   UNL A   1      35.570  23.168  23.176  1.00  0.00     0.010 A 
ATOM     12  C   UNL A   1      34.184  21.904  24.665  1.00  0.00     0.010 A 
ATOM     13  C   UNL A   1      36.701  22.495  23.648  1.00  0.00     0.001 A 
ATOM     14  C   UNL A   1      35.310  21.212  25.124  1.00  0.00     0.001 A 
ATOM     15  C   UNL A   1      36.572  21.521  24.629  1.00  0.00     0.000 A 
ENDBRANCH   8  10
ENDBRANCH   6   8
BRANCH   6  16
ATOM     16  C   UNL A   1      33.614  26.290  23.576  1.00  0.00     0.380 C 
BRANCH  16  17
ATOM     17  C   UNL A   1      33.258  27.117  22.306  1.00  0.00     0.438 C 
ATOM     18  F   UNL A   1      32.100  27.801  22.458  1.00  0.00    -0.165 F 
ATOM     19  F   UNL A   1      34.216  28.053  22.084  1.00  0.00    -0.165 F 
ATOM     20  F   UNL A   1      33.124  26.388  21.183  1.00  0.00    -0.165 F 
ENDBRANCH  16  17
ENDBRANCH   6  16
ENDBRANCH   5   6
ENDBRANCH   3   5
ENDBRANCH   2   3
ENDBRANCH   1   2
BRANCH   1  21
ATOM     21  C   UNL A   1      32.332  29.247  27.122  1.00  0.00     0.275 C 
BRANCH  21  22
ATOM     22  O   UNL A   1      33.752  29.121  27.330  1.00  0.00    -0.458 OA
BRANCH  22  23
ATOM     23  C   UNL A   1      34.312  30.210  27.891  1.00  0.00     0.338 C 
ATOM     24  O   UNL A   1      33.750  31.255  28.176  1.00  0.00    -0.246 OA
BRANCH  23  25
ATOM     25  C   UNL A   1      35.721  30.026  28.210  1.00  0.00     0.060 A 
ATOM     26  C   UNL A   1      36.657  30.085  27.174  1.00  0.00     0.016 A 
ATOM     27  C   UNL A   1      36.076  29.578  29.482  1.00  0.00     0.016 A 
ATOM     28  C   UNL A   1      37.968  29.695  27.415  1.00  0.00     0.010 A 
ATOM     29  C   UNL A   1      37.397  29.213  29.729  1.00  0.00     0.010 A 
ATOM     30  C   UNL A   1      38.347  29.271  28.697  1.00  0.00    -0.014 A 
BRANCH  30  31
ATOM     31  C   UNL A   1      39.772  29.014  28.991  1.00  0.00     0.031 A 
ATOM     32  C   UNL A   1      40.653  30.075  29.574  1.00  0.00     0.074 A 
ATOM     33  C   UNL A   1      40.255  27.796  28.685  1.00  0.00     0.049 A 
ATOM     34  N   UNL A   1      41.940  30.036  29.802  1.00  0.00    -0.248 NA
ATOM     35  C   UNL A   1      40.011  31.343  29.952  1.00  0.00     0.031 C 
ATOM     36  C   UNL A   1      39.462  26.697  28.124  1.00  0.00     0.029 A 
ATOM     37  N   UNL A   1      41.516  27.278  28.791  1.00  0.00    -0.354 N 
ATOM     38  C   UNL A   1      42.271  31.275  30.332  1.00  0.00     0.074 A 
ATOM     39  C   UNL A   1      41.046  32.048  30.392  1.00  0.00     0.031 C 
ATOM     40  C   UNL A   1      40.256  25.633  27.941  1.00  0.00     0.029 A 
ATOM     41  C   UNL A   1      41.616  25.991  28.323  1.00  0.00     0.049 A 
ATOM     42  H   UNL A   1      42.276  27.777  29.167  1.00  0.00     0.167 HD
ATOM     43  C   UNL A   1      43.490  31.720  30.723  1.00  0.00     0.037 A 
ATOM     44  C   UNL A   1      42.693  25.197  28.189  1.00  0.00     0.037 A 
ATOM     45  C   UNL A   1      44.694  30.931  30.651  1.00  0.00     0.049 A 
ATOM     46  C   UNL A   1      44.032  25.723  28.604  1.00  0.00     0.074 A 
ATOM     47  C   UNL A   1      45.980  31.279  31.032  1.00  0.00     0.029 A 
ATOM     48  N   UNL A   1      44.762  29.633  30.163  1.00  0.00    -0.354 N 
ATOM     49  N   UNL A   1      44.331  26.900  29.100  1.00  0.00    -0.248 NA
ATOM     50  C   UNL A   1      45.179  24.825  28.432  1.00  0.00     0.031 C 
ATOM     51  C   UNL A   1      46.828  30.202  30.745  1.00  0.00     0.029 A 
ATOM     52  C   UNL A   1      46.067  29.171  30.216  1.00  0.00     0.049 A 
ATOM     53  H   UNL A   1      43.994  29.116  29.827  1.00  0.00     0.167 HD
ATOM     54  C   UNL A   1      45.703  26.885  29.306  1.00  0.00     0.074 A 
ATOM     55  C   UNL A   1      46.171  25.575  28.894  1.00  0.00     0.031 C 
ATOM     56  C   UNL A   1      46.505  27.866  29.788  1.00  0.00     0.037 A 
BRANCH  43  57
ATOM     57  C   UNL A   1      43.589  33.130  31.232  1.00  0.00     0.058 A 
ATOM     58  C   UNL A   1      43.526  33.426  32.602  1.00  0.00     0.135 A 
ATOM     59  C   UNL A   1      43.794  34.196  30.341  1.00  0.00     0.135 A 
ATOM     60  F   UNL A   1      43.318  32.447  33.496  1.00  0.00    -0.206 F 
ATOM     61  C   UNL A   1      43.645  34.732  33.071  1.00  0.00     0.059 A 
ATOM     62  C   UNL A   1      43.933  35.508  30.788  1.00  0.00     0.059 A 
ATOM     63  F   UNL A   1      43.861  33.967  29.020  1.00  0.00    -0.206 F 
ATOM     64  C   UNL A   1      43.845  35.767  32.155  1.00  0.00     0.060 A 
BRANCH  64  65
ATOM     65  S   UNL A   1      44.002  37.458  32.772  1.00  0.00     0.124 S 
ATOM     66  O   UNL A   1      42.943  37.501  33.774  1.00  0.00    -0.237 OA
ATOM     67  O   UNL A   1      45.366  37.479  33.290  1.00  0.00    -0.237 OA
ATOM     68  O   UNL A   1      43.776  38.274  31.583  1.00  0.00    -0.744 OA
ENDBRANCH  64  65
ENDBRANCH  43  57
BRANCH  44  69
ATOM     69  C   UNL A   1      42.525  23.837  27.622  1.00  0.00     0.058 A 
ATOM     70  C   UNL A   1      42.574  23.624  26.239  1.00  0.00     0.135 A 
ATOM     71  C   UNL A   1      42.387  22.717  28.458  1.00  0.00     0.135 A 
ATOM     72  F   UNL A   1      42.706  24.665  25.404  1.00  0.00    -0.206 F 
ATOM     73  C   UNL A   1      42.494  22.344  25.699  1.00  0.00     0.059 A 
ATOM     74  C   UNL A   1      42.325  21.427  27.943  1.00  0.00     0.059 A 
ATOM     75  F   UNL A   1      42.357  22.872  29.790  1.00  0.00    -0.206 F 
ATOM     76  C   UNL A   1      42.375  21.252  26.560  1.00  0.00     0.060 A 
BRANCH  76  77
ATOM     77  S   UNL A   1      42.356  19.586  25.861  1.00  0.00     0.124 S 
ATOM     78  O   UNL A   1      43.355  19.701  24.805  1.00  0.00    -0.237 OA
ATOM     79  O   UNL A   1      42.728  18.762  27.006  1.00  0.00    -0.237 OA
ATOM     80  O   UNL A   1      40.974  19.431  25.413  1.00  0.00    -0.744 OA
ENDBRANCH  76  77
ENDBRANCH  44  69
BRANCH  56  81
ATOM     81  C   UNL A   1      47.964  27.544  29.896  1.00  0.00     0.058 A 
ATOM     82  C   UNL A   1      48.871  27.935  28.899  1.00  0.00     0.135 A 
ATOM     83  C   UNL A   1      48.461  26.852  31.011  1.00  0.00     0.135 A 
ATOM     84  F   UNL A   1      48.438  28.589  27.811  1.00  0.00    -0.206 F 
ATOM     85  C   UNL A   1      50.224  27.631  28.994  1.00  0.00     0.059 A 
ATOM     86  C   UNL A   1      49.813  26.552  31.133  1.00  0.00     0.059 A 
ATOM     87  F   UNL A   1      47.631  26.462  31.990  1.00  0.00    -0.206 F 
ATOM     88  C   UNL A   1      50.685  26.934  30.113  1.00  0.00     0.060 A 
BRANCH  88  89
ATOM     89  S   UNL A   1      52.445  26.555  30.239  1.00  0.00     0.124 S 
ATOM     90  O   UNL A   1      52.732  26.050  28.900  1.00  0.00    -0.237 OA
ATOM     91  O   UNL A   1      53.027  27.854  30.564  1.00  0.00    -0.237 OA
ATOM     92  O   UNL A   1      52.500  25.566  31.311  1.00  0.00    -0.744 OA
ENDBRANCH  88  89
ENDBRANCH  56  81
ENDBRANCH  30  31
ENDBRANCH  23  25
ENDBRANCH  22  23
ENDBRANCH  21  22
ENDBRANCH   1  21
TORSDOF 19
ENDMDL
MODEL 3
REMARK VINA RESULT:      -9.4      2.618      3.423
REMARK SMILES C[C@H](c1ccccc1)[N@@H+](CC(=O)OCCOC(=O)c1ccc(-c2c3nc(c(-c4c(F)cc(S(=O)(=O)[O-])cc4F)c4ccc([nH]4)c(-c4c(F)cc(S(=O)(=O)[O-])cc4F)c4nc(c(-c5c(F)cc(S(=O)(=O)[O-])cc5F)c5ccc2[nH]5)C=C4)C=C3)cc1)CC(F)(F)F
REMARK SMILES IDX 14 1 13 2 11 3 12 4 10 5 9 6 2 8 1 9 3 10 4 11 8 12 5 13
REMARK SMILES IDX 7 14 6 15 85 16 86 17 87 18 88 19 89 20 15 21 16 22 17 23
REMARK SMILES IDX 18 24 19 25 20 26 84 27 21 28 83 29 22 30 23 31 24 32 77 33
REMARK SMILES IDX 25 34 82 35 76 36 78 37 26 38 81 39 75 40 74 41 27 43 61 44
REMARK SMILES IDX 40 45 60 46 41 47 44 48 59 49 79 50 42 51 43 52 58 54 80 55
REMARK SMILES IDX 45 56 28 57 29 58 38 59 30 60 31 61 37 62 39 63 32 64 33 65
REMARK SMILES IDX 34 66 35 67 36 68 62 69 63 70 72 71 64 72 65 73 71 74 73 75
REMARK SMILES IDX 66 76 67 77 68 78 69 79 70 80 46 81 47 82 56 83 48 84 49 85
REMARK SMILES IDX 55 86 57 87 50 88 51 89 52 90 53 91 54 92
REMARK H PARENT 9 7 78 42 44 53
REMARK Flexibility Score: inf
ROOT
ATOM      1  C   UNL A   1      33.059  29.889  27.314  1.00  0.00     0.274 C 
ENDROOT
BRANCH   1   2
ATOM      2  O   UNL A   1      32.924  29.005  26.178  1.00  0.00    -0.458 OA
BRANCH   2   3
ATOM      3  C   UNL A   1      32.310  27.813  26.392  1.00  0.00     0.361 C 
ATOM      4  O   UNL A   1      31.159  27.704  26.807  1.00  0.00    -0.245 OA
BRANCH   3   5
ATOM      5  C   UNL A   1      33.196  26.586  26.147  1.00  0.00     0.387 C 
BRANCH   5   6
ATOM      6  N   UNL A   1      32.721  25.619  25.145  1.00  0.00    -0.312 N 
ATOM      7  H   UNL A   1      31.775  25.240  25.117  1.00  0.00     0.349 HD
BRANCH   6   8
ATOM      8  C   UNL A   1      32.919  24.205  25.438  1.00  0.00     0.212 C 
ATOM      9  C   UNL A   1      32.464  23.757  26.831  1.00  0.00     0.081 C 
BRANCH   8  10
ATOM     10  C   UNL A   1      34.301  23.622  25.121  1.00  0.00     0.009 A 
ATOM     11  C   UNL A   1      35.502  24.325  25.283  1.00  0.00     0.010 A 
ATOM     12  C   UNL A   1      34.399  22.264  24.762  1.00  0.00     0.010 A 
ATOM     13  C   UNL A   1      36.746  23.697  25.157  1.00  0.00     0.001 A 
ATOM     14  C   UNL A   1      35.641  21.638  24.612  1.00  0.00     0.001 A 
ATOM     15  C   UNL A   1      36.816  22.351  24.829  1.00  0.00     0.000 A 
ENDBRANCH   8  10
ENDBRANCH   6   8
BRANCH   6  16
ATOM     16  C   UNL A   1      32.293  26.177  23.851  1.00  0.00     0.380 C 
BRANCH  16  17
ATOM     17  C   UNL A   1      33.178  26.293  22.576  1.00  0.00     0.438 C 
ATOM     18  F   UNL A   1      32.438  26.540  21.469  1.00  0.00    -0.165 F 
ATOM     19  F   UNL A   1      34.025  27.346  22.699  1.00  0.00    -0.165 F 
ATOM     20  F   UNL A   1      33.915  25.199  22.305  1.00  0.00    -0.165 F 
ENDBRANCH  16  17
ENDBRANCH   6  16
ENDBRANCH   5   6
ENDBRANCH   3   5
ENDBRANCH   2   3
ENDBRANCH   1   2
BRANCH   1  21
ATOM     21  C   UNL A   1      34.463  30.492  27.411  1.00  0.00     0.275 C 
BRANCH  21  22
ATOM     22  O   UNL A   1      35.330  29.681  28.227  1.00  0.00    -0.458 OA
BRANCH  22  23
ATOM     23  C   UNL A   1      36.124  30.399  29.044  1.00  0.00     0.338 C 
ATOM     24  O   UNL A   1      35.766  31.190  29.902  1.00  0.00    -0.246 OA
BRANCH  23  25
ATOM     25  C   UNL A   1      37.540  30.110  28.862  1.00  0.00     0.060 A 
ATOM     26  C   UNL A   1      38.008  29.829  27.575  1.00  0.00     0.016 A 
ATOM     27  C   UNL A   1      38.339  29.898  29.986  1.00  0.00     0.016 A 
ATOM     28  C   UNL A   1      39.296  29.336  27.409  1.00  0.00     0.010 A 
ATOM     29  C   UNL A   1      39.640  29.429  29.815  1.00  0.00     0.010 A 
ATOM     30  C   UNL A   1      40.122  29.147  28.527  1.00  0.00    -0.014 A 
BRANCH  30  31
ATOM     31  C   UNL A   1      41.540  28.779  28.335  1.00  0.00     0.031 A 
ATOM     32  C   UNL A   1      42.628  29.804  28.399  1.00  0.00     0.074 A 
ATOM     33  C   UNL A   1      41.812  27.488  28.069  1.00  0.00     0.049 A 
ATOM     34  N   UNL A   1      43.906  29.658  28.160  1.00  0.00    -0.248 NA
ATOM     35  C   UNL A   1      42.238  31.171  28.778  1.00  0.00     0.031 C 
ATOM     36  C   UNL A   1      40.810  26.418  28.001  1.00  0.00     0.029 A 
ATOM     37  N   UNL A   1      42.995  26.856  27.802  1.00  0.00    -0.354 N 
ATOM     38  C   UNL A   1      44.474  30.911  28.341  1.00  0.00     0.074 A 
ATOM     39  C   UNL A   1      43.399  31.811  28.711  1.00  0.00     0.031 C 
ATOM     40  C   UNL A   1      41.424  25.262  27.716  1.00  0.00     0.029 A 
ATOM     41  C   UNL A   1      42.847  25.517  27.534  1.00  0.00     0.049 A 
ATOM     42  H   UNL A   1      43.865  27.315  27.804  1.00  0.00     0.167 HD
ATOM     43  C   UNL A   1      45.774  31.270  28.203  1.00  0.00     0.037 A 
ATOM     44  C   UNL A   1      43.756  24.603  27.152  1.00  0.00     0.037 A 
ATOM     45  C   UNL A   1      46.824  30.354  27.833  1.00  0.00     0.049 A 
ATOM     46  C   UNL A   1      45.181  25.032  26.981  1.00  0.00     0.074 A 
ATOM     47  C   UNL A   1      48.176  30.608  27.677  1.00  0.00     0.029 A 
ATOM     48  N   UNL A   1      46.639  29.006  27.559  1.00  0.00    -0.354 N 
ATOM     49  N   UNL A   1      45.703  26.223  27.152  1.00  0.00    -0.248 NA
ATOM     50  C   UNL A   1      46.136  24.003  26.556  1.00  0.00     0.031 C 
ATOM     51  C   UNL A   1      48.803  29.420  27.279  1.00  0.00     0.029 A 
ATOM     52  C   UNL A   1      47.847  28.419  27.218  1.00  0.00     0.049 A 
ATOM     53  H   UNL A   1      45.775  28.535  27.600  1.00  0.00     0.167 HD
ATOM     54  C   UNL A   1      47.053  26.089  26.860  1.00  0.00     0.074 A 
ATOM     55  C   UNL A   1      47.267  24.695  26.516  1.00  0.00     0.031 C 
ATOM     56  C   UNL A   1      48.027  27.031  26.870  1.00  0.00     0.037 A 
BRANCH  43  57
ATOM     57  C   UNL A   1      46.128  32.713  28.421  1.00  0.00     0.058 A 
ATOM     58  C   UNL A   1      46.100  33.646  27.374  1.00  0.00     0.135 A 
ATOM     59  C   UNL A   1      46.458  33.179  29.704  1.00  0.00     0.135 A 
ATOM     60  F   UNL A   1      45.803  33.253  26.126  1.00  0.00    -0.206 F 
ATOM     61  C   UNL A   1      46.403  34.989  27.588  1.00  0.00     0.059 A 
ATOM     62  C   UNL A   1      46.749  34.519  29.945  1.00  0.00     0.059 A 
ATOM     63  F   UNL A   1      46.500  32.326  30.741  1.00  0.00    -0.206 F 
ATOM     64  C   UNL A   1      46.730  35.415  28.877  1.00  0.00     0.060 A 
BRANCH  64  65
ATOM     65  S   UNL A   1      47.118  37.159  29.146  1.00  0.00     0.124 S 
ATOM     66  O   UNL A   1      45.905  37.805  28.654  1.00  0.00    -0.237 OA
ATOM     67  O   UNL A   1      47.326  37.218  30.589  1.00  0.00    -0.237 OA
ATOM     68  O   UNL A   1      48.314  37.368  28.335  1.00  0.00    -0.744 OA
ENDBRANCH  64  65
ENDBRANCH  43  57
BRANCH  44  69
ATOM     69  C   UNL A   1      43.320  23.209  26.897  1.00  0.00     0.058 A 
ATOM     70  C   UNL A   1      43.264  22.700  25.594  1.00  0.00     0.135 A 
ATOM     71  C   UNL A   1      43.023  22.339  27.959  1.00  0.00     0.135 A 
ATOM     72  F   UNL A   1      43.541  23.495  24.550  1.00  0.00    -0.206 F 
ATOM     73  C   UNL A   1      42.930  21.372  25.348  1.00  0.00     0.059 A 
ATOM     74  C   UNL A   1      42.706  21.004  27.739  1.00  0.00     0.059 A 
ATOM     75  F   UNL A   1      43.085  22.778  29.226  1.00  0.00    -0.206 F 
ATOM     76  C   UNL A   1      42.658  20.530  26.428  1.00  0.00     0.060 A 
BRANCH  76  77
ATOM     77  S   UNL A   1      42.307  18.788  26.111  1.00  0.00     0.124 S 
ATOM     78  O   UNL A   1      42.628  18.186  27.400  1.00  0.00    -0.237 OA
ATOM     79  O   UNL A   1      40.893  18.813  25.753  1.00  0.00    -0.237 OA
ATOM     80  O   UNL A   1      43.215  18.461  25.014  1.00  0.00    -0.744 OA
ENDBRANCH  76  77
ENDBRANCH  44  69
BRANCH  56  81
ATOM     81  C   UNL A   1      49.406  26.572  26.504  1.00  0.00     0.058 A 
ATOM     82  C   UNL A   1      49.871  26.648  25.182  1.00  0.00     0.135 A 
ATOM     83  C   UNL A   1      50.272  26.066  27.484  1.00  0.00     0.135 A 
ATOM     84  F   UNL A   1      49.072  27.116  24.211  1.00  0.00    -0.206 F 
ATOM     85  C   UNL A   1      51.147  26.216  24.839  1.00  0.00     0.059 A 
ATOM     86  C   UNL A   1      51.558  25.644  27.166  1.00  0.00     0.059 A 
ATOM     87  F   UNL A   1      49.871  25.978  28.762  1.00  0.00    -0.206 F 
ATOM     88  C   UNL A   1      51.982  25.710  25.838  1.00  0.00     0.060 A 
BRANCH  88  89
ATOM     89  S   UNL A   1      53.643  25.165  25.390  1.00  0.00     0.124 S 
ATOM     90  O   UNL A   1      53.471  23.717  25.338  1.00  0.00    -0.237 OA
ATOM     91  O   UNL A   1      53.859  25.825  24.107  1.00  0.00    -0.237 OA
ATOM     92  O   UNL A   1      54.467  25.662  26.489  1.00  0.00    -0.744 OA
ENDBRANCH  88  89
ENDBRANCH  56  81
ENDBRANCH  30  31
ENDBRANCH  23  25
ENDBRANCH  22  23
ENDBRANCH  21  22
ENDBRANCH   1  21
TORSDOF 19
ENDMDL
