MODEL 1
REMARK VINA RESULT:     -11.3      0.000      0.000
REMARK SMILES O=C(CC1CCN(S(=O)(=O)c2cc[nH]c2)CC1)OCCOC(=O)c1ccc(-c2c3nc(c(-c4c(F)cc(S(=O)(=O)[O-])cc4F)c4ccc([nH]4)c(-c4c(F)cc(S(=O)(=O)[O-])cc4F)c4nc(c(-c5c(F)cc(S(=O)(=O)[O-])cc5F)c5ccc2[nH]5)C=C4)C=C3)cc1
REMARK SMILES IDX 19 1 18 2 2 3 1 4 3 5 4 6 5 7 17 8 6 9 16 10 7 11 8 12 9 13
REMARK SMILES IDX 10 14 11 15 12 16 15 17 13 18 14 19 20 21 21 22 22 23 23 24
REMARK SMILES IDX 24 25 25 26 89 27 26 28 88 29 27 30 28 31 29 32 82 33 30 34
REMARK SMILES IDX 87 35 81 36 83 37 31 38 86 39 80 40 79 41 32 43 66 44 45 45
REMARK SMILES IDX 65 46 46 47 49 48 64 49 84 50 47 51 48 52 63 54 85 55 50 56
REMARK SMILES IDX 33 57 34 58 43 59 35 60 36 61 42 62 44 63 37 64 38 65 39 66
REMARK SMILES IDX 40 67 41 68 67 69 68 70 77 71 69 72 70 73 76 74 78 75 71 76
REMARK SMILES IDX 72 77 73 78 74 79 75 80 51 81 52 82 61 83 53 84 54 85 60 86
REMARK SMILES IDX 62 87 55 88 56 89 57 90 58 91 59 92
REMARK H PARENT 14 20 83 42 49 53
REMARK Flexibility Score: inf
ROOT
ATOM      1  C   UNL A   1      39.186  21.218  25.775  1.00  0.00     0.274 C 
ENDROOT
BRANCH   1   2
ATOM      2  O   UNL A   1      37.903  21.579  25.208  1.00  0.00    -0.462 OA
BRANCH   2   3
ATOM      3  C   UNL A   1      37.265  22.765  25.138  1.00  0.00     0.306 C 
ATOM      4  O   UNL A   1      37.285  23.517  26.115  1.00  0.00    -0.252 OA
BRANCH   3   5
ATOM      5  C   UNL A   1      36.513  23.215  23.898  1.00  0.00     0.126 C 
BRANCH   5   6
ATOM      6  C   UNL A   1      35.057  22.782  23.697  1.00  0.00     0.003 C 
ATOM      7  C   UNL A   1      34.159  23.853  23.063  1.00  0.00     0.021 C 
ATOM      8  C   UNL A   1      34.422  22.317  25.029  1.00  0.00     0.021 C 
ATOM      9  C   UNL A   1      33.870  24.989  24.019  1.00  0.00     0.103 C 
ATOM     10  C   UNL A   1      33.973  23.474  25.933  1.00  0.00     0.103 C 
ATOM     11  N   UNL A   1      33.126  24.422  25.159  1.00  0.00    -0.198 NA
BRANCH  11  12
ATOM     12  S   UNL A   1      32.313  25.619  26.054  1.00  0.00     0.244 S 
ATOM     13  O   UNL A   1      31.501  24.975  27.058  1.00  0.00    -0.207 OA
ATOM     14  O   UNL A   1      33.268  26.658  26.393  1.00  0.00    -0.207 OA
BRANCH  12  15
ATOM     15  C   UNL A   1      31.193  26.404  25.002  1.00  0.00     0.100 A 
ATOM     16  C   UNL A   1      30.011  25.825  24.478  1.00  0.00     0.041 A 
ATOM     17  C   UNL A   1      31.290  27.684  24.493  1.00  0.00     0.104 A 
ATOM     18  C   UNL A   1      29.437  26.758  23.644  1.00  0.00     0.083 A 
ATOM     19  N   UNL A   1      30.213  27.889  23.672  1.00  0.00    -0.366 N 
ATOM     20  H   UNL A   1      30.025  28.721  23.179  1.00  0.00     0.165 HD
ENDBRANCH  12  15
ENDBRANCH  11  12
ENDBRANCH   5   6
ENDBRANCH   3   5
ENDBRANCH   2   3
ENDBRANCH   1   2
BRANCH   1  21
ATOM     21  C   UNL A   1      39.569  19.774  25.566  1.00  0.00     0.275 C 
BRANCH  21  22
ATOM     22  O   UNL A   1      40.443  19.374  26.607  1.00  0.00    -0.458 OA
BRANCH  22  23
ATOM     23  C   UNL A   1      41.691  19.117  26.167  1.00  0.00     0.338 C 
ATOM     24  O   UNL A   1      42.138  18.061  25.761  1.00  0.00    -0.246 OA
BRANCH  23  25
ATOM     25  C   UNL A   1      42.518  20.287  26.415  1.00  0.00     0.060 A 
ATOM     26  C   UNL A   1      42.396  20.865  27.681  1.00  0.00     0.016 A 
ATOM     27  C   UNL A   1      43.053  20.955  25.307  1.00  0.00     0.016 A 
ATOM     28  C   UNL A   1      42.644  22.208  27.797  1.00  0.00     0.010 A 
ATOM     29  C   UNL A   1      43.235  22.307  25.405  1.00  0.00     0.010 A 
ATOM     30  C   UNL A   1      42.996  22.914  26.643  1.00  0.00    -0.014 A 
BRANCH  30  31
ATOM     31  C   UNL A   1      43.338  24.321  26.776  1.00  0.00     0.031 A 
ATOM     32  C   UNL A   1      42.018  25.130  26.918  1.00  0.00     0.074 A 
ATOM     33  C   UNL A   1      44.688  24.568  26.771  1.00  0.00     0.049 A 
ATOM     34  N   UNL A   1      41.808  26.400  26.805  1.00  0.00    -0.248 NA
ATOM     35  C   UNL A   1      40.715  24.427  27.187  1.00  0.00     0.031 C 
ATOM     36  C   UNL A   1      45.769  23.547  26.621  1.00  0.00     0.029 A 
ATOM     37  N   UNL A   1      45.446  25.708  26.894  1.00  0.00    -0.354 N 
ATOM     38  C   UNL A   1      40.497  26.664  27.267  1.00  0.00     0.074 A 
ATOM     39  C   UNL A   1      39.831  25.409  27.367  1.00  0.00     0.031 C 
ATOM     40  C   UNL A   1      46.992  24.127  26.548  1.00  0.00     0.029 A 
ATOM     41  C   UNL A   1      46.854  25.561  26.709  1.00  0.00     0.049 A 
ATOM     42  H   UNL A   1      45.039  26.580  27.098  1.00  0.00     0.167 HD
ATOM     43  C   UNL A   1      40.106  27.902  27.686  1.00  0.00     0.037 A 
ATOM     44  C   UNL A   1      47.807  26.551  26.668  1.00  0.00     0.037 A 
ATOM     45  C   UNL A   1      41.186  28.815  27.510  1.00  0.00     0.049 A 
ATOM     46  C   UNL A   1      47.081  27.729  27.160  1.00  0.00     0.074 A 
ATOM     47  C   UNL A   1      41.759  29.299  26.362  1.00  0.00     0.029 A 
ATOM     48  N   UNL A   1      42.077  28.920  28.554  1.00  0.00    -0.354 N 
ATOM     49  N   UNL A   1      46.685  27.889  28.388  1.00  0.00    -0.248 NA
ATOM     50  C   UNL A   1      46.651  28.740  26.189  1.00  0.00     0.031 C 
ATOM     51  C   UNL A   1      43.131  29.158  26.631  1.00  0.00     0.029 A 
ATOM     52  C   UNL A   1      43.332  28.938  28.001  1.00  0.00     0.049 A 
ATOM     53  H   UNL A   1      41.857  28.972  29.511  1.00  0.00     0.167 HD
ATOM     54  C   UNL A   1      45.681  28.810  28.250  1.00  0.00     0.074 A 
ATOM     55  C   UNL A   1      45.928  29.507  27.000  1.00  0.00     0.031 C 
ATOM     56  C   UNL A   1      44.469  28.573  28.817  1.00  0.00     0.037 A 
BRANCH  43  57
ATOM     57  C   UNL A   1      38.931  28.398  28.471  1.00  0.00     0.058 A 
ATOM     58  C   UNL A   1      38.269  29.550  27.983  1.00  0.00     0.135 A 
ATOM     59  C   UNL A   1      38.693  28.058  29.811  1.00  0.00     0.135 A 
ATOM     60  F   UNL A   1      38.386  29.914  26.695  1.00  0.00    -0.206 F 
ATOM     61  C   UNL A   1      37.553  30.404  28.810  1.00  0.00     0.059 A 
ATOM     62  C   UNL A   1      37.936  28.882  30.651  1.00  0.00     0.059 A 
ATOM     63  F   UNL A   1      39.257  26.970  30.354  1.00  0.00    -0.206 F 
ATOM     64  C   UNL A   1      37.423  30.080  30.153  1.00  0.00     0.060 A 
BRANCH  64  65
ATOM     65  S   UNL A   1      36.608  31.277  31.231  1.00  0.00     0.124 S 
ATOM     66  O   UNL A   1      37.687  32.222  31.496  1.00  0.00    -0.237 OA
ATOM     67  O   UNL A   1      35.530  31.772  30.378  1.00  0.00    -0.237 OA
ATOM     68  O   UNL A   1      36.177  30.469  32.367  1.00  0.00    -0.744 OA
ENDBRANCH  64  65
ENDBRANCH  43  57
BRANCH  44  69
ATOM     69  C   UNL A   1      49.239  26.812  26.221  1.00  0.00     0.058 A 
ATOM     70  C   UNL A   1      50.372  26.895  27.038  1.00  0.00     0.135 A 
ATOM     71  C   UNL A   1      49.540  26.769  24.823  1.00  0.00     0.135 A 
ATOM     72  F   UNL A   1      50.249  27.089  28.358  1.00  0.00    -0.206 F 
ATOM     73  C   UNL A   1      51.682  26.756  26.523  1.00  0.00     0.059 A 
ATOM     74  C   UNL A   1      50.811  26.559  24.299  1.00  0.00     0.059 A 
ATOM     75  F   UNL A   1      48.582  26.878  23.891  1.00  0.00    -0.206 F 
ATOM     76  C   UNL A   1      51.884  26.511  25.161  1.00  0.00     0.060 A 
BRANCH  76  77
ATOM     77  S   UNL A   1      53.496  25.989  24.524  1.00  0.00     0.124 S 
ATOM     78  O   UNL A   1      54.397  26.965  25.127  1.00  0.00    -0.237 OA
ATOM     79  O   UNL A   1      53.604  24.624  25.029  1.00  0.00    -0.237 OA
ATOM     80  O   UNL A   1      53.337  26.094  23.076  1.00  0.00    -0.744 OA
ENDBRANCH  76  77
ENDBRANCH  44  69
BRANCH  56  81
ATOM     81  C   UNL A   1      44.465  27.664  30.043  1.00  0.00     0.058 A 
ATOM     82  C   UNL A   1      45.140  28.062  31.210  1.00  0.00     0.135 A 
ATOM     83  C   UNL A   1      43.864  26.392  30.106  1.00  0.00     0.135 A 
ATOM     84  F   UNL A   1      45.726  29.270  31.264  1.00  0.00    -0.206 F 
ATOM     85  C   UNL A   1      45.215  27.258  32.354  1.00  0.00     0.059 A 
ATOM     86  C   UNL A   1      43.923  25.564  31.235  1.00  0.00     0.059 A 
ATOM     87  F   UNL A   1      43.178  25.912  29.072  1.00  0.00    -0.206 F 
ATOM     88  C   UNL A   1      44.598  26.009  32.364  1.00  0.00     0.060 A 
BRANCH  88  89
ATOM     89  S   UNL A   1      44.644  25.013  33.872  1.00  0.00     0.124 S 
ATOM     90  O   UNL A   1      43.322  25.243  34.445  1.00  0.00    -0.237 OA
ATOM     91  O   UNL A   1      44.880  23.673  33.344  1.00  0.00    -0.237 OA
ATOM     92  O   UNL A   1      45.753  25.585  34.633  1.00  0.00    -0.744 OA
ENDBRANCH  88  89
ENDBRANCH  56  81
ENDBRANCH  30  31
ENDBRANCH  23  25
ENDBRANCH  22  23
ENDBRANCH  21  22
ENDBRANCH   1  21
TORSDOF 17
ENDMDL
MODEL 2
REMARK VINA RESULT:     -11.0      3.644      9.128
REMARK SMILES O=C(CC1CCN(S(=O)(=O)c2cc[nH]c2)CC1)OCCOC(=O)c1ccc(-c2c3nc(c(-c4c(F)cc(S(=O)(=O)[O-])cc4F)c4ccc([nH]4)c(-c4c(F)cc(S(=O)(=O)[O-])cc4F)c4nc(c(-c5c(F)cc(S(=O)(=O)[O-])cc5F)c5ccc2[nH]5)C=C4)C=C3)cc1
REMARK SMILES IDX 19 1 18 2 2 3 1 4 3 5 4 6 5 7 17 8 6 9 16 10 7 11 8 12 9 13
REMARK SMILES IDX 10 14 11 15 12 16 15 17 13 18 14 19 20 21 21 22 22 23 23 24
REMARK SMILES IDX 24 25 25 26 89 27 26 28 88 29 27 30 28 31 29 32 82 33 30 34
REMARK SMILES IDX 87 35 81 36 83 37 31 38 86 39 80 40 79 41 32 43 66 44 45 45
REMARK SMILES IDX 65 46 46 47 49 48 64 49 84 50 47 51 48 52 63 54 85 55 50 56
REMARK SMILES IDX 33 57 34 58 43 59 35 60 36 61 42 62 44 63 37 64 38 65 39 66
REMARK SMILES IDX 40 67 41 68 67 69 68 70 77 71 69 72 70 73 76 74 78 75 71 76
REMARK SMILES IDX 72 77 73 78 74 79 75 80 51 81 52 82 61 83 53 84 54 85 60 86
REMARK SMILES IDX 62 87 55 88 56 89 57 90 58 91 59 92
REMARK H PARENT 14 20 83 42 49 53
REMARK Flexibility Score: inf
ROOT
ATOM      1  C   UNL A   1      34.131  29.596  26.765  1.00  0.00     0.274 C 
ENDROOT
BRANCH   1   2
ATOM      2  O   UNL A   1      32.688  29.476  26.714  1.00  0.00    -0.462 OA
BRANCH   2   3
ATOM      3  C   UNL A   1      31.862  29.099  25.717  1.00  0.00     0.306 C 
ATOM      4  O   UNL A   1      31.226  29.961  25.106  1.00  0.00    -0.252 OA
BRANCH   3   5
ATOM      5  C   UNL A   1      31.680  27.647  25.313  1.00  0.00     0.126 C 
BRANCH   5   6
ATOM      6  C   UNL A   1      32.256  26.537  26.200  1.00  0.00     0.003 C 
ATOM      7  C   UNL A   1      33.693  26.129  25.850  1.00  0.00     0.021 C 
ATOM      8  C   UNL A   1      31.355  25.280  26.177  1.00  0.00     0.021 C 
ATOM      9  C   UNL A   1      33.764  25.363  24.547  1.00  0.00     0.103 C 
ATOM     10  C   UNL A   1      31.547  24.408  24.928  1.00  0.00     0.103 C 
ATOM     11  N   UNL A   1      32.994  24.118  24.730  1.00  0.00    -0.198 NA
BRANCH  11  12
ATOM     12  S   UNL A   1      33.381  22.947  23.559  1.00  0.00     0.244 S 
ATOM     13  O   UNL A   1      32.179  22.229  23.208  1.00  0.00    -0.207 OA
ATOM     14  O   UNL A   1      34.219  23.572  22.553  1.00  0.00    -0.207 OA
BRANCH  12  15
ATOM     15  C   UNL A   1      34.410  21.774  24.296  1.00  0.00     0.100 A 
ATOM     16  C   UNL A   1      35.751  21.993  24.698  1.00  0.00     0.041 A 
ATOM     17  C   UNL A   1      34.101  20.458  24.575  1.00  0.00     0.104 A 
ATOM     18  C   UNL A   1      36.228  20.796  25.184  1.00  0.00     0.083 A 
ATOM     19  N   UNL A   1      35.214  19.875  25.119  1.00  0.00    -0.366 N 
ATOM     20  H   UNL A   1      35.276  18.938  25.418  1.00  0.00     0.165 HD
ENDBRANCH  12  15
ENDBRANCH  11  12
ENDBRANCH   5   6
ENDBRANCH   3   5
ENDBRANCH   2   3
ENDBRANCH   1   2
BRANCH   1  21
ATOM     21  C   UNL A   1      34.626  30.733  27.623  1.00  0.00     0.275 C 
BRANCH  21  22
ATOM     22  O   UNL A   1      35.532  30.225  28.586  1.00  0.00    -0.458 OA
BRANCH  22  23
ATOM     23  C   UNL A   1      36.786  30.690  28.414  1.00  0.00     0.338 C 
ATOM     24  O   UNL A   1      37.129  31.807  28.078  1.00  0.00    -0.246 OA
BRANCH  23  25
ATOM     25  C   UNL A   1      37.712  29.574  28.527  1.00  0.00     0.060 A 
ATOM     26  C   UNL A   1      37.556  28.762  29.654  1.00  0.00     0.016 A 
ATOM     27  C   UNL A   1      38.879  29.613  27.756  1.00  0.00     0.016 A 
ATOM     28  C   UNL A   1      38.664  28.111  30.130  1.00  0.00     0.010 A 
ATOM     29  C   UNL A   1      40.000  29.020  28.267  1.00  0.00     0.010 A 
ATOM     30  C   UNL A   1      39.878  28.305  29.464  1.00  0.00    -0.014 A 
BRANCH  30  31
ATOM     31  C   UNL A   1      41.038  27.554  29.917  1.00  0.00     0.031 A 
ATOM     32  C   UNL A   1      41.113  26.235  29.097  1.00  0.00     0.074 A 
ATOM     33  C   UNL A   1      41.762  28.187  30.897  1.00  0.00     0.049 A 
ATOM     34  N   UNL A   1      41.798  25.163  29.315  1.00  0.00    -0.248 NA
ATOM     35  C   UNL A   1      40.269  26.053  27.865  1.00  0.00     0.031 C 
ATOM     36  C   UNL A   1      41.442  29.510  31.512  1.00  0.00     0.029 A 
ATOM     37  N   UNL A   1      42.912  27.873  31.580  1.00  0.00    -0.354 N 
ATOM     38  C   UNL A   1      41.713  24.353  28.156  1.00  0.00     0.074 A 
ATOM     39  C   UNL A   1      40.664  24.886  27.354  1.00  0.00     0.031 C 
ATOM     40  C   UNL A   1      42.293  29.804  32.526  1.00  0.00     0.029 A 
ATOM     41  C   UNL A   1      43.287  28.756  32.637  1.00  0.00     0.049 A 
ATOM     42  H   UNL A   1      43.448  27.079  31.354  1.00  0.00     0.167 HD
ATOM     43  C   UNL A   1      42.633  23.386  27.873  1.00  0.00     0.037 A 
ATOM     44  C   UNL A   1      44.316  28.606  33.536  1.00  0.00     0.037 A 
ATOM     45  C   UNL A   1      43.580  23.319  28.935  1.00  0.00     0.049 A 
ATOM     46  C   UNL A   1      45.102  27.507  32.959  1.00  0.00     0.074 A 
ATOM     47  C   UNL A   1      43.428  22.903  30.233  1.00  0.00     0.029 A 
ATOM     48  N   UNL A   1      44.669  24.156  28.839  1.00  0.00    -0.354 N 
ATOM     49  N   UNL A   1      45.804  27.598  31.869  1.00  0.00    -0.248 NA
ATOM     50  C   UNL A   1      44.991  26.177  33.567  1.00  0.00     0.031 C 
ATOM     51  C   UNL A   1      44.074  23.925  30.949  1.00  0.00     0.029 A 
ATOM     52  C   UNL A   1      44.862  24.697  30.084  1.00  0.00     0.049 A 
ATOM     53  H   UNL A   1      45.206  24.331  28.033  1.00  0.00     0.167 HD
ATOM     54  C   UNL A   1      45.911  26.288  31.485  1.00  0.00     0.074 A 
ATOM     55  C   UNL A   1      45.702  25.488  32.678  1.00  0.00     0.031 C 
ATOM     56  C   UNL A   1      45.600  25.934  30.210  1.00  0.00     0.037 A 
BRANCH  43  57
ATOM     57  C   UNL A   1      42.958  22.609  26.633  1.00  0.00     0.058 A 
ATOM     58  C   UNL A   1      42.518  21.266  26.581  1.00  0.00     0.135 A 
ATOM     59  C   UNL A   1      43.968  22.975  25.732  1.00  0.00     0.135 A 
ATOM     60  F   UNL A   1      41.509  20.843  27.362  1.00  0.00    -0.206 F 
ATOM     61  C   UNL A   1      43.149  20.304  25.804  1.00  0.00     0.059 A 
ATOM     62  C   UNL A   1      44.588  22.030  24.907  1.00  0.00     0.059 A 
ATOM     63  F   UNL A   1      44.432  24.232  25.692  1.00  0.00    -0.206 F 
ATOM     64  C   UNL A   1      44.210  20.690  24.996  1.00  0.00     0.060 A 
BRANCH  64  65
ATOM     65  S   UNL A   1      45.101  19.397  24.105  1.00  0.00     0.124 S 
ATOM     66  O   UNL A   1      46.488  19.807  24.295  1.00  0.00    -0.237 OA
ATOM     67  O   UNL A   1      44.693  18.194  24.826  1.00  0.00    -0.237 OA
ATOM     68  O   UNL A   1      44.586  19.509  22.745  1.00  0.00    -0.744 OA
ENDBRANCH  64  65
ENDBRANCH  43  57
BRANCH  44  69
ATOM     69  C   UNL A   1      44.811  29.118  34.882  1.00  0.00     0.058 A 
ATOM     70  C   UNL A   1      44.252  28.856  36.138  1.00  0.00     0.135 A 
ATOM     71  C   UNL A   1      46.086  29.764  34.944  1.00  0.00     0.135 A 
ATOM     72  F   UNL A   1      43.001  28.388  36.244  1.00  0.00    -0.206 F 
ATOM     73  C   UNL A   1      44.977  29.044  37.338  1.00  0.00     0.059 A 
ATOM     74  C   UNL A   1      46.847  29.892  36.101  1.00  0.00     0.059 A 
ATOM     75  F   UNL A   1      46.681  30.258  33.849  1.00  0.00    -0.206 F 
ATOM     76  C   UNL A   1      46.302  29.490  37.301  1.00  0.00     0.060 A 
BRANCH  76  77
ATOM     77  S   UNL A   1      47.365  29.414  38.764  1.00  0.00     0.124 S 
ATOM     78  O   UNL A   1      46.625  30.224  39.725  1.00  0.00    -0.237 OA
ATOM     79  O   UNL A   1      47.416  27.982  39.040  1.00  0.00    -0.237 OA
ATOM     80  O   UNL A   1      48.624  29.991  38.297  1.00  0.00    -0.744 OA
ENDBRANCH  76  77
ENDBRANCH  44  69
BRANCH  56  81
ATOM     81  C   UNL A   1      45.755  27.022  29.151  1.00  0.00     0.058 A 
ATOM     82  C   UNL A   1      47.012  27.614  28.937  1.00  0.00     0.135 A 
ATOM     83  C   UNL A   1      44.708  27.545  28.369  1.00  0.00     0.135 A 
ATOM     84  F   UNL A   1      48.083  27.171  29.615  1.00  0.00    -0.206 F 
ATOM     85  C   UNL A   1      47.216  28.649  28.015  1.00  0.00     0.059 A 
ATOM     86  C   UNL A   1      44.880  28.581  27.439  1.00  0.00     0.059 A 
ATOM     87  F   UNL A   1      43.475  27.054  28.466  1.00  0.00    -0.206 F 
ATOM     88  C   UNL A   1      46.144  29.125  27.262  1.00  0.00     0.060 A 
BRANCH  88  89
ATOM     89  S   UNL A   1      46.437  30.413  26.026  1.00  0.00     0.124 S 
ATOM     90  O   UNL A   1      47.684  31.015  26.485  1.00  0.00    -0.237 OA
ATOM     91  O   UNL A   1      46.526  29.636  24.794  1.00  0.00    -0.237 OA
ATOM     92  O   UNL A   1      45.260  31.273  26.136  1.00  0.00    -0.744 OA
ENDBRANCH  88  89
ENDBRANCH  56  81
ENDBRANCH  30  31
ENDBRANCH  23  25
ENDBRANCH  22  23
ENDBRANCH  21  22
ENDBRANCH   1  21
TORSDOF 17
ENDMDL
MODEL 3
REMARK VINA RESULT:     -11.0      5.524     11.793
REMARK SMILES O=C(CC1CCN(S(=O)(=O)c2cc[nH]c2)CC1)OCCOC(=O)c1ccc(-c2c3nc(c(-c4c(F)cc(S(=O)(=O)[O-])cc4F)c4ccc([nH]4)c(-c4c(F)cc(S(=O)(=O)[O-])cc4F)c4nc(c(-c5c(F)cc(S(=O)(=O)[O-])cc5F)c5ccc2[nH]5)C=C4)C=C3)cc1
REMARK SMILES IDX 19 1 18 2 2 3 1 4 3 5 4 6 5 7 17 8 6 9 16 10 7 11 8 12 9 13
REMARK SMILES IDX 10 14 11 15 12 16 15 17 13 18 14 19 20 21 21 22 22 23 23 24
REMARK SMILES IDX 24 25 25 26 89 27 26 28 88 29 27 30 28 31 29 32 82 33 30 34
REMARK SMILES IDX 87 35 81 36 83 37 31 38 86 39 80 40 79 41 32 43 66 44 45 45
REMARK SMILES IDX 65 46 46 47 49 48 64 49 84 50 47 51 48 52 63 54 85 55 50 56
REMARK SMILES IDX 33 57 34 58 43 59 35 60 36 61 42 62 44 63 37 64 38 65 39 66
REMARK SMILES IDX 40 67 41 68 67 69 68 70 77 71 69 72 70 73 76 74 78 75 71 76
REMARK SMILES IDX 72 77 73 78 74 79 75 80 51 81 52 82 61 83 53 84 54 85 60 86
REMARK SMILES IDX 62 87 55 88 56 89 57 90 58 91 59 92
REMARK H PARENT 14 20 83 42 49 53
REMARK Flexibility Score: inf
ROOT
ATOM      1  C   UNL A   1      33.324  31.945  27.741  1.00  0.00     0.274 C 
ENDROOT
BRANCH   1   2
ATOM      2  O   UNL A   1      32.150  31.245  27.263  1.00  0.00    -0.462 OA
BRANCH   2   3
ATOM      3  C   UNL A   1      31.911  30.600  26.103  1.00  0.00     0.306 C 
ATOM      4  O   UNL A   1      30.946  30.941  25.414  1.00  0.00    -0.252 OA
BRANCH   3   5
ATOM      5  C   UNL A   1      32.784  29.463  25.606  1.00  0.00     0.126 C 
BRANCH   5   6
ATOM      6  C   UNL A   1      32.908  28.183  26.441  1.00  0.00     0.003 C 
ATOM      7  C   UNL A   1      33.917  27.165  25.893  1.00  0.00     0.021 C 
ATOM      8  C   UNL A   1      31.536  27.491  26.612  1.00  0.00     0.021 C 
ATOM      9  C   UNL A   1      33.420  26.497  24.630  1.00  0.00     0.103 C 
ATOM     10  C   UNL A   1      31.103  26.672  25.388  1.00  0.00     0.103 C 
ATOM     11  N   UNL A   1      32.198  25.749  24.983  1.00  0.00    -0.198 NA
BRANCH  11  12
ATOM     12  S   UNL A   1      31.809  24.572  23.818  1.00  0.00     0.244 S 
ATOM     13  O   UNL A   1      30.401  24.669  23.515  1.00  0.00    -0.207 OA
ATOM     14  O   UNL A   1      32.820  24.611  22.778  1.00  0.00    -0.207 OA
BRANCH  12  15
ATOM     15  C   UNL A   1      32.010  23.018  24.542  1.00  0.00     0.100 A 
ATOM     16  C   UNL A   1      33.065  22.113  24.268  1.00  0.00     0.041 A 
ATOM     17  C   UNL A   1      31.173  22.415  25.459  1.00  0.00     0.104 A 
ATOM     18  C   UNL A   1      32.825  20.976  25.005  1.00  0.00     0.083 A 
ATOM     19  N   UNL A   1      31.682  21.175  25.737  1.00  0.00    -0.366 N 
ATOM     20  H   UNL A   1      31.288  20.527  26.365  1.00  0.00     0.165 HD
ENDBRANCH  12  15
ENDBRANCH  11  12
ENDBRANCH   5   6
ENDBRANCH   3   5
ENDBRANCH   2   3
ENDBRANCH   1   2
BRANCH   1  21
ATOM     21  C   UNL A   1      33.263  33.442  27.568  1.00  0.00     0.275 C 
BRANCH  21  22
ATOM     22  O   UNL A   1      32.433  33.990  28.576  1.00  0.00    -0.458 OA
BRANCH  22  23
ATOM     23  C   UNL A   1      32.929  35.132  29.093  1.00  0.00     0.338 C 
ATOM     24  O   UNL A   1      32.627  36.275  28.807  1.00  0.00    -0.246 OA
BRANCH  23  25
ATOM     25  C   UNL A   1      34.049  34.799  29.958  1.00  0.00     0.060 A 
ATOM     26  C   UNL A   1      35.307  34.777  29.350  1.00  0.00     0.016 A 
ATOM     27  C   UNL A   1      33.768  34.173  31.179  1.00  0.00     0.016 A 
ATOM     28  C   UNL A   1      36.261  33.950  29.884  1.00  0.00     0.010 A 
ATOM     29  C   UNL A   1      34.694  33.297  31.673  1.00  0.00     0.010 A 
ATOM     30  C   UNL A   1      35.913  33.178  30.997  1.00  0.00    -0.014 A 
BRANCH  30  31
ATOM     31  C   UNL A   1      36.945  32.360  31.615  1.00  0.00     0.031 A 
ATOM     32  C   UNL A   1      37.153  31.095  30.735  1.00  0.00     0.074 A 
ATOM     33  C   UNL A   1      37.474  32.904  32.759  1.00  0.00     0.049 A 
ATOM     34  N   UNL A   1      37.759  29.988  31.008  1.00  0.00    -0.248 NA
ATOM     35  C   UNL A   1      36.566  31.020  29.352  1.00  0.00     0.031 C 
ATOM     36  C   UNL A   1      37.066  34.195  33.390  1.00  0.00     0.029 A 
ATOM     37  N   UNL A   1      38.459  32.507  33.631  1.00  0.00    -0.354 N 
ATOM     38  C   UNL A   1      37.889  29.257  29.802  1.00  0.00     0.074 A 
ATOM     39  C   UNL A   1      37.030  29.876  28.849  1.00  0.00     0.031 C 
ATOM     40  C   UNL A   1      37.705  34.394  34.569  1.00  0.00     0.029 A 
ATOM     41  C   UNL A   1      38.636  33.308  34.799  1.00  0.00     0.049 A 
ATOM     42  H   UNL A   1      39.013  31.712  33.459  1.00  0.00     0.167 HD
ATOM     43  C   UNL A   1      38.826  28.280  29.637  1.00  0.00     0.037 A 
ATOM     44  C   UNL A   1      39.464  33.066  35.870  1.00  0.00     0.037 A 
ATOM     45  C   UNL A   1      39.543  28.113  30.857  1.00  0.00     0.049 A 
ATOM     46  C   UNL A   1      40.325  31.980  35.383  1.00  0.00     0.074 A 
ATOM     47  C   UNL A   1      39.129  27.620  32.068  1.00  0.00     0.029 A 
ATOM     48  N   UNL A   1      40.646  28.916  31.035  1.00  0.00    -0.354 N 
ATOM     49  N   UNL A   1      41.231  32.117  34.461  1.00  0.00    -0.248 NA
ATOM     50  C   UNL A   1      40.069  30.618  35.863  1.00  0.00     0.031 C 
ATOM     51  C   UNL A   1      39.641  28.571  32.967  1.00  0.00     0.029 A 
ATOM     52  C   UNL A   1      40.601  29.370  32.328  1.00  0.00     0.049 A 
ATOM     53  H   UNL A   1      41.335  29.125  30.363  1.00  0.00     0.167 HD
ATOM     54  C   UNL A   1      41.384  30.831  34.015  1.00  0.00     0.074 A 
ATOM     55  C   UNL A   1      40.927  29.964  35.086  1.00  0.00     0.031 C 
ATOM     56  C   UNL A   1      41.324  30.570  32.682  1.00  0.00     0.037 A 
BRANCH  43  57
ATOM     57  C   UNL A   1      39.374  27.574  28.435  1.00  0.00     0.058 A 
ATOM     58  C   UNL A   1      39.560  26.175  28.538  1.00  0.00     0.135 A 
ATOM     59  C   UNL A   1      40.061  28.224  27.400  1.00  0.00     0.135 A 
ATOM     60  F   UNL A   1      38.891  25.460  29.459  1.00  0.00    -0.206 F 
ATOM     61  C   UNL A   1      40.494  25.489  27.774  1.00  0.00     0.059 A 
ATOM     62  C   UNL A   1      40.974  27.542  26.588  1.00  0.00     0.059 A 
ATOM     63  F   UNL A   1      39.927  29.544  27.208  1.00  0.00    -0.206 F 
ATOM     64  C   UNL A   1      41.224  26.190  26.825  1.00  0.00     0.060 A 
BRANCH  64  65
ATOM     65  S   UNL A   1      42.528  25.304  25.945  1.00  0.00     0.124 S 
ATOM     66  O   UNL A   1      41.965  23.961  25.854  1.00  0.00    -0.237 OA
ATOM     67  O   UNL A   1      42.605  26.043  24.688  1.00  0.00    -0.237 OA
ATOM     68  O   UNL A   1      43.685  25.450  26.821  1.00  0.00    -0.744 OA
ENDBRANCH  64  65
ENDBRANCH  43  57
BRANCH  44  69
ATOM     69  C   UNL A   1      39.693  33.473  37.319  1.00  0.00     0.058 A 
ATOM     70  C   UNL A   1      40.706  34.304  37.808  1.00  0.00     0.135 A 
ATOM     71  C   UNL A   1      38.680  33.173  38.284  1.00  0.00     0.135 A 
ATOM     72  F   UNL A   1      41.797  34.557  37.072  1.00  0.00    -0.206 F 
ATOM     73  C   UNL A   1      40.621  34.930  39.075  1.00  0.00     0.059 A 
ATOM     74  C   UNL A   1      38.535  33.829  39.502  1.00  0.00     0.059 A 
ATOM     75  F   UNL A   1      37.737  32.248  38.054  1.00  0.00    -0.206 F 
ATOM     76  C   UNL A   1      39.493  34.745  39.880  1.00  0.00     0.060 A 
BRANCH  76  77
ATOM     77  S   UNL A   1      39.188  35.783  41.331  1.00  0.00     0.124 S 
ATOM     78  O   UNL A   1      39.663  37.087  40.883  1.00  0.00    -0.237 OA
ATOM     79  O   UNL A   1      37.745  35.655  41.508  1.00  0.00    -0.237 OA
ATOM     80  O   UNL A   1      39.989  35.147  42.375  1.00  0.00    -0.744 OA
ENDBRANCH  76  77
ENDBRANCH  44  69
BRANCH  56  81
ATOM     81  C   UNL A   1      41.708  31.719  31.753  1.00  0.00     0.058 A 
ATOM     82  C   UNL A   1      43.005  32.257  31.806  1.00  0.00     0.135 A 
ATOM     83  C   UNL A   1      40.839  32.348  30.842  1.00  0.00     0.135 A 
ATOM     84  F   UNL A   1      43.921  31.713  32.625  1.00  0.00    -0.206 F 
ATOM     85  C   UNL A   1      43.411  33.340  31.016  1.00  0.00     0.059 A 
ATOM     86  C   UNL A   1      41.213  33.434  30.038  1.00  0.00     0.059 A 
ATOM     87  F   UNL A   1      39.589  31.916  30.685  1.00  0.00    -0.206 F 
ATOM     88  C   UNL A   1      42.510  33.922  30.126  1.00  0.00     0.060 A 
BRANCH  88  89
ATOM     89  S   UNL A   1      43.068  35.273  29.062  1.00  0.00     0.124 S 
ATOM     90  O   UNL A   1      43.923  34.586  28.100  1.00  0.00    -0.237 OA
ATOM     91  O   UNL A   1      41.808  35.785  28.535  1.00  0.00    -0.237 OA
ATOM     92  O   UNL A   1      43.769  36.170  29.979  1.00  0.00    -0.744 OA
ENDBRANCH  88  89
ENDBRANCH  56  81
ENDBRANCH  30  31
ENDBRANCH  23  25
ENDBRANCH  22  23
ENDBRANCH  21  22
ENDBRANCH   1  21
TORSDOF 17
ENDMDL
