MODEL 1
REMARK VINA RESULT:      -9.9      0.000      0.000
REMARK SMILES COC(=O)[C@H]1CC[C@]2(C)[C@H]3CC=C4[C@@H]5CC(C)(C)CC[C@@]5(C(=O)OCCOC(=O)c5ccc(-c6c7nc(c(-c8c(F)cc(S(=O)(=O)[O-])cc8F)c8ccc([nH]8)c(-c8c(F)cc(S(=O)(=O)[O-])cc8F)c8nc(c(-c9c(F)cc(S(=O)(=O)[O-])cc9F)c9ccc6[nH]9)C=C8)C=C7)cc5)CC[C@@]4(C)[C@@]3(C)CC[C@H]2C1(C)C
REMARK SMILES IDX 26 1 25 2 24 3 22 4 23 5 21 6 5 7 6 8 105 9 7 10 104 11
REMARK SMILES IDX 106 12 107 13 8 14 103 15 9 16 10 17 102 18 11 19 100 20
REMARK SMILES IDX 12 21 98 22 101 23 13 24 97 25 99 26 14 27 96 28 15 29 16 30
REMARK SMILES IDX 20 31 17 32 18 33 19 34 3 35 4 36 2 37 1 38 27 39 28 40
REMARK SMILES IDX 29 41 30 42 31 43 95 44 32 45 94 46 33 47 34 48 35 49 88 50
REMARK SMILES IDX 36 51 93 52 87 53 89 54 37 55 92 56 86 57 85 58 38 60 72 61
REMARK SMILES IDX 51 62 71 63 52 64 55 65 70 66 90 67 53 68 54 69 69 71 91 72
REMARK SMILES IDX 56 73 39 74 40 75 49 76 41 77 42 78 48 79 50 80 43 81 44 82
REMARK SMILES IDX 45 83 46 84 47 85 73 86 74 87 83 88 75 89 76 90 82 91 84 92
REMARK SMILES IDX 77 93 78 94 79 95 80 96 81 97 57 98 58 99 67 100 59 101
REMARK SMILES IDX 60 102 66 103 68 104 61 105 62 106 63 107 64 108 65 109
REMARK H PARENT 89 59 55 70
REMARK Flexibility Score: inf
ROOT
ATOM      1  C   UNL A   1      46.666  23.938  39.594  1.00  0.00     0.275 C 
ENDROOT
BRANCH   1   2
ATOM      2  C   UNL A   1      46.191  22.577  39.095  1.00  0.00     0.274 C 
BRANCH   2   3
ATOM      3  O   UNL A   1      45.787  22.531  37.710  1.00  0.00    -0.462 OA
BRANCH   3   4
ATOM      4  C   UNL A   1      46.384  21.627  36.889  1.00  0.00     0.312 C 
ATOM      5  O   UNL A   1      46.443  20.441  37.193  1.00  0.00    -0.252 OA
BRANCH   4   6
ATOM      6  C   UNL A   1      46.617  22.137  35.450  1.00  0.00     0.075 C 
ATOM      7  C   UNL A   1      49.255  28.550  31.382  1.00  0.00     0.105 C 
ATOM      8  C   UNL A   1      49.975  29.208  32.601  1.00  0.00     0.016 C 
ATOM      9  C   UNL A   1      48.577  27.132  31.555  1.00  0.00    -0.019 C 
ATOM     10  C   UNL A   1      50.452  28.280  33.744  1.00  0.00     0.008 C 
ATOM     11  C   UNL A   1      49.361  26.395  32.679  1.00  0.00     0.002 C 
ATOM     12  C   UNL A   1      47.036  27.085  31.768  1.00  0.00     0.012 C 
ATOM     13  C   UNL A   1      48.759  26.380  30.199  1.00  0.00     0.012 C 
ATOM     14  C   UNL A   1      49.422  27.153  34.055  1.00  0.00    -0.026 C 
ATOM     15  C   UNL A   1      49.031  24.926  32.815  1.00  0.00     0.005 C 
ATOM     16  C   UNL A   1      48.131  27.931  34.439  1.00  0.00     0.012 C 
ATOM     17  C   UNL A   1      49.926  26.248  35.313  1.00  0.00     0.006 C 
ATOM     18  C   UNL A   1      50.148  24.264  33.576  1.00  0.00     0.008 C 
ATOM     19  C   UNL A   1      49.029  26.436  36.595  1.00  0.00     0.032 C 
ATOM     20  C   UNL A   1      50.215  24.665  35.063  1.00  0.00    -0.020 C 
ATOM     21  C   UNL A   1      47.764  25.619  36.474  1.00  0.00    -0.027 C 
ATOM     22  C   UNL A   1      49.237  23.724  35.957  1.00  0.00    -0.006 C 
ATOM     23  C   UNL A   1      51.709  24.414  35.446  1.00  0.00     0.012 C 
ATOM     24  C   UNL A   1      47.827  24.362  35.987  1.00  0.00    -0.063 C 
ATOM     25  C   UNL A   1      49.200  22.207  35.569  1.00  0.00     0.013 C 
ATOM     26  C   UNL A   1      49.807  23.653  37.421  1.00  0.00     0.017 C 
ATOM     27  C   UNL A   1      46.632  23.665  35.300  1.00  0.00     0.033 C 
ATOM     28  C   UNL A   1      47.973  21.644  34.871  1.00  0.00     0.020 C 
ATOM     29  C   UNL A   1      45.231  24.328  35.380  1.00  0.00     0.015 C 
ATOM     30  C   UNL A   1      44.152  23.638  34.498  1.00  0.00    -0.035 C 
ATOM     31  C   UNL A   1      45.528  21.481  34.560  1.00  0.00     0.020 C 
ATOM     32  C   UNL A   1      42.760  24.169  34.886  1.00  0.00     0.011 C 
ATOM     33  C   UNL A   1      44.382  23.975  33.007  1.00  0.00     0.011 C 
ATOM     34  C   UNL A   1      44.150  22.111  34.701  1.00  0.00     0.007 C 
BRANCH   7  35
ATOM     35  C   UNL A   1      48.299  29.512  30.692  1.00  0.00     0.309 C 
ATOM     36  O   UNL A   1      47.553  30.279  31.287  1.00  0.00    -0.252 OA
BRANCH  35  37
ATOM     37  O   UNL A   1      48.496  29.522  29.344  1.00  0.00    -0.469 OA
ATOM     38  C   UNL A   1      47.308  29.743  28.589  1.00  0.00     0.282 C 
ENDBRANCH  35  37
ENDBRANCH   7  35
ENDBRANCH   4   6
ENDBRANCH   3   4
ENDBRANCH   2   3
ENDBRANCH   1   2
BRANCH   1  39
ATOM     39  O   UNL A   1      45.621  24.886  39.367  1.00  0.00    -0.458 OA
BRANCH  39  40
ATOM     40  C   UNL A   1      45.953  26.197  39.460  1.00  0.00     0.338 C 
ATOM     41  O   UNL A   1      46.714  26.698  40.262  1.00  0.00    -0.246 OA
BRANCH  40  42
ATOM     42  C   UNL A   1      45.110  26.930  38.479  1.00  0.00     0.060 A 
ATOM     43  C   UNL A   1      45.590  28.102  37.892  1.00  0.00     0.016 A 
ATOM     44  C   UNL A   1      43.870  26.425  38.089  1.00  0.00     0.016 A 
ATOM     45  C   UNL A   1      44.919  28.697  36.828  1.00  0.00     0.010 A 
ATOM     46  C   UNL A   1      43.161  27.055  37.055  1.00  0.00     0.010 A 
ATOM     47  C   UNL A   1      43.700  28.175  36.399  1.00  0.00    -0.014 A 
BRANCH  47  48
ATOM     48  C   UNL A   1      42.911  28.957  35.424  1.00  0.00     0.031 A 
ATOM     49  C   UNL A   1      42.266  30.210  35.927  1.00  0.00     0.074 A 
ATOM     50  C   UNL A   1      42.841  28.637  34.118  1.00  0.00     0.049 A 
ATOM     51  N   UNL A   1      41.359  30.956  35.361  1.00  0.00    -0.248 NA
ATOM     52  C   UNL A   1      42.710  30.688  37.249  1.00  0.00     0.031 C 
ATOM     53  C   UNL A   1      43.577  27.554  33.473  1.00  0.00     0.029 A 
ATOM     54  N   UNL A   1      42.135  29.214  33.090  1.00  0.00    -0.354 N 
ATOM     55  C   UNL A   1      41.070  31.945  36.289  1.00  0.00     0.074 A 
ATOM     56  C   UNL A   1      41.945  31.752  37.421  1.00  0.00     0.031 C 
ATOM     57  C   UNL A   1      43.308  27.563  32.153  1.00  0.00     0.029 A 
ATOM     58  C   UNL A   1      42.301  28.585  31.877  1.00  0.00     0.049 A 
ATOM     59  H   UNL A   1      41.562  30.005  33.211  1.00  0.00     0.167 HD
ATOM     60  C   UNL A   1      40.110  32.893  36.220  1.00  0.00     0.037 A 
ATOM     61  C   UNL A   1      41.663  28.782  30.703  1.00  0.00     0.037 A 
ATOM     62  C   UNL A   1      39.238  33.046  35.091  1.00  0.00     0.049 A 
ATOM     63  C   UNL A   1      40.532  29.788  30.670  1.00  0.00     0.074 A 
ATOM     64  C   UNL A   1      38.144  33.876  34.950  1.00  0.00     0.029 A 
ATOM     65  N   UNL A   1      39.374  32.345  33.901  1.00  0.00    -0.354 N 
ATOM     66  N   UNL A   1      40.137  30.618  31.608  1.00  0.00    -0.248 NA
ATOM     67  C   UNL A   1      39.720  29.841  29.445  1.00  0.00     0.031 C 
ATOM     68  C   UNL A   1      37.595  33.651  33.681  1.00  0.00     0.029 A 
ATOM     69  C   UNL A   1      38.379  32.717  33.019  1.00  0.00     0.049 A 
ATOM     70  H   UNL A   1      40.076  31.680  33.714  1.00  0.00     0.167 HD
ATOM     71  C   UNL A   1      39.028  31.282  31.091  1.00  0.00     0.074 A 
ATOM     72  C   UNL A   1      38.837  30.784  29.745  1.00  0.00     0.031 C 
ATOM     73  C   UNL A   1      38.227  32.206  31.679  1.00  0.00     0.037 A 
BRANCH  60  74
ATOM     74  C   UNL A   1      39.886  33.706  37.456  1.00  0.00     0.058 A 
ATOM     75  C   UNL A   1      39.018  33.297  38.478  1.00  0.00     0.135 A 
ATOM     76  C   UNL A   1      40.498  34.965  37.575  1.00  0.00     0.135 A 
ATOM     77  F   UNL A   1      38.370  32.125  38.387  1.00  0.00    -0.206 F 
ATOM     78  C   UNL A   1      38.743  34.121  39.566  1.00  0.00     0.059 A 
ATOM     79  C   UNL A   1      40.257  35.794  38.663  1.00  0.00     0.059 A 
ATOM     80  F   UNL A   1      41.316  35.413  36.609  1.00  0.00    -0.206 F 
ATOM     81  C   UNL A   1      39.363  35.370  39.645  1.00  0.00     0.060 A 
BRANCH  81  82
ATOM     82  S   UNL A   1      38.981  36.441  41.046  1.00  0.00     0.124 S 
ATOM     83  O   UNL A   1      40.257  36.457  41.756  1.00  0.00    -0.237 OA
ATOM     84  O   UNL A   1      38.605  37.690  40.391  1.00  0.00    -0.237 OA
ATOM     85  O   UNL A   1      37.894  35.740  41.723  1.00  0.00    -0.744 OA
ENDBRANCH  81  82
ENDBRANCH  60  74
BRANCH  61  86
ATOM     86  C   UNL A   1      41.979  27.962  29.494  1.00  0.00     0.058 A 
ATOM     87  C   UNL A   1      43.104  28.238  28.698  1.00  0.00     0.135 A 
ATOM     88  C   UNL A   1      41.137  26.920  29.072  1.00  0.00     0.135 A 
ATOM     89  F   UNL A   1      43.933  29.239  29.035  1.00  0.00    -0.206 F 
ATOM     90  C   UNL A   1      43.374  27.525  27.531  1.00  0.00     0.059 A 
ATOM     91  C   UNL A   1      41.402  26.172  27.927  1.00  0.00     0.059 A 
ATOM     92  F   UNL A   1      40.039  26.612  29.779  1.00  0.00    -0.206 F 
ATOM     93  C   UNL A   1      42.517  26.490  27.154  1.00  0.00     0.060 A 
BRANCH  93  94
ATOM     94  S   UNL A   1      42.889  25.542  25.661  1.00  0.00     0.124 S 
ATOM     95  O   UNL A   1      42.437  26.450  24.614  1.00  0.00    -0.237 OA
ATOM     96  O   UNL A   1      44.333  25.355  25.766  1.00  0.00    -0.237 OA
ATOM     97  O   UNL A   1      42.096  24.327  25.831  1.00  0.00    -0.744 OA
ENDBRANCH  93  94
ENDBRANCH  61  86
BRANCH  73  98
ATOM     98  C   UNL A   1      37.084  32.752  30.873  1.00  0.00     0.058 A 
ATOM     99  C   UNL A   1      35.777  32.269  31.034  1.00  0.00     0.135 A 
ATOM    100  C   UNL A   1      37.285  33.840  30.009  1.00  0.00     0.135 A 
ATOM    101  F   UNL A   1      35.537  31.227  31.847  1.00  0.00    -0.206 F 
ATOM    102  C   UNL A   1      34.705  32.844  30.361  1.00  0.00     0.059 A 
ATOM    103  C   UNL A   1      36.224  34.446  29.344  1.00  0.00     0.059 A 
ATOM    104  F   UNL A   1      38.515  34.345  29.832  1.00  0.00    -0.206 F 
ATOM    105  C   UNL A   1      34.939  33.938  29.523  1.00  0.00     0.060 A 
BRANCH 105 106
ATOM    106  S   UNL A   1      33.530  34.719  28.709  1.00  0.00     0.124 S 
ATOM    107  O   UNL A   1      33.120  33.681  27.771  1.00  0.00    -0.237 OA
ATOM    108  O   UNL A   1      32.620  34.964  29.823  1.00  0.00    -0.237 OA
ATOM    109  O   UNL A   1      34.109  35.918  28.107  1.00  0.00    -0.744 OA
ENDBRANCH 105 106
ENDBRANCH  73  98
ENDBRANCH  47  48
ENDBRANCH  40  42
ENDBRANCH  39  40
ENDBRANCH   1  39
TORSDOF 16
ENDMDL
MODEL 2
REMARK VINA RESULT:      -9.8      6.246     14.235
REMARK SMILES COC(=O)[C@H]1CC[C@]2(C)[C@H]3CC=C4[C@@H]5CC(C)(C)CC[C@@]5(C(=O)OCCOC(=O)c5ccc(-c6c7nc(c(-c8c(F)cc(S(=O)(=O)[O-])cc8F)c8ccc([nH]8)c(-c8c(F)cc(S(=O)(=O)[O-])cc8F)c8nc(c(-c9c(F)cc(S(=O)(=O)[O-])cc9F)c9ccc6[nH]9)C=C8)C=C7)cc5)CC[C@@]4(C)[C@@]3(C)CC[C@H]2C1(C)C
REMARK SMILES IDX 26 1 25 2 24 3 22 4 23 5 21 6 5 7 6 8 105 9 7 10 104 11
REMARK SMILES IDX 106 12 107 13 8 14 103 15 9 16 10 17 102 18 11 19 100 20
REMARK SMILES IDX 12 21 98 22 101 23 13 24 97 25 99 26 14 27 96 28 15 29 16 30
REMARK SMILES IDX 20 31 17 32 18 33 19 34 3 35 4 36 2 37 1 38 27 39 28 40
REMARK SMILES IDX 29 41 30 42 31 43 95 44 32 45 94 46 33 47 34 48 35 49 88 50
REMARK SMILES IDX 36 51 93 52 87 53 89 54 37 55 92 56 86 57 85 58 38 60 72 61
REMARK SMILES IDX 51 62 71 63 52 64 55 65 70 66 90 67 53 68 54 69 69 71 91 72
REMARK SMILES IDX 56 73 39 74 40 75 49 76 41 77 42 78 48 79 50 80 43 81 44 82
REMARK SMILES IDX 45 83 46 84 47 85 73 86 74 87 83 88 75 89 76 90 82 91 84 92
REMARK SMILES IDX 77 93 78 94 79 95 80 96 81 97 57 98 58 99 67 100 59 101
REMARK SMILES IDX 60 102 66 103 68 104 61 105 62 106 63 107 64 108 65 109
REMARK H PARENT 89 59 55 70
REMARK Flexibility Score: inf
ROOT
ATOM      1  C   UNL A   1      47.389  39.021  25.741  1.00  0.00     0.275 C 
ENDROOT
BRANCH   1   2
ATOM      2  C   UNL A   1      46.123  39.870  25.803  1.00  0.00     0.274 C 
BRANCH   2   3
ATOM      3  O   UNL A   1      44.931  39.176  26.226  1.00  0.00    -0.462 OA
BRANCH   3   4
ATOM      4  C   UNL A   1      43.883  39.908  26.690  1.00  0.00     0.312 C 
ATOM      5  O   UNL A   1      43.363  40.775  25.998  1.00  0.00    -0.252 OA
BRANCH   4   6
ATOM      6  C   UNL A   1      43.202  39.315  27.942  1.00  0.00     0.075 C 
ATOM      7  C   UNL A   1      44.895  36.021  35.078  1.00  0.00     0.105 C 
ATOM      8  C   UNL A   1      46.373  36.520  35.121  1.00  0.00     0.016 C 
ATOM      9  C   UNL A   1      43.965  36.454  33.875  1.00  0.00    -0.019 C 
ATOM     10  C   UNL A   1      46.728  37.793  34.315  1.00  0.00     0.008 C 
ATOM     11  C   UNL A   1      44.496  37.825  33.369  1.00  0.00     0.002 C 
ATOM     12  C   UNL A   1      43.747  35.430  32.722  1.00  0.00     0.012 C 
ATOM     13  C   UNL A   1      42.526  36.623  34.459  1.00  0.00     0.012 C 
ATOM     14  C   UNL A   1      46.007  37.835  32.934  1.00  0.00    -0.026 C 
ATOM     15  C   UNL A   1      43.584  38.530  32.391  1.00  0.00     0.005 C 
ATOM     16  C   UNL A   1      46.499  36.542  32.224  1.00  0.00     0.012 C 
ATOM     17  C   UNL A   1      46.467  39.149  32.088  1.00  0.00     0.006 C 
ATOM     18  C   UNL A   1      43.971  39.984  32.355  1.00  0.00     0.008 C 
ATOM     19  C   UNL A   1      47.331  38.783  30.821  1.00  0.00     0.032 C 
ATOM     20  C   UNL A   1      45.336  40.251  31.692  1.00  0.00    -0.020 C 
ATOM     21  C   UNL A   1      46.437  38.331  29.690  1.00  0.00    -0.027 C 
ATOM     22  C   UNL A   1      45.174  40.399  30.081  1.00  0.00    -0.006 C 
ATOM     23  C   UNL A   1      45.791  41.608  32.319  1.00  0.00     0.012 C 
ATOM     24  C   UNL A   1      45.290  38.994  29.440  1.00  0.00    -0.063 C 
ATOM     25  C   UNL A   1      43.911  41.181  29.586  1.00  0.00     0.013 C 
ATOM     26  C   UNL A   1      46.334  41.314  29.541  1.00  0.00     0.017 C 
ATOM     27  C   UNL A   1      44.072  38.341  28.751  1.00  0.00     0.033 C 
ATOM     28  C   UNL A   1      42.764  40.419  28.945  1.00  0.00     0.020 C 
ATOM     29  C   UNL A   1      44.242  36.943  28.098  1.00  0.00     0.015 C 
ATOM     30  C   UNL A   1      42.910  36.308  27.605  1.00  0.00    -0.035 C 
ATOM     31  C   UNL A   1      41.885  38.649  27.463  1.00  0.00     0.020 C 
ATOM     32  C   UNL A   1      43.225  35.095  26.711  1.00  0.00     0.011 C 
ATOM     33  C   UNL A   1      42.080  35.802  28.805  1.00  0.00     0.011 C 
ATOM     34  C   UNL A   1      42.084  37.307  26.773  1.00  0.00     0.007 C 
BRANCH   7  35
ATOM     35  C   UNL A   1      44.788  34.521  35.316  1.00  0.00     0.309 C 
ATOM     36  O   UNL A   1      43.837  33.984  35.870  1.00  0.00    -0.252 OA
BRANCH  35  37
ATOM     37  O   UNL A   1      45.798  33.850  34.698  1.00  0.00    -0.469 OA
ATOM     38  C   UNL A   1      45.469  32.508  34.346  1.00  0.00     0.282 C 
ENDBRANCH  35  37
ENDBRANCH   7  35
ENDBRANCH   4   6
ENDBRANCH   3   4
ENDBRANCH   2   3
ENDBRANCH   1   2
BRANCH   1  39
ATOM     39  O   UNL A   1      47.069  37.709  26.209  1.00  0.00    -0.458 OA
BRANCH  39  40
ATOM     40  C   UNL A   1      48.036  37.049  26.892  1.00  0.00     0.338 C 
ATOM     41  O   UNL A   1      49.153  37.454  27.141  1.00  0.00    -0.246 OA
BRANCH  40  42
ATOM     42  C   UNL A   1      47.520  35.683  27.167  1.00  0.00     0.060 A 
ATOM     43  C   UNL A   1      46.988  34.919  26.127  1.00  0.00     0.016 A 
ATOM     44  C   UNL A   1      47.622  35.127  28.443  1.00  0.00     0.016 A 
ATOM     45  C   UNL A   1      46.687  33.573  26.307  1.00  0.00     0.010 A 
ATOM     46  C   UNL A   1      47.265  33.786  28.644  1.00  0.00     0.010 A 
ATOM     47  C   UNL A   1      46.827  32.995  27.568  1.00  0.00    -0.014 A 
BRANCH  47  48
ATOM     48  C   UNL A   1      46.289  31.633  27.774  1.00  0.00     0.031 A 
ATOM     49  C   UNL A   1      47.217  30.493  27.498  1.00  0.00     0.074 A 
ATOM     50  C   UNL A   1      45.063  31.401  28.281  1.00  0.00     0.049 A 
ATOM     51  N   UNL A   1      46.951  29.221  27.386  1.00  0.00    -0.248 NA
ATOM     52  C   UNL A   1      48.641  30.834  27.328  1.00  0.00     0.031 C 
ATOM     53  C   UNL A   1      44.142  32.425  28.765  1.00  0.00     0.029 A 
ATOM     54  N   UNL A   1      44.392  30.223  28.498  1.00  0.00    -0.354 N 
ATOM     55  C   UNL A   1      48.159  28.624  27.059  1.00  0.00     0.074 A 
ATOM     56  C   UNL A   1      49.171  29.654  27.061  1.00  0.00     0.031 C 
ATOM     57  C   UNL A   1      43.037  31.829  29.252  1.00  0.00     0.029 A 
ATOM     58  C   UNL A   1      43.128  30.389  29.018  1.00  0.00     0.049 A 
ATOM     59  H   UNL A   1      44.779  29.341  28.300  1.00  0.00     0.167 HD
ATOM     60  C   UNL A   1      48.384  27.334  26.724  1.00  0.00     0.037 A 
ATOM     61  C   UNL A   1      42.147  29.483  29.220  1.00  0.00     0.037 A 
ATOM     62  C   UNL A   1      47.353  26.337  26.707  1.00  0.00     0.049 A 
ATOM     63  C   UNL A   1      42.388  28.061  28.758  1.00  0.00     0.074 A 
ATOM     64  C   UNL A   1      47.420  25.032  26.262  1.00  0.00     0.029 A 
ATOM     65  N   UNL A   1      46.059  26.546  27.164  1.00  0.00    -0.354 N 
ATOM     66  N   UNL A   1      43.487  27.522  28.283  1.00  0.00    -0.248 NA
ATOM     67  C   UNL A   1      41.241  27.141  28.798  1.00  0.00     0.031 C 
ATOM     68  C   UNL A   1      46.152  24.459  26.420  1.00  0.00     0.029 A 
ATOM     69  C   UNL A   1      45.313  25.394  27.008  1.00  0.00     0.049 A 
ATOM     70  H   UNL A   1      45.724  27.391  27.543  1.00  0.00     0.167 HD
ATOM     71  C   UNL A   1      43.162  26.207  27.962  1.00  0.00     0.074 A 
ATOM     72  C   UNL A   1      41.773  26.022  28.328  1.00  0.00     0.031 C 
ATOM     73  C   UNL A   1      43.933  25.244  27.396  1.00  0.00     0.037 A 
BRANCH  60  74
ATOM     74  C   UNL A   1      49.754  27.006  26.218  1.00  0.00     0.058 A 
ATOM     75  C   UNL A   1      50.113  27.154  24.871  1.00  0.00     0.135 A 
ATOM     76  C   UNL A   1      50.700  26.452  27.097  1.00  0.00     0.135 A 
ATOM     77  F   UNL A   1      49.227  27.630  23.983  1.00  0.00    -0.206 F 
ATOM     78  C   UNL A   1      51.358  26.738  24.406  1.00  0.00     0.059 A 
ATOM     79  C   UNL A   1      51.957  26.054  26.659  1.00  0.00     0.059 A 
ATOM     80  F   UNL A   1      50.393  26.266  28.390  1.00  0.00    -0.206 F 
ATOM     81  C   UNL A   1      52.269  26.184  25.307  1.00  0.00     0.060 A 
BRANCH  81  82
ATOM     82  S   UNL A   1      53.870  25.627  24.689  1.00  0.00     0.124 S 
ATOM     83  O   UNL A   1      54.788  26.376  25.542  1.00  0.00    -0.237 OA
ATOM     84  O   UNL A   1      53.814  24.188  24.929  1.00  0.00    -0.237 OA
ATOM     85  O   UNL A   1      53.850  26.026  23.285  1.00  0.00    -0.744 OA
ENDBRANCH  81  82
ENDBRANCH  60  74
BRANCH  61  86
ATOM     86  C   UNL A   1      40.818  29.880  29.779  1.00  0.00     0.058 A 
ATOM     87  C   UNL A   1      40.641  30.097  31.156  1.00  0.00     0.135 A 
ATOM     88  C   UNL A   1      39.682  29.997  28.961  1.00  0.00     0.135 A 
ATOM     89  F   UNL A   1      41.685  29.974  31.992  1.00  0.00    -0.206 F 
ATOM     90  C   UNL A   1      39.395  30.402  31.700  1.00  0.00     0.059 A 
ATOM     91  C   UNL A   1      38.432  30.332  29.476  1.00  0.00     0.059 A 
ATOM     92  F   UNL A   1      39.779  29.790  27.639  1.00  0.00    -0.206 F 
ATOM     93  C   UNL A   1      38.294  30.519  30.850  1.00  0.00     0.060 A 
BRANCH  93  94
ATOM     94  S   UNL A   1      36.685  30.952  31.552  1.00  0.00     0.124 S 
ATOM     95  O   UNL A   1      37.010  32.149  32.318  1.00  0.00    -0.237 OA
ATOM     96  O   UNL A   1      35.872  31.158  30.357  1.00  0.00    -0.237 OA
ATOM     97  O   UNL A   1      36.337  29.772  32.339  1.00  0.00    -0.744 OA
ENDBRANCH  93  94
ENDBRANCH  61  86
BRANCH  73  98
ATOM     98  C   UNL A   1      43.305  23.902  27.153  1.00  0.00     0.058 A 
ATOM     99  C   UNL A   1      42.956  23.478  25.862  1.00  0.00     0.135 A 
ATOM    100  C   UNL A   1      43.150  22.993  28.212  1.00  0.00     0.135 A 
ATOM    101  F   UNL A   1      43.084  24.314  24.819  1.00  0.00    -0.206 F 
ATOM    102  C   UNL A   1      42.469  22.198  25.628  1.00  0.00     0.059 A 
ATOM    103  C   UNL A   1      42.686  21.700  27.997  1.00  0.00     0.059 A 
ATOM    104  F   UNL A   1      43.481  23.348  29.462  1.00  0.00    -0.206 F 
ATOM    105  C   UNL A   1      42.345  21.312  26.702  1.00  0.00     0.060 A 
BRANCH 105 106
ATOM    106  S   UNL A   1      41.776  19.631  26.375  1.00  0.00     0.124 S 
ATOM    107  O   UNL A   1      42.474  19.321  25.133  1.00  0.00    -0.237 OA
ATOM    108  O   UNL A   1      42.235  18.909  27.558  1.00  0.00    -0.237 OA
ATOM    109  O   UNL A   1      40.327  19.778  26.263  1.00  0.00    -0.744 OA
ENDBRANCH 105 106
ENDBRANCH  73  98
ENDBRANCH  47  48
ENDBRANCH  40  42
ENDBRANCH  39  40
ENDBRANCH   1  39
TORSDOF 16
ENDMDL
MODEL 3
REMARK VINA RESULT:      -9.6      6.084     13.831
REMARK SMILES COC(=O)[C@H]1CC[C@]2(C)[C@H]3CC=C4[C@@H]5CC(C)(C)CC[C@@]5(C(=O)OCCOC(=O)c5ccc(-c6c7nc(c(-c8c(F)cc(S(=O)(=O)[O-])cc8F)c8ccc([nH]8)c(-c8c(F)cc(S(=O)(=O)[O-])cc8F)c8nc(c(-c9c(F)cc(S(=O)(=O)[O-])cc9F)c9ccc6[nH]9)C=C8)C=C7)cc5)CC[C@@]4(C)[C@@]3(C)CC[C@H]2C1(C)C
REMARK SMILES IDX 26 1 25 2 24 3 22 4 23 5 21 6 5 7 6 8 105 9 7 10 104 11
REMARK SMILES IDX 106 12 107 13 8 14 103 15 9 16 10 17 102 18 11 19 100 20
REMARK SMILES IDX 12 21 98 22 101 23 13 24 97 25 99 26 14 27 96 28 15 29 16 30
REMARK SMILES IDX 20 31 17 32 18 33 19 34 3 35 4 36 2 37 1 38 27 39 28 40
REMARK SMILES IDX 29 41 30 42 31 43 95 44 32 45 94 46 33 47 34 48 35 49 88 50
REMARK SMILES IDX 36 51 93 52 87 53 89 54 37 55 92 56 86 57 85 58 38 60 72 61
REMARK SMILES IDX 51 62 71 63 52 64 55 65 70 66 90 67 53 68 54 69 69 71 91 72
REMARK SMILES IDX 56 73 39 74 40 75 49 76 41 77 42 78 48 79 50 80 43 81 44 82
REMARK SMILES IDX 45 83 46 84 47 85 73 86 74 87 83 88 75 89 76 90 82 91 84 92
REMARK SMILES IDX 77 93 78 94 79 95 80 96 81 97 57 98 58 99 67 100 59 101
REMARK SMILES IDX 60 102 66 103 68 104 61 105 62 106 63 107 64 108 65 109
REMARK H PARENT 89 59 55 70
REMARK Flexibility Score: inf
ROOT
ATOM      1  C   UNL A   1      48.289  39.083  27.727  1.00  0.00     0.275 C 
ENDROOT
BRANCH   1   2
ATOM      2  C   UNL A   1      46.960  39.772  27.432  1.00  0.00     0.274 C 
BRANCH   2   3
ATOM      3  O   UNL A   1      45.786  38.949  27.594  1.00  0.00    -0.462 OA
BRANCH   3   4
ATOM      4  C   UNL A   1      44.578  39.559  27.729  1.00  0.00     0.312 C 
ATOM      5  O   UNL A   1      44.204  40.404  26.924  1.00  0.00    -0.252 OA
BRANCH   4   6
ATOM      6  C   UNL A   1      43.617  38.849  28.706  1.00  0.00     0.075 C 
ATOM      7  C   UNL A   1      43.567  33.679  34.863  1.00  0.00     0.105 C 
ATOM      8  C   UNL A   1      45.088  33.822  35.184  1.00  0.00     0.016 C 
ATOM      9  C   UNL A   1      42.927  34.575  33.728  1.00  0.00    -0.019 C 
ATOM     10  C   UNL A   1      45.790  35.141  34.780  1.00  0.00     0.008 C 
ATOM     11  C   UNL A   1      43.773  35.878  33.655  1.00  0.00     0.002 C 
ATOM     12  C   UNL A   1      42.703  33.925  32.331  1.00  0.00     0.012 C 
ATOM     13  C   UNL A   1      41.472  34.909  34.188  1.00  0.00     0.012 C 
ATOM     14  C   UNL A   1      45.308  35.662  33.393  1.00  0.00    -0.026 C 
ATOM     15  C   UNL A   1      43.165  36.974  32.809  1.00  0.00     0.005 C 
ATOM     16  C   UNL A   1      45.655  34.498  32.422  1.00  0.00     0.012 C 
ATOM     17  C   UNL A   1      46.125  37.007  32.971  1.00  0.00     0.006 C 
ATOM     18  C   UNL A   1      43.814  38.277  33.194  1.00  0.00     0.008 C 
ATOM     19  C   UNL A   1      47.090  36.773  31.746  1.00  0.00     0.032 C 
ATOM     20  C   UNL A   1      45.291  38.390  32.766  1.00  0.00    -0.020 C 
ATOM     21  C   UNL A   1      46.311  36.804  30.453  1.00  0.00    -0.027 C 
ATOM     22  C   UNL A   1      45.406  38.945  31.242  1.00  0.00    -0.006 C 
ATOM     23  C   UNL A   1      45.886  39.430  33.768  1.00  0.00     0.012 C 
ATOM     24  C   UNL A   1      45.357  37.740  30.271  1.00  0.00    -0.063 C 
ATOM     25  C   UNL A   1      44.398  40.076  30.845  1.00  0.00     0.013 C 
ATOM     26  C   UNL A   1      46.783  39.688  31.080  1.00  0.00     0.017 C 
ATOM     27  C   UNL A   1      44.159  37.547  29.315  1.00  0.00     0.033 C 
ATOM     28  C   UNL A   1      43.242  39.754  29.913  1.00  0.00     0.020 C 
ATOM     29  C   UNL A   1      44.166  36.341  28.340  1.00  0.00     0.015 C 
ATOM     30  C   UNL A   1      42.831  36.144  27.566  1.00  0.00    -0.035 C 
ATOM     31  C   UNL A   1      42.288  38.617  27.939  1.00  0.00     0.020 C 
ATOM     32  C   UNL A   1      43.049  35.137  26.421  1.00  0.00     0.011 C 
ATOM     33  C   UNL A   1      41.749  35.561  28.502  1.00  0.00     0.011 C 
ATOM     34  C   UNL A   1      42.340  37.465  26.946  1.00  0.00     0.007 C 
BRANCH   7  35
ATOM     35  C   UNL A   1      43.151  32.226  34.688  1.00  0.00     0.309 C 
ATOM     36  O   UNL A   1      43.722  31.437  33.947  1.00  0.00    -0.252 OA
BRANCH  35  37
ATOM     37  O   UNL A   1      42.175  31.882  35.574  1.00  0.00    -0.469 OA
ATOM     38  C   UNL A   1      40.981  31.406  34.959  1.00  0.00     0.282 C 
ENDBRANCH  35  37
ENDBRANCH   7  35
ENDBRANCH   4   6
ENDBRANCH   3   4
ENDBRANCH   2   3
ENDBRANCH   1   2
BRANCH   1  39
ATOM     39  O   UNL A   1      48.058  37.674  27.784  1.00  0.00    -0.458 OA
BRANCH  39  40
ATOM     40  C   UNL A   1      48.515  36.935  26.744  1.00  0.00     0.338 C 
ATOM     41  O   UNL A   1      49.158  37.336  25.796  1.00  0.00    -0.246 OA
BRANCH  40  42
ATOM     42  C   UNL A   1      47.969  35.563  26.911  1.00  0.00     0.060 A 
ATOM     43  C   UNL A   1      48.171  34.877  28.110  1.00  0.00     0.016 A 
ATOM     44  C   UNL A   1      47.200  34.976  25.907  1.00  0.00     0.016 A 
ATOM     45  C   UNL A   1      47.506  33.684  28.374  1.00  0.00     0.010 A 
ATOM     46  C   UNL A   1      46.573  33.743  26.146  1.00  0.00     0.010 A 
ATOM     47  C   UNL A   1      46.699  33.109  27.394  1.00  0.00    -0.014 A 
BRANCH  47  48
ATOM     48  C   UNL A   1      46.191  31.740  27.623  1.00  0.00     0.031 A 
ATOM     49  C   UNL A   1      47.126  30.614  27.316  1.00  0.00     0.074 A 
ATOM     50  C   UNL A   1      44.989  31.491  28.176  1.00  0.00     0.049 A 
ATOM     51  N   UNL A   1      46.877  29.338  27.218  1.00  0.00    -0.248 NA
ATOM     52  C   UNL A   1      48.537  30.977  27.093  1.00  0.00     0.031 C 
ATOM     53  C   UNL A   1      44.070  32.501  28.691  1.00  0.00     0.029 A 
ATOM     54  N   UNL A   1      44.344  30.303  28.421  1.00  0.00    -0.354 N 
ATOM     55  C   UNL A   1      48.081  28.758  26.848  1.00  0.00     0.074 A 
ATOM     56  C   UNL A   1      49.076  29.804  26.810  1.00  0.00     0.031 C 
ATOM     57  C   UNL A   1      42.993  31.889  29.220  1.00  0.00     0.029 A 
ATOM     58  C   UNL A   1      43.098  30.450  28.988  1.00  0.00     0.049 A 
ATOM     59  H   UNL A   1      44.738  29.426  28.211  1.00  0.00     0.167 HD
ATOM     60  C   UNL A   1      48.314  27.472  26.508  1.00  0.00     0.037 A 
ATOM     61  C   UNL A   1      42.140  29.529  29.228  1.00  0.00     0.037 A 
ATOM     62  C   UNL A   1      47.299  26.458  26.532  1.00  0.00     0.049 A 
ATOM     63  C   UNL A   1      42.386  28.110  28.761  1.00  0.00     0.074 A 
ATOM     64  C   UNL A   1      47.370  25.152  26.090  1.00  0.00     0.029 A 
ATOM     65  N   UNL A   1      46.020  26.648  27.036  1.00  0.00    -0.354 N 
ATOM     66  N   UNL A   1      43.476  27.587  28.248  1.00  0.00    -0.248 NA
ATOM     67  C   UNL A   1      41.257  27.172  28.846  1.00  0.00     0.031 C 
ATOM     68  C   UNL A   1      46.119  24.560  26.296  1.00  0.00     0.029 A 
ATOM     69  C   UNL A   1      45.287  25.484  26.911  1.00  0.00     0.049 A 
ATOM     70  H   UNL A   1      45.685  27.489  27.425  1.00  0.00     0.167 HD
ATOM     71  C   UNL A   1      43.160  26.266  27.942  1.00  0.00     0.074 A 
ATOM     72  C   UNL A   1      41.789  26.060  28.360  1.00  0.00     0.031 C 
ATOM     73  C   UNL A   1      43.924  25.314  27.350  1.00  0.00     0.037 A 
BRANCH  60  74
ATOM     74  C   UNL A   1      49.669  27.163  25.953  1.00  0.00     0.058 A 
ATOM     75  C   UNL A   1      49.963  27.269  24.587  1.00  0.00     0.135 A 
ATOM     76  C   UNL A   1      50.670  26.671  26.808  1.00  0.00     0.135 A 
ATOM     77  F   UNL A   1      49.025  27.685  23.723  1.00  0.00    -0.206 F 
ATOM     78  C   UNL A   1      51.198  26.872  24.081  1.00  0.00     0.059 A 
ATOM     79  C   UNL A   1      51.917  26.292  26.328  1.00  0.00     0.059 A 
ATOM     80  F   UNL A   1      50.427  26.526  28.120  1.00  0.00    -0.206 F 
ATOM     81  C   UNL A   1      52.165  26.379  24.960  1.00  0.00     0.060 A 
BRANCH  81  82
ATOM     82  S   UNL A   1      53.753  25.844  24.291  1.00  0.00     0.124 S 
ATOM     83  O   UNL A   1      53.535  26.009  22.857  1.00  0.00    -0.237 OA
ATOM     84  O   UNL A   1      54.684  26.789  24.903  1.00  0.00    -0.237 OA
ATOM     85  O   UNL A   1      53.870  24.465  24.754  1.00  0.00    -0.744 OA
ENDBRANCH  81  82
ENDBRANCH  60  74
BRANCH  61  86
ATOM     86  C   UNL A   1      40.827  29.907  29.834  1.00  0.00     0.058 A 
ATOM     87  C   UNL A   1      40.692  30.103  31.219  1.00  0.00     0.135 A 
ATOM     88  C   UNL A   1      39.664  30.027  29.055  1.00  0.00     0.135 A 
ATOM     89  F   UNL A   1      41.762  29.977  32.020  1.00  0.00    -0.206 F 
ATOM     90  C   UNL A   1      39.461  30.389  31.807  1.00  0.00     0.059 A 
ATOM     91  C   UNL A   1      38.428  30.343  29.615  1.00  0.00     0.059 A 
ATOM     92  F   UNL A   1      39.720  29.840  27.727  1.00  0.00    -0.206 F 
ATOM     93  C   UNL A   1      38.333  30.510  30.994  1.00  0.00     0.060 A 
BRANCH  93  94
ATOM     94  S   UNL A   1      36.744  30.919  31.753  1.00  0.00     0.124 S 
ATOM     95  O   UNL A   1      36.084  29.619  31.776  1.00  0.00    -0.237 OA
ATOM     96  O   UNL A   1      37.150  31.453  33.050  1.00  0.00    -0.237 OA
ATOM     97  O   UNL A   1      36.177  31.900  30.832  1.00  0.00    -0.744 OA
ENDBRANCH  93  94
ENDBRANCH  61  86
BRANCH  73  98
ATOM     98  C   UNL A   1      43.309  23.961  27.135  1.00  0.00     0.058 A 
ATOM     99  C   UNL A   1      43.255  23.008  28.164  1.00  0.00     0.135 A 
ATOM    100  C   UNL A   1      42.676  23.658  25.920  1.00  0.00     0.135 A 
ATOM    101  F   UNL A   1      43.849  23.253  29.343  1.00  0.00    -0.206 F 
ATOM    102  C   UNL A   1      42.595  21.797  27.993  1.00  0.00     0.059 A 
ATOM    103  C   UNL A   1      41.991  22.462  25.735  1.00  0.00     0.059 A 
ATOM    104  F   UNL A   1      42.691  24.542  24.910  1.00  0.00    -0.206 F 
ATOM    105  C   UNL A   1      41.960  21.535  26.776  1.00  0.00     0.060 A 
BRANCH 105 106
ATOM    106  S   UNL A   1      41.050  19.988  26.591  1.00  0.00     0.124 S 
ATOM    107  O   UNL A   1      40.930  19.550  27.977  1.00  0.00    -0.237 OA
ATOM    108  O   UNL A   1      39.811  20.427  25.955  1.00  0.00    -0.237 OA
ATOM    109  O   UNL A   1      41.925  19.178  25.748  1.00  0.00    -0.744 OA
ENDBRANCH 105 106
ENDBRANCH  73  98
ENDBRANCH  47  48
ENDBRANCH  40  42
ENDBRANCH  39  40
ENDBRANCH   1  39
TORSDOF 16
ENDMDL
