MODEL 1
REMARK VINA RESULT:     -12.1      0.000      0.000
REMARK SMILES O=C(OCCOC(=O)[C@H]1C[C@](O)(c2ccc(Cl)cc2)[C@@H](c2ccc(Cl)cc2)O1)c1ccc(-c2c3nc(c(-c4c(F)cc(S(=O)(=O)[O-])cc4F)c4ccc([nH]4)c(-c4c(F)cc(S(=O)(=O)[O-])cc4F)c4nc(c(-c5c(F)cc(S(=O)(=O)[O-])cc5F)c5ccc2[nH]5)C=C4)C=C3)cc1
REMARK SMILES IDX 4 1 3 2 2 3 1 4 29 5 30 6 94 7 31 8 93 9 32 10 33 11 34 12
REMARK SMILES IDX 87 13 35 14 92 15 86 16 88 17 36 18 91 19 85 20 84 21 37 23
REMARK SMILES IDX 71 24 50 25 70 26 51 27 54 28 69 29 89 30 52 31 53 32 68 34
REMARK SMILES IDX 90 35 55 36 38 37 39 38 48 39 40 40 41 41 47 42 49 43 42 44
REMARK SMILES IDX 43 45 44 46 45 47 46 48 72 49 73 50 82 51 74 52 75 53 81 54
REMARK SMILES IDX 83 55 76 56 77 57 78 58 79 59 80 60 56 61 57 62 66 63 58 64
REMARK SMILES IDX 59 65 65 66 67 67 60 68 61 69 62 70 63 71 64 72 5 73 6 74
REMARK SMILES IDX 7 75 8 76 9 77 10 78 28 79 11 80 20 81 13 82 14 83 19 84
REMARK SMILES IDX 15 85 18 86 16 87 17 88 12 89 21 91 22 92 27 93 23 94 26 95
REMARK SMILES IDX 24 96 25 97
REMARK H PARENT 88 22 54 33 12 90
REMARK Flexibility Score: inf
ROOT
ATOM      1  C   UNL A   1      40.848  22.775  26.166  1.00  0.00     0.275 C 
ENDROOT
BRANCH   1   2
ATOM      2  O   UNL A   1      41.610  23.940  26.537  1.00  0.00    -0.458 OA
BRANCH   2   3
ATOM      3  C   UNL A   1      41.183  25.222  26.374  1.00  0.00     0.338 C 
ATOM      4  O   UNL A   1      41.215  25.752  25.267  1.00  0.00    -0.246 OA
BRANCH   3   5
ATOM      5  C   UNL A   1      40.927  26.078  27.571  1.00  0.00     0.060 A 
ATOM      6  C   UNL A   1      39.819  25.949  28.409  1.00  0.00     0.016 A 
ATOM      7  C   UNL A   1      41.860  27.095  27.844  1.00  0.00     0.016 A 
ATOM      8  C   UNL A   1      39.703  26.733  29.559  1.00  0.00     0.010 A 
ATOM      9  C   UNL A   1      41.738  27.901  28.983  1.00  0.00     0.010 A 
ATOM     10  C   UNL A   1      40.658  27.712  29.852  1.00  0.00    -0.014 A 
BRANCH  10  11
ATOM     11  C   UNL A   1      40.385  28.636  30.974  1.00  0.00     0.031 A 
ATOM     12  C   UNL A   1      41.244  28.513  32.196  1.00  0.00     0.074 A 
ATOM     13  C   UNL A   1      39.483  29.629  30.857  1.00  0.00     0.049 A 
ATOM     14  N   UNL A   1      41.350  29.321  33.215  1.00  0.00    -0.248 NA
ATOM     15  C   UNL A   1      42.127  27.335  32.260  1.00  0.00     0.031 C 
ATOM     16  C   UNL A   1      38.630  29.863  29.696  1.00  0.00     0.029 A 
ATOM     17  N   UNL A   1      39.152  30.642  31.720  1.00  0.00    -0.354 N 
ATOM     18  C   UNL A   1      42.347  28.781  34.015  1.00  0.00     0.074 A 
ATOM     19  C   UNL A   1      42.781  27.551  33.389  1.00  0.00     0.031 C 
ATOM     20  C   UNL A   1      37.865  30.946  29.917  1.00  0.00     0.029 A 
ATOM     21  C   UNL A   1      38.179  31.486  31.236  1.00  0.00     0.049 A 
ATOM     22  H   UNL A   1      39.570  30.754  32.605  1.00  0.00     0.167 HD
ATOM     23  C   UNL A   1      42.864  29.276  35.161  1.00  0.00     0.037 A 
ATOM     24  C   UNL A   1      37.618  32.577  31.796  1.00  0.00     0.037 A 
ATOM     25  C   UNL A   1      42.372  30.457  35.811  1.00  0.00     0.049 A 
ATOM     26  C   UNL A   1      38.128  33.042  33.135  1.00  0.00     0.074 A 
ATOM     27  C   UNL A   1      42.776  31.018  37.008  1.00  0.00     0.029 A 
ATOM     28  N   UNL A   1      41.336  31.245  35.326  1.00  0.00    -0.354 N 
ATOM     29  N   UNL A   1      39.109  32.550  33.856  1.00  0.00    -0.248 NA
ATOM     30  C   UNL A   1      37.470  34.211  33.732  1.00  0.00     0.031 C 
ATOM     31  C   UNL A   1      41.954  32.121  37.269  1.00  0.00     0.029 A 
ATOM     32  C   UNL A   1      41.068  32.272  36.212  1.00  0.00     0.049 A 
ATOM     33  H   UNL A   1      40.863  31.094  34.476  1.00  0.00     0.167 HD
ATOM     34  C   UNL A   1      39.202  33.364  34.980  1.00  0.00     0.074 A 
ATOM     35  C   UNL A   1      38.184  34.387  34.835  1.00  0.00     0.031 C 
ATOM     36  C   UNL A   1      40.050  33.278  36.034  1.00  0.00     0.037 A 
BRANCH  23  37
ATOM     37  C   UNL A   1      43.988  28.501  35.783  1.00  0.00     0.058 A 
ATOM     38  C   UNL A   1      45.327  28.763  35.448  1.00  0.00     0.135 A 
ATOM     39  C   UNL A   1      43.726  27.459  36.684  1.00  0.00     0.135 A 
ATOM     40  F   UNL A   1      45.626  29.730  34.567  1.00  0.00    -0.206 F 
ATOM     41  C   UNL A   1      46.366  27.995  35.962  1.00  0.00     0.059 A 
ATOM     42  C   UNL A   1      44.753  26.691  37.226  1.00  0.00     0.059 A 
ATOM     43  F   UNL A   1      42.462  27.161  37.024  1.00  0.00    -0.206 F 
ATOM     44  C   UNL A   1      46.067  26.955  36.844  1.00  0.00     0.060 A 
BRANCH  44  45
ATOM     45  S   UNL A   1      47.422  25.940  37.473  1.00  0.00     0.124 S 
ATOM     46  O   UNL A   1      47.240  26.076  38.915  1.00  0.00    -0.237 OA
ATOM     47  O   UNL A   1      47.114  24.627  36.918  1.00  0.00    -0.237 OA
ATOM     48  O   UNL A   1      48.611  26.586  36.927  1.00  0.00    -0.744 OA
ENDBRANCH  44  45
ENDBRANCH  23  37
BRANCH  24  49
ATOM     49  C   UNL A   1      36.519  33.303  31.099  1.00  0.00     0.058 A 
ATOM     50  C   UNL A   1      35.181  33.167  31.496  1.00  0.00     0.135 A 
ATOM     51  C   UNL A   1      36.790  34.138  30.003  1.00  0.00     0.135 A 
ATOM     52  F   UNL A   1      34.866  32.377  32.534  1.00  0.00    -0.206 F 
ATOM     53  C   UNL A   1      34.148  33.815  30.822  1.00  0.00     0.059 A 
ATOM     54  C   UNL A   1      35.778  34.813  29.326  1.00  0.00     0.059 A 
ATOM     55  F   UNL A   1      38.054  34.315  29.588  1.00  0.00    -0.206 F 
ATOM     56  C   UNL A   1      34.457  34.635  29.736  1.00  0.00     0.060 A 
BRANCH  56  57
ATOM     57  S   UNL A   1      33.117  35.497  28.883  1.00  0.00     0.124 S 
ATOM     58  O   UNL A   1      32.477  34.404  28.161  1.00  0.00    -0.237 OA
ATOM     59  O   UNL A   1      32.358  36.060  29.996  1.00  0.00    -0.237 OA
ATOM     60  O   UNL A   1      33.821  36.474  28.058  1.00  0.00    -0.744 OA
ENDBRANCH  56  57
ENDBRANCH  24  49
BRANCH  36  61
ATOM     61  C   UNL A   1      39.929  34.325  37.102  1.00  0.00     0.058 A 
ATOM     62  C   UNL A   1      40.537  35.582  36.969  1.00  0.00     0.135 A 
ATOM     63  C   UNL A   1      39.129  34.095  38.233  1.00  0.00     0.135 A 
ATOM     64  F   UNL A   1      41.315  35.847  35.908  1.00  0.00    -0.206 F 
ATOM     65  C   UNL A   1      40.367  36.573  37.928  1.00  0.00     0.059 A 
ATOM     66  C   UNL A   1      38.926  35.079  39.193  1.00  0.00     0.059 A 
ATOM     67  F   UNL A   1      38.518  32.910  38.399  1.00  0.00    -0.206 F 
ATOM     68  C   UNL A   1      39.555  36.314  39.035  1.00  0.00     0.060 A 
BRANCH  68  69
ATOM     69  S   UNL A   1      39.293  37.627  40.246  1.00  0.00     0.124 S 
ATOM     70  O   UNL A   1      38.239  38.407  39.608  1.00  0.00    -0.237 OA
ATOM     71  O   UNL A   1      38.898  36.881  41.437  1.00  0.00    -0.237 OA
ATOM     72  O   UNL A   1      40.597  38.277  40.327  1.00  0.00    -0.744 OA
ENDBRANCH  68  69
ENDBRANCH  36  61
ENDBRANCH  10  11
ENDBRANCH   3   5
ENDBRANCH   2   3
ENDBRANCH   1   2
BRANCH   1  73
ATOM     73  C   UNL A   1      39.369  22.893  26.542  1.00  0.00     0.274 C 
BRANCH  73  74
ATOM     74  O   UNL A   1      38.662  21.754  26.044  1.00  0.00    -0.460 OA
BRANCH  74  75
ATOM     75  C   UNL A   1      37.605  21.998  25.221  1.00  0.00     0.335 C 
ATOM     76  O   UNL A   1      37.455  21.499  24.113  1.00  0.00    -0.249 OA
BRANCH  75  77
ATOM     77  C   UNL A   1      36.625  22.942  25.929  1.00  0.00     0.232 C 
ATOM     78  C   UNL A   1      36.065  24.037  25.047  1.00  0.00     0.087 C 
ATOM     79  O   UNL A   1      35.539  22.228  26.511  1.00  0.00    -0.355 OA
ATOM     80  C   UNL A   1      34.546  23.819  24.992  1.00  0.00     0.123 C 
ATOM     81  C   UNL A   1      34.344  22.474  25.758  1.00  0.00     0.186 C 
BRANCH  80  82
ATOM     82  C   UNL A   1      33.798  25.062  25.512  1.00  0.00    -0.013 A 
ATOM     83  C   UNL A   1      32.520  24.883  26.090  1.00  0.00     0.008 A 
ATOM     84  C   UNL A   1      34.318  26.367  25.509  1.00  0.00     0.008 A 
ATOM     85  C   UNL A   1      31.792  25.951  26.625  1.00  0.00     0.021 A 
ATOM     86  C   UNL A   1      33.595  27.438  26.053  1.00  0.00     0.021 A 
ATOM     87  C   UNL A   1      32.339  27.227  26.611  1.00  0.00     0.041 A 
ATOM     88  Cl  UNL A   1      31.477  28.543  27.305  1.00  0.00    -0.084 Cl
ENDBRANCH  80  82
BRANCH  80  89
ATOM     89  O   UNL A   1      34.156  23.713  23.616  1.00  0.00    -0.382 OA
ATOM     90  H   UNL A   1      33.242  24.024  23.513  1.00  0.00     0.212 HD
ENDBRANCH  80  89
BRANCH  81  91
ATOM     91  C   UNL A   1      34.040  21.179  25.017  1.00  0.00    -0.016 A 
ATOM     92  C   UNL A   1      34.857  20.043  25.101  1.00  0.00     0.008 A 
ATOM     93  C   UNL A   1      32.824  21.066  24.314  1.00  0.00     0.008 A 
ATOM     94  C   UNL A   1      34.466  18.829  24.532  1.00  0.00     0.021 A 
ATOM     95  C   UNL A   1      32.437  19.856  23.730  1.00  0.00     0.021 A 
ATOM     96  C   UNL A   1      33.255  18.738  23.855  1.00  0.00     0.041 A 
ATOM     97  Cl  UNL A   1      32.758  17.233  23.184  1.00  0.00    -0.084 Cl
ENDBRANCH  81  91
ENDBRANCH  75  77
ENDBRANCH  74  75
ENDBRANCH  73  74
ENDBRANCH   1  73
TORSDOF 17
ENDMDL
MODEL 2
REMARK VINA RESULT:     -12.0      6.881     11.903
REMARK SMILES O=C(OCCOC(=O)[C@H]1C[C@](O)(c2ccc(Cl)cc2)[C@@H](c2ccc(Cl)cc2)O1)c1ccc(-c2c3nc(c(-c4c(F)cc(S(=O)(=O)[O-])cc4F)c4ccc([nH]4)c(-c4c(F)cc(S(=O)(=O)[O-])cc4F)c4nc(c(-c5c(F)cc(S(=O)(=O)[O-])cc5F)c5ccc2[nH]5)C=C4)C=C3)cc1
REMARK SMILES IDX 4 1 3 2 2 3 1 4 29 5 30 6 94 7 31 8 93 9 32 10 33 11 34 12
REMARK SMILES IDX 87 13 35 14 92 15 86 16 88 17 36 18 91 19 85 20 84 21 37 23
REMARK SMILES IDX 71 24 50 25 70 26 51 27 54 28 69 29 89 30 52 31 53 32 68 34
REMARK SMILES IDX 90 35 55 36 38 37 39 38 48 39 40 40 41 41 47 42 49 43 42 44
REMARK SMILES IDX 43 45 44 46 45 47 46 48 72 49 73 50 82 51 74 52 75 53 81 54
REMARK SMILES IDX 83 55 76 56 77 57 78 58 79 59 80 60 56 61 57 62 66 63 58 64
REMARK SMILES IDX 59 65 65 66 67 67 60 68 61 69 62 70 63 71 64 72 5 73 6 74
REMARK SMILES IDX 7 75 8 76 9 77 10 78 28 79 11 80 20 81 13 82 14 83 19 84
REMARK SMILES IDX 15 85 18 86 16 87 17 88 12 89 21 91 22 92 27 93 23 94 26 95
REMARK SMILES IDX 24 96 25 97
REMARK H PARENT 88 22 54 33 12 90
REMARK Flexibility Score: inf
ROOT
ATOM      1  C   UNL A   1      34.535  30.765  27.636  1.00  0.00     0.275 C 
ENDROOT
BRANCH   1   2
ATOM      2  O   UNL A   1      35.437  29.799  28.213  1.00  0.00    -0.458 OA
BRANCH   2   3
ATOM      3  C   UNL A   1      36.337  30.079  29.195  1.00  0.00     0.338 C 
ATOM      4  O   UNL A   1      36.002  30.740  30.174  1.00  0.00    -0.246 OA
BRANCH   3   5
ATOM      5  C   UNL A   1      37.790  29.821  28.968  1.00  0.00     0.060 A 
ATOM      6  C   UNL A   1      38.360  29.574  27.718  1.00  0.00     0.016 A 
ATOM      7  C   UNL A   1      38.624  29.802  30.101  1.00  0.00     0.016 A 
ATOM      8  C   UNL A   1      39.742  29.430  27.583  1.00  0.00     0.010 A 
ATOM      9  C   UNL A   1      40.009  29.635  29.976  1.00  0.00     0.010 A 
ATOM     10  C   UNL A   1      40.573  29.459  28.708  1.00  0.00    -0.014 A 
BRANCH  10  11
ATOM     11  C   UNL A   1      42.000  29.113  28.527  1.00  0.00     0.031 A 
ATOM     12  C   UNL A   1      42.330  27.687  28.206  1.00  0.00     0.074 A 
ATOM     13  C   UNL A   1      42.955  30.062  28.529  1.00  0.00     0.049 A 
ATOM     14  N   UNL A   1      43.458  27.172  27.799  1.00  0.00    -0.248 NA
ATOM     15  C   UNL A   1      41.228  26.716  28.327  1.00  0.00     0.031 C 
ATOM     16  C   UNL A   1      42.735  31.482  28.786  1.00  0.00     0.029 A 
ATOM     17  N   UNL A   1      44.301  29.976  28.283  1.00  0.00    -0.354 N 
ATOM     18  C   UNL A   1      43.190  25.830  27.565  1.00  0.00     0.074 A 
ATOM     19  C   UNL A   1      41.807  25.599  27.920  1.00  0.00     0.031 C 
ATOM     20  C   UNL A   1      43.904  32.138  28.693  1.00  0.00     0.029 A 
ATOM     21  C   UNL A   1      44.957  31.183  28.363  1.00  0.00     0.049 A 
ATOM     22  H   UNL A   1      44.757  29.129  28.071  1.00  0.00     0.167 HD
ATOM     23  C   UNL A   1      44.022  24.880  27.082  1.00  0.00     0.037 A 
ATOM     24  C   UNL A   1      46.260  31.478  28.180  1.00  0.00     0.037 A 
ATOM     25  C   UNL A   1      45.413  25.106  26.806  1.00  0.00     0.049 A 
ATOM     26  C   UNL A   1      47.195  30.375  27.758  1.00  0.00     0.074 A 
ATOM     27  C   UNL A   1      46.365  24.203  26.373  1.00  0.00     0.029 A 
ATOM     28  N   UNL A   1      46.056  26.325  26.968  1.00  0.00    -0.354 N 
ATOM     29  N   UNL A   1      46.917  29.120  27.489  1.00  0.00    -0.248 NA
ATOM     30  C   UNL A   1      48.613  30.724  27.602  1.00  0.00     0.031 C 
ATOM     31  C   UNL A   1      47.597  24.867  26.317  1.00  0.00     0.029 A 
ATOM     32  C   UNL A   1      47.400  26.194  26.672  1.00  0.00     0.049 A 
ATOM     33  H   UNL A   1      45.620  27.160  27.253  1.00  0.00     0.167 HD
ATOM     34  C   UNL A   1      48.120  28.536  27.109  1.00  0.00     0.074 A 
ATOM     35  C   UNL A   1      49.125  29.579  27.171  1.00  0.00     0.031 C 
ATOM     36  C   UNL A   1      48.373  27.256  26.739  1.00  0.00     0.037 A 
BRANCH  23  37
ATOM     37  C   UNL A   1      43.436  23.516  26.871  1.00  0.00     0.058 A 
ATOM     38  C   UNL A   1      43.212  22.645  27.951  1.00  0.00     0.135 A 
ATOM     39  C   UNL A   1      43.140  23.055  25.581  1.00  0.00     0.135 A 
ATOM     40  F   UNL A   1      43.508  23.029  29.203  1.00  0.00    -0.206 F 
ATOM     41  C   UNL A   1      42.743  21.351  27.752  1.00  0.00     0.059 A 
ATOM     42  C   UNL A   1      42.651  21.770  25.361  1.00  0.00     0.059 A 
ATOM     43  F   UNL A   1      43.351  23.845  24.516  1.00  0.00    -0.206 F 
ATOM     44  C   UNL A   1      42.475  20.920  26.452  1.00  0.00     0.060 A 
BRANCH  44  45
ATOM     45  S   UNL A   1      41.904  19.225  26.204  1.00  0.00     0.124 S 
ATOM     46  O   UNL A   1      40.477  19.430  25.975  1.00  0.00    -0.237 OA
ATOM     47  O   UNL A   1      42.677  18.801  25.042  1.00  0.00    -0.237 OA
ATOM     48  O   UNL A   1      42.250  18.564  27.459  1.00  0.00    -0.744 OA
ENDBRANCH  44  45
ENDBRANCH  23  37
BRANCH  24  49
ATOM     49  C   UNL A   1      46.756  32.868  28.389  1.00  0.00     0.058 A 
ATOM     50  C   UNL A   1      46.750  33.813  27.353  1.00  0.00     0.135 A 
ATOM     51  C   UNL A   1      47.266  33.271  29.633  1.00  0.00     0.135 A 
ATOM     52  F   UNL A   1      46.278  33.478  26.142  1.00  0.00    -0.206 F 
ATOM     53  C   UNL A   1      47.249  35.101  27.535  1.00  0.00     0.059 A 
ATOM     54  C   UNL A   1      47.751  34.558  29.847  1.00  0.00     0.059 A 
ATOM     55  F   UNL A   1      47.284  32.411  30.664  1.00  0.00    -0.206 F 
ATOM     56  C   UNL A   1      47.750  35.463  28.786  1.00  0.00     0.060 A 
BRANCH  56  57
ATOM     57  S   UNL A   1      48.368  37.144  29.026  1.00  0.00     0.124 S 
ATOM     58  O   UNL A   1      49.603  37.116  28.252  1.00  0.00    -0.237 OA
ATOM     59  O   UNL A   1      47.285  37.952  28.472  1.00  0.00    -0.237 OA
ATOM     60  O   UNL A   1      48.530  37.237  30.474  1.00  0.00    -0.744 OA
ENDBRANCH  56  57
ENDBRANCH  24  49
BRANCH  36  61
ATOM     61  C   UNL A   1      49.784  26.917  26.356  1.00  0.00     0.058 A 
ATOM     62  C   UNL A   1      50.675  26.339  27.273  1.00  0.00     0.135 A 
ATOM     63  C   UNL A   1      50.224  27.101  25.035  1.00  0.00     0.135 A 
ATOM     64  F   UNL A   1      50.301  26.149  28.548  1.00  0.00    -0.206 F 
ATOM     65  C   UNL A   1      51.959  25.964  26.896  1.00  0.00     0.059 A 
ATOM     66  C   UNL A   1      51.496  26.712  24.631  1.00  0.00     0.059 A 
ATOM     67  F   UNL A   1      49.404  27.642  24.118  1.00  0.00    -0.206 F 
ATOM     68  C   UNL A   1      52.359  26.150  25.572  1.00  0.00     0.060 A 
BRANCH  68  69
ATOM     69  S   UNL A   1      54.008  25.607  25.078  1.00  0.00     0.124 S 
ATOM     70  O   UNL A   1      54.042  26.010  23.677  1.00  0.00    -0.237 OA
ATOM     71  O   UNL A   1      54.871  26.367  25.978  1.00  0.00    -0.237 OA
ATOM     72  O   UNL A   1      53.977  24.168  25.320  1.00  0.00    -0.744 OA
ENDBRANCH  68  69
ENDBRANCH  36  61
ENDBRANCH  10  11
ENDBRANCH   3   5
ENDBRANCH   2   3
ENDBRANCH   1   2
BRANCH   1  73
ATOM     73  C   UNL A   1      33.189  30.152  27.244  1.00  0.00     0.274 C 
BRANCH  73  74
ATOM     74  O   UNL A   1      33.412  28.904  26.582  1.00  0.00    -0.460 OA
BRANCH  74  75
ATOM     75  C   UNL A   1      32.627  27.858  26.960  1.00  0.00     0.335 C 
ATOM     76  O   UNL A   1      31.766  27.912  27.829  1.00  0.00    -0.249 OA
BRANCH  75  77
ATOM     77  C   UNL A   1      32.960  26.641  26.090  1.00  0.00     0.232 C 
ATOM     78  C   UNL A   1      32.147  25.404  26.409  1.00  0.00     0.087 C 
ATOM     79  O   UNL A   1      32.817  26.933  24.703  1.00  0.00    -0.355 OA
ATOM     80  C   UNL A   1      31.347  25.069  25.142  1.00  0.00     0.123 C 
ATOM     81  C   UNL A   1      31.655  26.268  24.190  1.00  0.00     0.186 C 
BRANCH  80  82
ATOM     82  C   UNL A   1      31.683  23.650  24.644  1.00  0.00    -0.013 A 
ATOM     83  C   UNL A   1      31.786  22.612  25.598  1.00  0.00     0.008 A 
ATOM     84  C   UNL A   1      31.839  23.293  23.294  1.00  0.00     0.008 A 
ATOM     85  C   UNL A   1      32.045  21.288  25.226  1.00  0.00     0.021 A 
ATOM     86  C   UNL A   1      32.090  21.965  22.918  1.00  0.00     0.021 A 
ATOM     87  C   UNL A   1      32.189  20.969  23.883  1.00  0.00     0.041 A 
ATOM     88  Cl  UNL A   1      32.462  19.339  23.407  1.00  0.00    -0.084 Cl
ENDBRANCH  80  82
BRANCH  80  89
ATOM     89  O   UNL A   1      29.957  25.008  25.490  1.00  0.00    -0.382 OA
ATOM     90  H   UNL A   1      29.705  25.817  25.963  1.00  0.00     0.212 HD
ENDBRANCH  80  89
BRANCH  81  91
ATOM     91  C   UNL A   1      30.625  27.359  23.933  1.00  0.00    -0.016 A 
ATOM     92  C   UNL A   1      30.946  28.724  23.930  1.00  0.00     0.008 A 
ATOM     93  C   UNL A   1      29.318  26.988  23.559  1.00  0.00     0.008 A 
ATOM     94  C   UNL A   1      30.010  29.684  23.539  1.00  0.00     0.021 A 
ATOM     95  C   UNL A   1      28.375  27.948  23.182  1.00  0.00     0.021 A 
ATOM     96  C   UNL A   1      28.730  29.292  23.161  1.00  0.00     0.041 A 
ATOM     97  Cl  UNL A   1      27.588  30.473  22.647  1.00  0.00    -0.084 Cl
ENDBRANCH  81  91
ENDBRANCH  75  77
ENDBRANCH  74  75
ENDBRANCH  73  74
ENDBRANCH   1  73
TORSDOF 17
ENDMDL
MODEL 3
REMARK VINA RESULT:     -12.0      1.186      8.256
REMARK SMILES O=C(OCCOC(=O)[C@H]1C[C@](O)(c2ccc(Cl)cc2)[C@@H](c2ccc(Cl)cc2)O1)c1ccc(-c2c3nc(c(-c4c(F)cc(S(=O)(=O)[O-])cc4F)c4ccc([nH]4)c(-c4c(F)cc(S(=O)(=O)[O-])cc4F)c4nc(c(-c5c(F)cc(S(=O)(=O)[O-])cc5F)c5ccc2[nH]5)C=C4)C=C3)cc1
REMARK SMILES IDX 4 1 3 2 2 3 1 4 29 5 30 6 94 7 31 8 93 9 32 10 33 11 34 12
REMARK SMILES IDX 87 13 35 14 92 15 86 16 88 17 36 18 91 19 85 20 84 21 37 23
REMARK SMILES IDX 71 24 50 25 70 26 51 27 54 28 69 29 89 30 52 31 53 32 68 34
REMARK SMILES IDX 90 35 55 36 38 37 39 38 48 39 40 40 41 41 47 42 49 43 42 44
REMARK SMILES IDX 43 45 44 46 45 47 46 48 72 49 73 50 82 51 74 52 75 53 81 54
REMARK SMILES IDX 83 55 76 56 77 57 78 58 79 59 80 60 56 61 57 62 66 63 58 64
REMARK SMILES IDX 59 65 65 66 67 67 60 68 61 69 62 70 63 71 64 72 5 73 6 74
REMARK SMILES IDX 7 75 8 76 9 77 10 78 28 79 11 80 20 81 13 82 14 83 19 84
REMARK SMILES IDX 15 85 18 86 16 87 17 88 12 89 21 91 22 92 27 93 23 94 26 95
REMARK SMILES IDX 24 96 25 97
REMARK H PARENT 88 22 54 33 12 90
REMARK Flexibility Score: inf
ROOT
ATOM      1  C   UNL A   1      39.641  22.334  26.381  1.00  0.00     0.275 C 
ENDROOT
BRANCH   1   2
ATOM      2  O   UNL A   1      39.535  23.683  26.876  1.00  0.00    -0.458 OA
BRANCH   2   3
ATOM      3  C   UNL A   1      40.543  24.598  26.837  1.00  0.00     0.338 C 
ATOM      4  O   UNL A   1      41.515  24.419  26.108  1.00  0.00    -0.246 OA
BRANCH   3   5
ATOM      5  C   UNL A   1      40.606  25.678  27.866  1.00  0.00     0.060 A 
ATOM      6  C   UNL A   1      41.684  26.551  28.025  1.00  0.00     0.016 A 
ATOM      7  C   UNL A   1      39.513  25.795  28.742  1.00  0.00     0.016 A 
ATOM      8  C   UNL A   1      41.623  27.591  28.954  1.00  0.00     0.010 A 
ATOM      9  C   UNL A   1      39.455  26.822  29.693  1.00  0.00     0.010 A 
ATOM     10  C   UNL A   1      40.512  27.732  29.793  1.00  0.00    -0.014 A 
BRANCH  10  11
ATOM     11  C   UNL A   1      40.586  28.730  30.882  1.00  0.00     0.031 A 
ATOM     12  C   UNL A   1      39.629  29.883  30.830  1.00  0.00     0.074 A 
ATOM     13  C   UNL A   1      41.395  28.549  31.942  1.00  0.00     0.049 A 
ATOM     14  N   UNL A   1      39.348  30.765  31.750  1.00  0.00    -0.248 NA
ATOM     15  C   UNL A   1      38.861  30.040  29.582  1.00  0.00     0.031 C 
ATOM     16  C   UNL A   1      42.331  27.441  32.112  1.00  0.00     0.029 A 
ATOM     17  N   UNL A   1      41.543  29.284  33.091  1.00  0.00    -0.354 N 
ATOM     18  C   UNL A   1      38.335  31.548  31.215  1.00  0.00     0.074 A 
ATOM     19  C   UNL A   1      38.083  31.070  29.873  1.00  0.00     0.031 C 
ATOM     20  C   UNL A   1      42.962  27.568  33.291  1.00  0.00     0.029 A 
ATOM     21  C   UNL A   1      42.473  28.766  33.964  1.00  0.00     0.049 A 
ATOM     22  H   UNL A   1      41.033  30.107  33.273  1.00  0.00     0.167 HD
ATOM     23  C   UNL A   1      37.664  32.566  31.799  1.00  0.00     0.037 A 
ATOM     24  C   UNL A   1      42.870  29.210  35.173  1.00  0.00     0.037 A 
ATOM     25  C   UNL A   1      37.976  33.080  33.103  1.00  0.00     0.049 A 
ATOM     26  C   UNL A   1      42.190  30.423  35.754  1.00  0.00     0.074 A 
ATOM     27  C   UNL A   1      37.405  34.148  33.770  1.00  0.00     0.029 A 
ATOM     28  N   UNL A   1      38.973  32.575  33.927  1.00  0.00    -0.354 N 
ATOM     29  N   UNL A   1      41.196  31.123  35.258  1.00  0.00    -0.248 NA
ATOM     30  C   UNL A   1      42.673  30.900  37.056  1.00  0.00     0.031 C 
ATOM     31  C   UNL A   1      38.089  34.316  34.981  1.00  0.00     0.029 A 
ATOM     32  C   UNL A   1      39.055  33.325  35.085  1.00  0.00     0.049 A 
ATOM     33  H   UNL A   1      39.538  31.797  33.716  1.00  0.00     0.167 HD
ATOM     34  C   UNL A   1      40.917  32.108  36.200  1.00  0.00     0.074 A 
ATOM     35  C   UNL A   1      41.841  31.905  37.299  1.00  0.00     0.031 C 
ATOM     36  C   UNL A   1      39.983  33.091  36.163  1.00  0.00     0.037 A 
BRANCH  23  37
ATOM     37  C   UNL A   1      36.565  33.197  30.997  1.00  0.00     0.058 A 
ATOM     38  C   UNL A   1      36.848  34.094  29.953  1.00  0.00     0.135 A 
ATOM     39  C   UNL A   1      35.221  32.943  31.300  1.00  0.00     0.135 A 
ATOM     40  F   UNL A   1      38.120  34.394  29.644  1.00  0.00    -0.206 F 
ATOM     41  C   UNL A   1      35.832  34.741  29.259  1.00  0.00     0.059 A 
ATOM     42  C   UNL A   1      34.187  33.565  30.605  1.00  0.00     0.059 A 
ATOM     43  F   UNL A   1      34.900  32.105  32.299  1.00  0.00    -0.206 F 
ATOM     44  C   UNL A   1      34.504  34.477  29.600  1.00  0.00     0.060 A 
BRANCH  44  45
ATOM     45  S   UNL A   1      33.195  35.354  28.717  1.00  0.00     0.124 S 
ATOM     46  O   UNL A   1      32.553  34.261  27.992  1.00  0.00    -0.237 OA
ATOM     47  O   UNL A   1      32.417  35.933  29.807  1.00  0.00    -0.237 OA
ATOM     48  O   UNL A   1      33.925  36.311  27.892  1.00  0.00    -0.744 OA
ENDBRANCH  44  45
ENDBRANCH  23  37
BRANCH  24  49
ATOM     49  C   UNL A   1      43.956  28.510  35.915  1.00  0.00     0.058 A 
ATOM     50  C   UNL A   1      45.305  28.850  35.736  1.00  0.00     0.135 A 
ATOM     51  C   UNL A   1      43.662  27.469  36.810  1.00  0.00     0.135 A 
ATOM     52  F   UNL A   1      45.642  29.834  34.889  1.00  0.00    -0.206 F 
ATOM     53  C   UNL A   1      46.324  28.171  36.400  1.00  0.00     0.059 A 
ATOM     54  C   UNL A   1      44.660  26.789  37.501  1.00  0.00     0.059 A 
ATOM     55  F   UNL A   1      42.387  27.111  37.030  1.00  0.00    -0.206 F 
ATOM     56  C   UNL A   1      45.992  27.139  37.279  1.00  0.00     0.060 A 
BRANCH  56  57
ATOM     57  S   UNL A   1      47.316  26.282  38.161  1.00  0.00     0.124 S 
ATOM     58  O   UNL A   1      48.401  27.253  38.077  1.00  0.00    -0.237 OA
ATOM     59  O   UNL A   1      46.730  26.090  39.484  1.00  0.00    -0.237 OA
ATOM     60  O   UNL A   1      47.498  25.060  37.382  1.00  0.00    -0.744 OA
ENDBRANCH  56  57
ENDBRANCH  24  49
BRANCH  36  61
ATOM     61  C   UNL A   1      39.900  34.006  37.350  1.00  0.00     0.058 A 
ATOM     62  C   UNL A   1      40.537  35.256  37.358  1.00  0.00     0.135 A 
ATOM     63  C   UNL A   1      39.110  33.660  38.457  1.00  0.00     0.135 A 
ATOM     64  F   UNL A   1      41.308  35.628  36.324  1.00  0.00    -0.206 F 
ATOM     65  C   UNL A   1      40.402  36.129  38.430  1.00  0.00     0.059 A 
ATOM     66  C   UNL A   1      38.943  34.528  39.530  1.00  0.00     0.059 A 
ATOM     67  F   UNL A   1      38.473  32.478  38.491  1.00  0.00    -0.206 F 
ATOM     68  C   UNL A   1      39.599  35.758  39.511  1.00  0.00     0.060 A 
BRANCH  68  69
ATOM     69  S   UNL A   1      39.384  36.923  40.873  1.00  0.00     0.124 S 
ATOM     70  O   UNL A   1      38.639  36.116  41.833  1.00  0.00    -0.237 OA
ATOM     71  O   UNL A   1      40.762  37.234  41.240  1.00  0.00    -0.237 OA
ATOM     72  O   UNL A   1      38.642  38.022  40.264  1.00  0.00    -0.744 OA
ENDBRANCH  68  69
ENDBRANCH  36  61
ENDBRANCH  10  11
ENDBRANCH   3   5
ENDBRANCH   2   3
ENDBRANCH   1   2
BRANCH   1  73
ATOM     73  C   UNL A   1      38.310  21.795  25.851  1.00  0.00     0.274 C 
BRANCH  73  74
ATOM     74  O   UNL A   1      37.391  22.879  25.690  1.00  0.00    -0.460 OA
BRANCH  74  75
ATOM     75  C   UNL A   1      36.677  22.915  24.532  1.00  0.00     0.335 C 
ATOM     76  O   UNL A   1      36.996  22.338  23.500  1.00  0.00    -0.249 OA
BRANCH  75  77
ATOM     77  C   UNL A   1      35.403  23.737  24.752  1.00  0.00     0.232 C 
ATOM     78  C   UNL A   1      34.788  24.289  23.483  1.00  0.00     0.087 C 
ATOM     79  O   UNL A   1      34.411  22.989  25.449  1.00  0.00    -0.355 OA
ATOM     80  C   UNL A   1      33.390  23.665  23.369  1.00  0.00     0.123 C 
ATOM     81  C   UNL A   1      33.350  22.644  24.548  1.00  0.00     0.186 C 
BRANCH  80  82
ATOM     82  C   UNL A   1      32.306  24.760  23.328  1.00  0.00    -0.013 A 
ATOM     83  C   UNL A   1      30.970  24.392  23.609  1.00  0.00     0.008 A 
ATOM     84  C   UNL A   1      32.554  26.122  23.088  1.00  0.00     0.008 A 
ATOM     85  C   UNL A   1      29.933  25.331  23.636  1.00  0.00     0.021 A 
ATOM     86  C   UNL A   1      31.518  27.066  23.123  1.00  0.00     0.021 A 
ATOM     87  C   UNL A   1      30.215  26.669  23.400  1.00  0.00     0.041 A 
ATOM     88  Cl  UNL A   1      28.959  27.841  23.474  1.00  0.00    -0.084 Cl
ENDBRANCH  80  82
BRANCH  80  89
ATOM     89  O   UNL A   1      33.291  23.013  22.095  1.00  0.00    -0.382 OA
ATOM     90  H   UNL A   1      32.572  22.362  22.118  1.00  0.00     0.212 HD
ENDBRANCH  80  89
BRANCH  81  91
ATOM     91  C   UNL A   1      33.477  21.146  24.303  1.00  0.00    -0.016 A 
ATOM     92  C   UNL A   1      34.520  20.374  24.834  1.00  0.00     0.008 A 
ATOM     93  C   UNL A   1      32.443  20.478  23.620  1.00  0.00     0.008 A 
ATOM     94  C   UNL A   1      34.518  18.981  24.717  1.00  0.00     0.021 A 
ATOM     95  C   UNL A   1      32.446  19.086  23.487  1.00  0.00     0.021 A 
ATOM     96  C   UNL A   1      33.479  18.343  24.049  1.00  0.00     0.041 A 
ATOM     97  Cl  UNL A   1      33.460  16.626  23.934  1.00  0.00    -0.084 Cl
ENDBRANCH  81  91
ENDBRANCH  75  77
ENDBRANCH  74  75
ENDBRANCH  73  74
ENDBRANCH   1  73
TORSDOF 17
ENDMDL
