MODEL 1
REMARK VINA RESULT:      -9.3      0.000      0.000
REMARK SMILES C=CCN(CC(=O)OCCOC(=O)c1ccc(-c2c3nc(c(-c4c(F)cc(S(=O)(=O)[O-])cc4F)c4ccc([nH]4)c(-c4c(F)cc(S(=O)(=O)[O-])cc4F)c4nc(c(-c5c(F)cc(S(=O)(=O)[O-])cc5F)c5ccc2[nH]5)C=C4)C=C3)cc1)C(=O)NCC(C)C
REMARK SMILES IDX 9 1 8 2 6 3 7 4 5 5 4 6 3 7 2 8 1 9 80 10 81 11 82 12 83 14
REMARK SMILES IDX 84 15 85 16 86 17 10 18 11 19 12 20 13 21 14 22 15 23 79 24
REMARK SMILES IDX 16 25 78 26 17 27 18 28 19 29 72 30 20 31 77 32 71 33 73 34
REMARK SMILES IDX 21 35 76 36 70 37 69 38 22 40 56 41 35 42 55 43 36 44 39 45
REMARK SMILES IDX 54 46 74 47 37 48 38 49 53 51 75 52 40 53 23 54 24 55 33 56
REMARK SMILES IDX 25 57 26 58 32 59 34 60 27 61 28 62 29 63 30 64 31 65 57 66
REMARK SMILES IDX 58 67 67 68 59 69 60 70 66 71 68 72 61 73 62 74 63 75 64 76
REMARK SMILES IDX 65 77 41 78 42 79 51 80 43 81 44 82 50 83 52 84 45 85 46 86
REMARK SMILES IDX 47 87 48 88 49 89
REMARK H PARENT 82 13 73 39 39 50
REMARK Flexibility Score: inf
ROOT
ATOM      1  C   UNL A   1      34.019  32.276  28.515  1.00  0.00     0.274 C 
ENDROOT
BRANCH   1   2
ATOM      2  O   UNL A   1      33.995  33.275  29.569  1.00  0.00    -0.461 OA
BRANCH   2   3
ATOM      3  C   UNL A   1      34.109  34.571  29.159  1.00  0.00     0.325 C 
ATOM      4  O   UNL A   1      34.260  34.895  27.981  1.00  0.00    -0.250 OA
BRANCH   3   5
ATOM      5  C   UNL A   1      33.823  35.626  30.250  1.00  0.00     0.244 C 
BRANCH   5   6
ATOM      6  N   UNL A   1      34.144  35.324  31.645  1.00  0.00    -0.310 N 
BRANCH   6   7
ATOM      7  C   UNL A   1      32.974  34.944  32.442  1.00  0.00     0.149 C 
BRANCH   7   8
ATOM      8  C   UNL A   1      32.043  36.128  32.546  1.00  0.00    -0.013 C 
ATOM      9  C   UNL A   1      30.772  36.061  32.963  1.00  0.00     0.006 C 
ENDBRANCH   7   8
ENDBRANCH   6   7
BRANCH   6  10
ATOM     10  C   UNL A   1      35.349  35.222  32.270  1.00  0.00     0.318 C 
ATOM     11  O   UNL A   1      35.533  35.765  33.371  1.00  0.00    -0.249 OA
ATOM     12  N   UNL A   1      36.426  34.552  31.853  1.00  0.00    -0.338 N 
ATOM     13  H   UNL A   1      37.092  34.560  32.579  1.00  0.00     0.165 HD
BRANCH  12  14
ATOM     14  C   UNL A   1      36.995  33.808  30.723  1.00  0.00     0.120 C 
BRANCH  14  15
ATOM     15  C   UNL A   1      38.446  33.362  31.072  1.00  0.00     0.002 C 
ATOM     16  C   UNL A   1      39.241  33.126  29.783  1.00  0.00     0.009 C 
ATOM     17  C   UNL A   1      39.279  34.320  31.928  1.00  0.00     0.009 C 
ENDBRANCH  14  15
ENDBRANCH  12  14
ENDBRANCH   6  10
ENDBRANCH   5   6
ENDBRANCH   3   5
ENDBRANCH   2   3
ENDBRANCH   1   2
BRANCH   1  18
ATOM     18  C   UNL A   1      35.425  31.708  28.193  1.00  0.00     0.275 C 
BRANCH  18  19
ATOM     19  O   UNL A   1      35.587  30.289  28.454  1.00  0.00    -0.458 OA
BRANCH  19  20
ATOM     20  C   UNL A   1      36.320  30.087  29.557  1.00  0.00     0.338 C 
ATOM     21  O   UNL A   1      35.926  30.385  30.687  1.00  0.00    -0.246 OA
BRANCH  20  22
ATOM     22  C   UNL A   1      37.668  29.539  29.463  1.00  0.00     0.060 A 
ATOM     23  C   UNL A   1      38.474  29.523  30.611  1.00  0.00     0.016 A 
ATOM     24  C   UNL A   1      38.249  29.513  28.194  1.00  0.00     0.016 A 
ATOM     25  C   UNL A   1      39.868  29.476  30.486  1.00  0.00     0.010 A 
ATOM     26  C   UNL A   1      39.638  29.485  28.072  1.00  0.00     0.010 A 
ATOM     27  C   UNL A   1      40.459  29.460  29.214  1.00  0.00    -0.014 A 
BRANCH  27  28
ATOM     28  C   UNL A   1      41.888  29.115  29.024  1.00  0.00     0.031 A 
ATOM     29  C   UNL A   1      42.977  30.134  28.861  1.00  0.00     0.074 A 
ATOM     30  C   UNL A   1      42.130  27.809  28.807  1.00  0.00     0.049 A 
ATOM     31  N   UNL A   1      44.217  29.947  28.485  1.00  0.00    -0.248 NA
ATOM     32  C   UNL A   1      42.645  31.535  29.158  1.00  0.00     0.031 C 
ATOM     33  C   UNL A   1      41.120  26.750  28.915  1.00  0.00     0.029 A 
ATOM     34  N   UNL A   1      43.253  27.161  28.370  1.00  0.00    -0.354 N 
ATOM     35  C   UNL A   1      44.822  31.198  28.500  1.00  0.00     0.074 A 
ATOM     36  C   UNL A   1      43.802  32.144  28.912  1.00  0.00     0.031 C 
ATOM     37  C   UNL A   1      41.638  25.605  28.458  1.00  0.00     0.029 A 
ATOM     38  C   UNL A   1      43.009  25.854  28.027  1.00  0.00     0.049 A 
ATOM     39  H   UNL A   1      44.139  27.586  28.308  1.00  0.00     0.167 HD
ATOM     40  C   UNL A   1      46.109  31.512  28.202  1.00  0.00     0.037 A 
ATOM     41  C   UNL A   1      43.782  24.955  27.395  1.00  0.00     0.037 A 
ATOM     42  C   UNL A   1      47.100  30.545  27.786  1.00  0.00     0.049 A 
ATOM     43  C   UNL A   1      45.185  25.325  27.046  1.00  0.00     0.074 A 
ATOM     44  C   UNL A   1      48.451  30.742  27.548  1.00  0.00     0.029 A 
ATOM     45  N   UNL A   1      46.845  29.206  27.521  1.00  0.00    -0.354 N 
ATOM     46  N   UNL A   1      45.771  26.492  27.158  1.00  0.00    -0.248 NA
ATOM     47  C   UNL A   1      46.043  24.256  26.527  1.00  0.00     0.031 C 
ATOM     48  C   UNL A   1      49.002  29.533  27.102  1.00  0.00     0.029 A 
ATOM     49  C   UNL A   1      48.004  28.573  27.100  1.00  0.00     0.049 A 
ATOM     50  H   UNL A   1      45.968  28.770  27.619  1.00  0.00     0.167 HD
ATOM     51  C   UNL A   1      47.086  26.290  26.765  1.00  0.00     0.074 A 
ATOM     52  C   UNL A   1      47.201  24.892  26.395  1.00  0.00     0.031 C 
ATOM     53  C   UNL A   1      48.106  27.180  26.737  1.00  0.00     0.037 A 
BRANCH  40  54
ATOM     54  C   UNL A   1      46.546  32.950  28.309  1.00  0.00     0.058 A 
ATOM     55  C   UNL A   1      47.160  33.449  29.470  1.00  0.00     0.135 A 
ATOM     56  C   UNL A   1      46.455  33.811  27.202  1.00  0.00     0.135 A 
ATOM     57  F   UNL A   1      47.278  32.672  30.558  1.00  0.00    -0.206 F 
ATOM     58  C   UNL A   1      47.654  34.750  29.533  1.00  0.00     0.059 A 
ATOM     59  C   UNL A   1      46.960  35.110  27.237  1.00  0.00     0.059 A 
ATOM     60  F   UNL A   1      45.889  33.386  26.062  1.00  0.00    -0.206 F 
ATOM     61  C   UNL A   1      47.549  35.574  28.412  1.00  0.00     0.060 A 
BRANCH  61  62
ATOM     62  S   UNL A   1      48.215  37.252  28.499  1.00  0.00     0.124 S 
ATOM     63  O   UNL A   1      49.285  37.089  29.479  1.00  0.00    -0.237 OA
ATOM     64  O   UNL A   1      48.647  37.492  27.126  1.00  0.00    -0.237 OA
ATOM     65  O   UNL A   1      47.074  38.049  28.942  1.00  0.00    -0.744 OA
ENDBRANCH  61  62
ENDBRANCH  40  54
BRANCH  41  66
ATOM     66  C   UNL A   1      43.214  23.619  27.107  1.00  0.00     0.058 A 
ATOM     67  C   UNL A   1      42.918  23.245  25.791  1.00  0.00     0.135 A 
ATOM     68  C   UNL A   1      43.108  22.649  28.115  1.00  0.00     0.135 A 
ATOM     69  F   UNL A   1      43.025  24.140  24.798  1.00  0.00    -0.206 F 
ATOM     70  C   UNL A   1      42.545  21.944  25.479  1.00  0.00     0.059 A 
ATOM     71  C   UNL A   1      42.750  21.338  27.825  1.00  0.00     0.059 A 
ATOM     72  F   UNL A   1      43.420  22.959  29.384  1.00  0.00    -0.206 F 
ATOM     73  C   UNL A   1      42.474  20.995  26.501  1.00  0.00     0.060 A 
BRANCH  73  74
ATOM     74  S   UNL A   1      42.099  19.283  26.064  1.00  0.00     0.124 S 
ATOM     75  O   UNL A   1      42.511  18.577  27.270  1.00  0.00    -0.237 OA
ATOM     76  O   UNL A   1      40.662  19.338  25.814  1.00  0.00    -0.237 OA
ATOM     77  O   UNL A   1      42.924  19.052  24.881  1.00  0.00    -0.744 OA
ENDBRANCH  73  74
ENDBRANCH  41  66
BRANCH  53  78
ATOM     78  C   UNL A   1      49.453  26.657  26.334  1.00  0.00     0.058 A 
ATOM     79  C   UNL A   1      49.959  26.844  25.039  1.00  0.00     0.135 A 
ATOM     80  C   UNL A   1      50.258  25.985  27.267  1.00  0.00     0.135 A 
ATOM     81  F   UNL A   1      49.218  27.466  24.108  1.00  0.00    -0.206 F 
ATOM     82  C   UNL A   1      51.216  26.374  24.680  1.00  0.00     0.059 A 
ATOM     83  C   UNL A   1      51.526  25.523  26.935  1.00  0.00     0.059 A 
ATOM     84  F   UNL A   1      49.815  25.781  28.518  1.00  0.00    -0.206 F 
ATOM     85  C   UNL A   1      51.994  25.715  25.635  1.00  0.00     0.060 A 
BRANCH  85  86
ATOM     86  S   UNL A   1      53.642  25.143  25.170  1.00  0.00     0.124 S 
ATOM     87  O   UNL A   1      54.480  25.844  26.137  1.00  0.00    -0.237 OA
ATOM     88  O   UNL A   1      53.537  23.698  25.352  1.00  0.00    -0.237 OA
ATOM     89  O   UNL A   1      53.774  25.585  23.785  1.00  0.00    -0.744 OA
ENDBRANCH  85  86
ENDBRANCH  53  78
ENDBRANCH  27  28
ENDBRANCH  20  22
ENDBRANCH  19  20
ENDBRANCH  18  19
ENDBRANCH   1  18
TORSDOF 20
ENDMDL
MODEL 2
REMARK VINA RESULT:      -9.3      3.583      5.097
REMARK SMILES C=CCN(CC(=O)OCCOC(=O)c1ccc(-c2c3nc(c(-c4c(F)cc(S(=O)(=O)[O-])cc4F)c4ccc([nH]4)c(-c4c(F)cc(S(=O)(=O)[O-])cc4F)c4nc(c(-c5c(F)cc(S(=O)(=O)[O-])cc5F)c5ccc2[nH]5)C=C4)C=C3)cc1)C(=O)NCC(C)C
REMARK SMILES IDX 9 1 8 2 6 3 7 4 5 5 4 6 3 7 2 8 1 9 80 10 81 11 82 12 83 14
REMARK SMILES IDX 84 15 85 16 86 17 10 18 11 19 12 20 13 21 14 22 15 23 79 24
REMARK SMILES IDX 16 25 78 26 17 27 18 28 19 29 72 30 20 31 77 32 71 33 73 34
REMARK SMILES IDX 21 35 76 36 70 37 69 38 22 40 56 41 35 42 55 43 36 44 39 45
REMARK SMILES IDX 54 46 74 47 37 48 38 49 53 51 75 52 40 53 23 54 24 55 33 56
REMARK SMILES IDX 25 57 26 58 32 59 34 60 27 61 28 62 29 63 30 64 31 65 57 66
REMARK SMILES IDX 58 67 67 68 59 69 60 70 66 71 68 72 61 73 62 74 63 75 64 76
REMARK SMILES IDX 65 77 41 78 42 79 51 80 43 81 44 82 50 83 52 84 45 85 46 86
REMARK SMILES IDX 47 87 48 88 49 89
REMARK H PARENT 82 13 73 39 39 50
REMARK Flexibility Score: inf
ROOT
ATOM      1  C   UNL A   1      33.039  30.215  27.164  1.00  0.00     0.274 C 
ENDROOT
BRANCH   1   2
ATOM      2  O   UNL A   1      32.954  29.506  25.899  1.00  0.00    -0.461 OA
BRANCH   2   3
ATOM      3  C   UNL A   1      32.885  28.146  25.987  1.00  0.00     0.325 C 
ATOM      4  O   UNL A   1      33.877  27.418  25.968  1.00  0.00    -0.250 OA
BRANCH   3   5
ATOM      5  C   UNL A   1      31.487  27.587  26.327  1.00  0.00     0.244 C 
BRANCH   5   6
ATOM      6  N   UNL A   1      30.800  26.728  25.362  1.00  0.00    -0.310 N 
BRANCH   6   7
ATOM      7  C   UNL A   1      30.888  27.217  23.983  1.00  0.00     0.149 C 
BRANCH   7   8
ATOM      8  C   UNL A   1      29.497  27.501  23.471  1.00  0.00    -0.013 C 
ATOM      9  C   UNL A   1      29.075  28.696  23.036  1.00  0.00     0.006 C 
ENDBRANCH   7   8
ENDBRANCH   6   7
BRANCH   6  10
ATOM     10  C   UNL A   1      30.214  25.511  25.526  1.00  0.00     0.318 C 
ATOM     11  O   UNL A   1      29.521  25.278  26.529  1.00  0.00    -0.249 OA
ATOM     12  N   UNL A   1      30.257  24.470  24.692  1.00  0.00    -0.338 N 
ATOM     13  H   UNL A   1      29.633  23.784  25.025  1.00  0.00     0.165 HD
BRANCH  12  14
ATOM     14  C   UNL A   1      30.883  23.958  23.467  1.00  0.00     0.120 C 
BRANCH  14  15
ATOM     15  C   UNL A   1      32.211  23.228  23.827  1.00  0.00     0.002 C 
ATOM     16  C   UNL A   1      32.957  22.845  22.545  1.00  0.00     0.009 C 
ATOM     17  C   UNL A   1      33.208  23.993  24.700  1.00  0.00     0.009 C 
ENDBRANCH  14  15
ENDBRANCH  12  14
ENDBRANCH   6  10
ENDBRANCH   5   6
ENDBRANCH   3   5
ENDBRANCH   2   3
ENDBRANCH   1   2
BRANCH   1  18
ATOM     18  C   UNL A   1      34.482  30.542  27.629  1.00  0.00     0.275 C 
BRANCH  18  19
ATOM     19  O   UNL A   1      35.177  29.446  28.281  1.00  0.00    -0.458 OA
BRANCH  19  20
ATOM     20  C   UNL A   1      36.127  29.907  29.106  1.00  0.00     0.338 C 
ATOM     21  O   UNL A   1      35.927  30.815  29.917  1.00  0.00    -0.246 OA
BRANCH  20  22
ATOM     22  C   UNL A   1      37.484  29.377  29.047  1.00  0.00     0.060 A 
ATOM     23  C   UNL A   1      38.216  29.255  30.236  1.00  0.00     0.016 A 
ATOM     24  C   UNL A   1      38.144  29.475  27.820  1.00  0.00     0.016 A 
ATOM     25  C   UNL A   1      39.616  29.228  30.197  1.00  0.00     0.010 A 
ATOM     26  C   UNL A   1      39.538  29.466  27.784  1.00  0.00     0.010 A 
ATOM     27  C   UNL A   1      40.286  29.336  28.969  1.00  0.00    -0.014 A 
BRANCH  27  28
ATOM     28  C   UNL A   1      41.728  29.018  28.839  1.00  0.00     0.031 A 
ATOM     29  C   UNL A   1      42.801  30.057  28.702  1.00  0.00     0.074 A 
ATOM     30  C   UNL A   1      42.004  27.714  28.650  1.00  0.00     0.049 A 
ATOM     31  N   UNL A   1      44.058  29.890  28.376  1.00  0.00    -0.248 NA
ATOM     32  C   UNL A   1      42.430  31.454  28.965  1.00  0.00     0.031 C 
ATOM     33  C   UNL A   1      41.012  26.636  28.734  1.00  0.00     0.029 A 
ATOM     34  N   UNL A   1      43.155  27.083  28.265  1.00  0.00    -0.354 N 
ATOM     35  C   UNL A   1      44.638  31.153  28.396  1.00  0.00     0.074 A 
ATOM     36  C   UNL A   1      43.584  32.083  28.755  1.00  0.00     0.031 C 
ATOM     37  C   UNL A   1      41.570  25.496  28.314  1.00  0.00     0.029 A 
ATOM     38  C   UNL A   1      42.951  25.767  27.932  1.00  0.00     0.049 A 
ATOM     39  H   UNL A   1      44.034  27.525  28.230  1.00  0.00     0.167 HD
ATOM     40  C   UNL A   1      45.929  31.489  28.142  1.00  0.00     0.037 A 
ATOM     41  C   UNL A   1      43.765  24.875  27.343  1.00  0.00     0.037 A 
ATOM     42  C   UNL A   1      46.953  30.537  27.778  1.00  0.00     0.049 A 
ATOM     43  C   UNL A   1      45.173  25.269  27.042  1.00  0.00     0.074 A 
ATOM     44  C   UNL A   1      48.309  30.758  27.589  1.00  0.00     0.029 A 
ATOM     45  N   UNL A   1      46.735  29.189  27.523  1.00  0.00    -0.354 N 
ATOM     46  N   UNL A   1      45.731  26.450  27.159  1.00  0.00    -0.248 NA
ATOM     47  C   UNL A   1      46.071  24.211  26.572  1.00  0.00     0.031 C 
ATOM     48  C   UNL A   1      48.900  29.555  27.181  1.00  0.00     0.029 A 
ATOM     49  C   UNL A   1      47.922  28.574  27.156  1.00  0.00     0.049 A 
ATOM     50  H   UNL A   1      45.865  28.736  27.594  1.00  0.00     0.167 HD
ATOM     51  C   UNL A   1      47.063  26.269  26.819  1.00  0.00     0.074 A 
ATOM     52  C   UNL A   1      47.220  24.869  26.475  1.00  0.00     0.031 C 
ATOM     53  C   UNL A   1      48.066  27.179  26.817  1.00  0.00     0.037 A 
BRANCH  40  54
ATOM     54  C   UNL A   1      46.333  32.937  28.245  1.00  0.00     0.058 A 
ATOM     55  C   UNL A   1      46.901  33.461  29.417  1.00  0.00     0.135 A 
ATOM     56  C   UNL A   1      46.257  33.783  27.126  1.00  0.00     0.135 A 
ATOM     57  F   UNL A   1      47.003  32.700  30.517  1.00  0.00    -0.206 F 
ATOM     58  C   UNL A   1      47.367  34.774  29.479  1.00  0.00     0.059 A 
ATOM     59  C   UNL A   1      46.733  35.093  27.160  1.00  0.00     0.059 A 
ATOM     60  F   UNL A   1      45.733  33.333  25.974  1.00  0.00    -0.206 F 
ATOM     61  C   UNL A   1      47.277  35.582  28.346  1.00  0.00     0.060 A 
BRANCH  61  62
ATOM     62  S   UNL A   1      47.906  37.275  28.432  1.00  0.00     0.124 S 
ATOM     63  O   UNL A   1      48.718  37.221  29.643  1.00  0.00    -0.237 OA
ATOM     64  O   UNL A   1      48.645  37.402  27.180  1.00  0.00    -0.237 OA
ATOM     65  O   UNL A   1      46.694  38.084  28.524  1.00  0.00    -0.744 OA
ENDBRANCH  61  62
ENDBRANCH  40  54
BRANCH  41  66
ATOM     66  C   UNL A   1      43.235  23.525  27.053  1.00  0.00     0.058 A 
ATOM     67  C   UNL A   1      42.966  23.137  25.735  1.00  0.00     0.135 A 
ATOM     68  C   UNL A   1      43.140  22.555  28.064  1.00  0.00     0.135 A 
ATOM     69  F   UNL A   1      43.063  24.031  24.740  1.00  0.00    -0.206 F 
ATOM     70  C   UNL A   1      42.630  21.826  25.423  1.00  0.00     0.059 A 
ATOM     71  C   UNL A   1      42.819  21.235  27.775  1.00  0.00     0.059 A 
ATOM     72  F   UNL A   1      43.428  22.878  29.335  1.00  0.00    -0.206 F 
ATOM     73  C   UNL A   1      42.570  20.879  26.449  1.00  0.00     0.060 A 
BRANCH  73  74
ATOM     74  S   UNL A   1      42.245  19.157  26.014  1.00  0.00     0.124 S 
ATOM     75  O   UNL A   1      42.616  18.470  27.244  1.00  0.00    -0.237 OA
ATOM     76  O   UNL A   1      40.819  19.184  25.701  1.00  0.00    -0.237 OA
ATOM     77  O   UNL A   1      43.124  18.930  24.870  1.00  0.00    -0.744 OA
ENDBRANCH  73  74
ENDBRANCH  41  66
BRANCH  53  78
ATOM     78  C   UNL A   1      49.437  26.678  26.473  1.00  0.00     0.058 A 
ATOM     79  C   UNL A   1      50.255  26.054  27.426  1.00  0.00     0.135 A 
ATOM     80  C   UNL A   1      49.924  26.797  25.161  1.00  0.00     0.135 A 
ATOM     81  F   UNL A   1      49.839  25.933  28.697  1.00  0.00    -0.206 F 
ATOM     82  C   UNL A   1      51.516  25.574  27.094  1.00  0.00     0.059 A 
ATOM     83  C   UNL A   1      51.174  26.307  24.801  1.00  0.00     0.059 A 
ATOM     84  F   UNL A   1      49.177  27.388  24.214  1.00  0.00    -0.206 F 
ATOM     85  C   UNL A   1      51.967  25.704  25.777  1.00  0.00     0.060 A 
BRANCH  85  86
ATOM     86  S   UNL A   1      53.589  25.041  25.346  1.00  0.00     0.124 S 
ATOM     87  O   UNL A   1      53.353  23.604  25.437  1.00  0.00    -0.237 OA
ATOM     88  O   UNL A   1      53.796  25.566  23.999  1.00  0.00    -0.237 OA
ATOM     89  O   UNL A   1      54.466  25.600  26.370  1.00  0.00    -0.744 OA
ENDBRANCH  85  86
ENDBRANCH  53  78
ENDBRANCH  27  28
ENDBRANCH  20  22
ENDBRANCH  19  20
ENDBRANCH  18  19
ENDBRANCH   1  18
TORSDOF 20
ENDMDL
MODEL 3
REMARK VINA RESULT:      -9.3      7.237     13.599
REMARK SMILES C=CCN(CC(=O)OCCOC(=O)c1ccc(-c2c3nc(c(-c4c(F)cc(S(=O)(=O)[O-])cc4F)c4ccc([nH]4)c(-c4c(F)cc(S(=O)(=O)[O-])cc4F)c4nc(c(-c5c(F)cc(S(=O)(=O)[O-])cc5F)c5ccc2[nH]5)C=C4)C=C3)cc1)C(=O)NCC(C)C
REMARK SMILES IDX 9 1 8 2 6 3 7 4 5 5 4 6 3 7 2 8 1 9 80 10 81 11 82 12 83 14
REMARK SMILES IDX 84 15 85 16 86 17 10 18 11 19 12 20 13 21 14 22 15 23 79 24
REMARK SMILES IDX 16 25 78 26 17 27 18 28 19 29 72 30 20 31 77 32 71 33 73 34
REMARK SMILES IDX 21 35 76 36 70 37 69 38 22 40 56 41 35 42 55 43 36 44 39 45
REMARK SMILES IDX 54 46 74 47 37 48 38 49 53 51 75 52 40 53 23 54 24 55 33 56
REMARK SMILES IDX 25 57 26 58 32 59 34 60 27 61 28 62 29 63 30 64 31 65 57 66
REMARK SMILES IDX 58 67 67 68 59 69 60 70 66 71 68 72 61 73 62 74 63 75 64 76
REMARK SMILES IDX 65 77 41 78 42 79 51 80 43 81 44 82 50 83 52 84 45 85 46 86
REMARK SMILES IDX 47 87 48 88 49 89
REMARK H PARENT 82 13 73 39 39 50
REMARK Flexibility Score: inf
ROOT
ATOM      1  C   UNL A   1      37.418  22.755  25.686  1.00  0.00     0.274 C 
ENDROOT
BRANCH   1   2
ATOM      2  O   UNL A   1      36.005  22.700  26.018  1.00  0.00    -0.461 OA
BRANCH   2   3
ATOM      3  C   UNL A   1      35.153  23.167  25.060  1.00  0.00     0.325 C 
ATOM      4  O   UNL A   1      34.885  24.359  24.919  1.00  0.00    -0.250 OA
BRANCH   3   5
ATOM      5  C   UNL A   1      34.707  22.116  24.020  1.00  0.00     0.244 C 
BRANCH   5   6
ATOM      6  N   UNL A   1      33.288  21.788  23.891  1.00  0.00    -0.310 N 
BRANCH   6   7
ATOM      7  C   UNL A   1      32.737  21.117  25.072  1.00  0.00     0.149 C 
BRANCH   7   8
ATOM      8  C   UNL A   1      32.572  19.646  24.772  1.00  0.00    -0.013 C 
ATOM      9  C   UNL A   1      33.580  18.765  24.713  1.00  0.00     0.006 C 
ENDBRANCH   7   8
ENDBRANCH   6   7
BRANCH   6  10
ATOM     10  C   UNL A   1      32.392  22.113  22.919  1.00  0.00     0.318 C 
ATOM     11  O   UNL A   1      32.035  21.265  22.086  1.00  0.00    -0.249 OA
ATOM     12  N   UNL A   1      31.780  23.286  22.738  1.00  0.00    -0.338 N 
ATOM     13  H   UNL A   1      31.098  23.170  22.036  1.00  0.00     0.165 HD
BRANCH  12  14
ATOM     14  C   UNL A   1      31.737  24.681  23.188  1.00  0.00     0.120 C 
BRANCH  14  15
ATOM     15  C   UNL A   1      30.508  24.888  24.125  1.00  0.00     0.002 C 
ATOM     16  C   UNL A   1      30.813  24.315  25.513  1.00  0.00     0.009 C 
ATOM     17  C   UNL A   1      30.035  26.327  24.341  1.00  0.00     0.009 C 
ENDBRANCH  14  15
ENDBRANCH  12  14
ENDBRANCH   6  10
ENDBRANCH   5   6
ENDBRANCH   3   5
ENDBRANCH   2   3
ENDBRANCH   1   2
BRANCH   1  18
ATOM     18  C   UNL A   1      38.152  24.030  26.176  1.00  0.00     0.275 C 
BRANCH  18  19
ATOM     19  O   UNL A   1      39.308  23.784  27.019  1.00  0.00    -0.458 OA
BRANCH  19  20
ATOM     20  C   UNL A   1      40.258  24.704  26.807  1.00  0.00     0.338 C 
ATOM     21  O   UNL A   1      41.140  24.571  25.956  1.00  0.00    -0.246 OA
BRANCH  20  22
ATOM     22  C   UNL A   1      40.321  25.910  27.625  1.00  0.00     0.060 A 
ATOM     23  C   UNL A   1      41.521  26.635  27.671  1.00  0.00     0.016 A 
ATOM     24  C   UNL A   1      39.396  26.013  28.665  1.00  0.00     0.016 A 
ATOM     25  C   UNL A   1      41.793  27.470  28.762  1.00  0.00     0.010 A 
ATOM     26  C   UNL A   1      39.676  26.831  29.759  1.00  0.00     0.010 A 
ATOM     27  C   UNL A   1      40.871  27.571  29.815  1.00  0.00    -0.014 A 
BRANCH  27  28
ATOM     28  C   UNL A   1      40.966  28.646  30.831  1.00  0.00     0.031 A 
ATOM     29  C   UNL A   1      41.749  28.522  32.105  1.00  0.00     0.074 A 
ATOM     30  C   UNL A   1      40.135  29.686  30.632  1.00  0.00     0.049 A 
ATOM     31  N   UNL A   1      41.732  29.311  33.150  1.00  0.00    -0.248 NA
ATOM     32  C   UNL A   1      42.666  27.381  32.229  1.00  0.00     0.031 C 
ATOM     33  C   UNL A   1      39.311  29.871  29.432  1.00  0.00     0.029 A 
ATOM     34  N   UNL A   1      39.775  30.722  31.450  1.00  0.00    -0.354 N 
ATOM     35  C   UNL A   1      42.635  28.773  34.059  1.00  0.00     0.074 A 
ATOM     36  C   UNL A   1      43.174  27.575  33.443  1.00  0.00     0.031 C 
ATOM     37  C   UNL A   1      38.472  30.893  29.632  1.00  0.00     0.029 A 
ATOM     38  C   UNL A   1      38.700  31.427  30.969  1.00  0.00     0.049 A 
ATOM     39  H   UNL A   1      40.237  30.938  32.293  1.00  0.00     0.167 HD
ATOM     40  C   UNL A   1      42.975  29.247  35.285  1.00  0.00     0.037 A 
ATOM     41  C   UNL A   1      37.942  32.373  31.549  1.00  0.00     0.037 A 
ATOM     42  C   UNL A   1      42.411  30.441  35.874  1.00  0.00     0.049 A 
ATOM     43  C   UNL A   1      38.311  32.862  32.910  1.00  0.00     0.074 A 
ATOM     44  C   UNL A   1      42.751  31.058  37.067  1.00  0.00     0.029 A 
ATOM     45  N   UNL A   1      41.374  31.185  35.328  1.00  0.00    -0.354 N 
ATOM     46  N   UNL A   1      39.235  32.402  33.718  1.00  0.00    -0.248 NA
ATOM     47  C   UNL A   1      37.570  34.018  33.422  1.00  0.00     0.031 C 
ATOM     48  C   UNL A   1      41.894  32.148  37.261  1.00  0.00     0.029 A 
ATOM     49  C   UNL A   1      41.046  32.237  36.170  1.00  0.00     0.049 A 
ATOM     50  H   UNL A   1      40.935  30.994  34.468  1.00  0.00     0.167 HD
ATOM     51  C   UNL A   1      39.219  33.243  34.821  1.00  0.00     0.074 A 
ATOM     52  C   UNL A   1      38.181  34.227  34.582  1.00  0.00     0.031 C 
ATOM     53  C   UNL A   1      40.012  33.211  35.919  1.00  0.00     0.037 A 
BRANCH  40  54
ATOM     54  C   UNL A   1      44.003  28.496  36.091  1.00  0.00     0.058 A 
ATOM     55  C   UNL A   1      43.654  27.387  36.880  1.00  0.00     0.135 A 
ATOM     56  C   UNL A   1      45.368  28.815  35.988  1.00  0.00     0.135 A 
ATOM     57  F   UNL A   1      42.367  27.032  37.014  1.00  0.00    -0.206 F 
ATOM     58  C   UNL A   1      44.619  26.632  37.545  1.00  0.00     0.059 A 
ATOM     59  C   UNL A   1      46.350  28.063  36.629  1.00  0.00     0.059 A 
ATOM     60  F   UNL A   1      45.762  29.857  35.239  1.00  0.00    -0.206 F 
ATOM     61  C   UNL A   1      45.964  26.978  37.415  1.00  0.00     0.060 A 
BRANCH  61  62
ATOM     62  S   UNL A   1      47.207  25.976  38.263  1.00  0.00     0.124 S 
ATOM     63  O   UNL A   1      46.728  24.625  37.987  1.00  0.00    -0.237 OA
ATOM     64  O   UNL A   1      48.440  26.361  37.585  1.00  0.00    -0.237 OA
ATOM     65  O   UNL A   1      47.100  26.408  39.654  1.00  0.00    -0.744 OA
ENDBRANCH  61  62
ENDBRANCH  40  54
BRANCH  41  66
ATOM     66  C   UNL A   1      36.793  32.915  30.790  1.00  0.00     0.058 A 
ATOM     67  C   UNL A   1      35.483  32.603  31.170  1.00  0.00     0.135 A 
ATOM     68  C   UNL A   1      36.984  33.872  29.781  1.00  0.00     0.135 A 
ATOM     69  F   UNL A   1      35.262  31.707  32.143  1.00  0.00    -0.206 F 
ATOM     70  C   UNL A   1      34.393  33.231  30.581  1.00  0.00     0.059 A 
ATOM     71  C   UNL A   1      35.910  34.523  29.187  1.00  0.00     0.059 A 
ATOM     72  F   UNL A   1      38.226  34.227  29.415  1.00  0.00    -0.206 F 
ATOM     73  C   UNL A   1      34.617  34.198  29.598  1.00  0.00     0.060 A 
BRANCH  73  74
ATOM     74  S   UNL A   1      33.197  35.086  28.924  1.00  0.00     0.124 S 
ATOM     75  O   UNL A   1      32.415  35.343  30.127  1.00  0.00    -0.237 OA
ATOM     76  O   UNL A   1      33.827  36.251  28.311  1.00  0.00    -0.237 OA
ATOM     77  O   UNL A   1      32.618  34.129  27.984  1.00  0.00    -0.744 OA
ENDBRANCH  73  74
ENDBRANCH  41  66
BRANCH  53  78
ATOM     78  C   UNL A   1      39.816  34.303  36.929  1.00  0.00     0.058 A 
ATOM     79  C   UNL A   1      39.002  34.127  38.057  1.00  0.00     0.135 A 
ATOM     80  C   UNL A   1      40.479  35.531  36.778  1.00  0.00     0.135 A 
ATOM     81  F   UNL A   1      38.335  32.976  38.235  1.00  0.00    -0.206 F 
ATOM     82  C   UNL A   1      38.843  35.137  38.999  1.00  0.00     0.059 A 
ATOM     83  C   UNL A   1      40.350  36.548  37.716  1.00  0.00     0.059 A 
ATOM     84  F   UNL A   1      41.268  35.747  35.713  1.00  0.00    -0.206 F 
ATOM     85  C   UNL A   1      39.522  36.345  38.820  1.00  0.00     0.060 A 
BRANCH  85  86
ATOM     86  S   UNL A   1      39.341  37.636  40.068  1.00  0.00     0.124 S 
ATOM     87  O   UNL A   1      39.098  36.848  41.272  1.00  0.00    -0.237 OA
ATOM     88  O   UNL A   1      40.630  38.318  40.006  1.00  0.00    -0.237 OA
ATOM     89  O   UNL A   1      38.204  38.415  39.587  1.00  0.00    -0.744 OA
ENDBRANCH  85  86
ENDBRANCH  53  78
ENDBRANCH  27  28
ENDBRANCH  20  22
ENDBRANCH  19  20
ENDBRANCH  18  19
ENDBRANCH   1  18
TORSDOF 20
ENDMDL
