MODEL 1
REMARK VINA RESULT:     -10.5      0.000      0.000
REMARK SMILES CC1(C)S[C@@H](c2ccsc2)[NH2+][C@@H]1C(=O)OCCOC(=O)c1ccc(-c2c3nc(c(-c4c(F)cc(S(=O)(=O)[O-])cc4F)c4ccc([nH]4)c(-c4c(F)cc(S(=O)(=O)[O-])cc4F)c4nc(c(-c5c(F)cc(S(=O)(=O)[O-])cc5F)c5ccc2[nH]5)C=C4)C=C3)cc1
REMARK SMILES IDX 17 1 16 2 15 3 13 4 14 5 12 6 1 7 2 8 3 9 4 10 5 11 11 12
REMARK SMILES IDX 6 15 7 16 10 17 8 18 9 19 18 20 19 21 20 22 21 23 22 24
REMARK SMILES IDX 86 25 23 26 85 27 24 28 25 29 26 30 79 31 27 32 84 33 78 34
REMARK SMILES IDX 80 35 28 36 83 37 77 38 76 39 29 41 63 42 42 43 62 44 43 45
REMARK SMILES IDX 46 46 61 47 81 48 44 49 45 50 60 52 82 53 47 54 30 55 31 56
REMARK SMILES IDX 40 57 32 58 33 59 39 60 41 61 34 62 35 63 36 64 37 65 38 66
REMARK SMILES IDX 64 67 65 68 74 69 66 70 67 71 73 72 75 73 68 74 69 75 70 76
REMARK SMILES IDX 71 77 72 78 48 79 49 80 58 81 50 82 51 83 57 84 59 85 52 86
REMARK SMILES IDX 53 87 54 88 55 89 56 90
REMARK H PARENT 11 13 11 14 80 40 46 51
REMARK Flexibility Score: inf
ROOT
ATOM      1  C   UNL A   1      32.367  29.207  27.247  1.00  0.00     0.275 C 
ENDROOT
BRANCH   1   2
ATOM      2  C   UNL A   1      31.485  28.061  27.755  1.00  0.00     0.274 C 
BRANCH   2   3
ATOM      3  O   UNL A   1      30.859  27.356  26.666  1.00  0.00    -0.458 OA
BRANCH   3   4
ATOM      4  C   UNL A   1      31.691  26.608  25.876  1.00  0.00     0.366 C 
ATOM      5  O   UNL A   1      32.659  25.999  26.305  1.00  0.00    -0.245 OA
BRANCH   4   6
ATOM      6  C   UNL A   1      31.195  26.611  24.409  1.00  0.00     0.310 C 
ATOM      7  C   UNL A   1      31.714  26.433  21.928  1.00  0.00     0.030 C 
ATOM      8  C   UNL A   1      32.228  26.941  23.295  1.00  0.00     0.079 C 
ATOM      9  C   UNL A   1      33.673  26.457  23.437  1.00  0.00     0.030 C 
ATOM     10  S   UNL A   1      32.237  28.761  23.281  1.00  0.00    -0.081 SA
ATOM     11  C   UNL A   1      30.634  28.905  24.103  1.00  0.00     0.275 C 
ATOM     12  N   UNL A   1      30.049  27.571  24.257  1.00  0.00    -0.319 N 
ATOM     13  H   UNL A   1      29.497  27.332  23.432  1.00  0.00     0.348 HD
ATOM     14  H   UNL A   1      29.429  27.533  25.066  1.00  0.00     0.348 HD
BRANCH  11  15
ATOM     15  C   UNL A   1      29.714  29.792  23.306  1.00  0.00     0.031 A 
ATOM     16  C   UNL A   1      29.181  31.065  23.730  1.00  0.00     0.022 A 
ATOM     17  C   UNL A   1      29.202  29.459  22.063  1.00  0.00     0.075 A 
ATOM     18  C   UNL A   1      28.280  31.598  22.836  1.00  0.00     0.065 A 
ATOM     19  S   UNL A   1      28.095  30.612  21.456  1.00  0.00    -0.152 S 
ENDBRANCH  11  15
ENDBRANCH   4   6
ENDBRANCH   3   4
ENDBRANCH   2   3
ENDBRANCH   1   2
BRANCH   1  20
ATOM     20  O   UNL A   1      33.756  29.009  27.571  1.00  0.00    -0.458 OA
BRANCH  20  21
ATOM     21  C   UNL A   1      34.428  30.139  27.910  1.00  0.00     0.338 C 
ATOM     22  O   UNL A   1      33.951  31.244  28.087  1.00  0.00    -0.246 OA
BRANCH  21  23
ATOM     23  C   UNL A   1      35.834  29.820  28.237  1.00  0.00     0.060 A 
ATOM     24  C   UNL A   1      36.757  29.899  27.192  1.00  0.00     0.016 A 
ATOM     25  C   UNL A   1      36.252  29.426  29.510  1.00  0.00     0.016 A 
ATOM     26  C   UNL A   1      38.108  29.653  27.422  1.00  0.00     0.010 A 
ATOM     27  C   UNL A   1      37.609  29.146  29.735  1.00  0.00     0.010 A 
ATOM     28  C   UNL A   1      38.545  29.279  28.695  1.00  0.00    -0.014 A 
BRANCH  28  29
ATOM     29  C   UNL A   1      39.975  28.937  28.877  1.00  0.00     0.031 A 
ATOM     30  C   UNL A   1      40.900  29.974  29.440  1.00  0.00     0.074 A 
ATOM     31  C   UNL A   1      40.420  27.691  28.632  1.00  0.00     0.049 A 
ATOM     32  N   UNL A   1      42.187  29.903  29.658  1.00  0.00    -0.248 NA
ATOM     33  C   UNL A   1      40.288  31.254  29.828  1.00  0.00     0.031 C 
ATOM     34  C   UNL A   1      39.592  26.568  28.194  1.00  0.00     0.029 A 
ATOM     35  N   UNL A   1      41.684  27.160  28.724  1.00  0.00    -0.354 N 
ATOM     36  C   UNL A   1      42.543  31.130  30.202  1.00  0.00     0.074 A 
ATOM     37  C   UNL A   1      41.337  31.928  30.276  1.00  0.00     0.031 C 
ATOM     38  C   UNL A   1      40.375  25.485  28.037  1.00  0.00     0.029 A 
ATOM     39  C   UNL A   1      41.762  25.848  28.319  1.00  0.00     0.049 A 
ATOM     40  H   UNL A   1      42.460  27.671  29.049  1.00  0.00     0.167 HD
ATOM     41  C   UNL A   1      43.766  31.553  30.597  1.00  0.00     0.037 A 
ATOM     42  C   UNL A   1      42.836  25.047  28.161  1.00  0.00     0.037 A 
ATOM     43  C   UNL A   1      44.964  30.761  30.498  1.00  0.00     0.049 A 
ATOM     44  C   UNL A   1      44.209  25.585  28.486  1.00  0.00     0.074 A 
ATOM     45  C   UNL A   1      46.258  31.113  30.841  1.00  0.00     0.029 A 
ATOM     46  N   UNL A   1      45.020  29.463  30.009  1.00  0.00    -0.354 N 
ATOM     47  N   UNL A   1      44.542  26.757  28.976  1.00  0.00    -0.248 NA
ATOM     48  C   UNL A   1      45.352  24.698  28.231  1.00  0.00     0.031 C 
ATOM     49  C   UNL A   1      47.103  30.051  30.505  1.00  0.00     0.029 A 
ATOM     50  C   UNL A   1      46.329  29.012  30.014  1.00  0.00     0.049 A 
ATOM     51  H   UNL A   1      44.243  28.941  29.705  1.00  0.00     0.167 HD
ATOM     52  C   UNL A   1      45.927  26.734  29.115  1.00  0.00     0.074 A 
ATOM     53  C   UNL A   1      46.369  25.430  28.668  1.00  0.00     0.031 C 
ATOM     54  C   UNL A   1      46.757  27.704  29.576  1.00  0.00     0.037 A 
BRANCH  41  55
ATOM     55  C   UNL A   1      43.877  32.961  31.109  1.00  0.00     0.058 A 
ATOM     56  C   UNL A   1      43.774  33.268  32.474  1.00  0.00     0.135 A 
ATOM     57  C   UNL A   1      44.101  34.019  30.213  1.00  0.00     0.135 A 
ATOM     58  F   UNL A   1      43.534  32.296  33.370  1.00  0.00    -0.206 F 
ATOM     59  C   UNL A   1      43.864  34.579  32.932  1.00  0.00     0.059 A 
ATOM     60  C   UNL A   1      44.223  35.334  30.652  1.00  0.00     0.059 A 
ATOM     61  F   UNL A   1      44.200  33.781  28.896  1.00  0.00    -0.206 F 
ATOM     62  C   UNL A   1      44.088  35.605  32.012  1.00  0.00     0.060 A 
BRANCH  62  63
ATOM     63  S   UNL A   1      44.196  37.301  32.620  1.00  0.00     0.124 S 
ATOM     64  O   UNL A   1      45.528  37.311  33.218  1.00  0.00    -0.237 OA
ATOM     65  O   UNL A   1      44.046  38.080  31.395  1.00  0.00    -0.237 OA
ATOM     66  O   UNL A   1      43.086  37.396  33.562  1.00  0.00    -0.744 OA
ENDBRANCH  62  63
ENDBRANCH  41  55
BRANCH  42  67
ATOM     67  C   UNL A   1      42.674  23.668  27.620  1.00  0.00     0.058 A 
ATOM     68  C   UNL A   1      42.516  22.562  28.467  1.00  0.00     0.135 A 
ATOM     69  C   UNL A   1      42.706  23.427  26.236  1.00  0.00     0.135 A 
ATOM     70  F   UNL A   1      42.497  22.734  29.798  1.00  0.00    -0.206 F 
ATOM     71  C   UNL A   1      42.413  21.266  27.968  1.00  0.00     0.059 A 
ATOM     72  C   UNL A   1      42.575  22.145  25.711  1.00  0.00     0.059 A 
ATOM     73  F   UNL A   1      42.855  24.447  25.378  1.00  0.00    -0.206 F 
ATOM     74  C   UNL A   1      42.441  21.069  26.586  1.00  0.00     0.060 A 
BRANCH  74  75
ATOM     75  S   UNL A   1      42.275  19.388  25.944  1.00  0.00     0.124 S 
ATOM     76  O   UNL A   1      43.083  19.455  24.732  1.00  0.00    -0.237 OA
ATOM     77  O   UNL A   1      42.824  18.589  27.035  1.00  0.00    -0.237 OA
ATOM     78  O   UNL A   1      40.837  19.248  25.736  1.00  0.00    -0.744 OA
ENDBRANCH  74  75
ENDBRANCH  42  67
BRANCH  54  79
ATOM     79  C   UNL A   1      48.226  27.388  29.665  1.00  0.00     0.058 A 
ATOM     80  C   UNL A   1      49.137  27.794  28.677  1.00  0.00     0.135 A 
ATOM     81  C   UNL A   1      48.741  26.731  30.797  1.00  0.00     0.135 A 
ATOM     82  F   UNL A   1      48.700  28.420  27.573  1.00  0.00    -0.206 F 
ATOM     83  C   UNL A   1      50.500  27.547  28.799  1.00  0.00     0.059 A 
ATOM     84  C   UNL A   1      50.104  26.502  30.953  1.00  0.00     0.059 A 
ATOM     85  F   UNL A   1      47.917  26.331  31.779  1.00  0.00    -0.206 F 
ATOM     86  C   UNL A   1      50.975  26.905  29.944  1.00  0.00     0.060 A 
BRANCH  86  87
ATOM     87  S   UNL A   1      52.753  26.632  30.110  1.00  0.00     0.124 S 
ATOM     88  O   UNL A   1      53.235  27.983  30.377  1.00  0.00    -0.237 OA
ATOM     89  O   UNL A   1      52.821  25.701  31.232  1.00  0.00    -0.237 OA
ATOM     90  O   UNL A   1      53.136  26.074  28.817  1.00  0.00    -0.744 OA
ENDBRANCH  86  87
ENDBRANCH  54  79
ENDBRANCH  28  29
ENDBRANCH  21  23
ENDBRANCH  20  21
ENDBRANCH   1  20
TORSDOF 15
ENDMDL
MODEL 2
REMARK VINA RESULT:     -10.5      1.665      3.113
REMARK SMILES CC1(C)S[C@@H](c2ccsc2)[NH2+][C@@H]1C(=O)OCCOC(=O)c1ccc(-c2c3nc(c(-c4c(F)cc(S(=O)(=O)[O-])cc4F)c4ccc([nH]4)c(-c4c(F)cc(S(=O)(=O)[O-])cc4F)c4nc(c(-c5c(F)cc(S(=O)(=O)[O-])cc5F)c5ccc2[nH]5)C=C4)C=C3)cc1
REMARK SMILES IDX 17 1 16 2 15 3 13 4 14 5 12 6 1 7 2 8 3 9 4 10 5 11 11 12
REMARK SMILES IDX 6 15 7 16 10 17 8 18 9 19 18 20 19 21 20 22 21 23 22 24
REMARK SMILES IDX 86 25 23 26 85 27 24 28 25 29 26 30 79 31 27 32 84 33 78 34
REMARK SMILES IDX 80 35 28 36 83 37 77 38 76 39 29 41 63 42 42 43 62 44 43 45
REMARK SMILES IDX 46 46 61 47 81 48 44 49 45 50 60 52 82 53 47 54 30 55 31 56
REMARK SMILES IDX 40 57 32 58 33 59 39 60 41 61 34 62 35 63 36 64 37 65 38 66
REMARK SMILES IDX 64 67 65 68 74 69 66 70 67 71 73 72 75 73 68 74 69 75 70 76
REMARK SMILES IDX 71 77 72 78 48 79 49 80 58 81 50 82 51 83 57 84 59 85 52 86
REMARK SMILES IDX 53 87 54 88 55 89 56 90
REMARK H PARENT 11 13 11 14 80 40 46 51
REMARK Flexibility Score: inf
ROOT
ATOM      1  C   UNL A   1      32.447  29.239  27.240  1.00  0.00     0.275 C 
ENDROOT
BRANCH   1   2
ATOM      2  C   UNL A   1      31.885  28.174  26.292  1.00  0.00     0.274 C 
BRANCH   2   3
ATOM      3  O   UNL A   1      31.396  27.029  27.017  1.00  0.00    -0.458 OA
BRANCH   3   4
ATOM      4  C   UNL A   1      31.650  25.807  26.454  1.00  0.00     0.366 C 
ATOM      5  O   UNL A   1      31.102  24.774  26.810  1.00  0.00    -0.245 OA
BRANCH   4   6
ATOM      6  C   UNL A   1      32.668  25.943  25.295  1.00  0.00     0.310 C 
ATOM      7  C   UNL A   1      33.129  26.135  22.804  1.00  0.00     0.030 C 
ATOM      8  C   UNL A   1      32.216  25.496  23.876  1.00  0.00     0.079 C 
ATOM      9  C   UNL A   1      30.771  25.733  23.433  1.00  0.00     0.030 C 
ATOM     10  S   UNL A   1      32.513  23.700  23.906  1.00  0.00    -0.081 SA
ATOM     11  C   UNL A   1      33.673  23.783  25.290  1.00  0.00     0.275 C 
ATOM     12  N   UNL A   1      33.925  25.187  25.625  1.00  0.00    -0.319 N 
ATOM     13  H   UNL A   1      34.705  25.545  25.073  1.00  0.00     0.348 HD
ATOM     14  H   UNL A   1      34.168  25.292  26.610  1.00  0.00     0.348 HD
BRANCH  11  15
ATOM     15  C   UNL A   1      34.962  23.089  24.936  1.00  0.00     0.031 A 
ATOM     16  C   UNL A   1      35.770  23.340  23.767  1.00  0.00     0.022 A 
ATOM     17  C   UNL A   1      35.511  22.054  25.674  1.00  0.00     0.075 A 
ATOM     18  C   UNL A   1      36.837  22.477  23.653  1.00  0.00     0.065 A 
ATOM     19  S   UNL A   1      36.917  21.389  24.964  1.00  0.00    -0.152 S 
ENDBRANCH  11  15
ENDBRANCH   4   6
ENDBRANCH   3   4
ENDBRANCH   2   3
ENDBRANCH   1   2
BRANCH   1  20
ATOM     20  O   UNL A   1      33.856  29.063  27.482  1.00  0.00    -0.458 OA
BRANCH  20  21
ATOM     21  C   UNL A   1      34.495  30.167  27.947  1.00  0.00     0.338 C 
ATOM     22  O   UNL A   1      33.990  31.243  28.214  1.00  0.00    -0.246 OA
BRANCH  21  23
ATOM     23  C   UNL A   1      35.897  29.843  28.284  1.00  0.00     0.060 A 
ATOM     24  C   UNL A   1      36.833  29.948  27.253  1.00  0.00     0.016 A 
ATOM     25  C   UNL A   1      36.300  29.420  29.553  1.00  0.00     0.016 A 
ATOM     26  C   UNL A   1      38.181  29.699  27.495  1.00  0.00     0.010 A 
ATOM     27  C   UNL A   1      37.654  29.137  29.789  1.00  0.00     0.010 A 
ATOM     28  C   UNL A   1      38.603  29.296  28.764  1.00  0.00    -0.014 A 
BRANCH  28  29
ATOM     29  C   UNL A   1      40.031  28.952  28.956  1.00  0.00     0.031 A 
ATOM     30  C   UNL A   1      40.953  29.985  29.531  1.00  0.00     0.074 A 
ATOM     31  C   UNL A   1      40.478  27.706  28.708  1.00  0.00     0.049 A 
ATOM     32  N   UNL A   1      42.238  29.912  29.759  1.00  0.00    -0.248 NA
ATOM     33  C   UNL A   1      40.339  31.264  29.920  1.00  0.00     0.031 C 
ATOM     34  C   UNL A   1      39.652  26.586  28.258  1.00  0.00     0.029 A 
ATOM     35  N   UNL A   1      41.740  27.175  28.808  1.00  0.00    -0.354 N 
ATOM     36  C   UNL A   1      42.590  31.136  30.312  1.00  0.00     0.074 A 
ATOM     37  C   UNL A   1      41.384  31.935  30.380  1.00  0.00     0.031 C 
ATOM     38  C   UNL A   1      40.435  25.503  28.102  1.00  0.00     0.029 A 
ATOM     39  C   UNL A   1      41.821  25.864  28.397  1.00  0.00     0.049 A 
ATOM     40  H   UNL A   1      42.514  27.683  29.142  1.00  0.00     0.167 HD
ATOM     41  C   UNL A   1      43.810  31.557  30.720  1.00  0.00     0.037 A 
ATOM     42  C   UNL A   1      42.896  25.063  28.244  1.00  0.00     0.037 A 
ATOM     43  C   UNL A   1      45.008  30.764  30.627  1.00  0.00     0.049 A 
ATOM     44  C   UNL A   1      44.266  25.599  28.583  1.00  0.00     0.074 A 
ATOM     45  C   UNL A   1      46.299  31.113  30.982  1.00  0.00     0.029 A 
ATOM     46  N   UNL A   1      45.067  29.468  30.132  1.00  0.00    -0.354 N 
ATOM     47  N   UNL A   1      44.595  26.767  29.081  1.00  0.00    -0.248 NA
ATOM     48  C   UNL A   1      45.411  24.712  28.333  1.00  0.00     0.031 C 
ATOM     49  C   UNL A   1      47.146  30.052  30.647  1.00  0.00     0.029 A 
ATOM     50  C   UNL A   1      46.376  29.016  30.145  1.00  0.00     0.049 A 
ATOM     51  H   UNL A   1      44.292  28.949  29.818  1.00  0.00     0.167 HD
ATOM     52  C   UNL A   1      45.980  26.743  29.232  1.00  0.00     0.074 A 
ATOM     53  C   UNL A   1      46.424  25.441  28.781  1.00  0.00     0.031 C 
ATOM     54  C   UNL A   1      46.806  27.710  29.704  1.00  0.00     0.037 A 
BRANCH  41  55
ATOM     55  C   UNL A   1      43.918  32.962  31.240  1.00  0.00     0.058 A 
ATOM     56  C   UNL A   1      43.884  33.253  32.611  1.00  0.00     0.135 A 
ATOM     57  C   UNL A   1      44.068  34.033  30.344  1.00  0.00     0.135 A 
ATOM     58  F   UNL A   1      43.716  32.268  33.508  1.00  0.00    -0.206 F 
ATOM     59  C   UNL A   1      43.970  34.562  33.077  1.00  0.00     0.059 A 
ATOM     60  C   UNL A   1      44.185  35.346  30.788  1.00  0.00     0.059 A 
ATOM     61  F   UNL A   1      44.098  33.809  29.021  1.00  0.00    -0.206 F 
ATOM     62  C   UNL A   1      44.120  35.601  32.157  1.00  0.00     0.060 A 
BRANCH  62  63
ATOM     63  S   UNL A   1      44.224  37.293  32.776  1.00  0.00     0.124 S 
ATOM     64  O   UNL A   1      44.240  38.058  31.532  1.00  0.00    -0.237 OA
ATOM     65  O   UNL A   1      43.007  37.408  33.573  1.00  0.00    -0.237 OA
ATOM     66  O   UNL A   1      45.471  37.303  33.533  1.00  0.00    -0.744 OA
ENDBRANCH  62  63
ENDBRANCH  41  55
BRANCH  42  67
ATOM     67  C   UNL A   1      42.736  23.687  27.694  1.00  0.00     0.058 A 
ATOM     68  C   UNL A   1      42.770  23.440  26.314  1.00  0.00     0.135 A 
ATOM     69  C   UNL A   1      42.514  22.592  28.544  1.00  0.00     0.135 A 
ATOM     70  F   UNL A   1      42.961  24.454  25.456  1.00  0.00    -0.206 F 
ATOM     71  C   UNL A   1      42.573  22.164  25.794  1.00  0.00     0.059 A 
ATOM     72  C   UNL A   1      42.344  21.301  28.052  1.00  0.00     0.059 A 
ATOM     73  F   UNL A   1      42.471  22.768  29.874  1.00  0.00    -0.206 F 
ATOM     74  C   UNL A   1      42.362  21.099  26.673  1.00  0.00     0.060 A 
BRANCH  74  75
ATOM     75  S   UNL A   1      42.139  19.441  25.992  1.00  0.00     0.124 S 
ATOM     76  O   UNL A   1      42.972  19.500  24.796  1.00  0.00    -0.237 OA
ATOM     77  O   UNL A   1      42.636  18.597  27.075  1.00  0.00    -0.237 OA
ATOM     78  O   UNL A   1      40.701  19.364  25.756  1.00  0.00    -0.744 OA
ENDBRANCH  74  75
ENDBRANCH  42  67
BRANCH  54  79
ATOM     79  C   UNL A   1      48.275  27.393  29.804  1.00  0.00     0.058 A 
ATOM     80  C   UNL A   1      49.156  27.603  28.732  1.00  0.00     0.135 A 
ATOM     81  C   UNL A   1      48.819  26.939  31.018  1.00  0.00     0.135 A 
ATOM     82  F   UNL A   1      48.690  28.031  27.548  1.00  0.00    -0.206 F 
ATOM     83  C   UNL A   1      50.521  27.360  28.855  1.00  0.00     0.059 A 
ATOM     84  C   UNL A   1      50.184  26.719  31.172  1.00  0.00     0.059 A 
ATOM     85  F   UNL A   1      48.023  26.732  32.080  1.00  0.00    -0.206 F 
ATOM     86  C   UNL A   1      51.026  26.924  30.081  1.00  0.00     0.060 A 
BRANCH  86  87
ATOM     87  S   UNL A   1      52.806  26.658  30.239  1.00  0.00     0.124 S 
ATOM     88  O   UNL A   1      53.172  26.292  28.876  1.00  0.00    -0.237 OA
ATOM     89  O   UNL A   1      53.276  27.963  30.694  1.00  0.00    -0.237 OA
ATOM     90  O   UNL A   1      52.904  25.586  31.226  1.00  0.00    -0.744 OA
ENDBRANCH  86  87
ENDBRANCH  54  79
ENDBRANCH  28  29
ENDBRANCH  21  23
ENDBRANCH  20  21
ENDBRANCH   1  20
TORSDOF 15
ENDMDL
MODEL 3
REMARK VINA RESULT:     -10.2      2.646      4.016
REMARK SMILES CC1(C)S[C@@H](c2ccsc2)[NH2+][C@@H]1C(=O)OCCOC(=O)c1ccc(-c2c3nc(c(-c4c(F)cc(S(=O)(=O)[O-])cc4F)c4ccc([nH]4)c(-c4c(F)cc(S(=O)(=O)[O-])cc4F)c4nc(c(-c5c(F)cc(S(=O)(=O)[O-])cc5F)c5ccc2[nH]5)C=C4)C=C3)cc1
REMARK SMILES IDX 17 1 16 2 15 3 13 4 14 5 12 6 1 7 2 8 3 9 4 10 5 11 11 12
REMARK SMILES IDX 6 15 7 16 10 17 8 18 9 19 18 20 19 21 20 22 21 23 22 24
REMARK SMILES IDX 86 25 23 26 85 27 24 28 25 29 26 30 79 31 27 32 84 33 78 34
REMARK SMILES IDX 80 35 28 36 83 37 77 38 76 39 29 41 63 42 42 43 62 44 43 45
REMARK SMILES IDX 46 46 61 47 81 48 44 49 45 50 60 52 82 53 47 54 30 55 31 56
REMARK SMILES IDX 40 57 32 58 33 59 39 60 41 61 34 62 35 63 36 64 37 65 38 66
REMARK SMILES IDX 64 67 65 68 74 69 66 70 67 71 73 72 75 73 68 74 69 75 70 76
REMARK SMILES IDX 71 77 72 78 48 79 49 80 58 81 50 82 51 83 57 84 59 85 52 86
REMARK SMILES IDX 53 87 54 88 55 89 56 90
REMARK H PARENT 11 13 11 14 80 40 46 51
REMARK Flexibility Score: inf
ROOT
ATOM      1  C   UNL A   1      34.274  30.583  27.635  1.00  0.00     0.275 C 
ENDROOT
BRANCH   1   2
ATOM      2  C   UNL A   1      33.160  29.708  27.050  1.00  0.00     0.274 C 
BRANCH   2   3
ATOM      3  O   UNL A   1      33.213  29.680  25.611  1.00  0.00    -0.458 OA
BRANCH   3   4
ATOM      4  C   UNL A   1      32.379  28.786  24.995  1.00  0.00     0.366 C 
ATOM      5  O   UNL A   1      31.161  28.831  25.081  1.00  0.00    -0.245 OA
BRANCH   4   6
ATOM      6  C   UNL A   1      33.194  27.773  24.153  1.00  0.00     0.310 C 
ATOM      7  C   UNL A   1      33.374  26.279  22.107  1.00  0.00     0.030 C 
ATOM      8  C   UNL A   1      32.415  26.847  23.178  1.00  0.00     0.079 C 
ATOM      9  C   UNL A   1      31.189  27.387  22.439  1.00  0.00     0.030 C 
ATOM     10  S   UNL A   1      31.872  25.488  24.261  1.00  0.00    -0.081 SA
ATOM     11  C   UNL A   1      33.109  25.833  25.533  1.00  0.00     0.275 C 
ATOM     12  N   UNL A   1      34.007  26.890  25.059  1.00  0.00    -0.319 N 
ATOM     13  H   UNL A   1      34.788  26.483  24.544  1.00  0.00     0.348 HD
ATOM     14  H   UNL A   1      34.393  27.421  25.839  1.00  0.00     0.348 HD
BRANCH  11  15
ATOM     15  C   UNL A   1      33.891  24.587  25.855  1.00  0.00     0.031 A 
ATOM     16  C   UNL A   1      35.197  24.245  25.343  1.00  0.00     0.022 A 
ATOM     17  C   UNL A   1      33.415  23.559  26.653  1.00  0.00     0.075 A 
ATOM     18  C   UNL A   1      35.616  22.992  25.727  1.00  0.00     0.065 A 
ATOM     19  S   UNL A   1      34.481  22.225  26.744  1.00  0.00    -0.152 S 
ENDBRANCH  11  15
ENDBRANCH   4   6
ENDBRANCH   3   4
ENDBRANCH   2   3
ENDBRANCH   1   2
BRANCH   1  20
ATOM     20  O   UNL A   1      35.379  29.800  28.126  1.00  0.00    -0.458 OA
BRANCH  20  21
ATOM     21  C   UNL A   1      36.122  30.405  29.088  1.00  0.00     0.338 C 
ATOM     22  O   UNL A   1      35.705  31.059  30.026  1.00  0.00    -0.246 OA
BRANCH  21  23
ATOM     23  C   UNL A   1      37.539  30.003  28.969  1.00  0.00     0.060 A 
ATOM     24  C   UNL A   1      38.034  29.817  27.676  1.00  0.00     0.016 A 
ATOM     25  C   UNL A   1      38.366  29.781  30.073  1.00  0.00     0.016 A 
ATOM     26  C   UNL A   1      39.368  29.476  27.473  1.00  0.00     0.010 A 
ATOM     27  C   UNL A   1      39.703  29.405  29.868  1.00  0.00     0.010 A 
ATOM     28  C   UNL A   1      40.214  29.272  28.566  1.00  0.00    -0.014 A 
BRANCH  28  29
ATOM     29  C   UNL A   1      41.601  28.821  28.309  1.00  0.00     0.031 A 
ATOM     30  C   UNL A   1      42.713  29.824  28.385  1.00  0.00     0.074 A 
ATOM     31  C   UNL A   1      41.874  27.519  28.103  1.00  0.00     0.049 A 
ATOM     32  N   UNL A   1      43.992  29.659  28.171  1.00  0.00    -0.248 NA
ATOM     33  C   UNL A   1      42.334  31.191  28.774  1.00  0.00     0.031 C 
ATOM     34  C   UNL A   1      40.892  26.436  28.123  1.00  0.00     0.029 A 
ATOM     35  N   UNL A   1      43.066  26.887  27.843  1.00  0.00    -0.354 N 
ATOM     36  C   UNL A   1      44.573  30.901  28.393  1.00  0.00     0.074 A 
ATOM     37  C   UNL A   1      43.505  31.811  28.753  1.00  0.00     0.031 C 
ATOM     38  C   UNL A   1      41.519  25.274  27.866  1.00  0.00     0.029 A 
ATOM     39  C   UNL A   1      42.936  25.536  27.619  1.00  0.00     0.049 A 
ATOM     40  H   UNL A   1      43.931  27.357  27.820  1.00  0.00     0.167 HD
ATOM     41  C   UNL A   1      45.877  31.250  28.299  1.00  0.00     0.037 A 
ATOM     42  C   UNL A   1      43.851  24.626  27.226  1.00  0.00     0.037 A 
ATOM     43  C   UNL A   1      46.928  30.344  27.918  1.00  0.00     0.049 A 
ATOM     44  C   UNL A   1      45.278  25.067  27.000  1.00  0.00     0.074 A 
ATOM     45  C   UNL A   1      48.277  30.610  27.761  1.00  0.00     0.029 A 
ATOM     46  N   UNL A   1      46.750  28.999  27.622  1.00  0.00    -0.354 N 
ATOM     47  N   UNL A   1      45.815  26.250  27.187  1.00  0.00    -0.248 NA
ATOM     48  C   UNL A   1      46.220  24.055  26.505  1.00  0.00     0.031 C 
ATOM     49  C   UNL A   1      48.903  29.443  27.313  1.00  0.00     0.029 A 
ATOM     50  C   UNL A   1      47.959  28.431  27.254  1.00  0.00     0.049 A 
ATOM     51  H   UNL A   1      45.890  28.521  27.666  1.00  0.00     0.167 HD
ATOM     52  C   UNL A   1      47.162  26.115  26.861  1.00  0.00     0.074 A 
ATOM     53  C   UNL A   1      47.359  24.734  26.475  1.00  0.00     0.031 C 
ATOM     54  C   UNL A   1      48.146  27.049  26.883  1.00  0.00     0.037 A 
BRANCH  41  55
ATOM     55  C   UNL A   1      46.225  32.690  28.547  1.00  0.00     0.058 A 
ATOM     56  C   UNL A   1      46.215  33.646  27.521  1.00  0.00     0.135 A 
ATOM     57  C   UNL A   1      46.562  33.119  29.841  1.00  0.00     0.135 A 
ATOM     58  F   UNL A   1      45.924  33.284  26.261  1.00  0.00    -0.206 F 
ATOM     59  C   UNL A   1      46.553  34.974  27.763  1.00  0.00     0.059 A 
ATOM     60  C   UNL A   1      46.876  34.447  30.112  1.00  0.00     0.059 A 
ATOM     61  F   UNL A   1      46.593  32.242  30.857  1.00  0.00    -0.206 F 
ATOM     62  C   UNL A   1      46.883  35.364  29.063  1.00  0.00     0.060 A 
BRANCH  62  63
ATOM     63  S   UNL A   1      47.325  37.088  29.361  1.00  0.00     0.124 S 
ATOM     64  O   UNL A   1      48.761  37.070  29.096  1.00  0.00    -0.237 OA
ATOM     65  O   UNL A   1      46.508  37.793  28.377  1.00  0.00    -0.237 OA
ATOM     66  O   UNL A   1      46.948  37.301  30.754  1.00  0.00    -0.744 OA
ENDBRANCH  62  63
ENDBRANCH  41  55
BRANCH  42  67
ATOM     67  C   UNL A   1      43.446  23.216  26.963  1.00  0.00     0.058 A 
ATOM     68  C   UNL A   1      43.157  22.330  28.011  1.00  0.00     0.135 A 
ATOM     69  C   UNL A   1      43.371  22.718  25.652  1.00  0.00     0.135 A 
ATOM     70  F   UNL A   1      43.231  22.749  29.284  1.00  0.00    -0.206 F 
ATOM     71  C   UNL A   1      42.826  20.999  27.773  1.00  0.00     0.059 A 
ATOM     72  C   UNL A   1      43.013  21.400  25.386  1.00  0.00     0.059 A 
ATOM     73  F   UNL A   1      43.638  23.521  24.611  1.00  0.00    -0.206 F 
ATOM     74  C   UNL A   1      42.754  20.544  26.455  1.00  0.00     0.060 A 
BRANCH  74  75
ATOM     75  S   UNL A   1      42.292  18.824  26.152  1.00  0.00     0.124 S 
ATOM     76  O   UNL A   1      42.524  18.222  27.460  1.00  0.00    -0.237 OA
ATOM     77  O   UNL A   1      40.896  18.949  25.745  1.00  0.00    -0.237 OA
ATOM     78  O   UNL A   1      43.211  18.409  25.096  1.00  0.00    -0.744 OA
ENDBRANCH  74  75
ENDBRANCH  42  67
BRANCH  54  79
ATOM     79  C   UNL A   1      49.540  26.610  26.523  1.00  0.00     0.058 A 
ATOM     80  C   UNL A   1      50.368  25.938  27.435  1.00  0.00     0.135 A 
ATOM     81  C   UNL A   1      50.027  26.802  25.218  1.00  0.00     0.135 A 
ATOM     82  F   UNL A   1      49.956  25.732  28.696  1.00  0.00    -0.206 F 
ATOM     83  C   UNL A   1      51.633  25.486  27.073  1.00  0.00     0.059 A 
ATOM     84  C   UNL A   1      51.277  26.331  24.826  1.00  0.00     0.059 A 
ATOM     85  F   UNL A   1      49.273  27.428  24.300  1.00  0.00    -0.206 F 
ATOM     86  C   UNL A   1      52.077  25.682  25.765  1.00  0.00     0.060 A 
BRANCH  86  87
ATOM     87  S   UNL A   1      53.702  25.048  25.296  1.00  0.00     0.124 S 
ATOM     88  O   UNL A   1      53.472  23.608  25.310  1.00  0.00    -0.237 OA
ATOM     89  O   UNL A   1      53.901  25.646  23.979  1.00  0.00    -0.237 OA
ATOM     90  O   UNL A   1      54.581  25.554  26.346  1.00  0.00    -0.744 OA
ENDBRANCH  86  87
ENDBRANCH  54  79
ENDBRANCH  28  29
ENDBRANCH  21  23
ENDBRANCH  20  21
ENDBRANCH   1  20
TORSDOF 15
ENDMDL
