MODEL 1
REMARK VINA RESULT:     -11.3      0.000      0.000
REMARK SMILES COc1ccc(N2/C(=[NH+]/C(=O)CCCC(=O)OCCOC(=O)c3ccc(-c4c5nc(c(-c6c(F)cc(S(=O)(=O)[O-])cc6F)c6ccc([nH]6)c(-c6c(F)cc(S(=O)(=O)[O-])cc6F)c6nc(c(-c7c(F)cc(S(=O)(=O)[O-])cc7F)c7ccc4[nH]7)C=C6)C=C5)cc3)S[C@@H]3CS(=O)(=O)C[C@H]32)cc1Cl
REMARK SMILES IDX 18 1 17 2 15 3 16 4 14 5 13 6 12 7 10 8 7 9 8 10 96 11 9 12
REMARK SMILES IDX 89 13 90 14 95 15 91 17 92 18 11 19 93 20 94 21 6 22 3 23
REMARK SMILES IDX 4 24 98 25 5 26 97 27 99 28 2 29 1 30 19 31 20 32 21 33
REMARK SMILES IDX 22 34 23 35 24 36 88 37 25 38 87 39 26 40 27 41 28 42 81 43
REMARK SMILES IDX 29 44 86 45 80 46 82 47 30 48 85 49 79 50 78 51 31 53 65 54
REMARK SMILES IDX 44 55 64 56 45 57 48 58 63 59 83 60 46 61 47 62 62 64 84 65
REMARK SMILES IDX 49 66 32 67 33 68 42 69 34 70 35 71 41 72 43 73 36 74 37 75
REMARK SMILES IDX 38 76 39 77 40 78 66 79 67 80 76 81 68 82 69 83 75 84 77 85
REMARK SMILES IDX 70 86 71 87 72 88 73 89 74 90 50 91 51 92 60 93 52 94 53 95
REMARK SMILES IDX 59 96 61 97 54 98 55 99 56 100 57 101 58 102
REMARK H PARENT 9 16 82 52 48 63
REMARK Flexibility Score: inf
ROOT
ATOM      1  C   UNL A   1      36.983  33.817  30.369  1.00  0.00     0.274 C 
ENDROOT
BRANCH   1   2
ATOM      2  O   UNL A   1      36.092  33.713  29.243  1.00  0.00    -0.462 OA
BRANCH   2   3
ATOM      3  C   UNL A   1      34.790  33.999  29.473  1.00  0.00     0.305 C 
ATOM      4  O   UNL A   1      34.382  34.626  30.443  1.00  0.00    -0.252 OA
BRANCH   3   5
ATOM      5  C   UNL A   1      33.846  33.440  28.427  1.00  0.00     0.123 C 
BRANCH   5   6
ATOM      6  C   UNL A   1      33.913  31.951  28.100  1.00  0.00     0.024 C 
BRANCH   6   7
ATOM      7  C   UNL A   1      33.116  31.419  26.911  1.00  0.00     0.128 C 
BRANCH   7   8
ATOM      8  C   UNL A   1      32.887  29.919  26.791  1.00  0.00     0.307 C 
ATOM      9  N   UNL A   1      31.728  27.875  24.006  1.00  0.00    -0.217 N 
ATOM     10  C   UNL A   1      32.452  28.466  25.046  1.00  0.00     0.319 C 
ATOM     11  C   UNL A   1      32.395  26.730  23.389  1.00  0.00     0.212 C 
ATOM     12  N   UNL A   1      32.118  29.508  25.731  1.00  0.00    -0.204 N 
ATOM     13  S   UNL A   1      33.957  27.510  25.300  1.00  0.00    -0.029 SA
ATOM     14  C   UNL A   1      33.155  26.085  24.553  1.00  0.00     0.120 C 
ATOM     15  C   UNL A   1      31.558  25.599  22.832  1.00  0.00     0.188 C 
ATOM     16  H   UNL A   1      31.307  30.010  25.491  1.00  0.00     0.316 HD
ATOM     17  C   UNL A   1      33.939  24.946  23.958  1.00  0.00     0.156 C 
ATOM     18  S   UNL A   1      32.712  24.217  22.859  1.00  0.00     0.155 S 
ATOM     19  O   UNL A   1      33.228  29.179  27.713  1.00  0.00    -0.247 OA
ATOM     20  O   UNL A   1      32.080  23.112  23.548  1.00  0.00    -0.229 OA
ATOM     21  O   UNL A   1      33.305  24.077  21.548  1.00  0.00    -0.229 OA
BRANCH   9  22
ATOM     22  C   UNL A   1      30.680  28.481  23.305  1.00  0.00     0.130 A 
ATOM     23  C   UNL A   1      28.577  29.799  21.910  1.00  0.00     0.137 A 
ATOM     24  C   UNL A   1      29.925  30.044  21.609  1.00  0.00     0.052 A 
ATOM     25  C   UNL A   1      28.287  28.877  22.922  1.00  0.00     0.087 A 
ATOM     26  C   UNL A   1      30.959  29.399  22.292  1.00  0.00     0.056 A 
ATOM     27  C   UNL A   1      29.337  28.242  23.619  1.00  0.00     0.076 A 
ATOM     28  Cl  UNL A   1      26.693  28.396  23.389  1.00  0.00    -0.080 Cl
BRANCH  23  29
ATOM     29  O   UNL A   1      27.740  30.508  21.095  1.00  0.00    -0.495 OA
ATOM     30  C   UNL A   1      28.132  31.796  20.642  1.00  0.00     0.278 C 
ENDBRANCH  23  29
ENDBRANCH   9  22
ENDBRANCH   7   8
ENDBRANCH   6   7
ENDBRANCH   5   6
ENDBRANCH   3   5
ENDBRANCH   2   3
ENDBRANCH   1   2
BRANCH   1  31
ATOM     31  C   UNL A   1      36.734  32.701  31.387  1.00  0.00     0.275 C 
BRANCH  31  32
ATOM     32  O   UNL A   1      36.459  31.439  30.749  1.00  0.00    -0.458 OA
BRANCH  32  33
ATOM     33  C   UNL A   1      36.984  30.357  31.370  1.00  0.00     0.338 C 
ATOM     34  O   UNL A   1      36.482  29.718  32.281  1.00  0.00    -0.246 OA
BRANCH  33  35
ATOM     35  C   UNL A   1      38.210  29.928  30.680  1.00  0.00     0.060 A 
ATOM     36  C   UNL A   1      39.257  29.446  31.467  1.00  0.00     0.016 A 
ATOM     37  C   UNL A   1      38.373  30.072  29.302  1.00  0.00     0.016 A 
ATOM     38  C   UNL A   1      40.473  29.101  30.893  1.00  0.00     0.010 A 
ATOM     39  C   UNL A   1      39.601  29.728  28.722  1.00  0.00     0.010 A 
ATOM     40  C   UNL A   1      40.660  29.250  29.516  1.00  0.00    -0.014 A 
BRANCH  40  41
ATOM     41  C   UNL A   1      41.995  28.962  28.941  1.00  0.00     0.031 A 
ATOM     42  C   UNL A   1      42.285  27.594  28.389  1.00  0.00     0.074 A 
ATOM     43  C   UNL A   1      42.914  29.942  28.861  1.00  0.00     0.049 A 
ATOM     44  N   UNL A   1      43.400  27.124  27.897  1.00  0.00    -0.248 NA
ATOM     45  C   UNL A   1      41.173  26.630  28.390  1.00  0.00     0.031 C 
ATOM     46  C   UNL A   1      42.720  31.321  29.313  1.00  0.00     0.029 A 
ATOM     47  N   UNL A   1      44.194  29.930  28.366  1.00  0.00    -0.354 N 
ATOM     48  C   UNL A   1      43.137  25.803  27.555  1.00  0.00     0.074 A 
ATOM     49  C   UNL A   1      41.757  25.543  27.903  1.00  0.00     0.031 C 
ATOM     50  C   UNL A   1      43.840  32.023  29.074  1.00  0.00     0.029 A 
ATOM     51  C   UNL A   1      44.844  31.134  28.496  1.00  0.00     0.049 A 
ATOM     52  H   UNL A   1      44.606  29.135  27.958  1.00  0.00     0.167 HD
ATOM     53  C   UNL A   1      43.973  24.894  27.000  1.00  0.00     0.037 A 
ATOM     54  C   UNL A   1      46.116  31.473  28.207  1.00  0.00     0.037 A 
ATOM     55  C   UNL A   1      45.337  25.173  26.631  1.00  0.00     0.049 A 
ATOM     56  C   UNL A   1      47.033  30.432  27.624  1.00  0.00     0.074 A 
ATOM     57  C   UNL A   1      46.264  24.322  26.053  1.00  0.00     0.029 A 
ATOM     58  N   UNL A   1      45.968  26.398  26.797  1.00  0.00    -0.354 N 
ATOM     59  N   UNL A   1      46.775  29.181  27.323  1.00  0.00    -0.248 NA
ATOM     60  C   UNL A   1      48.416  30.844  27.347  1.00  0.00     0.031 C 
ATOM     61  C   UNL A   1      47.466  25.022  25.901  1.00  0.00     0.029 A 
ATOM     62  C   UNL A   1      47.275  26.321  26.346  1.00  0.00     0.049 A 
ATOM     63  H   UNL A   1      45.549  27.202  27.179  1.00  0.00     0.167 HD
ATOM     64  C   UNL A   1      47.957  28.664  26.803  1.00  0.00     0.074 A 
ATOM     65  C   UNL A   1      48.924  29.741  26.814  1.00  0.00     0.031 C 
ATOM     66  C   UNL A   1      48.219  27.410  26.359  1.00  0.00     0.037 A 
BRANCH  53  67
ATOM     67  C   UNL A   1      43.452  23.502  26.784  1.00  0.00     0.058 A 
ATOM     68  C   UNL A   1      43.167  23.007  25.503  1.00  0.00     0.135 A 
ATOM     69  C   UNL A   1      43.289  22.631  27.874  1.00  0.00     0.135 A 
ATOM     70  F   UNL A   1      43.286  23.804  24.429  1.00  0.00    -0.206 F 
ATOM     71  C   UNL A   1      42.730  21.699  25.310  1.00  0.00     0.059 A 
ATOM     72  C   UNL A   1      42.874  21.314  27.703  1.00  0.00     0.059 A 
ATOM     73  F   UNL A   1      43.542  23.057  29.122  1.00  0.00    -0.206 F 
ATOM     74  C   UNL A   1      42.590  20.859  26.417  1.00  0.00     0.060 A 
BRANCH  74  75
ATOM     75  S   UNL A   1      42.051  19.157  26.149  1.00  0.00     0.124 S 
ATOM     76  O   UNL A   1      42.831  18.786  24.972  1.00  0.00    -0.237 OA
ATOM     77  O   UNL A   1      42.440  18.506  27.397  1.00  0.00    -0.237 OA
ATOM     78  O   UNL A   1      40.614  19.285  25.935  1.00  0.00    -0.744 OA
ENDBRANCH  74  75
ENDBRANCH  53  67
BRANCH  54  79
ATOM     79  C   UNL A   1      46.609  32.846  28.495  1.00  0.00     0.058 A 
ATOM     80  C   UNL A   1      46.554  33.857  27.526  1.00  0.00     0.135 A 
ATOM     81  C   UNL A   1      47.160  33.167  29.746  1.00  0.00     0.135 A 
ATOM     82  F   UNL A   1      46.045  33.598  26.313  1.00  0.00    -0.206 F 
ATOM     83  C   UNL A   1      47.051  35.134  27.777  1.00  0.00     0.059 A 
ATOM     84  C   UNL A   1      47.638  34.442  30.029  1.00  0.00     0.059 A 
ATOM     85  F   UNL A   1      47.225  32.237  30.712  1.00  0.00    -0.206 F 
ATOM     86  C   UNL A   1      47.593  35.416  29.032  1.00  0.00     0.060 A 
BRANCH  86  87
ATOM     87  S   UNL A   1      48.208  37.080  29.364  1.00  0.00     0.124 S 
ATOM     88  O   UNL A   1      47.369  37.483  30.487  1.00  0.00    -0.237 OA
ATOM     89  O   UNL A   1      49.614  36.837  29.672  1.00  0.00    -0.237 OA
ATOM     90  O   UNL A   1      47.963  37.783  28.108  1.00  0.00    -0.744 OA
ENDBRANCH  86  87
ENDBRANCH  54  79
BRANCH  66  91
ATOM     91  C   UNL A   1      49.596  27.150  25.818  1.00  0.00     0.058 A 
ATOM     92  C   UNL A   1      50.640  26.704  26.643  1.00  0.00     0.135 A 
ATOM     93  C   UNL A   1      49.866  27.320  24.450  1.00  0.00     0.135 A 
ATOM     94  F   UNL A   1      50.434  26.532  27.959  1.00  0.00    -0.206 F 
ATOM     95  C   UNL A   1      51.913  26.465  26.137  1.00  0.00     0.059 A 
ATOM     96  C   UNL A   1      51.125  27.062  23.919  1.00  0.00     0.059 A 
ATOM     97  F   UNL A   1      48.899  27.732  23.616  1.00  0.00    -0.206 F 
ATOM     98  C   UNL A   1      52.147  26.650  24.774  1.00  0.00     0.060 A 
BRANCH  98  99
ATOM     99  S   UNL A   1      53.799  26.323  24.122  1.00  0.00     0.124 S 
ATOM    100  O   UNL A   1      54.475  27.588  24.392  1.00  0.00    -0.237 OA
ATOM    101  O   UNL A   1      54.235  25.186  24.928  1.00  0.00    -0.237 OA
ATOM    102  O   UNL A   1      53.555  26.028  22.714  1.00  0.00    -0.744 OA
ENDBRANCH  98  99
ENDBRANCH  66  91
ENDBRANCH  40  41
ENDBRANCH  33  35
ENDBRANCH  32  33
ENDBRANCH  31  32
ENDBRANCH   1  31
TORSDOF 19
ENDMDL
MODEL 2
REMARK VINA RESULT:     -11.2      0.487      7.940
REMARK SMILES COc1ccc(N2/C(=[NH+]/C(=O)CCCC(=O)OCCOC(=O)c3ccc(-c4c5nc(c(-c6c(F)cc(S(=O)(=O)[O-])cc6F)c6ccc([nH]6)c(-c6c(F)cc(S(=O)(=O)[O-])cc6F)c6nc(c(-c7c(F)cc(S(=O)(=O)[O-])cc7F)c7ccc4[nH]7)C=C6)C=C5)cc3)S[C@@H]3CS(=O)(=O)C[C@H]32)cc1Cl
REMARK SMILES IDX 18 1 17 2 15 3 16 4 14 5 13 6 12 7 10 8 7 9 8 10 96 11 9 12
REMARK SMILES IDX 89 13 90 14 95 15 91 17 92 18 11 19 93 20 94 21 6 22 3 23
REMARK SMILES IDX 4 24 98 25 5 26 97 27 99 28 2 29 1 30 19 31 20 32 21 33
REMARK SMILES IDX 22 34 23 35 24 36 88 37 25 38 87 39 26 40 27 41 28 42 81 43
REMARK SMILES IDX 29 44 86 45 80 46 82 47 30 48 85 49 79 50 78 51 31 53 65 54
REMARK SMILES IDX 44 55 64 56 45 57 48 58 63 59 83 60 46 61 47 62 62 64 84 65
REMARK SMILES IDX 49 66 32 67 33 68 42 69 34 70 35 71 41 72 43 73 36 74 37 75
REMARK SMILES IDX 38 76 39 77 40 78 66 79 67 80 76 81 68 82 69 83 75 84 77 85
REMARK SMILES IDX 70 86 71 87 72 88 73 89 74 90 50 91 51 92 60 93 52 94 53 95
REMARK SMILES IDX 59 96 61 97 54 98 55 99 56 100 57 101 58 102
REMARK H PARENT 9 16 82 52 48 63
REMARK Flexibility Score: inf
ROOT
ATOM      1  C   UNL A   1      36.936  33.842  30.080  1.00  0.00     0.274 C 
ENDROOT
BRANCH   1   2
ATOM      2  O   UNL A   1      35.982  33.848  29.003  1.00  0.00    -0.462 OA
BRANCH   2   3
ATOM      3  C   UNL A   1      34.725  34.241  29.311  1.00  0.00     0.305 C 
ATOM      4  O   UNL A   1      34.441  34.969  30.254  1.00  0.00    -0.252 OA
BRANCH   3   5
ATOM      5  C   UNL A   1      33.663  33.670  28.392  1.00  0.00     0.123 C 
BRANCH   5   6
ATOM      6  C   UNL A   1      33.767  32.208  27.971  1.00  0.00     0.024 C 
BRANCH   6   7
ATOM      7  C   UNL A   1      32.835  31.684  26.880  1.00  0.00     0.128 C 
BRANCH   7   8
ATOM      8  C   UNL A   1      32.636  30.182  26.741  1.00  0.00     0.307 C 
ATOM      9  N   UNL A   1      31.589  28.143  23.908  1.00  0.00    -0.217 N 
ATOM     10  C   UNL A   1      32.275  28.737  24.973  1.00  0.00     0.319 C 
ATOM     11  C   UNL A   1      32.293  27.016  23.300  1.00  0.00     0.212 C 
ATOM     12  N   UNL A   1      31.904  29.766  25.657  1.00  0.00    -0.204 N 
ATOM     13  S   UNL A   1      33.789  27.805  25.259  1.00  0.00    -0.029 SA
ATOM     14  C   UNL A   1      33.033  26.373  24.479  1.00  0.00     0.120 C 
ATOM     15  C   UNL A   1      31.491  25.875  22.711  1.00  0.00     0.188 C 
ATOM     16  H   UNL A   1      31.090  30.256  25.400  1.00  0.00     0.316 HD
ATOM     17  C   UNL A   1      33.852  25.254  23.896  1.00  0.00     0.156 C 
ATOM     18  S   UNL A   1      32.669  24.514  22.758  1.00  0.00     0.155 S 
ATOM     19  O   UNL A   1      32.965  29.440  27.665  1.00  0.00    -0.247 OA
ATOM     20  O   UNL A   1      32.038  23.391  23.419  1.00  0.00    -0.229 OA
ATOM     21  O   UNL A   1      33.299  24.395  21.462  1.00  0.00    -0.229 OA
BRANCH   9  22
ATOM     22  C   UNL A   1      30.549  28.737  23.185  1.00  0.00     0.130 A 
ATOM     23  C   UNL A   1      28.461  30.029  21.745  1.00  0.00     0.137 A 
ATOM     24  C   UNL A   1      29.812  30.303  21.483  1.00  0.00     0.052 A 
ATOM     25  C   UNL A   1      28.161  29.092  22.740  1.00  0.00     0.087 A 
ATOM     26  C   UNL A   1      30.839  29.670  22.189  1.00  0.00     0.056 A 
ATOM     27  C   UNL A   1      29.203  28.470  23.459  1.00  0.00     0.076 A 
ATOM     28  Cl  UNL A   1      26.564  28.578  23.158  1.00  0.00    -0.080 Cl
BRANCH  23  29
ATOM     29  O   UNL A   1      27.635  30.731  20.913  1.00  0.00    -0.495 OA
ATOM     30  C   UNL A   1      28.018  32.028  20.478  1.00  0.00     0.278 C 
ENDBRANCH  23  29
ENDBRANCH   9  22
ENDBRANCH   7   8
ENDBRANCH   6   7
ENDBRANCH   5   6
ENDBRANCH   3   5
ENDBRANCH   2   3
ENDBRANCH   1   2
BRANCH   1  31
ATOM     31  C   UNL A   1      36.592  32.784  31.132  1.00  0.00     0.275 C 
BRANCH  31  32
ATOM     32  O   UNL A   1      36.201  31.534  30.532  1.00  0.00    -0.458 OA
BRANCH  32  33
ATOM     33  C   UNL A   1      36.644  30.428  31.175  1.00  0.00     0.338 C 
ATOM     34  O   UNL A   1      36.071  29.813  32.060  1.00  0.00    -0.246 OA
BRANCH  33  35
ATOM     35  C   UNL A   1      37.879  29.941  30.540  1.00  0.00     0.060 A 
ATOM     36  C   UNL A   1      38.908  29.512  31.380  1.00  0.00     0.016 A 
ATOM     37  C   UNL A   1      38.067  29.980  29.159  1.00  0.00     0.016 A 
ATOM     38  C   UNL A   1      40.131  29.117  30.855  1.00  0.00     0.010 A 
ATOM     39  C   UNL A   1      39.302  29.586  28.628  1.00  0.00     0.010 A 
ATOM     40  C   UNL A   1      40.343  29.162  29.474  1.00  0.00    -0.014 A 
BRANCH  40  41
ATOM     41  C   UNL A   1      41.686  28.823  28.946  1.00  0.00     0.031 A 
ATOM     42  C   UNL A   1      42.749  29.883  28.884  1.00  0.00     0.074 A 
ATOM     43  C   UNL A   1      41.961  27.556  28.583  1.00  0.00     0.049 A 
ATOM     44  N   UNL A   1      43.963  29.807  28.407  1.00  0.00    -0.248 NA
ATOM     45  C   UNL A   1      42.400  31.203  29.436  1.00  0.00     0.031 C 
ATOM     46  C   UNL A   1      41.022  26.435  28.654  1.00  0.00     0.029 A 
ATOM     47  N   UNL A   1      43.111  26.998  28.086  1.00  0.00    -0.354 N 
ATOM     48  C   UNL A   1      44.516  31.071  28.572  1.00  0.00     0.074 A 
ATOM     49  C   UNL A   1      43.502  31.900  29.188  1.00  0.00     0.031 C 
ATOM     50  C   UNL A   1      41.634  25.322  28.217  1.00  0.00     0.029 A 
ATOM     51  C   UNL A   1      42.990  25.660  27.795  1.00  0.00     0.049 A 
ATOM     52  H   UNL A   1      43.943  27.506  27.952  1.00  0.00     0.167 HD
ATOM     53  C   UNL A   1      45.757  31.497  28.240  1.00  0.00     0.037 A 
ATOM     54  C   UNL A   1      43.867  24.810  27.223  1.00  0.00     0.037 A 
ATOM     55  C   UNL A   1      46.768  30.656  27.654  1.00  0.00     0.049 A 
ATOM     56  C   UNL A   1      45.227  25.321  26.832  1.00  0.00     0.074 A 
ATOM     57  C   UNL A   1      48.062  30.990  27.290  1.00  0.00     0.029 A 
ATOM     58  N   UNL A   1      46.603  29.311  27.352  1.00  0.00    -0.354 N 
ATOM     59  N   UNL A   1      45.730  26.524  26.978  1.00  0.00    -0.248 NA
ATOM     60  C   UNL A   1      46.139  24.361  26.193  1.00  0.00     0.031 C 
ATOM     61  C   UNL A   1      48.667  29.857  26.736  1.00  0.00     0.029 A 
ATOM     62  C   UNL A   1      47.765  28.806  26.794  1.00  0.00     0.049 A 
ATOM     63  H   UNL A   1      45.782  28.794  27.512  1.00  0.00     0.167 HD
ATOM     64  C   UNL A   1      47.022  26.460  26.467  1.00  0.00     0.074 A 
ATOM     65  C   UNL A   1      47.229  25.096  26.025  1.00  0.00     0.031 C 
ATOM     66  C   UNL A   1      47.952  27.442  26.369  1.00  0.00     0.037 A 
BRANCH  53  67
ATOM     67  C   UNL A   1      46.087  32.945  28.472  1.00  0.00     0.058 A 
ATOM     68  C   UNL A   1      45.835  33.928  27.504  1.00  0.00     0.135 A 
ATOM     69  C   UNL A   1      46.612  33.360  29.707  1.00  0.00     0.135 A 
ATOM     70  F   UNL A   1      45.353  33.581  26.299  1.00  0.00    -0.206 F 
ATOM     71  C   UNL A   1      46.100  35.272  27.747  1.00  0.00     0.059 A 
ATOM     72  C   UNL A   1      46.864  34.701  29.981  1.00  0.00     0.059 A 
ATOM     73  F   UNL A   1      46.877  32.459  30.666  1.00  0.00    -0.206 F 
ATOM     74  C   UNL A   1      46.611  35.649  28.991  1.00  0.00     0.060 A 
BRANCH  74  75
ATOM     75  S   UNL A   1      46.922  37.400  29.304  1.00  0.00     0.124 S 
ATOM     76  O   UNL A   1      47.549  37.353  30.622  1.00  0.00    -0.237 OA
ATOM     77  O   UNL A   1      47.802  37.764  28.198  1.00  0.00    -0.237 OA
ATOM     78  O   UNL A   1      45.591  37.995  29.263  1.00  0.00    -0.744 OA
ENDBRANCH  74  75
ENDBRANCH  53  67
BRANCH  54  79
ATOM     79  C   UNL A   1      43.476  23.400  26.955  1.00  0.00     0.058 A 
ATOM     80  C   UNL A   1      43.119  22.976  25.668  1.00  0.00     0.135 A 
ATOM     81  C   UNL A   1      43.438  22.452  27.990  1.00  0.00     0.135 A 
ATOM     82  F   UNL A   1      43.130  23.847  24.647  1.00  0.00    -0.206 F 
ATOM     83  C   UNL A   1      42.713  21.668  25.417  1.00  0.00     0.059 A 
ATOM     84  C   UNL A   1      43.063  21.133  27.760  1.00  0.00     0.059 A 
ATOM     85  F   UNL A   1      43.783  22.804  29.239  1.00  0.00    -0.206 F 
ATOM     86  C   UNL A   1      42.687  20.754  26.473  1.00  0.00     0.060 A 
BRANCH  86  87
ATOM     87  S   UNL A   1      42.190  19.051  26.139  1.00  0.00     0.124 S 
ATOM     88  O   UNL A   1      42.377  18.431  27.446  1.00  0.00    -0.237 OA
ATOM     89  O   UNL A   1      40.807  19.210  25.700  1.00  0.00    -0.237 OA
ATOM     90  O   UNL A   1      43.124  18.628  25.099  1.00  0.00    -0.744 OA
ENDBRANCH  86  87
ENDBRANCH  54  79
BRANCH  66  91
ATOM     91  C   UNL A   1      49.287  27.064  25.794  1.00  0.00     0.058 A 
ATOM     92  C   UNL A   1      49.542  27.135  24.415  1.00  0.00     0.135 A 
ATOM     93  C   UNL A   1      50.334  26.655  26.636  1.00  0.00     0.135 A 
ATOM     94  F   UNL A   1      48.572  27.515  23.568  1.00  0.00    -0.206 F 
ATOM     95  C   UNL A   1      50.780  26.784  23.887  1.00  0.00     0.059 A 
ATOM     96  C   UNL A   1      51.587  26.324  26.131  1.00  0.00     0.059 A 
ATOM     97  F   UNL A   1      50.146  26.582  27.962  1.00  0.00    -0.206 F 
ATOM     98  C   UNL A   1      51.796  26.376  24.754  1.00  0.00     0.060 A 
BRANCH  98  99
ATOM     99  S   UNL A   1      53.404  25.937  24.062  1.00  0.00     0.124 S 
ATOM    100  O   UNL A   1      53.425  24.491  24.265  1.00  0.00    -0.237 OA
ATOM    101  O   UNL A   1      53.283  26.380  22.676  1.00  0.00    -0.237 OA
ATOM    102  O   UNL A   1      54.344  26.701  24.877  1.00  0.00    -0.744 OA
ENDBRANCH  98  99
ENDBRANCH  66  91
ENDBRANCH  40  41
ENDBRANCH  33  35
ENDBRANCH  32  33
ENDBRANCH  31  32
ENDBRANCH   1  31
TORSDOF 19
ENDMDL
MODEL 3
REMARK VINA RESULT:     -10.8      6.449     12.612
REMARK SMILES COc1ccc(N2/C(=[NH+]/C(=O)CCCC(=O)OCCOC(=O)c3ccc(-c4c5nc(c(-c6c(F)cc(S(=O)(=O)[O-])cc6F)c6ccc([nH]6)c(-c6c(F)cc(S(=O)(=O)[O-])cc6F)c6nc(c(-c7c(F)cc(S(=O)(=O)[O-])cc7F)c7ccc4[nH]7)C=C6)C=C5)cc3)S[C@@H]3CS(=O)(=O)C[C@H]32)cc1Cl
REMARK SMILES IDX 18 1 17 2 15 3 16 4 14 5 13 6 12 7 10 8 7 9 8 10 96 11 9 12
REMARK SMILES IDX 89 13 90 14 95 15 91 17 92 18 11 19 93 20 94 21 6 22 3 23
REMARK SMILES IDX 4 24 98 25 5 26 97 27 99 28 2 29 1 30 19 31 20 32 21 33
REMARK SMILES IDX 22 34 23 35 24 36 88 37 25 38 87 39 26 40 27 41 28 42 81 43
REMARK SMILES IDX 29 44 86 45 80 46 82 47 30 48 85 49 79 50 78 51 31 53 65 54
REMARK SMILES IDX 44 55 64 56 45 57 48 58 63 59 83 60 46 61 47 62 62 64 84 65
REMARK SMILES IDX 49 66 32 67 33 68 42 69 34 70 35 71 41 72 43 73 36 74 37 75
REMARK SMILES IDX 38 76 39 77 40 78 66 79 67 80 76 81 68 82 69 83 75 84 77 85
REMARK SMILES IDX 70 86 71 87 72 88 73 89 74 90 50 91 51 92 60 93 52 94 53 95
REMARK SMILES IDX 59 96 61 97 54 98 55 99 56 100 57 101 58 102
REMARK H PARENT 9 16 82 52 48 63
REMARK Flexibility Score: inf
ROOT
ATOM      1  C   UNL A   1      44.290  22.623  26.521  1.00  0.00     0.274 C 
ENDROOT
BRANCH   1   2
ATOM      2  O   UNL A   1      43.094  22.224  27.215  1.00  0.00    -0.462 OA
BRANCH   2   3
ATOM      3  C   UNL A   1      42.233  21.436  26.531  1.00  0.00     0.305 C 
ATOM      4  O   UNL A   1      42.569  20.621  25.682  1.00  0.00    -0.252 OA
BRANCH   3   5
ATOM      5  C   UNL A   1      40.777  21.670  26.884  1.00  0.00     0.123 C 
BRANCH   5   6
ATOM      6  C   UNL A   1      39.778  21.908  25.756  1.00  0.00     0.024 C 
BRANCH   6   7
ATOM      7  C   UNL A   1      38.371  21.327  25.880  1.00  0.00     0.128 C 
BRANCH   7   8
ATOM      8  C   UNL A   1      37.186  22.164  25.418  1.00  0.00     0.307 C 
ATOM      9  N   UNL A   1      33.599  21.537  25.547  1.00  0.00    -0.217 N 
ATOM     10  C   UNL A   1      34.894  22.045  25.694  1.00  0.00     0.319 C 
ATOM     11  C   UNL A   1      32.561  22.364  26.160  1.00  0.00     0.212 C 
ATOM     12  N   UNL A   1      35.992  21.501  25.288  1.00  0.00    -0.204 N 
ATOM     13  S   UNL A   1      34.787  23.629  26.545  1.00  0.00    -0.029 SA
ATOM     14  C   UNL A   1      33.087  23.794  25.984  1.00  0.00     0.120 C 
ATOM     15  C   UNL A   1      31.184  22.405  25.534  1.00  0.00     0.188 C 
ATOM     16  H   UNL A   1      35.971  20.605  24.882  1.00  0.00     0.316 HD
ATOM     17  C   UNL A   1      32.098  24.689  26.680  1.00  0.00     0.156 C 
ATOM     18  S   UNL A   1      30.538  23.977  26.130  1.00  0.00     0.155 S 
ATOM     19  O   UNL A   1      37.376  23.311  25.017  1.00  0.00    -0.247 OA
ATOM     20  O   UNL A   1      30.065  24.735  24.991  1.00  0.00    -0.229 OA
ATOM     21  O   UNL A   1      29.715  23.733  27.294  1.00  0.00    -0.229 OA
BRANCH   9  22
ATOM     22  C   UNL A   1      33.282  20.213  25.228  1.00  0.00     0.130 A 
ATOM     23  C   UNL A   1      32.721  17.491  24.611  1.00  0.00     0.137 A 
ATOM     24  C   UNL A   1      32.971  17.909  25.926  1.00  0.00     0.052 A 
ATOM     25  C   UNL A   1      32.750  18.456  23.597  1.00  0.00     0.087 A 
ATOM     26  C   UNL A   1      33.247  19.245  26.232  1.00  0.00     0.056 A 
ATOM     27  C   UNL A   1      33.045  19.799  23.912  1.00  0.00     0.076 A 
ATOM     28  Cl  UNL A   1      32.403  18.146  21.933  1.00  0.00    -0.080 Cl
BRANCH  23  29
ATOM     29  O   UNL A   1      32.438  16.156  24.551  1.00  0.00    -0.495 OA
ATOM     30  C   UNL A   1      32.197  15.438  25.753  1.00  0.00     0.278 C 
ENDBRANCH  23  29
ENDBRANCH   9  22
ENDBRANCH   7   8
ENDBRANCH   6   7
ENDBRANCH   5   6
ENDBRANCH   3   5
ENDBRANCH   2   3
ENDBRANCH   1   2
BRANCH   1  31
ATOM     31  C   UNL A   1      44.026  23.792  25.569  1.00  0.00     0.275 C 
BRANCH  31  32
ATOM     32  O   UNL A   1      43.775  25.020  26.279  1.00  0.00    -0.458 OA
BRANCH  32  33
ATOM     33  C   UNL A   1      42.593  25.616  25.990  1.00  0.00     0.338 C 
ATOM     34  O   UNL A   1      41.899  25.430  25.004  1.00  0.00    -0.246 OA
BRANCH  33  35
ATOM     35  C   UNL A   1      42.150  26.429  27.132  1.00  0.00     0.060 A 
ATOM     36  C   UNL A   1      42.810  27.639  27.356  1.00  0.00     0.016 A 
ATOM     37  C   UNL A   1      41.169  25.987  28.019  1.00  0.00     0.016 A 
ATOM     38  C   UNL A   1      42.500  28.419  28.462  1.00  0.00     0.010 A 
ATOM     39  C   UNL A   1      40.858  26.772  29.138  1.00  0.00     0.010 A 
ATOM     40  C   UNL A   1      41.530  27.986  29.370  1.00  0.00    -0.014 A 
BRANCH  40  41
ATOM     41  C   UNL A   1      41.282  28.791  30.589  1.00  0.00     0.031 A 
ATOM     42  C   UNL A   1      40.139  29.767  30.616  1.00  0.00     0.074 A 
ATOM     43  C   UNL A   1      42.044  28.600  31.683  1.00  0.00     0.049 A 
ATOM     44  N   UNL A   1      39.789  30.601  31.558  1.00  0.00    -0.248 NA
ATOM     45  C   UNL A   1      39.274  29.805  29.426  1.00  0.00     0.031 C 
ATOM     46  C   UNL A   1      43.144  27.639  31.788  1.00  0.00     0.029 A 
ATOM     47  N   UNL A   1      42.005  29.199  32.916  1.00  0.00    -0.354 N 
ATOM     48  C   UNL A   1      38.683  31.285  31.068  1.00  0.00     0.074 A 
ATOM     49  C   UNL A   1      38.423  30.773  29.740  1.00  0.00     0.031 C 
ATOM     50  C   UNL A   1      43.676  27.714  33.019  1.00  0.00     0.029 A 
ATOM     51  C   UNL A   1      42.985  28.757  33.773  1.00  0.00     0.049 A 
ATOM     52  H   UNL A   1      41.340  29.880  33.164  1.00  0.00     0.167 HD
ATOM     53  C   UNL A   1      37.953  32.251  31.675  1.00  0.00     0.037 A 
ATOM     54  C   UNL A   1      43.307  29.168  35.016  1.00  0.00     0.037 A 
ATOM     55  C   UNL A   1      38.203  32.732  33.008  1.00  0.00     0.049 A 
ATOM     56  C   UNL A   1      42.500  30.268  35.651  1.00  0.00     0.074 A 
ATOM     57  C   UNL A   1      37.515  33.702  33.717  1.00  0.00     0.029 A 
ATOM     58  N   UNL A   1      39.218  32.277  33.838  1.00  0.00    -0.354 N 
ATOM     59  N   UNL A   1      41.468  30.918  35.168  1.00  0.00    -0.248 NA
ATOM     60  C   UNL A   1      42.904  30.696  36.998  1.00  0.00     0.031 C 
ATOM     61  C   UNL A   1      38.134  33.857  34.962  1.00  0.00     0.029 A 
ATOM     62  C   UNL A   1      39.182  32.954  35.045  1.00  0.00     0.049 A 
ATOM     63  H   UNL A   1      39.867  31.575  33.603  1.00  0.00     0.167 HD
ATOM     64  C   UNL A   1      41.087  31.817  36.158  1.00  0.00     0.074 A 
ATOM     65  C   UNL A   1      41.989  31.614  37.274  1.00  0.00     0.031 C 
ATOM     66  C   UNL A   1      40.085  32.730  36.146  1.00  0.00     0.037 A 
BRANCH  53  67
ATOM     67  C   UNL A   1      36.832  32.876  30.894  1.00  0.00     0.058 A 
ATOM     68  C   UNL A   1      35.500  32.464  31.050  1.00  0.00     0.135 A 
ATOM     69  C   UNL A   1      37.090  33.944  30.019  1.00  0.00     0.135 A 
ATOM     70  F   UNL A   1      35.201  31.435  31.859  1.00  0.00    -0.206 F 
ATOM     71  C   UNL A   1      34.463  33.083  30.358  1.00  0.00     0.059 A 
ATOM     72  C   UNL A   1      36.067  34.592  29.334  1.00  0.00     0.059 A 
ATOM     73  F   UNL A   1      38.348  34.373  29.830  1.00  0.00    -0.206 F 
ATOM     74  C   UNL A   1      34.756  34.149  29.505  1.00  0.00     0.060 A 
BRANCH  74  75
ATOM     75  S   UNL A   1      33.398  34.962  28.636  1.00  0.00     0.124 S 
ATOM     76  O   UNL A   1      32.698  33.820  28.057  1.00  0.00    -0.237 OA
ATOM     77  O   UNL A   1      32.700  35.648  29.720  1.00  0.00    -0.237 OA
ATOM     78  O   UNL A   1      34.076  35.832  27.682  1.00  0.00    -0.744 OA
ENDBRANCH  74  75
ENDBRANCH  53  67
BRANCH  54  79
ATOM     79  C   UNL A   1      44.464  28.564  35.728  1.00  0.00     0.058 A 
ATOM     80  C   UNL A   1      44.296  27.490  36.612  1.00  0.00     0.135 A 
ATOM     81  C   UNL A   1      45.764  29.064  35.547  1.00  0.00     0.135 A 
ATOM     82  F   UNL A   1      43.072  26.983  36.826  1.00  0.00    -0.206 F 
ATOM     83  C   UNL A   1      45.370  26.946  37.312  1.00  0.00     0.059 A 
ATOM     84  C   UNL A   1      46.856  28.521  36.213  1.00  0.00     0.059 A 
ATOM     85  F   UNL A   1      45.981  30.085  34.701  1.00  0.00    -0.206 F 
ATOM     86  C   UNL A   1      46.647  27.471  37.107  1.00  0.00     0.060 A 
BRANCH  86  87
ATOM     87  S   UNL A   1      48.042  26.744  37.993  1.00  0.00     0.124 S 
ATOM     88  O   UNL A   1      47.857  25.325  37.713  1.00  0.00    -0.237 OA
ATOM     89  O   UNL A   1      49.186  27.378  37.346  1.00  0.00    -0.237 OA
ATOM     90  O   UNL A   1      47.809  27.153  39.375  1.00  0.00    -0.744 OA
ENDBRANCH  86  87
ENDBRANCH  54  79
BRANCH  66  91
ATOM     91  C   UNL A   1      39.892  33.551  37.388  1.00  0.00     0.058 A 
ATOM     92  C   UNL A   1      39.043  33.131  38.425  1.00  0.00     0.135 A 
ATOM     93  C   UNL A   1      40.588  34.758  37.558  1.00  0.00     0.135 A 
ATOM     94  F   UNL A   1      38.351  31.987  38.308  1.00  0.00    -0.206 F 
ATOM     95  C   UNL A   1      38.868  33.895  39.574  1.00  0.00     0.059 A 
ATOM     96  C   UNL A   1      40.447  35.526  38.709  1.00  0.00     0.059 A 
ATOM     97  F   UNL A   1      41.421  35.199  36.602  1.00  0.00    -0.206 F 
ATOM     98  C   UNL A   1      39.571  35.093  39.705  1.00  0.00     0.060 A 
BRANCH  98  99
ATOM     99  S   UNL A   1      39.349  36.072  41.206  1.00  0.00     0.124 S 
ATOM    100  O   UNL A   1      40.227  35.375  42.141  1.00  0.00    -0.237 OA
ATOM    101  O   UNL A   1      39.794  37.398  40.786  1.00  0.00    -0.237 OA
ATOM    102  O   UNL A   1      37.920  35.955  41.478  1.00  0.00    -0.744 OA
ENDBRANCH  98  99
ENDBRANCH  66  91
ENDBRANCH  40  41
ENDBRANCH  33  35
ENDBRANCH  32  33
ENDBRANCH  31  32
ENDBRANCH   1  31
TORSDOF 19
ENDMDL
