MODEL 1
REMARK VINA RESULT:     -11.9      0.000      0.000
REMARK SMILES Cc1nc2scc(C)n2c1CNc1ccc(C(=O)OCCOC(=O)c2ccc(-c3c4nc(c(-c5c(F)cc(S(=O)(=O)[O-])cc5F)c5ccc([nH]5)c(-c5c(F)cc(S(=O)(=O)[O-])cc5F)c5nc(c(-c6c(F)cc(S(=O)(=O)[O-])cc6F)c6ccc3[nH]6)C=C5)C=C4)cc2)cc1
REMARK SMILES IDX 20 1 19 2 17 3 18 4 16 5 13 6 14 7 92 8 15 9 91 10 12 11
REMARK SMILES IDX 11 13 10 14 1 15 2 16 3 17 4 18 9 19 5 20 7 21 6 22 8 23
REMARK SMILES IDX 21 24 22 25 23 26 24 27 25 28 26 29 90 30 27 31 89 32 28 33
REMARK SMILES IDX 29 34 30 35 83 36 31 37 88 38 82 39 84 40 32 41 87 42 81 43
REMARK SMILES IDX 80 44 33 46 67 47 46 48 66 49 47 50 50 51 65 52 85 53 48 54
REMARK SMILES IDX 49 55 64 57 86 58 51 59 34 60 35 61 44 62 36 63 37 64 43 65
REMARK SMILES IDX 45 66 38 67 39 68 40 69 41 70 42 71 68 72 69 73 78 74 70 75
REMARK SMILES IDX 71 76 77 77 79 78 72 79 73 80 74 81 75 82 76 83 52 84 53 85
REMARK SMILES IDX 62 86 54 87 55 88 61 89 63 90 56 91 57 92 58 93 59 94 60 95
REMARK H PARENT 12 12 84 45 50 56
REMARK Flexibility Score: inf
ROOT
ATOM      1  C   UNL A   1      41.779  19.497  26.294  1.00  0.00     0.275 C 
ENDROOT
BRANCH   1   2
ATOM      2  O   UNL A   1      41.268  20.774  25.881  1.00  0.00    -0.458 OA
BRANCH   2   3
ATOM      3  C   UNL A   1      40.502  21.423  26.794  1.00  0.00     0.338 C 
ATOM      4  O   UNL A   1      40.808  21.673  27.952  1.00  0.00    -0.246 OA
BRANCH   3   5
ATOM      5  C   UNL A   1      39.231  21.876  26.184  1.00  0.00     0.060 A 
ATOM      6  C   UNL A   1      36.675  22.675  25.346  1.00  0.00     0.034 A 
ATOM      7  C   UNL A   1      37.486  23.552  26.072  1.00  0.00     0.026 A 
ATOM      8  C   UNL A   1      37.222  21.456  24.921  1.00  0.00     0.026 A 
ATOM      9  C   UNL A   1      38.746  23.148  26.514  1.00  0.00     0.018 A 
ATOM     10  C   UNL A   1      38.495  21.057  25.328  1.00  0.00     0.018 A 
BRANCH   6  11
ATOM     11  N   UNL A   1      35.318  22.944  25.242  1.00  0.00    -0.379 N 
ATOM     12  H   UNL A   1      34.700  22.258  24.905  1.00  0.00     0.160 HD
BRANCH  11  13
ATOM     13  C   UNL A   1      34.819  24.248  25.636  1.00  0.00     0.169 C 
BRANCH  13  14
ATOM     14  C   UNL A   1      33.387  24.262  26.025  1.00  0.00     0.066 A 
ATOM     15  C   UNL A   1      33.206  22.351  27.788  1.00  0.00     0.069 C 
ATOM     16  C   UNL A   1      32.703  23.461  26.943  1.00  0.00     0.062 A 
ATOM     17  N   UNL A   1      31.377  23.825  27.043  1.00  0.00    -0.224 NA
ATOM     18  C   UNL A   1      31.273  24.820  26.213  1.00  0.00     0.194 A 
ATOM     19  N   UNL A   1      32.439  25.163  25.581  1.00  0.00    -0.290 N 
ATOM     20  S   UNL A   1      29.957  25.862  25.776  1.00  0.00    -0.105 S 
ATOM     21  C   UNL A   1      32.324  26.273  24.745  1.00  0.00     0.032 A 
ATOM     22  C   UNL A   1      31.064  26.757  24.744  1.00  0.00     0.090 A 
ATOM     23  C   UNL A   1      33.425  26.895  23.967  1.00  0.00     0.066 C 
ENDBRANCH  13  14
ENDBRANCH  11  13
ENDBRANCH   6  11
ENDBRANCH   3   5
ENDBRANCH   2   3
ENDBRANCH   1   2
BRANCH   1  24
ATOM     24  C   UNL A   1      43.193  19.274  25.775  1.00  0.00     0.275 C 
BRANCH  24  25
ATOM     25  O   UNL A   1      43.526  20.223  24.765  1.00  0.00    -0.458 OA
BRANCH  25  26
ATOM     26  C   UNL A   1      44.816  20.633  24.774  1.00  0.00     0.338 C 
ATOM     27  O   UNL A   1      45.810  19.927  24.808  1.00  0.00    -0.246 OA
BRANCH  26  28
ATOM     28  C   UNL A   1      44.859  22.080  24.990  1.00  0.00     0.060 A 
ATOM     29  C   UNL A   1      45.848  22.551  25.857  1.00  0.00     0.016 A 
ATOM     30  C   UNL A   1      43.756  22.865  24.622  1.00  0.00     0.016 A 
ATOM     31  C   UNL A   1      45.621  23.733  26.524  1.00  0.00     0.010 A 
ATOM     32  C   UNL A   1      43.524  24.038  25.298  1.00  0.00     0.010 A 
ATOM     33  C   UNL A   1      44.416  24.410  26.300  1.00  0.00    -0.014 A 
BRANCH  33  34
ATOM     34  C   UNL A   1      44.156  25.597  27.087  1.00  0.00     0.031 A 
ATOM     35  C   UNL A   1      45.165  26.660  26.869  1.00  0.00     0.074 A 
ATOM     36  C   UNL A   1      43.035  25.739  27.820  1.00  0.00     0.049 A 
ATOM     37  N   UNL A   1      45.998  27.159  27.718  1.00  0.00    -0.248 NA
ATOM     38  C   UNL A   1      45.393  27.091  25.478  1.00  0.00     0.031 C 
ATOM     39  C   UNL A   1      41.851  24.877  27.847  1.00  0.00     0.029 A 
ATOM     40  N   UNL A   1      42.672  26.772  28.620  1.00  0.00    -0.354 N 
ATOM     41  C   UNL A   1      46.700  28.135  27.016  1.00  0.00     0.074 A 
ATOM     42  C   UNL A   1      46.435  27.907  25.622  1.00  0.00     0.031 C 
ATOM     43  C   UNL A   1      40.826  25.551  28.418  1.00  0.00     0.029 A 
ATOM     44  C   UNL A   1      41.312  26.831  28.901  1.00  0.00     0.049 A 
ATOM     45  H   UNL A   1      43.317  27.426  28.974  1.00  0.00     0.167 HD
ATOM     46  C   UNL A   1      47.230  29.217  27.648  1.00  0.00     0.037 A 
ATOM     47  C   UNL A   1      40.650  27.910  29.396  1.00  0.00     0.037 A 
ATOM     48  C   UNL A   1      47.388  28.975  29.059  1.00  0.00     0.049 A 
ATOM     49  C   UNL A   1      41.677  28.817  29.986  1.00  0.00     0.074 A 
ATOM     50  C   UNL A   1      48.068  28.027  29.802  1.00  0.00     0.029 A 
ATOM     51  N   UNL A   1      46.478  29.540  29.920  1.00  0.00    -0.354 N 
ATOM     52  N   UNL A   1      42.376  28.534  31.052  1.00  0.00    -0.248 NA
ATOM     53  C   UNL A   1      42.251  29.839  29.120  1.00  0.00     0.031 C 
ATOM     54  C   UNL A   1      47.207  27.731  30.899  1.00  0.00     0.029 A 
ATOM     55  C   UNL A   1      46.088  28.558  30.796  1.00  0.00     0.049 A 
ATOM     56  H   UNL A   1      46.166  30.473  29.910  1.00  0.00     0.167 HD
ATOM     57  C   UNL A   1      43.649  29.017  30.783  1.00  0.00     0.074 A 
ATOM     58  C   UNL A   1      43.492  29.877  29.611  1.00  0.00     0.031 C 
ATOM     59  C   UNL A   1      44.758  28.459  31.353  1.00  0.00     0.037 A 
BRANCH  46  60
ATOM     60  C   UNL A   1      47.240  30.600  27.044  1.00  0.00     0.058 A 
ATOM     61  C   UNL A   1      48.431  31.351  27.062  1.00  0.00     0.135 A 
ATOM     62  C   UNL A   1      46.070  31.323  26.709  1.00  0.00     0.135 A 
ATOM     63  F   UNL A   1      49.599  30.770  27.376  1.00  0.00    -0.206 F 
ATOM     64  C   UNL A   1      48.447  32.728  26.842  1.00  0.00     0.059 A 
ATOM     65  C   UNL A   1      46.072  32.682  26.428  1.00  0.00     0.059 A 
ATOM     66  F   UNL A   1      44.849  30.776  26.735  1.00  0.00    -0.206 F 
ATOM     67  C   UNL A   1      47.257  33.387  26.543  1.00  0.00     0.060 A 
BRANCH  67  68
ATOM     68  S   UNL A   1      47.250  35.177  26.374  1.00  0.00     0.124 S 
ATOM     69  O   UNL A   1      46.038  35.386  25.589  1.00  0.00    -0.237 OA
ATOM     70  O   UNL A   1      47.195  35.612  27.766  1.00  0.00    -0.237 OA
ATOM     71  O   UNL A   1      48.507  35.455  25.686  1.00  0.00    -0.744 OA
ENDBRANCH  67  68
ENDBRANCH  46  60
BRANCH  47  72
ATOM     72  C   UNL A   1      39.282  28.389  29.052  1.00  0.00     0.058 A 
ATOM     73  C   UNL A   1      38.278  28.460  30.038  1.00  0.00     0.135 A 
ATOM     74  C   UNL A   1      39.007  29.061  27.844  1.00  0.00     0.135 A 
ATOM     75  F   UNL A   1      38.455  27.859  31.225  1.00  0.00    -0.206 F 
ATOM     76  C   UNL A   1      37.110  29.210  29.864  1.00  0.00     0.059 A 
ATOM     77  C   UNL A   1      37.844  29.802  27.642  1.00  0.00     0.059 A 
ATOM     78  F   UNL A   1      39.906  29.103  26.851  1.00  0.00    -0.206 F 
ATOM     79  C   UNL A   1      36.914  29.902  28.669  1.00  0.00     0.060 A 
BRANCH  79  80
ATOM     80  S   UNL A   1      35.516  31.037  28.515  1.00  0.00     0.124 S 
ATOM     81  O   UNL A   1      35.222  31.346  29.911  1.00  0.00    -0.237 OA
ATOM     82  O   UNL A   1      36.086  32.124  27.727  1.00  0.00    -0.237 OA
ATOM     83  O   UNL A   1      34.505  30.238  27.827  1.00  0.00    -0.744 OA
ENDBRANCH  79  80
ENDBRANCH  47  72
BRANCH  59  84
ATOM     84  C   UNL A   1      44.569  27.498  32.497  1.00  0.00     0.058 A 
ATOM     85  C   UNL A   1      44.395  27.879  33.840  1.00  0.00     0.135 A 
ATOM     86  C   UNL A   1      44.412  26.137  32.194  1.00  0.00     0.135 A 
ATOM     87  F   UNL A   1      44.417  29.170  34.200  1.00  0.00    -0.206 F 
ATOM     88  C   UNL A   1      44.128  26.942  34.841  1.00  0.00     0.059 A 
ATOM     89  C   UNL A   1      44.113  25.191  33.170  1.00  0.00     0.059 A 
ATOM     90  F   UNL A   1      44.501  25.717  30.922  1.00  0.00    -0.206 F 
ATOM     91  C   UNL A   1      43.990  25.598  34.496  1.00  0.00     0.060 A 
BRANCH  91  92
ATOM     92  S   UNL A   1      43.584  24.394  35.779  1.00  0.00     0.124 S 
ATOM     93  O   UNL A   1      42.558  25.096  36.544  1.00  0.00    -0.237 OA
ATOM     94  O   UNL A   1      43.122  23.246  35.005  1.00  0.00    -0.237 OA
ATOM     95  O   UNL A   1      44.853  24.195  36.474  1.00  0.00    -0.744 OA
ENDBRANCH  91  92
ENDBRANCH  59  84
ENDBRANCH  33  34
ENDBRANCH  26  28
ENDBRANCH  25  26
ENDBRANCH  24  25
ENDBRANCH   1  24
TORSDOF 17
ENDMDL
MODEL 2
REMARK VINA RESULT:     -11.8      1.426      2.101
REMARK SMILES Cc1nc2scc(C)n2c1CNc1ccc(C(=O)OCCOC(=O)c2ccc(-c3c4nc(c(-c5c(F)cc(S(=O)(=O)[O-])cc5F)c5ccc([nH]5)c(-c5c(F)cc(S(=O)(=O)[O-])cc5F)c5nc(c(-c6c(F)cc(S(=O)(=O)[O-])cc6F)c6ccc3[nH]6)C=C5)C=C4)cc2)cc1
REMARK SMILES IDX 20 1 19 2 17 3 18 4 16 5 13 6 14 7 92 8 15 9 91 10 12 11
REMARK SMILES IDX 11 13 10 14 1 15 2 16 3 17 4 18 9 19 5 20 7 21 6 22 8 23
REMARK SMILES IDX 21 24 22 25 23 26 24 27 25 28 26 29 90 30 27 31 89 32 28 33
REMARK SMILES IDX 29 34 30 35 83 36 31 37 88 38 82 39 84 40 32 41 87 42 81 43
REMARK SMILES IDX 80 44 33 46 67 47 46 48 66 49 47 50 50 51 65 52 85 53 48 54
REMARK SMILES IDX 49 55 64 57 86 58 51 59 34 60 35 61 44 62 36 63 37 64 43 65
REMARK SMILES IDX 45 66 38 67 39 68 40 69 41 70 42 71 68 72 69 73 78 74 70 75
REMARK SMILES IDX 71 76 77 77 79 78 72 79 73 80 74 81 75 82 76 83 52 84 53 85
REMARK SMILES IDX 62 86 54 87 55 88 61 89 63 90 56 91 57 92 58 93 59 94 60 95
REMARK H PARENT 12 12 84 45 50 56
REMARK Flexibility Score: inf
ROOT
ATOM      1  C   UNL A   1      42.605  18.768  26.045  1.00  0.00     0.275 C 
ENDROOT
BRANCH   1   2
ATOM      2  O   UNL A   1      41.436  19.541  25.730  1.00  0.00    -0.458 OA
BRANCH   2   3
ATOM      3  C   UNL A   1      40.785  20.080  26.792  1.00  0.00     0.338 C 
ATOM      4  O   UNL A   1      40.985  19.825  27.971  1.00  0.00    -0.246 OA
BRANCH   3   5
ATOM      5  C   UNL A   1      39.815  21.107  26.346  1.00  0.00     0.060 A 
ATOM      6  C   UNL A   1      37.824  23.011  25.818  1.00  0.00     0.034 A 
ATOM      7  C   UNL A   1      38.941  23.353  26.586  1.00  0.00     0.026 A 
ATOM      8  C   UNL A   1      37.797  21.754  25.199  1.00  0.00     0.026 A 
ATOM      9  C   UNL A   1      39.919  22.399  26.872  1.00  0.00     0.018 A 
ATOM     10  C   UNL A   1      38.788  20.806  25.451  1.00  0.00     0.018 A 
BRANCH   6  11
ATOM     11  N   UNL A   1      36.707  23.833  25.856  1.00  0.00    -0.379 N 
ATOM     12  H   UNL A   1      36.774  24.775  25.583  1.00  0.00     0.160 HD
BRANCH  11  13
ATOM     13  C   UNL A   1      35.438  23.289  26.301  1.00  0.00     0.169 C 
BRANCH  13  14
ATOM     14  C   UNL A   1      34.296  23.589  25.402  1.00  0.00     0.066 A 
ATOM     15  C   UNL A   1      34.083  26.184  25.518  1.00  0.00     0.069 C 
ATOM     16  C   UNL A   1      33.723  24.818  25.065  1.00  0.00     0.062 A 
ATOM     17  N   UNL A   1      32.696  24.667  24.159  1.00  0.00    -0.224 NA
ATOM     18  C   UNL A   1      32.659  23.384  23.955  1.00  0.00     0.194 A 
ATOM     19  N   UNL A   1      33.602  22.667  24.642  1.00  0.00    -0.290 N 
ATOM     20  S   UNL A   1      31.688  22.378  22.929  1.00  0.00    -0.105 S 
ATOM     21  C   UNL A   1      33.591  21.302  24.361  1.00  0.00     0.032 A 
ATOM     22  C   UNL A   1      32.629  20.994  23.467  1.00  0.00     0.090 A 
ATOM     23  C   UNL A   1      34.521  20.290  24.923  1.00  0.00     0.066 C 
ENDBRANCH  13  14
ENDBRANCH  11  13
ENDBRANCH   6  11
ENDBRANCH   3   5
ENDBRANCH   2   3
ENDBRANCH   1   2
BRANCH   1  24
ATOM     24  C   UNL A   1      43.744  19.072  25.081  1.00  0.00     0.275 C 
BRANCH  24  25
ATOM     25  O   UNL A   1      44.507  20.193  25.522  1.00  0.00    -0.458 OA
BRANCH  25  26
ATOM     26  C   UNL A   1      44.285  21.337  24.835  1.00  0.00     0.338 C 
ATOM     27  O   UNL A   1      44.769  21.656  23.762  1.00  0.00    -0.246 OA
BRANCH  26  28
ATOM     28  C   UNL A   1      43.555  22.276  25.689  1.00  0.00     0.060 A 
ATOM     29  C   UNL A   1      42.878  23.313  25.041  1.00  0.00     0.016 A 
ATOM     30  C   UNL A   1      43.826  22.310  27.065  1.00  0.00     0.016 A 
ATOM     31  C   UNL A   1      42.664  24.483  25.732  1.00  0.00     0.010 A 
ATOM     32  C   UNL A   1      43.623  23.483  27.750  1.00  0.00     0.010 A 
ATOM     33  C   UNL A   1      43.125  24.579  27.050  1.00  0.00    -0.014 A 
BRANCH  33  34
ATOM     34  C   UNL A   1      42.978  25.852  27.723  1.00  0.00     0.031 A 
ATOM     35  C   UNL A   1      44.074  26.797  27.404  1.00  0.00     0.074 A 
ATOM     36  C   UNL A   1      41.882  26.160  28.442  1.00  0.00     0.049 A 
ATOM     37  N   UNL A   1      44.956  27.297  28.200  1.00  0.00    -0.248 NA
ATOM     38  C   UNL A   1      44.325  27.074  25.978  1.00  0.00     0.031 C 
ATOM     39  C   UNL A   1      40.627  25.412  28.551  1.00  0.00     0.029 A 
ATOM     40  N   UNL A   1      41.618  27.292  29.142  1.00  0.00    -0.354 N 
ATOM     41  C   UNL A   1      45.733  28.138  27.409  1.00  0.00     0.074 A 
ATOM     42  C   UNL A   1      45.436  27.804  26.042  1.00  0.00     0.031 C 
ATOM     43  C   UNL A   1      39.670  26.225  29.059  1.00  0.00     0.029 A 
ATOM     44  C   UNL A   1      40.272  27.497  29.418  1.00  0.00     0.049 A 
ATOM     45  H   UNL A   1      42.322  27.916  29.431  1.00  0.00     0.167 HD
ATOM     46  C   UNL A   1      46.363  29.223  27.934  1.00  0.00     0.037 A 
ATOM     47  C   UNL A   1      39.712  28.672  29.810  1.00  0.00     0.037 A 
ATOM     48  C   UNL A   1      46.514  29.101  29.362  1.00  0.00     0.049 A 
ATOM     49  C   UNL A   1      40.820  29.536  30.311  1.00  0.00     0.074 A 
ATOM     50  C   UNL A   1      47.115  28.171  30.190  1.00  0.00     0.029 A 
ATOM     51  N   UNL A   1      45.666  29.823  30.168  1.00  0.00    -0.354 N 
ATOM     52  N   UNL A   1      41.503  29.293  31.397  1.00  0.00    -0.248 NA
ATOM     53  C   UNL A   1      41.473  30.417  29.352  1.00  0.00     0.031 C 
ATOM     54  C   UNL A   1      46.243  28.056  31.311  1.00  0.00     0.029 A 
ATOM     55  C   UNL A   1      45.200  28.965  31.133  1.00  0.00     0.049 A 
ATOM     56  H   UNL A   1      45.436  30.775  30.071  1.00  0.00     0.167 HD
ATOM     57  C   UNL A   1      42.811  29.635  31.082  1.00  0.00     0.074 A 
ATOM     58  C   UNL A   1      42.718  30.391  29.834  1.00  0.00     0.031 C 
ATOM     59  C   UNL A   1      43.872  29.036  31.699  1.00  0.00     0.037 A 
BRANCH  46  60
ATOM     60  C   UNL A   1      46.488  30.538  27.203  1.00  0.00     0.058 A 
ATOM     61  C   UNL A   1      47.741  31.177  27.146  1.00  0.00     0.135 A 
ATOM     62  C   UNL A   1      45.382  31.328  26.806  1.00  0.00     0.135 A 
ATOM     63  F   UNL A   1      48.857  30.526  27.509  1.00  0.00    -0.206 F 
ATOM     64  C   UNL A   1      47.876  32.521  26.797  1.00  0.00     0.059 A 
ATOM     65  C   UNL A   1      45.502  32.649  26.399  1.00  0.00     0.059 A 
ATOM     66  F   UNL A   1      44.118  30.896  26.888  1.00  0.00    -0.206 F 
ATOM     67  C   UNL A   1      46.746  33.252  26.442  1.00  0.00     0.060 A 
BRANCH  67  68
ATOM     68  S   UNL A   1      46.895  35.013  26.105  1.00  0.00     0.124 S 
ATOM     69  O   UNL A   1      48.321  35.227  26.325  1.00  0.00    -0.237 OA
ATOM     70  O   UNL A   1      46.439  35.095  24.722  1.00  0.00    -0.237 OA
ATOM     71  O   UNL A   1      46.004  35.620  27.090  1.00  0.00    -0.744 OA
ENDBRANCH  67  68
ENDBRANCH  46  60
BRANCH  47  72
ATOM     72  C   UNL A   1      38.388  29.235  29.426  1.00  0.00     0.058 A 
ATOM     73  C   UNL A   1      37.455  29.612  30.412  1.00  0.00     0.135 A 
ATOM     74  C   UNL A   1      38.121  29.691  28.120  1.00  0.00     0.135 A 
ATOM     75  F   UNL A   1      37.631  29.232  31.687  1.00  0.00    -0.206 F 
ATOM     76  C   UNL A   1      36.369  30.448  30.133  1.00  0.00     0.059 A 
ATOM     77  C   UNL A   1      37.036  30.513  27.816  1.00  0.00     0.059 A 
ATOM     78  F   UNL A   1      38.962  29.435  27.108  1.00  0.00    -0.206 F 
ATOM     79  C   UNL A   1      36.183  30.917  28.834  1.00  0.00     0.060 A 
BRANCH  79  80
ATOM     80  S   UNL A   1      34.911  32.160  28.507  1.00  0.00     0.124 S 
ATOM     81  O   UNL A   1      35.633  33.121  27.680  1.00  0.00    -0.237 OA
ATOM     82  O   UNL A   1      33.883  31.378  27.829  1.00  0.00    -0.237 OA
ATOM     83  O   UNL A   1      34.550  32.633  29.841  1.00  0.00    -0.744 OA
ENDBRANCH  79  80
ENDBRANCH  47  72
BRANCH  59  84
ATOM     84  C   UNL A   1      43.612  28.207  32.929  1.00  0.00     0.058 A 
ATOM     85  C   UNL A   1      43.397  28.733  34.217  1.00  0.00     0.135 A 
ATOM     86  C   UNL A   1      43.427  26.826  32.764  1.00  0.00     0.135 A 
ATOM     87  F   UNL A   1      43.443  30.053  34.440  1.00  0.00    -0.206 F 
ATOM     88  C   UNL A   1      43.065  27.914  35.298  1.00  0.00     0.059 A 
ATOM     89  C   UNL A   1      43.063  25.997  33.821  1.00  0.00     0.059 A 
ATOM     90  F   UNL A   1      43.553  26.271  31.548  1.00  0.00    -0.206 F 
ATOM     91  C   UNL A   1      42.901  26.545  35.090  1.00  0.00     0.060 A 
BRANCH  91  92
ATOM     92  S   UNL A   1      42.411  25.494  36.475  1.00  0.00     0.124 S 
ATOM     93  O   UNL A   1      43.665  24.828  36.813  1.00  0.00    -0.237 OA
ATOM     94  O   UNL A   1      41.925  26.462  37.454  1.00  0.00    -0.237 OA
ATOM     95  O   UNL A   1      41.382  24.632  35.902  1.00  0.00    -0.744 OA
ENDBRANCH  91  92
ENDBRANCH  59  84
ENDBRANCH  33  34
ENDBRANCH  26  28
ENDBRANCH  25  26
ENDBRANCH  24  25
ENDBRANCH   1  24
TORSDOF 17
ENDMDL
MODEL 3
REMARK VINA RESULT:     -11.5      1.394      1.924
REMARK SMILES Cc1nc2scc(C)n2c1CNc1ccc(C(=O)OCCOC(=O)c2ccc(-c3c4nc(c(-c5c(F)cc(S(=O)(=O)[O-])cc5F)c5ccc([nH]5)c(-c5c(F)cc(S(=O)(=O)[O-])cc5F)c5nc(c(-c6c(F)cc(S(=O)(=O)[O-])cc6F)c6ccc3[nH]6)C=C5)C=C4)cc2)cc1
REMARK SMILES IDX 20 1 19 2 17 3 18 4 16 5 13 6 14 7 92 8 15 9 91 10 12 11
REMARK SMILES IDX 11 13 10 14 1 15 2 16 3 17 4 18 9 19 5 20 7 21 6 22 8 23
REMARK SMILES IDX 21 24 22 25 23 26 24 27 25 28 26 29 90 30 27 31 89 32 28 33
REMARK SMILES IDX 29 34 30 35 83 36 31 37 88 38 82 39 84 40 32 41 87 42 81 43
REMARK SMILES IDX 80 44 33 46 67 47 46 48 66 49 47 50 50 51 65 52 85 53 48 54
REMARK SMILES IDX 49 55 64 57 86 58 51 59 34 60 35 61 44 62 36 63 37 64 43 65
REMARK SMILES IDX 45 66 38 67 39 68 40 69 41 70 42 71 68 72 69 73 78 74 70 75
REMARK SMILES IDX 71 76 77 77 79 78 72 79 73 80 74 81 75 82 76 83 52 84 53 85
REMARK SMILES IDX 62 86 54 87 55 88 61 89 63 90 56 91 57 92 58 93 59 94 60 95
REMARK H PARENT 12 12 84 45 50 56
REMARK Flexibility Score: inf
ROOT
ATOM      1  C   UNL A   1      40.172  20.214  26.145  1.00  0.00     0.275 C 
ENDROOT
BRANCH   1   2
ATOM      2  O   UNL A   1      39.183  21.230  25.912  1.00  0.00    -0.458 OA
BRANCH   2   3
ATOM      3  C   UNL A   1      38.078  20.828  25.234  1.00  0.00     0.338 C 
ATOM      4  O   UNL A   1      37.890  19.724  24.742  1.00  0.00    -0.246 OA
BRANCH   3   5
ATOM      5  C   UNL A   1      37.056  21.900  25.216  1.00  0.00     0.060 A 
ATOM      6  C   UNL A   1      35.223  23.992  24.848  1.00  0.00     0.034 A 
ATOM      7  C   UNL A   1      34.945  22.715  24.351  1.00  0.00     0.026 A 
ATOM      8  C   UNL A   1      36.355  24.163  25.656  1.00  0.00     0.026 A 
ATOM      9  C   UNL A   1      35.868  21.680  24.509  1.00  0.00     0.018 A 
ATOM     10  C   UNL A   1      37.266  23.125  25.849  1.00  0.00     0.018 A 
BRANCH   6  11
ATOM     11  N   UNL A   1      34.494  25.071  24.370  1.00  0.00    -0.379 N 
ATOM     12  H   UNL A   1      34.471  25.268  23.407  1.00  0.00     0.160 HD
BRANCH  11  13
ATOM     13  C   UNL A   1      33.765  25.907  25.305  1.00  0.00     0.169 C 
BRANCH  13  14
ATOM     14  C   UNL A   1      32.344  26.134  24.943  1.00  0.00     0.066 A 
ATOM     15  C   UNL A   1      31.054  24.372  26.365  1.00  0.00     0.069 C 
ATOM     16  C   UNL A   1      31.192  25.487  25.397  1.00  0.00     0.062 A 
ATOM     17  N   UNL A   1      30.054  26.028  24.839  1.00  0.00    -0.224 NA
ATOM     18  C   UNL A   1      30.512  26.978  24.078  1.00  0.00     0.194 A 
ATOM     19  N   UNL A   1      31.873  27.125  24.103  1.00  0.00    -0.290 N 
ATOM     20  S   UNL A   1      29.741  28.158  23.067  1.00  0.00    -0.105 S 
ATOM     21  C   UNL A   1      32.341  28.189  23.333  1.00  0.00     0.032 A 
ATOM     22  C   UNL A   1      31.326  28.835  22.722  1.00  0.00     0.090 A 
ATOM     23  C   UNL A   1      33.759  28.612  23.203  1.00  0.00     0.066 C 
ENDBRANCH  13  14
ENDBRANCH  11  13
ENDBRANCH   6  11
ENDBRANCH   3   5
ENDBRANCH   2   3
ENDBRANCH   1   2
BRANCH   1  24
ATOM     24  C   UNL A   1      41.164  20.647  27.215  1.00  0.00     0.275 C 
BRANCH  24  25
ATOM     25  O   UNL A   1      42.465  20.126  26.952  1.00  0.00    -0.458 OA
BRANCH  25  26
ATOM     26  C   UNL A   1      43.051  20.603  25.829  1.00  0.00     0.338 C 
ATOM     27  O   UNL A   1      43.437  19.955  24.871  1.00  0.00    -0.246 OA
BRANCH  26  28
ATOM     28  C   UNL A   1      43.392  22.013  26.027  1.00  0.00     0.060 A 
ATOM     29  C   UNL A   1      44.157  22.316  27.156  1.00  0.00     0.016 A 
ATOM     30  C   UNL A   1      42.691  22.997  25.315  1.00  0.00     0.016 A 
ATOM     31  C   UNL A   1      44.046  23.576  27.699  1.00  0.00     0.010 A 
ATOM     32  C   UNL A   1      42.571  24.250  25.866  1.00  0.00     0.010 A 
ATOM     33  C   UNL A   1      43.180  24.494  27.093  1.00  0.00    -0.014 A 
BRANCH  33  34
ATOM     34  C   UNL A   1      43.003  25.777  27.739  1.00  0.00     0.031 A 
ATOM     35  C   UNL A   1      44.101  26.726  27.436  1.00  0.00     0.074 A 
ATOM     36  C   UNL A   1      41.884  26.089  28.421  1.00  0.00     0.049 A 
ATOM     37  N   UNL A   1      44.955  27.247  28.250  1.00  0.00    -0.248 NA
ATOM     38  C   UNL A   1      44.391  26.981  26.014  1.00  0.00     0.031 C 
ATOM     39  C   UNL A   1      40.632  25.332  28.506  1.00  0.00     0.029 A 
ATOM     40  N   UNL A   1      41.591  27.230  29.093  1.00  0.00    -0.354 N 
ATOM     41  C   UNL A   1      45.749  28.080  27.467  1.00  0.00     0.074 A 
ATOM     42  C   UNL A   1      45.494  27.722  26.098  1.00  0.00     0.031 C 
ATOM     43  C   UNL A   1      39.655  26.145  28.971  1.00  0.00     0.029 A 
ATOM     44  C   UNL A   1      40.236  27.428  29.326  1.00  0.00     0.049 A 
ATOM     45  H   UNL A   1      42.281  27.864  29.392  1.00  0.00     0.167 HD
ATOM     46  C   UNL A   1      46.354  29.180  27.992  1.00  0.00     0.037 A 
ATOM     47  C   UNL A   1      39.656  28.605  29.682  1.00  0.00     0.037 A 
ATOM     48  C   UNL A   1      46.464  29.083  29.425  1.00  0.00     0.049 A 
ATOM     49  C   UNL A   1      40.742  29.486  30.200  1.00  0.00     0.074 A 
ATOM     50  C   UNL A   1      47.048  28.172  30.286  1.00  0.00     0.029 A 
ATOM     51  N   UNL A   1      45.587  29.811  30.194  1.00  0.00    -0.354 N 
ATOM     52  N   UNL A   1      41.395  29.268  31.309  1.00  0.00    -0.248 NA
ATOM     53  C   UNL A   1      41.415  30.356  29.246  1.00  0.00     0.031 C 
ATOM     54  C   UNL A   1      46.144  28.068  31.383  1.00  0.00     0.029 A 
ATOM     55  C   UNL A   1      45.100  28.965  31.159  1.00  0.00     0.049 A 
ATOM     56  H   UNL A   1      45.353  30.759  30.074  1.00  0.00     0.167 HD
ATOM     57  C   UNL A   1      42.708  29.614  31.027  1.00  0.00     0.074 A 
ATOM     58  C   UNL A   1      42.646  30.349  29.765  1.00  0.00     0.031 C 
ATOM     59  C   UNL A   1      43.755  29.035  31.686  1.00  0.00     0.037 A 
BRANCH  46  60
ATOM     60  C   UNL A   1      46.490  30.483  27.243  1.00  0.00     0.058 A 
ATOM     61  C   UNL A   1      47.742  31.126  27.203  1.00  0.00     0.135 A 
ATOM     62  C   UNL A   1      45.391  31.262  26.809  1.00  0.00     0.135 A 
ATOM     63  F   UNL A   1      48.852  30.485  27.600  1.00  0.00    -0.206 F 
ATOM     64  C   UNL A   1      47.880  32.464  26.835  1.00  0.00     0.059 A 
ATOM     65  C   UNL A   1      45.515  32.577  26.383  1.00  0.00     0.059 A 
ATOM     66  F   UNL A   1      44.127  30.827  26.871  1.00  0.00    -0.206 F 
ATOM     67  C   UNL A   1      46.755  33.186  26.444  1.00  0.00     0.060 A 
BRANCH  67  68
ATOM     68  S   UNL A   1      46.905  34.941  26.082  1.00  0.00     0.124 S 
ATOM     69  O   UNL A   1      47.481  35.443  27.325  1.00  0.00    -0.237 OA
ATOM     70  O   UNL A   1      47.790  34.936  24.922  1.00  0.00    -0.237 OA
ATOM     71  O   UNL A   1      45.529  35.347  25.812  1.00  0.00    -0.744 OA
ENDBRANCH  67  68
ENDBRANCH  46  60
BRANCH  47  72
ATOM     72  C   UNL A   1      38.339  29.150  29.250  1.00  0.00     0.058 A 
ATOM     73  C   UNL A   1      37.333  29.432  30.195  1.00  0.00     0.135 A 
ATOM     74  C   UNL A   1      38.139  29.684  27.961  1.00  0.00     0.135 A 
ATOM     75  F   UNL A   1      37.443  28.973  31.452  1.00  0.00    -0.206 F 
ATOM     76  C   UNL A   1      36.238  30.250  29.901  1.00  0.00     0.059 A 
ATOM     77  C   UNL A   1      37.046  30.490  27.641  1.00  0.00     0.059 A 
ATOM     78  F   UNL A   1      39.050  29.523  26.991  1.00  0.00    -0.206 F 
ATOM     79  C   UNL A   1      36.117  30.798  28.625  1.00  0.00     0.060 A 
BRANCH  79  80
ATOM     80  S   UNL A   1      34.825  32.019  28.298  1.00  0.00     0.124 S 
ATOM     81  O   UNL A   1      34.413  32.394  29.646  1.00  0.00    -0.237 OA
ATOM     82  O   UNL A   1      35.548  33.039  27.545  1.00  0.00    -0.237 OA
ATOM     83  O   UNL A   1      33.836  31.268  27.529  1.00  0.00    -0.744 OA
ENDBRANCH  79  80
ENDBRANCH  47  72
BRANCH  59  84
ATOM     84  C   UNL A   1      43.466  28.225  32.921  1.00  0.00     0.058 A 
ATOM     85  C   UNL A   1      43.218  28.770  34.195  1.00  0.00     0.135 A 
ATOM     86  C   UNL A   1      43.287  26.841  32.773  1.00  0.00     0.135 A 
ATOM     87  F   UNL A   1      43.257  30.094  34.398  1.00  0.00    -0.206 F 
ATOM     88  C   UNL A   1      42.860  27.968  35.280  1.00  0.00     0.059 A 
ATOM     89  C   UNL A   1      42.898  26.028  33.833  1.00  0.00     0.059 A 
ATOM     90  F   UNL A   1      43.443  26.268  31.569  1.00  0.00    -0.206 F 
ATOM     91  C   UNL A   1      42.703  26.595  35.089  1.00  0.00     0.060 A 
BRANCH  91  92
ATOM     92  S   UNL A   1      42.180  25.565  36.478  1.00  0.00     0.124 S 
ATOM     93  O   UNL A   1      42.399  26.452  37.616  1.00  0.00    -0.237 OA
ATOM     94  O   UNL A   1      40.785  25.280  36.155  1.00  0.00    -0.237 OA
ATOM     95  O   UNL A   1      43.074  24.413  36.404  1.00  0.00    -0.744 OA
ENDBRANCH  91  92
ENDBRANCH  59  84
ENDBRANCH  33  34
ENDBRANCH  26  28
ENDBRANCH  25  26
ENDBRANCH  24  25
ENDBRANCH   1  24
TORSDOF 17
ENDMDL
