MODEL 1
REMARK VINA RESULT:     -11.2      0.000      0.000
REMARK SMILES Cc1cc(C(=O)N[C@@H](Cc2ccccc2)C(=O)OCCOC(=O)c2ccc(-c3c4nc(c(-c5c(F)cc(S(=O)(=O)[O-])cc5F)c5ccc([nH]5)c(-c5c(F)cc(S(=O)(=O)[O-])cc5F)c5nc(c(-c6c(F)cc(S(=O)(=O)[O-])cc6F)c6ccc3[nH]6)C=C5)C=C4)cc2)c(C)o1
REMARK SMILES IDX 20 1 19 2 18 3 16 4 17 5 8 6 7 7 5 8 6 9 4 11 1 12 2 13 3 14
REMARK SMILES IDX 92 15 90 16 91 17 9 18 10 19 11 20 15 21 12 22 14 23 13 24
REMARK SMILES IDX 21 25 22 26 23 27 24 28 25 29 89 30 26 31 88 32 27 33 28 34
REMARK SMILES IDX 29 35 82 36 30 37 87 38 81 39 83 40 31 41 86 42 80 43 79 44
REMARK SMILES IDX 32 46 66 47 45 48 65 49 46 50 49 51 64 52 84 53 47 54 48 55
REMARK SMILES IDX 63 57 85 58 50 59 33 60 34 61 43 62 35 63 36 64 42 65 44 66
REMARK SMILES IDX 37 67 38 68 39 69 40 70 41 71 67 72 68 73 77 74 69 75 70 76
REMARK SMILES IDX 76 77 78 78 71 79 72 80 73 81 74 82 75 83 51 84 52 85 61 86
REMARK SMILES IDX 53 87 54 88 60 89 62 90 55 91 56 92 57 93 58 94 59 95
REMARK H PARENT 7 10 83 45 49 56
REMARK Flexibility Score: inf
ROOT
ATOM      1  C   UNL A   1      32.639  30.573  27.026  1.00  0.00     0.275 C 
ENDROOT
BRANCH   1   2
ATOM      2  C   UNL A   1      31.879  29.519  26.226  1.00  0.00     0.274 C 
BRANCH   2   3
ATOM      3  O   UNL A   1      32.807  28.743  25.446  1.00  0.00    -0.461 OA
BRANCH   3   4
ATOM      4  C   UNL A   1      32.348  28.270  24.254  1.00  0.00     0.329 C 
ATOM      5  O   UNL A   1      31.662  28.904  23.459  1.00  0.00    -0.250 OA
BRANCH   4   6
ATOM      6  C   UNL A   1      32.731  26.798  24.031  1.00  0.00     0.197 C 
BRANCH   6   7
ATOM      7  N   UNL A   1      32.844  26.434  22.618  1.00  0.00    -0.338 N 
ATOM      8  C   UNL A   1      32.974  25.259  21.928  1.00  0.00     0.255 C 
ATOM      9  O   UNL A   1      33.231  25.392  20.729  1.00  0.00    -0.269 OA
ATOM     10  H   UNL A   1      32.822  27.220  22.024  1.00  0.00     0.164 HD
BRANCH   8  11
ATOM     11  C   UNL A   1      32.784  23.938  22.532  1.00  0.00     0.081 A 
ATOM     12  C   UNL A   1      33.326  20.586  24.088  1.00  0.00     0.087 C 
ATOM     13  C   UNL A   1      32.961  21.882  23.476  1.00  0.00     0.101 A 
ATOM     14  C   UNL A   1      33.630  22.795  22.689  1.00  0.00     0.059 A 
ATOM     15  O   UNL A   1      31.712  22.328  23.729  1.00  0.00    -0.466 OA
ATOM     16  C   UNL A   1      31.591  23.553  23.148  1.00  0.00     0.113 A 
ATOM     17  C   UNL A   1      30.261  24.174  23.349  1.00  0.00     0.088 C 
ENDBRANCH   8  11
ENDBRANCH   6   7
BRANCH   6  18
ATOM     18  C   UNL A   1      34.036  26.483  24.788  1.00  0.00     0.072 C 
BRANCH  18  19
ATOM     19  C   UNL A   1      33.953  25.228  25.634  1.00  0.00    -0.045 A 
ATOM     20  C   UNL A   1      35.066  24.379  25.733  1.00  0.00     0.004 A 
ATOM     21  C   UNL A   1      32.753  24.847  26.247  1.00  0.00     0.004 A 
ATOM     22  C   UNL A   1      34.971  23.160  26.406  1.00  0.00     0.000 A 
ATOM     23  C   UNL A   1      32.658  23.623  26.913  1.00  0.00     0.000 A 
ATOM     24  C   UNL A   1      33.765  22.780  26.988  1.00  0.00     0.000 A 
ENDBRANCH  18  19
ENDBRANCH   6  18
ENDBRANCH   4   6
ENDBRANCH   3   4
ENDBRANCH   2   3
ENDBRANCH   1   2
BRANCH   1  25
ATOM     25  O   UNL A   1      33.655  29.933  27.819  1.00  0.00    -0.458 OA
BRANCH  25  26
ATOM     26  C   UNL A   1      34.491  30.777  28.468  1.00  0.00     0.338 C 
ATOM     27  O   UNL A   1      34.212  31.838  29.001  1.00  0.00    -0.246 OA
BRANCH  26  28
ATOM     28  C   UNL A   1      35.835  30.189  28.503  1.00  0.00     0.060 A 
ATOM     29  C   UNL A   1      36.345  29.750  29.722  1.00  0.00     0.016 A 
ATOM     30  C   UNL A   1      36.630  30.183  27.358  1.00  0.00     0.016 A 
ATOM     31  C   UNL A   1      37.677  29.358  29.817  1.00  0.00     0.010 A 
ATOM     32  C   UNL A   1      37.952  29.735  27.447  1.00  0.00     0.010 A 
ATOM     33  C   UNL A   1      38.501  29.352  28.684  1.00  0.00    -0.014 A 
BRANCH  33  34
ATOM     34  C   UNL A   1      39.948  29.018  28.806  1.00  0.00     0.031 A 
ATOM     35  C   UNL A   1      40.917  30.060  29.304  1.00  0.00     0.074 A 
ATOM     36  C   UNL A   1      40.404  27.789  28.498  1.00  0.00     0.049 A 
ATOM     37  N   UNL A   1      42.226  30.044  29.289  1.00  0.00    -0.248 NA
ATOM     38  C   UNL A   1      40.338  31.284  29.878  1.00  0.00     0.031 C 
ATOM     39  C   UNL A   1      39.579  26.662  28.058  1.00  0.00     0.029 A 
ATOM     40  N   UNL A   1      41.679  27.278  28.513  1.00  0.00    -0.354 N 
ATOM     41  C   UNL A   1      42.625  31.282  29.781  1.00  0.00     0.074 A 
ATOM     42  C   UNL A   1      41.419  32.018  30.099  1.00  0.00     0.031 C 
ATOM     43  C   UNL A   1      40.363  25.589  27.873  1.00  0.00     0.029 A 
ATOM     44  C   UNL A   1      41.753  25.968  28.106  1.00  0.00     0.049 A 
ATOM     45  H   UNL A   1      42.466  27.801  28.791  1.00  0.00     0.167 HD
ATOM     46  C   UNL A   1      43.881  31.763  29.944  1.00  0.00     0.037 A 
ATOM     47  C   UNL A   1      42.819  25.169  27.899  1.00  0.00     0.037 A 
ATOM     48  C   UNL A   1      45.079  31.001  29.704  1.00  0.00     0.049 A 
ATOM     49  C   UNL A   1      44.204  25.716  28.101  1.00  0.00     0.074 A 
ATOM     50  C   UNL A   1      46.398  31.398  29.858  1.00  0.00     0.029 A 
ATOM     51  N   UNL A   1      45.107  29.679  29.287  1.00  0.00    -0.354 N 
ATOM     52  N   UNL A   1      44.567  26.917  28.484  1.00  0.00    -0.248 NA
ATOM     53  C   UNL A   1      45.326  24.807  27.820  1.00  0.00     0.031 C 
ATOM     54  C   UNL A   1      47.223  30.319  29.517  1.00  0.00     0.029 A 
ATOM     55  C   UNL A   1      46.417  29.244  29.178  1.00  0.00     0.049 A 
ATOM     56  H   UNL A   1      44.312  29.131  29.097  1.00  0.00     0.167 HD
ATOM     57  C   UNL A   1      45.957  26.909  28.489  1.00  0.00     0.074 A 
ATOM     58  C   UNL A   1      46.371  25.578  28.093  1.00  0.00     0.031 C 
ATOM     59  C   UNL A   1      46.813  27.916  28.784  1.00  0.00     0.037 A 
BRANCH  46  60
ATOM     60  C   UNL A   1      44.027  33.196  30.372  1.00  0.00     0.058 A 
ATOM     61  C   UNL A   1      44.154  33.564  31.719  1.00  0.00     0.135 A 
ATOM     62  C   UNL A   1      44.071  34.215  29.405  1.00  0.00     0.135 A 
ATOM     63  F   UNL A   1      44.103  32.630  32.682  1.00  0.00    -0.206 F 
ATOM     64  C   UNL A   1      44.296  34.896  32.096  1.00  0.00     0.059 A 
ATOM     65  C   UNL A   1      44.235  35.550  29.758  1.00  0.00     0.059 A 
ATOM     66  F   UNL A   1      43.954  33.915  28.102  1.00  0.00    -0.206 F 
ATOM     67  C   UNL A   1      44.332  35.883  31.108  1.00  0.00     0.060 A 
BRANCH  67  68
ATOM     68  S   UNL A   1      44.524  37.608  31.605  1.00  0.00     0.124 S 
ATOM     69  O   UNL A   1      45.969  37.700  31.784  1.00  0.00    -0.237 OA
ATOM     70  O   UNL A   1      43.981  38.330  30.459  1.00  0.00    -0.237 OA
ATOM     71  O   UNL A   1      43.732  37.698  32.828  1.00  0.00    -0.744 OA
ENDBRANCH  67  68
ENDBRANCH  46  60
BRANCH  47  72
ATOM     72  C   UNL A   1      42.613  23.772  27.438  1.00  0.00     0.058 A 
ATOM     73  C   UNL A   1      42.613  23.457  26.073  1.00  0.00     0.135 A 
ATOM     74  C   UNL A   1      42.446  22.722  28.355  1.00  0.00     0.135 A 
ATOM     75  F   UNL A   1      42.757  24.432  25.160  1.00  0.00    -0.206 F 
ATOM     76  C   UNL A   1      42.458  22.148  25.628  1.00  0.00     0.059 A 
ATOM     77  C   UNL A   1      42.313  21.403  27.935  1.00  0.00     0.059 A 
ATOM     78  F   UNL A   1      42.452  22.973  29.673  1.00  0.00    -0.206 F 
ATOM     79  C   UNL A   1      42.316  21.127  26.569  1.00  0.00     0.060 A 
BRANCH  79  80
ATOM     80  S   UNL A   1      42.203  19.419  25.994  1.00  0.00     0.124 S 
ATOM     81  O   UNL A   1      43.037  19.455  24.800  1.00  0.00    -0.237 OA
ATOM     82  O   UNL A   1      42.741  18.672  27.126  1.00  0.00    -0.237 OA
ATOM     83  O   UNL A   1      40.772  19.241  25.763  1.00  0.00    -0.744 OA
ENDBRANCH  79  80
ENDBRANCH  47  72
BRANCH  59  84
ATOM     84  C   UNL A   1      48.282  27.617  28.705  1.00  0.00     0.058 A 
ATOM     85  C   UNL A   1      48.977  27.072  29.795  1.00  0.00     0.135 A 
ATOM     86  C   UNL A   1      48.993  27.838  27.515  1.00  0.00     0.135 A 
ATOM     87  F   UNL A   1      48.342  26.849  30.957  1.00  0.00    -0.206 F 
ATOM     88  C   UNL A   1      50.332  26.770  29.715  1.00  0.00     0.059 A 
ATOM     89  C   UNL A   1      50.344  27.527  27.406  1.00  0.00     0.059 A 
ATOM     90  F   UNL A   1      48.370  28.351  26.441  1.00  0.00    -0.206 F 
ATOM     91  C   UNL A   1      51.008  27.005  28.516  1.00  0.00     0.060 A 
BRANCH  91  92
ATOM     92  S   UNL A   1      52.761  26.586  28.410  1.00  0.00     0.124 S 
ATOM     93  O   UNL A   1      53.027  26.094  29.758  1.00  0.00    -0.237 OA
ATOM     94  O   UNL A   1      52.784  25.580  27.353  1.00  0.00    -0.237 OA
ATOM     95  O   UNL A   1      53.392  27.857  28.069  1.00  0.00    -0.744 OA
ENDBRANCH  91  92
ENDBRANCH  59  84
ENDBRANCH  33  34
ENDBRANCH  26  28
ENDBRANCH  25  26
ENDBRANCH   1  25
TORSDOF 18
ENDMDL
MODEL 2
REMARK VINA RESULT:     -11.0      1.751      2.576
REMARK SMILES Cc1cc(C(=O)N[C@@H](Cc2ccccc2)C(=O)OCCOC(=O)c2ccc(-c3c4nc(c(-c5c(F)cc(S(=O)(=O)[O-])cc5F)c5ccc([nH]5)c(-c5c(F)cc(S(=O)(=O)[O-])cc5F)c5nc(c(-c6c(F)cc(S(=O)(=O)[O-])cc6F)c6ccc3[nH]6)C=C5)C=C4)cc2)c(C)o1
REMARK SMILES IDX 20 1 19 2 18 3 16 4 17 5 8 6 7 7 5 8 6 9 4 11 1 12 2 13 3 14
REMARK SMILES IDX 92 15 90 16 91 17 9 18 10 19 11 20 15 21 12 22 14 23 13 24
REMARK SMILES IDX 21 25 22 26 23 27 24 28 25 29 89 30 26 31 88 32 27 33 28 34
REMARK SMILES IDX 29 35 82 36 30 37 87 38 81 39 83 40 31 41 86 42 80 43 79 44
REMARK SMILES IDX 32 46 66 47 45 48 65 49 46 50 49 51 64 52 84 53 47 54 48 55
REMARK SMILES IDX 63 57 85 58 50 59 33 60 34 61 43 62 35 63 36 64 42 65 44 66
REMARK SMILES IDX 37 67 38 68 39 69 40 70 41 71 67 72 68 73 77 74 69 75 70 76
REMARK SMILES IDX 76 77 78 78 71 79 72 80 73 81 74 82 75 83 51 84 52 85 61 86
REMARK SMILES IDX 53 87 54 88 60 89 62 90 55 91 56 92 57 93 58 94 59 95
REMARK H PARENT 7 10 83 45 49 56
REMARK Flexibility Score: inf
ROOT
ATOM      1  C   UNL A   1      34.220  30.431  27.531  1.00  0.00     0.275 C 
ENDROOT
BRANCH   1   2
ATOM      2  C   UNL A   1      33.227  29.413  26.977  1.00  0.00     0.274 C 
BRANCH   2   3
ATOM      3  O   UNL A   1      33.916  28.481  26.123  1.00  0.00    -0.461 OA
BRANCH   3   4
ATOM      4  C   UNL A   1      33.445  28.366  24.850  1.00  0.00     0.329 C 
ATOM      5  O   UNL A   1      33.130  29.304  24.125  1.00  0.00    -0.250 OA
BRANCH   4   6
ATOM      6  C   UNL A   1      33.283  26.897  24.425  1.00  0.00     0.197 C 
BRANCH   6   7
ATOM      7  N   UNL A   1      33.290  26.709  22.973  1.00  0.00    -0.338 N 
ATOM      8  C   UNL A   1      33.160  25.633  22.136  1.00  0.00     0.255 C 
ATOM      9  O   UNL A   1      33.414  25.869  20.953  1.00  0.00    -0.269 OA
ATOM     10  H   UNL A   1      33.419  27.554  22.484  1.00  0.00     0.164 HD
BRANCH   8  11
ATOM     11  C   UNL A   1      32.714  24.311  22.578  1.00  0.00     0.081 A 
ATOM     12  C   UNL A   1      32.585  20.763  23.742  1.00  0.00     0.087 C 
ATOM     13  C   UNL A   1      32.482  22.164  23.279  1.00  0.00     0.101 A 
ATOM     14  C   UNL A   1      33.334  23.021  22.616  1.00  0.00     0.059 A 
ATOM     15  O   UNL A   1      31.324  22.799  23.560  1.00  0.00    -0.466 OA
ATOM     16  C   UNL A   1      31.448  24.082  23.124  1.00  0.00     0.113 A 
ATOM     17  C   UNL A   1      30.244  24.910  23.373  1.00  0.00     0.088 C 
ENDBRANCH   8  11
ENDBRANCH   6   7
BRANCH   6  18
ATOM     18  C   UNL A   1      34.374  26.041  25.098  1.00  0.00     0.072 C 
BRANCH  18  19
ATOM     19  C   UNL A   1      33.820  24.863  25.874  1.00  0.00    -0.045 A 
ATOM     20  C   UNL A   1      34.609  23.717  26.059  1.00  0.00     0.004 A 
ATOM     21  C   UNL A   1      32.497  24.857  26.333  1.00  0.00     0.004 A 
ATOM     22  C   UNL A   1      34.075  22.579  26.664  1.00  0.00     0.000 A 
ATOM     23  C   UNL A   1      31.963  23.713  26.931  1.00  0.00     0.000 A 
ATOM     24  C   UNL A   1      32.751  22.575  27.092  1.00  0.00     0.000 A 
ENDBRANCH  18  19
ENDBRANCH   6  18
ENDBRANCH   4   6
ENDBRANCH   3   4
ENDBRANCH   2   3
ENDBRANCH   1   2
BRANCH   1  25
ATOM     25  O   UNL A   1      35.447  29.764  27.877  1.00  0.00    -0.458 OA
BRANCH  25  26
ATOM     26  C   UNL A   1      36.093  30.274  28.951  1.00  0.00     0.338 C 
ATOM     27  O   UNL A   1      35.600  30.784  29.944  1.00  0.00    -0.246 OA
BRANCH  26  28
ATOM     28  C   UNL A   1      37.536  30.070  28.786  1.00  0.00     0.060 A 
ATOM     29  C   UNL A   1      38.034  29.784  27.517  1.00  0.00     0.016 A 
ATOM     30  C   UNL A   1      38.375  30.044  29.899  1.00  0.00     0.016 A 
ATOM     31  C   UNL A   1      39.365  29.409  27.361  1.00  0.00     0.010 A 
ATOM     32  C   UNL A   1      39.725  29.721  29.730  1.00  0.00     0.010 A 
ATOM     33  C   UNL A   1      40.227  29.365  28.465  1.00  0.00    -0.014 A 
BRANCH  33  34
ATOM     34  C   UNL A   1      41.626  28.876  28.309  1.00  0.00     0.031 A 
ATOM     35  C   UNL A   1      42.777  29.834  28.477  1.00  0.00     0.074 A 
ATOM     36  C   UNL A   1      41.881  27.582  28.039  1.00  0.00     0.049 A 
ATOM     37  N   UNL A   1      44.042  29.666  28.184  1.00  0.00    -0.248 NA
ATOM     38  C   UNL A   1      42.462  31.159  29.033  1.00  0.00     0.031 C 
ATOM     39  C   UNL A   1      40.875  26.527  27.903  1.00  0.00     0.029 A 
ATOM     40  N   UNL A   1      43.072  26.929  27.833  1.00  0.00    -0.354 N 
ATOM     41  C   UNL A   1      44.658  30.884  28.449  1.00  0.00     0.074 A 
ATOM     42  C   UNL A   1      43.630  31.778  28.940  1.00  0.00     0.031 C 
ATOM     43  C   UNL A   1      41.491  25.358  27.667  1.00  0.00     0.029 A 
ATOM     44  C   UNL A   1      42.927  25.591  27.557  1.00  0.00     0.049 A 
ATOM     45  H   UNL A   1      43.948  27.378  27.880  1.00  0.00     0.167 HD
ATOM     46  C   UNL A   1      45.958  31.227  28.288  1.00  0.00     0.037 A 
ATOM     47  C   UNL A   1      43.839  24.660  27.210  1.00  0.00     0.037 A 
ATOM     48  C   UNL A   1      46.994  30.315  27.878  1.00  0.00     0.049 A 
ATOM     49  C   UNL A   1      45.280  25.056  27.053  1.00  0.00     0.074 A 
ATOM     50  C   UNL A   1      48.345  30.566  27.704  1.00  0.00     0.029 A 
ATOM     51  N   UNL A   1      46.801  28.969  27.603  1.00  0.00    -0.354 N 
ATOM     52  N   UNL A   1      45.833  26.233  27.224  1.00  0.00    -0.248 NA
ATOM     53  C   UNL A   1      46.217  24.004  26.634  1.00  0.00     0.031 C 
ATOM     54  C   UNL A   1      48.966  29.375  27.308  1.00  0.00     0.029 A 
ATOM     55  C   UNL A   1      48.005  28.378  27.261  1.00  0.00     0.049 A 
ATOM     56  H   UNL A   1      45.934  28.504  27.645  1.00  0.00     0.167 HD
ATOM     57  C   UNL A   1      47.181  26.064  26.931  1.00  0.00     0.074 A 
ATOM     58  C   UNL A   1      47.366  24.667  26.596  1.00  0.00     0.031 C 
ATOM     59  C   UNL A   1      48.174  26.986  26.931  1.00  0.00     0.037 A 
BRANCH  46  60
ATOM     60  C   UNL A   1      46.333  32.663  28.525  1.00  0.00     0.058 A 
ATOM     61  C   UNL A   1      46.285  33.625  27.505  1.00  0.00     0.135 A 
ATOM     62  C   UNL A   1      46.717  33.085  29.809  1.00  0.00     0.135 A 
ATOM     63  F   UNL A   1      45.939  33.270  26.258  1.00  0.00    -0.206 F 
ATOM     64  C   UNL A   1      46.628  34.952  27.744  1.00  0.00     0.059 A 
ATOM     65  C   UNL A   1      47.043  34.411  30.075  1.00  0.00     0.059 A 
ATOM     66  F   UNL A   1      46.778  32.203  30.819  1.00  0.00    -0.206 F 
ATOM     67  C   UNL A   1      47.009  35.335  29.033  1.00  0.00     0.060 A 
BRANCH  67  68
ATOM     68  S   UNL A   1      47.447  37.060  29.337  1.00  0.00     0.124 S 
ATOM     69  O   UNL A   1      46.769  37.312  30.605  1.00  0.00    -0.237 OA
ATOM     70  O   UNL A   1      48.904  37.012  29.397  1.00  0.00    -0.237 OA
ATOM     71  O   UNL A   1      46.894  37.758  28.180  1.00  0.00    -0.744 OA
ENDBRANCH  67  68
ENDBRANCH  46  60
BRANCH  47  72
ATOM     72  C   UNL A   1      43.402  23.264  26.951  1.00  0.00     0.058 A 
ATOM     73  C   UNL A   1      43.340  22.760  25.644  1.00  0.00     0.135 A 
ATOM     74  C   UNL A   1      43.071  22.399  28.005  1.00  0.00     0.135 A 
ATOM     75  F   UNL A   1      43.635  23.556  24.604  1.00  0.00    -0.206 F 
ATOM     76  C   UNL A   1      42.968  21.444  25.389  1.00  0.00     0.059 A 
ATOM     77  C   UNL A   1      42.719  21.073  27.777  1.00  0.00     0.059 A 
ATOM     78  F   UNL A   1      43.128  22.832  29.274  1.00  0.00    -0.206 F 
ATOM     79  C   UNL A   1      42.666  20.606  26.464  1.00  0.00     0.060 A 
BRANCH  79  80
ATOM     80  S   UNL A   1      42.268  18.875  26.138  1.00  0.00     0.124 S 
ATOM     81  O   UNL A   1      43.250  18.536  25.116  1.00  0.00    -0.237 OA
ATOM     82  O   UNL A   1      42.468  18.258  27.445  1.00  0.00    -0.237 OA
ATOM     83  O   UNL A   1      40.880  18.933  25.690  1.00  0.00    -0.744 OA
ENDBRANCH  79  80
ENDBRANCH  47  72
BRANCH  59  84
ATOM     84  C   UNL A   1      49.552  26.512  26.571  1.00  0.00     0.058 A 
ATOM     85  C   UNL A   1      50.035  26.599  25.257  1.00  0.00     0.135 A 
ATOM     86  C   UNL A   1      50.413  26.004  27.557  1.00  0.00     0.135 A 
ATOM     87  F   UNL A   1      49.247  27.071  24.278  1.00  0.00    -0.206 F 
ATOM     88  C   UNL A   1      51.321  26.184  24.927  1.00  0.00     0.059 A 
ATOM     89  C   UNL A   1      51.709  25.599  27.254  1.00  0.00     0.059 A 
ATOM     90  F   UNL A   1      49.999  25.907  28.831  1.00  0.00    -0.206 F 
ATOM     91  C   UNL A   1      52.149  25.682  25.933  1.00  0.00     0.060 A 
BRANCH  91  92
ATOM     92  S   UNL A   1      53.826  25.169  25.503  1.00  0.00     0.124 S 
ATOM     93  O   UNL A   1      53.572  23.971  24.709  1.00  0.00    -0.237 OA
ATOM     94  O   UNL A   1      54.332  26.322  24.765  1.00  0.00    -0.237 OA
ATOM     95  O   UNL A   1      54.453  24.941  26.801  1.00  0.00    -0.744 OA
ENDBRANCH  91  92
ENDBRANCH  59  84
ENDBRANCH  33  34
ENDBRANCH  26  28
ENDBRANCH  25  26
ENDBRANCH   1  25
TORSDOF 18
ENDMDL
MODEL 3
REMARK VINA RESULT:     -10.9      2.105      3.053
REMARK SMILES Cc1cc(C(=O)N[C@@H](Cc2ccccc2)C(=O)OCCOC(=O)c2ccc(-c3c4nc(c(-c5c(F)cc(S(=O)(=O)[O-])cc5F)c5ccc([nH]5)c(-c5c(F)cc(S(=O)(=O)[O-])cc5F)c5nc(c(-c6c(F)cc(S(=O)(=O)[O-])cc6F)c6ccc3[nH]6)C=C5)C=C4)cc2)c(C)o1
REMARK SMILES IDX 20 1 19 2 18 3 16 4 17 5 8 6 7 7 5 8 6 9 4 11 1 12 2 13 3 14
REMARK SMILES IDX 92 15 90 16 91 17 9 18 10 19 11 20 15 21 12 22 14 23 13 24
REMARK SMILES IDX 21 25 22 26 23 27 24 28 25 29 89 30 26 31 88 32 27 33 28 34
REMARK SMILES IDX 29 35 82 36 30 37 87 38 81 39 83 40 31 41 86 42 80 43 79 44
REMARK SMILES IDX 32 46 66 47 45 48 65 49 46 50 49 51 64 52 84 53 47 54 48 55
REMARK SMILES IDX 63 57 85 58 50 59 33 60 34 61 43 62 35 63 36 64 42 65 44 66
REMARK SMILES IDX 37 67 38 68 39 69 40 70 41 71 67 72 68 73 77 74 69 75 70 76
REMARK SMILES IDX 76 77 78 78 71 79 72 80 73 81 74 82 75 83 51 84 52 85 61 86
REMARK SMILES IDX 53 87 54 88 60 89 62 90 55 91 56 92 57 93 58 94 59 95
REMARK H PARENT 7 10 83 45 49 56
REMARK Flexibility Score: inf
ROOT
ATOM      1  C   UNL A   1      34.092  29.828  27.289  1.00  0.00     0.275 C 
ENDROOT
BRANCH   1   2
ATOM      2  C   UNL A   1      34.236  28.390  26.799  1.00  0.00     0.274 C 
BRANCH   2   3
ATOM      3  O   UNL A   1      33.056  28.007  26.070  1.00  0.00    -0.461 OA
BRANCH   3   4
ATOM      4  C   UNL A   1      32.154  27.235  26.738  1.00  0.00     0.329 C 
ATOM      5  O   UNL A   1      31.371  27.641  27.590  1.00  0.00    -0.250 OA
BRANCH   4   6
ATOM      6  C   UNL A   1      32.268  25.751  26.354  1.00  0.00     0.197 C 
BRANCH   6   7
ATOM      7  N   UNL A   1      31.177  24.929  26.881  1.00  0.00    -0.338 N 
ATOM      8  C   UNL A   1      30.854  23.600  26.828  1.00  0.00     0.255 C 
ATOM      9  O   UNL A   1      29.728  23.327  27.251  1.00  0.00    -0.269 OA
ATOM     10  H   UNL A   1      30.521  25.457  27.393  1.00  0.00     0.164 HD
BRANCH   8  11
ATOM     11  C   UNL A   1      31.770  22.561  26.353  1.00  0.00     0.081 A 
ATOM     12  C   UNL A   1      33.632  20.097  24.252  1.00  0.00     0.087 C 
ATOM     13  C   UNL A   1      32.976  21.020  25.203  1.00  0.00     0.101 A 
ATOM     14  C   UNL A   1      31.776  21.698  25.211  1.00  0.00     0.059 A 
ATOM     15  O   UNL A   1      33.674  21.316  26.321  1.00  0.00    -0.466 OA
ATOM     16  C   UNL A   1      32.947  22.225  27.026  1.00  0.00     0.113 A 
ATOM     17  C   UNL A   1      33.597  22.652  28.288  1.00  0.00     0.088 C 
ENDBRANCH   8  11
ENDBRANCH   6   7
BRANCH   6  18
ATOM     18  C   UNL A   1      32.368  25.620  24.822  1.00  0.00     0.072 C 
BRANCH  18  19
ATOM     19  C   UNL A   1      33.578  24.831  24.363  1.00  0.00    -0.045 A 
ATOM     20  C   UNL A   1      33.544  24.155  23.134  1.00  0.00     0.004 A 
ATOM     21  C   UNL A   1      34.701  24.684  25.187  1.00  0.00     0.004 A 
ATOM     22  C   UNL A   1      34.599  23.326  22.750  1.00  0.00     0.000 A 
ATOM     23  C   UNL A   1      35.752  23.847  24.805  1.00  0.00     0.000 A 
ATOM     24  C   UNL A   1      35.698  23.166  23.590  1.00  0.00     0.000 A 
ENDBRANCH  18  19
ENDBRANCH   6  18
ENDBRANCH   4   6
ENDBRANCH   3   4
ENDBRANCH   2   3
ENDBRANCH   1   2
BRANCH   1  25
ATOM     25  O   UNL A   1      35.395  30.379  27.547  1.00  0.00    -0.458 OA
BRANCH  25  26
ATOM     26  C   UNL A   1      35.920  30.066  28.755  1.00  0.00     0.338 C 
ATOM     27  O   UNL A   1      35.322  29.893  29.805  1.00  0.00    -0.246 OA
BRANCH  26  28
ATOM     28  C   UNL A   1      37.371  29.893  28.619  1.00  0.00     0.060 A 
ATOM     29  C   UNL A   1      37.913  29.748  27.345  1.00  0.00     0.016 A 
ATOM     30  C   UNL A   1      38.172  29.757  29.751  1.00  0.00     0.016 A 
ATOM     31  C   UNL A   1      39.254  29.403  27.196  1.00  0.00     0.010 A 
ATOM     32  C   UNL A   1      39.532  29.465  29.595  1.00  0.00     0.010 A 
ATOM     33  C   UNL A   1      40.080  29.250  28.318  1.00  0.00    -0.014 A 
BRANCH  33  34
ATOM     34  C   UNL A   1      41.489  28.793  28.159  1.00  0.00     0.031 A 
ATOM     35  C   UNL A   1      42.618  29.780  28.307  1.00  0.00     0.074 A 
ATOM     36  C   UNL A   1      41.773  27.501  27.905  1.00  0.00     0.049 A 
ATOM     37  N   UNL A   1      43.884  29.638  28.008  1.00  0.00    -0.248 NA
ATOM     38  C   UNL A   1      42.273  31.105  28.847  1.00  0.00     0.031 C 
ATOM     39  C   UNL A   1      40.792  26.421  27.790  1.00  0.00     0.029 A 
ATOM     40  N   UNL A   1      42.978  26.874  27.700  1.00  0.00    -0.354 N 
ATOM     41  C   UNL A   1      44.472  30.874  28.252  1.00  0.00     0.074 A 
ATOM     42  C   UNL A   1      43.426  31.750  28.738  1.00  0.00     0.031 C 
ATOM     43  C   UNL A   1      41.434  25.264  27.566  1.00  0.00     0.029 A 
ATOM     44  C   UNL A   1      42.864  25.529  27.443  1.00  0.00     0.049 A 
ATOM     45  H   UNL A   1      43.843  27.345  27.736  1.00  0.00     0.167 HD
ATOM     46  C   UNL A   1      45.763  31.246  28.079  1.00  0.00     0.037 A 
ATOM     47  C   UNL A   1      43.795  24.616  27.103  1.00  0.00     0.037 A 
ATOM     48  C   UNL A   1      46.818  30.353  27.673  1.00  0.00     0.049 A 
ATOM     49  C   UNL A   1      45.225  25.045  26.931  1.00  0.00     0.074 A 
ATOM     50  C   UNL A   1      48.161  30.635  27.488  1.00  0.00     0.029 A 
ATOM     51  N   UNL A   1      46.655  29.000  27.418  1.00  0.00    -0.354 N 
ATOM     52  N   UNL A   1      45.751  26.237  27.082  1.00  0.00    -0.248 NA
ATOM     53  C   UNL A   1      46.185  24.010  26.520  1.00  0.00     0.031 C 
ATOM     54  C   UNL A   1      48.808  29.454  27.103  1.00  0.00     0.029 A 
ATOM     55  C   UNL A   1      47.871  28.433  27.077  1.00  0.00     0.049 A 
ATOM     56  H   UNL A   1      45.801  28.514  27.472  1.00  0.00     0.167 HD
ATOM     57  C   UNL A   1      47.101  26.096  26.783  1.00  0.00     0.074 A 
ATOM     58  C   UNL A   1      47.317  24.700  26.465  1.00  0.00     0.031 C 
ATOM     59  C   UNL A   1      48.072  27.041  26.764  1.00  0.00     0.037 A 
BRANCH  46  60
ATOM     60  C   UNL A   1      46.104  32.694  28.293  1.00  0.00     0.058 A 
ATOM     61  C   UNL A   1      46.005  33.644  27.267  1.00  0.00     0.135 A 
ATOM     62  C   UNL A   1      46.508  33.138  29.564  1.00  0.00     0.135 A 
ATOM     63  F   UNL A   1      45.639  33.269  26.031  1.00  0.00    -0.206 F 
ATOM     64  C   UNL A   1      46.319  34.983  27.486  1.00  0.00     0.059 A 
ATOM     65  C   UNL A   1      46.804  34.474  29.811  1.00  0.00     0.059 A 
ATOM     66  F   UNL A   1      46.617  32.268  30.580  1.00  0.00    -0.206 F 
ATOM     67  C   UNL A   1      46.721  35.387  28.761  1.00  0.00     0.060 A 
BRANCH  67  68
ATOM     68  S   UNL A   1      47.118  37.127  29.040  1.00  0.00     0.124 S 
ATOM     69  O   UNL A   1      46.436  37.381  30.305  1.00  0.00    -0.237 OA
ATOM     70  O   UNL A   1      48.576  37.113  29.098  1.00  0.00    -0.237 OA
ATOM     71  O   UNL A   1      46.549  37.794  27.874  1.00  0.00    -0.744 OA
ENDBRANCH  67  68
ENDBRANCH  46  60
BRANCH  47  72
ATOM     72  C   UNL A   1      43.390  23.207  26.865  1.00  0.00     0.058 A 
ATOM     73  C   UNL A   1      43.362  22.675  25.569  1.00  0.00     0.135 A 
ATOM     74  C   UNL A   1      43.058  22.357  27.932  1.00  0.00     0.135 A 
ATOM     75  F   UNL A   1      43.661  23.455  24.518  1.00  0.00    -0.206 F 
ATOM     76  C   UNL A   1      43.021  21.347  25.335  1.00  0.00     0.059 A 
ATOM     77  C   UNL A   1      42.736  21.020  27.725  1.00  0.00     0.059 A 
ATOM     78  F   UNL A   1      43.082  22.818  29.191  1.00  0.00    -0.206 F 
ATOM     79  C   UNL A   1      42.716  20.525  26.421  1.00  0.00     0.060 A 
BRANCH  79  80
ATOM     80  S   UNL A   1      42.358  18.780  26.125  1.00  0.00     0.124 S 
ATOM     81  O   UNL A   1      40.950  18.829  25.752  1.00  0.00    -0.237 OA
ATOM     82  O   UNL A   1      43.291  18.448  25.053  1.00  0.00    -0.237 OA
ATOM     83  O   UNL A   1      42.653  18.159  27.413  1.00  0.00    -0.744 OA
ENDBRANCH  79  80
ENDBRANCH  47  72
BRANCH  59  84
ATOM     84  C   UNL A   1      49.458  26.596  26.402  1.00  0.00     0.058 A 
ATOM     85  C   UNL A   1      50.296  25.975  27.340  1.00  0.00     0.135 A 
ATOM     86  C   UNL A   1      49.940  26.754  25.092  1.00  0.00     0.135 A 
ATOM     87  F   UNL A   1      49.884  25.808  28.607  1.00  0.00    -0.206 F 
ATOM     88  C   UNL A   1      51.571  25.539  26.998  1.00  0.00     0.059 A 
ATOM     89  C   UNL A   1      51.205  26.310  24.723  1.00  0.00     0.059 A 
ATOM     90  F   UNL A   1      49.173  27.336  24.156  1.00  0.00    -0.206 F 
ATOM     91  C   UNL A   1      52.018  25.714  25.687  1.00  0.00     0.060 A 
BRANCH  91  92
ATOM     92  S   UNL A   1      53.665  25.122  25.243  1.00  0.00     0.124 S 
ATOM     93  O   UNL A   1      54.494  25.775  26.252  1.00  0.00    -0.237 OA
ATOM     94  O   UNL A   1      53.530  23.675  25.376  1.00  0.00    -0.237 OA
ATOM     95  O   UNL A   1      53.841  25.605  23.877  1.00  0.00    -0.744 OA
ENDBRANCH  91  92
ENDBRANCH  59  84
ENDBRANCH  33  34
ENDBRANCH  26  28
ENDBRANCH  25  26
ENDBRANCH   1  25
TORSDOF 18
ENDMDL
