MODEL 1
REMARK VINA RESULT:     -11.0      0.000      0.000
REMARK SMILES CO[C@H]1CCC[C@H]1NC(=O)N[C@](C)(C(=O)OCCOC(=O)c1ccc(-c2c3nc(c(-c4c(F)cc(S(=O)(=O)[O-])cc4F)c4ccc([nH]4)c(-c4c(F)cc(S(=O)(=O)[O-])cc4F)c4nc(c(-c5c(F)cc(S(=O)(=O)[O-])cc5F)c5ccc2[nH]5)C=C4)C=C3)cc1)C(F)(F)F
REMARK SMILES IDX 17 1 16 2 14 3 15 4 12 5 13 6 11 7 8 8 9 9 10 11 7 13 3 14
REMARK SMILES IDX 4 15 5 16 6 17 2 18 1 19 88 20 89 21 90 22 91 23 18 24 19 25
REMARK SMILES IDX 20 26 21 27 22 28 23 29 87 30 24 31 86 32 25 33 26 34 27 35
REMARK SMILES IDX 80 36 28 37 85 38 79 39 81 40 29 41 84 42 78 43 77 44 30 46
REMARK SMILES IDX 64 47 43 48 63 49 44 50 47 51 62 52 82 53 45 54 46 55 61 57
REMARK SMILES IDX 83 58 48 59 31 60 32 61 41 62 33 63 34 64 40 65 42 66 35 67
REMARK SMILES IDX 36 68 37 69 38 70 39 71 65 72 66 73 75 74 67 75 68 76 74 77
REMARK SMILES IDX 76 78 69 79 70 80 71 81 72 82 73 83 49 84 50 85 59 86 51 87
REMARK SMILES IDX 52 88 58 89 60 90 53 91 54 92 55 93 56 94 57 95
REMARK H PARENT 8 10 11 12 81 45 47 56
REMARK Flexibility Score: inf
ROOT
ATOM      1  C   UNL A   1      36.942  22.550  25.750  1.00  0.00     0.274 C 
ENDROOT
BRANCH   1   2
ATOM      2  O   UNL A   1      36.650  23.659  24.881  1.00  0.00    -0.460 OA
BRANCH   2   3
ATOM      3  C   UNL A   1      35.920  23.471  23.751  1.00  0.00     0.341 C 
ATOM      4  O   UNL A   1      36.384  22.969  22.736  1.00  0.00    -0.249 OA
BRANCH   3   5
ATOM      5  C   UNL A   1      34.498  24.075  23.885  1.00  0.00     0.232 C 
ATOM      6  C   UNL A   1      34.480  25.128  25.036  1.00  0.00     0.058 C 
BRANCH   5   7
ATOM      7  N   UNL A   1      34.197  24.740  22.578  1.00  0.00    -0.315 N 
ATOM      8  N   UNL A   1      32.164  25.954  22.818  1.00  0.00    -0.333 N 
ATOM      9  C   UNL A   1      33.194  25.489  22.100  1.00  0.00     0.316 C 
ATOM     10  H   UNL A   1      31.508  26.430  22.259  1.00  0.00     0.165 HD
ATOM     11  O   UNL A   1      33.239  25.771  20.901  1.00  0.00    -0.249 OA
ATOM     12  H   UNL A   1      34.906  24.594  21.911  1.00  0.00     0.166 HD
BRANCH   8  13
ATOM     13  C   UNL A   1      31.776  25.930  24.213  1.00  0.00     0.112 C 
ATOM     14  C   UNL A   1      31.423  27.307  24.810  1.00  0.00     0.140 C 
ATOM     15  C   UNL A   1      30.919  26.894  26.195  1.00  0.00     0.034 C 
ATOM     16  C   UNL A   1      30.202  25.552  25.978  1.00  0.00     0.005 C 
ATOM     17  C   UNL A   1      30.540  25.103  24.549  1.00  0.00     0.028 C 
BRANCH  14  18
ATOM     18  O   UNL A   1      30.394  27.916  24.020  1.00  0.00    -0.379 OA
ATOM     19  C   UNL A   1      30.591  29.308  23.820  1.00  0.00     0.195 C 
ENDBRANCH  14  18
ENDBRANCH   8  13
ENDBRANCH   5   7
BRANCH   5  20
ATOM     20  C   UNL A   1      33.559  22.859  24.138  1.00  0.00     0.422 C 
ATOM     21  F   UNL A   1      32.648  22.736  23.141  1.00  0.00    -0.168 F 
ATOM     22  F   UNL A   1      34.228  21.681  24.169  1.00  0.00    -0.168 F 
ATOM     23  F   UNL A   1      32.864  22.914  25.292  1.00  0.00    -0.168 F 
ENDBRANCH   5  20
ENDBRANCH   3   5
ENDBRANCH   2   3
ENDBRANCH   1   2
BRANCH   1  24
ATOM     24  C   UNL A   1      38.430  22.674  26.092  1.00  0.00     0.275 C 
BRANCH  24  25
ATOM     25  O   UNL A   1      38.677  24.048  26.453  1.00  0.00    -0.458 OA
BRANCH  25  26
ATOM     26  C   UNL A   1      39.966  24.455  26.502  1.00  0.00     0.338 C 
ATOM     27  O   UNL A   1      40.869  24.104  25.751  1.00  0.00    -0.246 OA
BRANCH  26  28
ATOM     28  C   UNL A   1      40.129  25.445  27.593  1.00  0.00     0.060 A 
ATOM     29  C   UNL A   1      39.295  25.389  28.705  1.00  0.00     0.016 A 
ATOM     30  C   UNL A   1      41.045  26.491  27.492  1.00  0.00     0.016 A 
ATOM     31  C   UNL A   1      39.277  26.427  29.639  1.00  0.00     0.010 A 
ATOM     32  C   UNL A   1      41.127  27.455  28.515  1.00  0.00     0.010 A 
ATOM     33  C   UNL A   1      40.216  27.466  29.588  1.00  0.00    -0.014 A 
BRANCH  33  34
ATOM     34  C   UNL A   1      40.213  28.551  30.628  1.00  0.00     0.031 A 
ATOM     35  C   UNL A   1      41.235  28.556  31.746  1.00  0.00     0.074 A 
ATOM     36  C   UNL A   1      39.316  29.562  30.582  1.00  0.00     0.049 A 
ATOM     37  N   UNL A   1      41.269  29.285  32.835  1.00  0.00    -0.248 NA
ATOM     38  C   UNL A   1      42.351  27.603  31.638  1.00  0.00     0.031 C 
ATOM     39  C   UNL A   1      38.274  29.735  29.566  1.00  0.00     0.029 A 
ATOM     40  N   UNL A   1      39.144  30.652  31.405  1.00  0.00    -0.354 N 
ATOM     41  C   UNL A   1      42.355  28.824  33.575  1.00  0.00     0.074 A 
ATOM     42  C   UNL A   1      42.956  27.755  32.808  1.00  0.00     0.031 C 
ATOM     43  C   UNL A   1      37.630  30.891  29.777  1.00  0.00     0.029 A 
ATOM     44  C   UNL A   1      38.128  31.493  31.008  1.00  0.00     0.049 A 
ATOM     45  H   UNL A   1      39.696  30.816  32.202  1.00  0.00     0.167 HD
ATOM     46  C   UNL A   1      42.809  29.248  34.781  1.00  0.00     0.037 A 
ATOM     47  C   UNL A   1      37.611  32.599  31.580  1.00  0.00     0.037 A 
ATOM     48  C   UNL A   1      42.274  30.372  35.508  1.00  0.00     0.049 A 
ATOM     49  C   UNL A   1      38.147  33.069  32.902  1.00  0.00     0.074 A 
ATOM     50  C   UNL A   1      42.683  30.883  36.729  1.00  0.00     0.029 A 
ATOM     51  N   UNL A   1      41.237  31.182  35.070  1.00  0.00    -0.354 N 
ATOM     52  N   UNL A   1      39.110  32.556  33.628  1.00  0.00    -0.248 NA
ATOM     53  C   UNL A   1      37.506  34.251  33.495  1.00  0.00     0.031 C 
ATOM     54  C   UNL A   1      41.881  31.987  37.039  1.00  0.00     0.029 A 
ATOM     55  C   UNL A   1      40.994  32.187  35.994  1.00  0.00     0.049 A 
ATOM     56  H   UNL A   1      40.745  31.060  34.225  1.00  0.00     0.167 HD
ATOM     57  C   UNL A   1      39.189  33.352  34.765  1.00  0.00     0.074 A 
ATOM     58  C   UNL A   1      38.199  34.398  34.616  1.00  0.00     0.031 C 
ATOM     59  C   UNL A   1      40.001  33.218  35.843  1.00  0.00     0.037 A 
BRANCH  46  60
ATOM     60  C   UNL A   1      43.931  28.471  35.418  1.00  0.00     0.058 A 
ATOM     61  C   UNL A   1      43.699  27.415  36.312  1.00  0.00     0.135 A 
ATOM     62  C   UNL A   1      45.266  28.773  35.094  1.00  0.00     0.135 A 
ATOM     63  F   UNL A   1      42.446  27.095  36.669  1.00  0.00    -0.206 F 
ATOM     64  C   UNL A   1      44.751  26.704  36.885  1.00  0.00     0.059 A 
ATOM     65  C   UNL A   1      46.331  28.058  35.635  1.00  0.00     0.059 A 
ATOM     66  F   UNL A   1      45.545  29.770  34.241  1.00  0.00    -0.206 F 
ATOM     67  C   UNL A   1      46.064  27.036  36.544  1.00  0.00     0.060 A 
BRANCH  67  68
ATOM     68  S   UNL A   1      47.418  26.111  37.298  1.00  0.00     0.124 S 
ATOM     69  O   UNL A   1      46.863  25.804  38.613  1.00  0.00    -0.237 OA
ATOM     70  O   UNL A   1      47.567  24.975  36.393  1.00  0.00    -0.237 OA
ATOM     71  O   UNL A   1      48.525  27.062  37.290  1.00  0.00    -0.744 OA
ENDBRANCH  67  68
ENDBRANCH  46  60
BRANCH  47  72
ATOM     72  C   UNL A   1      36.483  33.315  30.924  1.00  0.00     0.058 A 
ATOM     73  C   UNL A   1      35.190  33.277  31.464  1.00  0.00     0.135 A 
ATOM     74  C   UNL A   1      36.681  34.068  29.755  1.00  0.00     0.135 A 
ATOM     75  F   UNL A   1      34.944  32.557  32.569  1.00  0.00    -0.206 F 
ATOM     76  C   UNL A   1      34.131  33.959  30.870  1.00  0.00     0.059 A 
ATOM     77  C   UNL A   1      35.647  34.782  29.160  1.00  0.00     0.059 A 
ATOM     78  F   UNL A   1      37.903  34.143  29.204  1.00  0.00    -0.206 F 
ATOM     79  C   UNL A   1      34.373  34.714  29.720  1.00  0.00     0.060 A 
BRANCH  79  80
ATOM     80  S   UNL A   1      33.016  35.657  28.991  1.00  0.00     0.124 S 
ATOM     81  O   UNL A   1      32.239  36.014  30.171  1.00  0.00    -0.237 OA
ATOM     82  O   UNL A   1      33.718  36.754  28.331  1.00  0.00    -0.237 OA
ATOM     83  O   UNL A   1      32.391  34.694  28.088  1.00  0.00    -0.744 OA
ENDBRANCH  79  80
ENDBRANCH  47  72
BRANCH  59  84
ATOM     84  C   UNL A   1      39.860  34.244  36.932  1.00  0.00     0.058 A 
ATOM     85  C   UNL A   1      39.069  34.005  38.066  1.00  0.00     0.135 A 
ATOM     86  C   UNL A   1      40.514  35.482  36.836  1.00  0.00     0.135 A 
ATOM     87  F   UNL A   1      38.417  32.840  38.203  1.00  0.00    -0.206 F 
ATOM     88  C   UNL A   1      38.899  34.974  39.051  1.00  0.00     0.059 A 
ATOM     89  C   UNL A   1      40.377  36.457  37.819  1.00  0.00     0.059 A 
ATOM     90  F   UNL A   1      41.291  35.757  35.777  1.00  0.00    -0.206 F 
ATOM     91  C   UNL A   1      39.550  36.201  38.913  1.00  0.00     0.060 A 
BRANCH  91  92
ATOM     92  S   UNL A   1      39.315  37.458  40.187  1.00  0.00     0.124 S 
ATOM     93  O   UNL A   1      38.402  38.382  39.522  1.00  0.00    -0.237 OA
ATOM     94  O   UNL A   1      38.747  36.691  41.291  1.00  0.00    -0.237 OA
ATOM     95  O   UNL A   1      40.665  37.965  40.415  1.00  0.00    -0.744 OA
ENDBRANCH  91  92
ENDBRANCH  59  84
ENDBRANCH  33  34
ENDBRANCH  26  28
ENDBRANCH  25  26
ENDBRANCH  24  25
ENDBRANCH   1  24
TORSDOF 18
ENDMDL
MODEL 2
REMARK VINA RESULT:     -10.5      5.231     10.764
REMARK SMILES CO[C@H]1CCC[C@H]1NC(=O)N[C@](C)(C(=O)OCCOC(=O)c1ccc(-c2c3nc(c(-c4c(F)cc(S(=O)(=O)[O-])cc4F)c4ccc([nH]4)c(-c4c(F)cc(S(=O)(=O)[O-])cc4F)c4nc(c(-c5c(F)cc(S(=O)(=O)[O-])cc5F)c5ccc2[nH]5)C=C4)C=C3)cc1)C(F)(F)F
REMARK SMILES IDX 17 1 16 2 14 3 15 4 12 5 13 6 11 7 8 8 9 9 10 11 7 13 3 14
REMARK SMILES IDX 4 15 5 16 6 17 2 18 1 19 88 20 89 21 90 22 91 23 18 24 19 25
REMARK SMILES IDX 20 26 21 27 22 28 23 29 87 30 24 31 86 32 25 33 26 34 27 35
REMARK SMILES IDX 80 36 28 37 85 38 79 39 81 40 29 41 84 42 78 43 77 44 30 46
REMARK SMILES IDX 64 47 43 48 63 49 44 50 47 51 62 52 82 53 45 54 46 55 61 57
REMARK SMILES IDX 83 58 48 59 31 60 32 61 41 62 33 63 34 64 40 65 42 66 35 67
REMARK SMILES IDX 36 68 37 69 38 70 39 71 65 72 66 73 75 74 67 75 68 76 74 77
REMARK SMILES IDX 76 78 69 79 70 80 71 81 72 82 73 83 49 84 50 85 59 86 51 87
REMARK SMILES IDX 52 88 58 89 60 90 53 91 54 92 55 93 56 94 57 95
REMARK H PARENT 8 10 11 12 81 45 47 56
REMARK Flexibility Score: inf
ROOT
ATOM      1  C   UNL A   1      32.056  29.414  25.840  1.00  0.00     0.274 C 
ENDROOT
BRANCH   1   2
ATOM      2  O   UNL A   1      32.690  28.428  25.005  1.00  0.00    -0.460 OA
BRANCH   2   3
ATOM      3  C   UNL A   1      31.941  27.558  24.281  1.00  0.00     0.341 C 
ATOM      4  O   UNL A   1      30.786  27.791  23.948  1.00  0.00    -0.249 OA
BRANCH   3   5
ATOM      5  C   UNL A   1      32.690  26.220  24.048  1.00  0.00     0.232 C 
ATOM      6  C   UNL A   1      33.961  26.164  24.950  1.00  0.00     0.058 C 
BRANCH   5   7
ATOM      7  N   UNL A   1      31.739  25.131  24.437  1.00  0.00    -0.315 N 
ATOM      8  N   UNL A   1      32.962  23.094  24.566  1.00  0.00    -0.333 N 
ATOM      9  C   UNL A   1      31.829  23.805  24.606  1.00  0.00     0.316 C 
ATOM     10  H   UNL A   1      32.796  22.127  24.654  1.00  0.00     0.165 HD
ATOM     11  O   UNL A   1      30.774  23.204  24.824  1.00  0.00    -0.249 OA
ATOM     12  H   UNL A   1      30.831  25.470  24.610  1.00  0.00     0.166 HD
BRANCH   8  13
ATOM     13  C   UNL A   1      34.373  23.394  24.425  1.00  0.00     0.112 C 
ATOM     14  C   UNL A   1      35.234  23.049  25.654  1.00  0.00     0.140 C 
ATOM     15  C   UNL A   1      36.635  23.332  25.108  1.00  0.00     0.034 C 
ATOM     16  C   UNL A   1      36.580  22.917  23.629  1.00  0.00     0.005 C 
ATOM     17  C   UNL A   1      35.101  22.665  23.301  1.00  0.00     0.028 C 
BRANCH  14  18
ATOM     18  O   UNL A   1      35.053  21.666  25.987  1.00  0.00    -0.379 OA
ATOM     19  C   UNL A   1      34.404  21.470  27.235  1.00  0.00     0.195 C 
ENDBRANCH  14  18
ENDBRANCH   8  13
ENDBRANCH   5   7
BRANCH   5  20
ATOM     20  C   UNL A   1      33.005  26.187  22.523  1.00  0.00     0.422 C 
ATOM     21  F   UNL A   1      34.223  25.640  22.293  1.00  0.00    -0.168 F 
ATOM     22  F   UNL A   1      32.125  25.429  21.825  1.00  0.00    -0.168 F 
ATOM     23  F   UNL A   1      33.003  27.395  21.922  1.00  0.00    -0.168 F 
ENDBRANCH   5  20
ENDBRANCH   3   5
ENDBRANCH   2   3
ENDBRANCH   1   2
BRANCH   1  24
ATOM     24  C   UNL A   1      32.188  28.890  27.273  1.00  0.00     0.275 C 
BRANCH  24  25
ATOM     25  O   UNL A   1      33.588  28.926  27.618  1.00  0.00    -0.458 OA
BRANCH  25  26
ATOM     26  C   UNL A   1      34.107  30.121  27.982  1.00  0.00     0.338 C 
ATOM     27  O   UNL A   1      33.489  31.172  28.114  1.00  0.00    -0.246 OA
BRANCH  26  28
ATOM     28  C   UNL A   1      35.557  29.969  28.248  1.00  0.00     0.060 A 
ATOM     29  C   UNL A   1      36.475  30.256  27.242  1.00  0.00     0.016 A 
ATOM     30  C   UNL A   1      36.022  29.460  29.458  1.00  0.00     0.016 A 
ATOM     31  C   UNL A   1      37.822  29.919  27.388  1.00  0.00     0.010 A 
ATOM     32  C   UNL A   1      37.402  29.262  29.654  1.00  0.00     0.010 A 
ATOM     33  C   UNL A   1      38.326  29.447  28.608  1.00  0.00    -0.014 A 
BRANCH  33  34
ATOM     34  C   UNL A   1      39.788  29.133  28.762  1.00  0.00     0.031 A 
ATOM     35  C   UNL A   1      40.750  30.167  29.309  1.00  0.00     0.074 A 
ATOM     36  C   UNL A   1      40.279  27.915  28.438  1.00  0.00     0.049 A 
ATOM     37  N   UNL A   1      42.060  30.152  29.329  1.00  0.00    -0.248 NA
ATOM     38  C   UNL A   1      40.164  31.386  29.890  1.00  0.00     0.031 C 
ATOM     39  C   UNL A   1      39.498  26.788  27.920  1.00  0.00     0.029 A 
ATOM     40  N   UNL A   1      41.558  27.410  28.514  1.00  0.00    -0.354 N 
ATOM     41  C   UNL A   1      42.454  31.384  29.844  1.00  0.00     0.074 A 
ATOM     42  C   UNL A   1      41.241  32.121  30.128  1.00  0.00     0.031 C 
ATOM     43  C   UNL A   1      40.290  25.714  27.799  1.00  0.00     0.029 A 
ATOM     44  C   UNL A   1      41.660  26.095  28.119  1.00  0.00     0.049 A 
ATOM     45  H   UNL A   1      42.327  27.940  28.821  1.00  0.00     0.167 HD
ATOM     46  C   UNL A   1      43.706  31.861  30.058  1.00  0.00     0.037 A 
ATOM     47  C   UNL A   1      42.729  25.287  27.980  1.00  0.00     0.037 A 
ATOM     48  C   UNL A   1      44.915  31.100  29.866  1.00  0.00     0.049 A 
ATOM     49  C   UNL A   1      44.105  25.825  28.251  1.00  0.00     0.074 A 
ATOM     50  C   UNL A   1      46.226  31.497  30.074  1.00  0.00     0.029 A 
ATOM     51  N   UNL A   1      44.965  29.777  29.452  1.00  0.00    -0.354 N 
ATOM     52  N   UNL A   1      44.456  27.025  28.642  1.00  0.00    -0.248 NA
ATOM     53  C   UNL A   1      45.231  24.906  28.031  1.00  0.00     0.031 C 
ATOM     54  C   UNL A   1      47.069  30.423  29.767  1.00  0.00     0.029 A 
ATOM     55  C   UNL A   1      46.281  29.344  29.401  1.00  0.00     0.049 A 
ATOM     56  H   UNL A   1      44.180  29.227  29.228  1.00  0.00     0.167 HD
ATOM     57  C   UNL A   1      45.845  27.006  28.715  1.00  0.00     0.074 A 
ATOM     58  C   UNL A   1      46.267  25.668  28.356  1.00  0.00     0.031 C 
ATOM     59  C   UNL A   1      46.694  28.014  29.036  1.00  0.00     0.037 A 
BRANCH  46  60
ATOM     60  C   UNL A   1      43.842  33.294  30.500  1.00  0.00     0.058 A 
ATOM     61  C   UNL A   1      43.922  34.356  29.587  1.00  0.00     0.135 A 
ATOM     62  C   UNL A   1      43.857  33.608  31.871  1.00  0.00     0.135 A 
ATOM     63  F   UNL A   1      43.930  34.114  28.267  1.00  0.00    -0.206 F 
ATOM     64  C   UNL A   1      44.041  35.676  30.016  1.00  0.00     0.059 A 
ATOM     65  C   UNL A   1      43.948  34.922  32.321  1.00  0.00     0.059 A 
ATOM     66  F   UNL A   1      43.778  32.632  32.788  1.00  0.00    -0.206 F 
ATOM     67  C   UNL A   1      44.057  35.949  31.385  1.00  0.00     0.060 A 
BRANCH  67  68
ATOM     68  S   UNL A   1      44.218  37.663  31.928  1.00  0.00     0.124 S 
ATOM     69  O   UNL A   1      43.283  37.701  33.048  1.00  0.00    -0.237 OA
ATOM     70  O   UNL A   1      45.632  37.751  32.280  1.00  0.00    -0.237 OA
ATOM     71  O   UNL A   1      43.820  38.430  30.752  1.00  0.00    -0.744 OA
ENDBRANCH  67  68
ENDBRANCH  46  60
BRANCH  47  72
ATOM     72  C   UNL A   1      42.544  23.885  27.514  1.00  0.00     0.058 A 
ATOM     73  C   UNL A   1      42.557  23.570  26.147  1.00  0.00     0.135 A 
ATOM     74  C   UNL A   1      42.370  22.832  28.425  1.00  0.00     0.135 A 
ATOM     75  F   UNL A   1      42.701  24.543  25.235  1.00  0.00    -0.206 F 
ATOM     76  C   UNL A   1      42.405  22.260  25.699  1.00  0.00     0.059 A 
ATOM     77  C   UNL A   1      42.245  21.513  28.005  1.00  0.00     0.059 A 
ATOM     78  F   UNL A   1      42.359  23.081  29.745  1.00  0.00    -0.206 F 
ATOM     79  C   UNL A   1      42.255  21.238  26.639  1.00  0.00     0.060 A 
BRANCH  79  80
ATOM     80  S   UNL A   1      42.129  19.531  26.061  1.00  0.00     0.124 S 
ATOM     81  O   UNL A   1      40.708  19.429  25.753  1.00  0.00    -0.237 OA
ATOM     82  O   UNL A   1      43.034  19.522  24.916  1.00  0.00    -0.237 OA
ATOM     83  O   UNL A   1      42.586  18.757  27.212  1.00  0.00    -0.744 OA
ENDBRANCH  79  80
ENDBRANCH  47  72
BRANCH  59  84
ATOM     84  C   UNL A   1      48.161  27.693  29.031  1.00  0.00     0.058 A 
ATOM     85  C   UNL A   1      48.993  28.074  27.966  1.00  0.00     0.135 A 
ATOM     86  C   UNL A   1      48.742  26.989  30.098  1.00  0.00     0.135 A 
ATOM     87  F   UNL A   1      48.486  28.743  26.919  1.00  0.00    -0.206 F 
ATOM     88  C   UNL A   1      50.342  27.734  27.940  1.00  0.00     0.059 A 
ATOM     89  C   UNL A   1      50.093  26.658  30.104  1.00  0.00     0.059 A 
ATOM     90  F   UNL A   1      47.993  26.610  31.145  1.00  0.00    -0.206 F 
ATOM     91  C   UNL A   1      50.881  27.016  29.010  1.00  0.00     0.060 A 
BRANCH  91  92
ATOM     92  S   UNL A   1      52.629  26.567  28.963  1.00  0.00     0.124 S 
ATOM     93  O   UNL A   1      52.667  25.660  27.820  1.00  0.00    -0.237 OA
ATOM     94  O   UNL A   1      53.284  27.856  28.771  1.00  0.00    -0.237 OA
ATOM     95  O   UNL A   1      52.853  25.947  30.265  1.00  0.00    -0.744 OA
ENDBRANCH  91  92
ENDBRANCH  59  84
ENDBRANCH  33  34
ENDBRANCH  26  28
ENDBRANCH  25  26
ENDBRANCH  24  25
ENDBRANCH   1  24
TORSDOF 18
ENDMDL
MODEL 3
REMARK VINA RESULT:     -10.5      2.768      8.439
REMARK SMILES CO[C@H]1CCC[C@H]1NC(=O)N[C@](C)(C(=O)OCCOC(=O)c1ccc(-c2c3nc(c(-c4c(F)cc(S(=O)(=O)[O-])cc4F)c4ccc([nH]4)c(-c4c(F)cc(S(=O)(=O)[O-])cc4F)c4nc(c(-c5c(F)cc(S(=O)(=O)[O-])cc5F)c5ccc2[nH]5)C=C4)C=C3)cc1)C(F)(F)F
REMARK SMILES IDX 17 1 16 2 14 3 15 4 12 5 13 6 11 7 8 8 9 9 10 11 7 13 3 14
REMARK SMILES IDX 4 15 5 16 6 17 2 18 1 19 88 20 89 21 90 22 91 23 18 24 19 25
REMARK SMILES IDX 20 26 21 27 22 28 23 29 87 30 24 31 86 32 25 33 26 34 27 35
REMARK SMILES IDX 80 36 28 37 85 38 79 39 81 40 29 41 84 42 78 43 77 44 30 46
REMARK SMILES IDX 64 47 43 48 63 49 44 50 47 51 62 52 82 53 45 54 46 55 61 57
REMARK SMILES IDX 83 58 48 59 31 60 32 61 41 62 33 63 34 64 40 65 42 66 35 67
REMARK SMILES IDX 36 68 37 69 38 70 39 71 65 72 66 73 75 74 67 75 68 76 74 77
REMARK SMILES IDX 76 78 69 79 70 80 71 81 72 82 73 83 49 84 50 85 59 86 51 87
REMARK SMILES IDX 52 88 58 89 60 90 53 91 54 92 55 93 56 94 57 95
REMARK H PARENT 8 10 11 12 81 45 47 56
REMARK Flexibility Score: inf
ROOT
ATOM      1  C   UNL A   1      33.576  31.717  27.642  1.00  0.00     0.274 C 
ENDROOT
BRANCH   1   2
ATOM      2  O   UNL A   1      32.811  30.532  27.356  1.00  0.00    -0.460 OA
BRANCH   2   3
ATOM      3  C   UNL A   1      33.280  29.608  26.478  1.00  0.00     0.341 C 
ATOM      4  O   UNL A   1      34.440  29.217  26.480  1.00  0.00    -0.249 OA
BRANCH   3   5
ATOM      5  C   UNL A   1      32.205  29.224  25.428  1.00  0.00     0.232 C 
ATOM      6  C   UNL A   1      31.102  30.326  25.377  1.00  0.00     0.058 C 
BRANCH   5   7
ATOM      7  N   UNL A   1      32.911  29.145  24.111  1.00  0.00    -0.315 N 
ATOM      8  N   UNL A   1      31.265  29.068  22.394  1.00  0.00    -0.333 N 
ATOM      9  C   UNL A   1      32.529  29.026  22.832  1.00  0.00     0.316 C 
ATOM     10  H   UNL A   1      31.202  28.898  21.427  1.00  0.00     0.165 HD
ATOM     11  O   UNL A   1      33.426  28.872  22.000  1.00  0.00    -0.249 OA
ATOM     12  H   UNL A   1      33.890  29.193  24.206  1.00  0.00     0.166 HD
BRANCH   8  13
ATOM     13  C   UNL A   1      29.966  29.302  22.991  1.00  0.00     0.112 C 
ATOM     14  C   UNL A   1      29.225  30.544  22.462  1.00  0.00     0.140 C 
ATOM     15  C   UNL A   1      27.874  30.389  23.166  1.00  0.00     0.034 C 
ATOM     16  C   UNL A   1      27.621  28.875  23.219  1.00  0.00     0.005 C 
ATOM     17  C   UNL A   1      28.933  28.197  22.796  1.00  0.00     0.028 C 
BRANCH  14  18
ATOM     18  O   UNL A   1      29.104  30.453  21.037  1.00  0.00    -0.379 OA
ATOM     19  C   UNL A   1      28.097  31.301  20.504  1.00  0.00     0.195 C 
ENDBRANCH  14  18
ENDBRANCH   8  13
ENDBRANCH   5   7
BRANCH   5  20
ATOM     20  C   UNL A   1      31.674  27.830  25.878  1.00  0.00     0.422 C 
ATOM     21  F   UNL A   1      30.444  27.592  25.361  1.00  0.00    -0.168 F 
ATOM     22  F   UNL A   1      32.456  26.811  25.447  1.00  0.00    -0.168 F 
ATOM     23  F   UNL A   1      31.571  27.671  27.213  1.00  0.00    -0.168 F 
ENDBRANCH   5  20
ENDBRANCH   3   5
ENDBRANCH   2   3
ENDBRANCH   1   2
BRANCH   1  24
ATOM     24  C   UNL A   1      32.571  32.873  27.618  1.00  0.00     0.275 C 
BRANCH  24  25
ATOM     25  O   UNL A   1      33.327  34.101  27.619  1.00  0.00    -0.458 OA
BRANCH  25  26
ATOM     26  C   UNL A   1      33.340  34.822  28.764  1.00  0.00     0.338 C 
ATOM     27  O   UNL A   1      32.531  35.683  29.089  1.00  0.00    -0.246 OA
BRANCH  26  28
ATOM     28  C   UNL A   1      34.474  34.382  29.610  1.00  0.00     0.060 A 
ATOM     29  C   UNL A   1      35.775  34.487  29.128  1.00  0.00     0.016 A 
ATOM     30  C   UNL A   1      34.263  33.782  30.851  1.00  0.00     0.016 A 
ATOM     31  C   UNL A   1      36.839  33.887  29.805  1.00  0.00     0.010 A 
ATOM     32  C   UNL A   1      35.358  33.312  31.600  1.00  0.00     0.010 A 
ATOM     33  C   UNL A   1      36.664  33.316  31.074  1.00  0.00    -0.014 A 
BRANCH  33  34
ATOM     34  C   UNL A   1      37.829  32.716  31.810  1.00  0.00     0.031 A 
ATOM     35  C   UNL A   1      38.647  31.603  31.190  1.00  0.00     0.074 A 
ATOM     36  C   UNL A   1      38.190  33.168  33.032  1.00  0.00     0.049 A 
ATOM     37  N   UNL A   1      39.552  30.832  31.742  1.00  0.00    -0.248 NA
ATOM     38  C   UNL A   1      38.402  31.302  29.770  1.00  0.00     0.031 C 
ATOM     39  C   UNL A   1      37.535  34.248  33.774  1.00  0.00     0.029 A 
ATOM     40  N   UNL A   1      39.217  32.784  33.866  1.00  0.00    -0.354 N 
ATOM     41  C   UNL A   1      39.921  29.909  30.768  1.00  0.00     0.074 A 
ATOM     42  C   UNL A   1      39.145  30.219  29.587  1.00  0.00     0.031 C 
ATOM     43  C   UNL A   1      38.213  34.491  34.904  1.00  0.00     0.029 A 
ATOM     44  C   UNL A   1      39.286  33.513  35.033  1.00  0.00     0.049 A 
ATOM     45  H   UNL A   1      39.843  32.057  33.649  1.00  0.00     0.167 HD
ATOM     46  C   UNL A   1      40.819  28.895  30.847  1.00  0.00     0.037 A 
ATOM     47  C   UNL A   1      40.084  33.392  36.113  1.00  0.00     0.037 A 
ATOM     48  C   UNL A   1      41.664  28.638  31.987  1.00  0.00     0.049 A 
ATOM     49  C   UNL A   1      41.092  32.281  36.169  1.00  0.00     0.074 A 
ATOM     50  C   UNL A   1      42.615  27.643  32.148  1.00  0.00     0.029 A 
ATOM     51  N   UNL A   1      41.686  29.396  33.148  1.00  0.00    -0.354 N 
ATOM     52  N   UNL A   1      41.352  31.360  35.274  1.00  0.00    -0.248 NA
ATOM     53  C   UNL A   1      41.894  32.175  37.396  1.00  0.00     0.031 C 
ATOM     54  C   UNL A   1      43.196  27.786  33.414  1.00  0.00     0.029 A 
ATOM     55  C   UNL A   1      42.633  28.893  34.028  1.00  0.00     0.049 A 
ATOM     56  H   UNL A   1      41.112  30.177  33.322  1.00  0.00     0.167 HD
ATOM     57  C   UNL A   1      42.348  30.565  35.830  1.00  0.00     0.074 A 
ATOM     58  C   UNL A   1      42.664  31.130  37.125  1.00  0.00     0.031 C 
ATOM     59  C   UNL A   1      42.936  29.455  35.317  1.00  0.00     0.037 A 
BRANCH  46  60
ATOM     60  C   UNL A   1      40.920  27.957  29.674  1.00  0.00     0.058 A 
ATOM     61  C   UNL A   1      41.988  28.005  28.765  1.00  0.00     0.135 A 
ATOM     62  C   UNL A   1      39.942  26.966  29.481  1.00  0.00     0.135 A 
ATOM     63  F   UNL A   1      42.942  28.940  28.891  1.00  0.00    -0.206 F 
ATOM     64  C   UNL A   1      42.068  27.123  27.690  1.00  0.00     0.059 A 
ATOM     65  C   UNL A   1      40.015  26.057  28.429  1.00  0.00     0.059 A 
ATOM     66  F   UNL A   1      38.901  26.872  30.323  1.00  0.00    -0.206 F 
ATOM     67  C   UNL A   1      41.074  26.155  27.527  1.00  0.00     0.060 A 
BRANCH  67  68
ATOM     68  S   UNL A   1      41.185  25.022  26.127  1.00  0.00     0.124 S 
ATOM     69  O   UNL A   1      39.886  24.359  26.186  1.00  0.00    -0.237 OA
ATOM     70  O   UNL A   1      41.381  25.931  25.001  1.00  0.00    -0.237 OA
ATOM     71  O   UNL A   1      42.334  24.185  26.458  1.00  0.00    -0.744 OA
ENDBRANCH  67  68
ENDBRANCH  46  60
BRANCH  47  72
ATOM     72  C   UNL A   1      39.925  34.329  37.259  1.00  0.00     0.058 A 
ATOM     73  C   UNL A   1      40.571  35.573  37.272  1.00  0.00     0.135 A 
ATOM     74  C   UNL A   1      39.108  34.006  38.354  1.00  0.00     0.135 A 
ATOM     75  F   UNL A   1      41.378  35.921  36.258  1.00  0.00    -0.206 F 
ATOM     76  C   UNL A   1      40.414  36.465  38.330  1.00  0.00     0.059 A 
ATOM     77  C   UNL A   1      38.912  34.891  39.408  1.00  0.00     0.059 A 
ATOM     78  F   UNL A   1      38.460  32.830  38.385  1.00  0.00    -0.206 F 
ATOM     79  C   UNL A   1      39.577  36.116  39.391  1.00  0.00     0.060 A 
BRANCH  79  80
ATOM     80  S   UNL A   1      39.317  37.302  40.728  1.00  0.00     0.124 S 
ATOM     81  O   UNL A   1      38.326  38.195  40.139  1.00  0.00    -0.237 OA
ATOM     82  O   UNL A   1      38.844  36.449  41.814  1.00  0.00    -0.237 OA
ATOM     83  O   UNL A   1      40.646  37.873  40.928  1.00  0.00    -0.744 OA
ENDBRANCH  79  80
ENDBRANCH  47  72
BRANCH  59  84
ATOM     84  C   UNL A   1      43.995  28.799  36.156  1.00  0.00     0.058 A 
ATOM     85  C   UNL A   1      43.706  27.688  36.966  1.00  0.00     0.135 A 
ATOM     86  C   UNL A   1      45.310  29.289  36.160  1.00  0.00     0.135 A 
ATOM     87  F   UNL A   1      42.463  27.185  37.004  1.00  0.00    -0.206 F 
ATOM     88  C   UNL A   1      44.675  27.111  37.780  1.00  0.00     0.059 A 
ATOM     89  C   UNL A   1      46.301  28.714  36.948  1.00  0.00     0.059 A 
ATOM     90  F   UNL A   1      45.641  30.342  35.396  1.00  0.00    -0.206 F 
ATOM     91  C   UNL A   1      45.969  27.638  37.772  1.00  0.00     0.060 A 
BRANCH  91  92
ATOM     92  S   UNL A   1      47.218  26.892  38.840  1.00  0.00     0.124 S 
ATOM     93  O   UNL A   1      47.111  25.483  38.476  1.00  0.00    -0.237 OA
ATOM     94  O   UNL A   1      48.442  27.565  38.417  1.00  0.00    -0.237 OA
ATOM     95  O   UNL A   1      46.760  27.230  40.184  1.00  0.00    -0.744 OA
ENDBRANCH  91  92
ENDBRANCH  59  84
ENDBRANCH  33  34
ENDBRANCH  26  28
ENDBRANCH  25  26
ENDBRANCH  24  25
ENDBRANCH   1  24
TORSDOF 18
ENDMDL
