MODEL 1
REMARK VINA RESULT:     -11.9      0.000      0.000
REMARK SMILES COc1cccc2c(C)cc(S[C@H](C)C(=O)Nc3ccc(C(=O)OCCOC(=O)c4ccc(-c5c6nc(c(-c7c(F)cc(S(=O)(=O)[O-])cc7F)c7ccc([nH]7)c(-c7c(F)cc(S(=O)(=O)[O-])cc7F)c7nc(c(-c8c(F)cc(S(=O)(=O)[O-])cc8F)c8ccc5[nH]8)C=C7)C=C6)cc4)cc3)nc12
REMARK SMILES IDX 25 1 24 2 22 3 23 4 21 5 18 6 19 7 97 8 20 9 96 10 17 11
REMARK SMILES IDX 15 12 16 13 13 15 14 16 12 17 11 18 3 19 4 20 99 21 5 22
REMARK SMILES IDX 7 23 98 24 6 25 8 26 9 27 10 28 2 29 1 30 26 31 27 32 28 33
REMARK SMILES IDX 29 34 30 35 31 36 95 37 32 38 94 39 33 40 34 41 35 42 88 43
REMARK SMILES IDX 36 44 93 45 87 46 89 47 37 48 92 49 86 50 85 51 38 53 72 54
REMARK SMILES IDX 51 55 71 56 52 57 55 58 70 59 90 60 53 61 54 62 69 64 91 65
REMARK SMILES IDX 56 66 39 67 40 68 49 69 41 70 42 71 48 72 50 73 43 74 44 75
REMARK SMILES IDX 45 76 46 77 47 78 73 79 74 80 83 81 75 82 76 83 82 84 84 85
REMARK SMILES IDX 77 86 78 87 79 88 80 89 81 90 57 91 58 92 67 93 59 94 60 95
REMARK SMILES IDX 66 96 68 97 61 98 62 99 63 100 64 101 65 102
REMARK H PARENT 17 14 89 52 55 63
REMARK Flexibility Score: inf
ROOT
ATOM      1  C   UNL A   1      34.622  32.260  28.001  1.00  0.00     0.275 C 
ENDROOT
BRANCH   1   2
ATOM      2  O   UNL A   1      33.654  31.205  27.834  1.00  0.00    -0.458 OA
BRANCH   2   3
ATOM      3  C   UNL A   1      34.170  29.975  27.591  1.00  0.00     0.338 C 
ATOM      4  O   UNL A   1      35.021  29.408  28.259  1.00  0.00    -0.246 OA
BRANCH   3   5
ATOM      5  C   UNL A   1      33.512  29.336  26.423  1.00  0.00     0.060 A 
ATOM      6  C   UNL A   1      32.512  28.172  24.096  1.00  0.00     0.041 A 
ATOM      7  C   UNL A   1      33.486  27.501  24.827  1.00  0.00     0.027 A 
ATOM      8  C   UNL A   1      31.949  29.353  24.583  1.00  0.00     0.027 A 
ATOM      9  C   UNL A   1      34.028  28.120  25.949  1.00  0.00     0.018 A 
ATOM     10  C   UNL A   1      32.439  29.932  25.756  1.00  0.00     0.018 A 
BRANCH   6  11
ATOM     11  N   UNL A   1      32.191  27.676  22.833  1.00  0.00    -0.325 N 
ATOM     12  C   UNL A   1      31.346  26.635  22.547  1.00  0.00     0.237 C 
ATOM     13  O   UNL A   1      31.120  26.410  21.349  1.00  0.00    -0.273 OA
ATOM     14  H   UNL A   1      32.618  28.120  22.065  1.00  0.00     0.169 HD
BRANCH  12  15
ATOM     15  C   UNL A   1      30.662  25.752  23.610  1.00  0.00     0.139 C 
ATOM     16  C   UNL A   1      29.277  26.245  24.011  1.00  0.00     0.030 C 
BRANCH  15  17
ATOM     17  S   UNL A   1      30.686  23.979  23.127  1.00  0.00    -0.093 SA
BRANCH  17  18
ATOM     18  C   UNL A   1      32.177  23.280  23.781  1.00  0.00     0.098 A 
ATOM     19  C   UNL A   1      33.241  19.810  24.184  1.00  0.00     0.145 A 
ATOM     20  C   UNL A   1      34.350  19.069  24.609  1.00  0.00     0.049 A 
ATOM     21  C   UNL A   1      33.244  21.218  24.178  1.00  0.00     0.114 A 
ATOM     22  C   UNL A   1      35.508  19.717  25.005  1.00  0.00     0.005 A 
ATOM     23  C   UNL A   1      34.422  21.876  24.603  1.00  0.00     0.007 A 
ATOM     24  N   UNL A   1      32.162  21.929  23.790  1.00  0.00    -0.238 NA
ATOM     25  C   UNL A   1      35.542  21.108  25.002  1.00  0.00     0.011 A 
ATOM     26  C   UNL A   1      34.425  23.291  24.617  1.00  0.00    -0.039 A 
ATOM     27  C   UNL A   1      35.628  24.087  25.050  1.00  0.00     0.045 C 
ATOM     28  C   UNL A   1      33.282  23.986  24.208  1.00  0.00     0.039 A 
BRANCH  19  29
ATOM     29  O   UNL A   1      32.155  19.023  23.858  1.00  0.00    -0.494 OA
ATOM     30  C   UNL A   1      32.383  18.139  22.762  1.00  0.00     0.278 C 
ENDBRANCH  19  29
ENDBRANCH  17  18
ENDBRANCH  15  17
ENDBRANCH  12  15
ENDBRANCH   6  11
ENDBRANCH   3   5
ENDBRANCH   2   3
ENDBRANCH   1   2
BRANCH   1  31
ATOM     31  C   UNL A   1      34.874  32.559  29.481  1.00  0.00     0.275 C 
BRANCH  31  32
ATOM     32  O   UNL A   1      36.275  32.468  29.804  1.00  0.00    -0.458 OA
BRANCH  32  33
ATOM     33  C   UNL A   1      36.592  31.479  30.669  1.00  0.00     0.338 C 
ATOM     34  O   UNL A   1      36.068  31.247  31.746  1.00  0.00    -0.246 OA
BRANCH  33  35
ATOM     35  C   UNL A   1      37.626  30.597  30.107  1.00  0.00     0.060 A 
ATOM     36  C   UNL A   1      38.473  29.958  31.002  1.00  0.00     0.016 A 
ATOM     37  C   UNL A   1      37.929  30.603  28.749  1.00  0.00     0.016 A 
ATOM     38  C   UNL A   1      39.702  29.461  30.583  1.00  0.00     0.010 A 
ATOM     39  C   UNL A   1      39.115  29.995  28.308  1.00  0.00     0.010 A 
ATOM     40  C   UNL A   1      40.052  29.481  29.227  1.00  0.00    -0.014 A 
BRANCH  40  41
ATOM     41  C   UNL A   1      41.425  29.064  28.801  1.00  0.00     0.031 A 
ATOM     42  C   UNL A   1      42.563  30.061  28.835  1.00  0.00     0.074 A 
ATOM     43  C   UNL A   1      41.682  27.790  28.434  1.00  0.00     0.049 A 
ATOM     44  N   UNL A   1      43.780  29.949  28.365  1.00  0.00    -0.248 NA
ATOM     45  C   UNL A   1      42.288  31.362  29.465  1.00  0.00     0.031 C 
ATOM     46  C   UNL A   1      40.703  26.700  28.399  1.00  0.00     0.029 A 
ATOM     47  N   UNL A   1      42.852  27.189  28.032  1.00  0.00    -0.354 N 
ATOM     48  C   UNL A   1      44.389  31.184  28.579  1.00  0.00     0.074 A 
ATOM     49  C   UNL A   1      43.402  32.032  29.209  1.00  0.00     0.031 C 
ATOM     50  C   UNL A   1      41.320  25.562  28.046  1.00  0.00     0.029 A 
ATOM     51  C   UNL A   1      42.715  25.853  27.737  1.00  0.00     0.049 A 
ATOM     52  H   UNL A   1      43.708  27.671  27.963  1.00  0.00     0.167 HD
ATOM     53  C   UNL A   1      45.654  31.573  28.282  1.00  0.00     0.037 A 
ATOM     54  C   UNL A   1      43.594  24.963  27.234  1.00  0.00     0.037 A 
ATOM     55  C   UNL A   1      46.657  30.702  27.722  1.00  0.00     0.049 A 
ATOM     56  C   UNL A   1      44.989  25.417  26.908  1.00  0.00     0.074 A 
ATOM     57  C   UNL A   1      47.970  30.997  27.395  1.00  0.00     0.029 A 
ATOM     58  N   UNL A   1      46.467  29.359  27.428  1.00  0.00    -0.354 N 
ATOM     59  N   UNL A   1      45.524  26.607  27.049  1.00  0.00    -0.248 NA
ATOM     60  C   UNL A   1      45.899  24.410  26.346  1.00  0.00     0.031 C 
ATOM     61  C   UNL A   1      48.563  29.842  26.872  1.00  0.00     0.029 A 
ATOM     62  C   UNL A   1      47.637  28.813  26.921  1.00  0.00     0.049 A 
ATOM     63  H   UNL A   1      45.625  28.866  27.559  1.00  0.00     0.167 HD
ATOM     64  C   UNL A   1      46.840  26.485  26.615  1.00  0.00     0.074 A 
ATOM     65  C   UNL A   1      47.023  25.102  26.224  1.00  0.00     0.031 C 
ATOM     66  C   UNL A   1      47.809  27.433  26.545  1.00  0.00     0.037 A 
BRANCH  53  67
ATOM     67  C   UNL A   1      46.019  33.016  28.524  1.00  0.00     0.058 A 
ATOM     68  C   UNL A   1      46.601  33.452  29.725  1.00  0.00     0.135 A 
ATOM     69  C   UNL A   1      45.804  33.975  27.520  1.00  0.00     0.135 A 
ATOM     70  F   UNL A   1      46.816  32.585  30.727  1.00  0.00    -0.206 F 
ATOM     71  C   UNL A   1      46.921  34.791  29.936  1.00  0.00     0.059 A 
ATOM     72  C   UNL A   1      46.146  35.314  27.697  1.00  0.00     0.059 A 
ATOM     73  F   UNL A   1      45.254  33.617  26.349  1.00  0.00    -0.206 F 
ATOM     74  C   UNL A   1      46.687  35.715  28.917  1.00  0.00     0.060 A 
BRANCH  74  75
ATOM     75  S   UNL A   1      47.103  37.449  29.204  1.00  0.00     0.124 S 
ATOM     76  O   UNL A   1      47.030  37.527  30.660  1.00  0.00    -0.237 OA
ATOM     77  O   UNL A   1      48.442  37.548  28.632  1.00  0.00    -0.237 OA
ATOM     78  O   UNL A   1      46.062  38.174  28.484  1.00  0.00    -0.744 OA
ENDBRANCH  74  75
ENDBRANCH  53  67
BRANCH  54  79
ATOM     79  C   UNL A   1      43.169  23.559  26.977  1.00  0.00     0.058 A 
ATOM     80  C   UNL A   1      42.930  23.099  25.674  1.00  0.00     0.135 A 
ATOM     81  C   UNL A   1      43.005  22.645  28.032  1.00  0.00     0.135 A 
ATOM     82  F   UNL A   1      43.061  23.935  24.633  1.00  0.00    -0.206 F 
ATOM     83  C   UNL A   1      42.530  21.790  25.425  1.00  0.00     0.059 A 
ATOM     84  C   UNL A   1      42.639  21.323  27.805  1.00  0.00     0.059 A 
ATOM     85  F   UNL A   1      43.231  23.030  29.297  1.00  0.00    -0.206 F 
ATOM     86  C   UNL A   1      42.393  20.907  26.497  1.00  0.00     0.060 A 
BRANCH  86  87
ATOM     87  S   UNL A   1      41.926  19.196  26.160  1.00  0.00     0.124 S 
ATOM     88  O   UNL A   1      40.494  19.326  25.911  1.00  0.00    -0.237 OA
ATOM     89  O   UNL A   1      42.750  18.875  25.000  1.00  0.00    -0.237 OA
ATOM     90  O   UNL A   1      42.291  18.500  27.391  1.00  0.00    -0.744 OA
ENDBRANCH  86  87
ENDBRANCH  54  79
BRANCH  66  91
ATOM     91  C   UNL A   1      49.170  26.987  26.083  1.00  0.00     0.058 A 
ATOM     92  C   UNL A   1      50.143  26.516  26.977  1.00  0.00     0.135 A 
ATOM     93  C   UNL A   1      49.502  27.036  24.720  1.00  0.00     0.135 A 
ATOM     94  F   UNL A   1      49.879  26.453  28.292  1.00  0.00    -0.206 F 
ATOM     95  C   UNL A   1      51.415  26.154  26.544  1.00  0.00     0.059 A 
ATOM     96  C   UNL A   1      50.756  26.649  24.259  1.00  0.00     0.059 A 
ATOM     97  F   UNL A   1      48.604  27.464  23.818  1.00  0.00    -0.206 F 
ATOM     98  C   UNL A   1      51.714  26.231  25.182  1.00  0.00     0.060 A 
BRANCH  98  99
ATOM     99  S   UNL A   1      53.371  25.776  24.630  1.00  0.00     0.124 S 
ATOM    100  O   UNL A   1      54.207  26.602  25.495  1.00  0.00    -0.237 OA
ATOM    101  O   UNL A   1      53.407  24.341  24.894  1.00  0.00    -0.237 OA
ATOM    102  O   UNL A   1      53.371  26.147  23.217  1.00  0.00    -0.744 OA
ENDBRANCH  98  99
ENDBRANCH  66  91
ENDBRANCH  40  41
ENDBRANCH  33  35
ENDBRANCH  32  33
ENDBRANCH  31  32
ENDBRANCH   1  31
TORSDOF 19
ENDMDL
MODEL 2
REMARK VINA RESULT:     -11.7      1.242      2.219
REMARK SMILES COc1cccc2c(C)cc(S[C@H](C)C(=O)Nc3ccc(C(=O)OCCOC(=O)c4ccc(-c5c6nc(c(-c7c(F)cc(S(=O)(=O)[O-])cc7F)c7ccc([nH]7)c(-c7c(F)cc(S(=O)(=O)[O-])cc7F)c7nc(c(-c8c(F)cc(S(=O)(=O)[O-])cc8F)c8ccc5[nH]8)C=C7)C=C6)cc4)cc3)nc12
REMARK SMILES IDX 25 1 24 2 22 3 23 4 21 5 18 6 19 7 97 8 20 9 96 10 17 11
REMARK SMILES IDX 15 12 16 13 13 15 14 16 12 17 11 18 3 19 4 20 99 21 5 22
REMARK SMILES IDX 7 23 98 24 6 25 8 26 9 27 10 28 2 29 1 30 26 31 27 32 28 33
REMARK SMILES IDX 29 34 30 35 31 36 95 37 32 38 94 39 33 40 34 41 35 42 88 43
REMARK SMILES IDX 36 44 93 45 87 46 89 47 37 48 92 49 86 50 85 51 38 53 72 54
REMARK SMILES IDX 51 55 71 56 52 57 55 58 70 59 90 60 53 61 54 62 69 64 91 65
REMARK SMILES IDX 56 66 39 67 40 68 49 69 41 70 42 71 48 72 50 73 43 74 44 75
REMARK SMILES IDX 45 76 46 77 47 78 73 79 74 80 83 81 75 82 76 83 82 84 84 85
REMARK SMILES IDX 77 86 78 87 79 88 80 89 81 90 57 91 58 92 67 93 59 94 60 95
REMARK SMILES IDX 66 96 68 97 61 98 62 99 63 100 64 101 65 102
REMARK H PARENT 17 14 89 52 55 63
REMARK Flexibility Score: inf
ROOT
ATOM      1  C   UNL A   1      33.966  32.179  27.767  1.00  0.00     0.275 C 
ENDROOT
BRANCH   1   2
ATOM      2  O   UNL A   1      33.343  30.901  27.531  1.00  0.00    -0.458 OA
BRANCH   2   3
ATOM      3  C   UNL A   1      32.149  30.943  26.890  1.00  0.00     0.338 C 
ATOM      4  O   UNL A   1      31.417  31.917  26.801  1.00  0.00    -0.246 OA
BRANCH   3   5
ATOM      5  C   UNL A   1      31.850  29.653  26.220  1.00  0.00     0.060 A 
ATOM      6  C   UNL A   1      31.032  27.318  24.936  1.00  0.00     0.041 A 
ATOM      7  C   UNL A   1      31.112  28.500  24.210  1.00  0.00     0.027 A 
ATOM      8  C   UNL A   1      31.477  27.267  26.258  1.00  0.00     0.027 A 
ATOM      9  C   UNL A   1      31.454  29.674  24.874  1.00  0.00     0.018 A 
ATOM     10  C   UNL A   1      31.900  28.433  26.902  1.00  0.00     0.018 A 
BRANCH   6  11
ATOM     11  N   UNL A   1      30.417  26.223  24.329  1.00  0.00    -0.325 N 
ATOM     12  C   UNL A   1      31.036  25.164  23.717  1.00  0.00     0.237 C 
ATOM     13  O   UNL A   1      30.308  24.242  23.321  1.00  0.00    -0.273 OA
ATOM     14  H   UNL A   1      29.433  26.210  24.342  1.00  0.00     0.169 HD
BRANCH  12  15
ATOM     15  C   UNL A   1      32.560  25.050  23.508  1.00  0.00     0.139 C 
ATOM     16  C   UNL A   1      33.176  26.273  22.841  1.00  0.00     0.030 C 
BRANCH  15  17
ATOM     17  S   UNL A   1      33.416  24.565  25.060  1.00  0.00    -0.093 SA
BRANCH  17  18
ATOM     18  C   UNL A   1      33.856  22.856  24.903  1.00  0.00     0.098 A 
ATOM     19  C   UNL A   1      37.104  21.187  24.935  1.00  0.00     0.145 A 
ATOM     20  C   UNL A   1      37.650  19.899  24.883  1.00  0.00     0.049 A 
ATOM     21  C   UNL A   1      35.713  21.408  24.902  1.00  0.00     0.114 A 
ATOM     22  C   UNL A   1      36.818  18.793  24.834  1.00  0.00     0.005 A 
ATOM     23  C   UNL A   1      34.868  20.276  24.832  1.00  0.00     0.007 A 
ATOM     24  N   UNL A   1      35.192  22.655  24.928  1.00  0.00    -0.238 NA
ATOM     25  C   UNL A   1      35.439  18.981  24.809  1.00  0.00     0.011 A 
ATOM     26  C   UNL A   1      33.470  20.492  24.780  1.00  0.00    -0.039 A 
ATOM     27  C   UNL A   1      32.484  19.356  24.705  1.00  0.00     0.045 C 
ATOM     28  C   UNL A   1      32.974  21.800  24.808  1.00  0.00     0.039 A 
BRANCH  19  29
ATOM     29  O   UNL A   1      38.059  22.182  24.942  1.00  0.00    -0.494 OA
ATOM     30  C   UNL A   1      38.912  22.164  26.086  1.00  0.00     0.278 C 
ENDBRANCH  19  29
ENDBRANCH  17  18
ENDBRANCH  15  17
ENDBRANCH  12  15
ENDBRANCH   6  11
ENDBRANCH   3   5
ENDBRANCH   2   3
ENDBRANCH   1   2
BRANCH   1  31
ATOM     31  C   UNL A   1      34.697  32.206  29.111  1.00  0.00     0.275 C 
BRANCH  31  32
ATOM     32  O   UNL A   1      36.044  31.711  28.985  1.00  0.00    -0.458 OA
BRANCH  32  33
ATOM     33  C   UNL A   1      36.424  30.855  29.960  1.00  0.00     0.338 C 
ATOM     34  O   UNL A   1      35.908  30.713  31.057  1.00  0.00    -0.246 OA
BRANCH  33  35
ATOM     35  C   UNL A   1      37.522  29.990  29.506  1.00  0.00     0.060 A 
ATOM     36  C   UNL A   1      38.337  29.429  30.480  1.00  0.00     0.016 A 
ATOM     37  C   UNL A   1      37.907  29.942  28.169  1.00  0.00     0.016 A 
ATOM     38  C   UNL A   1      39.607  28.964  30.159  1.00  0.00     0.010 A 
ATOM     39  C   UNL A   1      39.139  29.362  27.830  1.00  0.00     0.010 A 
ATOM     40  C   UNL A   1      40.037  28.932  28.827  1.00  0.00    -0.014 A 
BRANCH  40  41
ATOM     41  C   UNL A   1      41.448  28.551  28.503  1.00  0.00     0.031 A 
ATOM     42  C   UNL A   1      42.551  29.584  28.596  1.00  0.00     0.074 A 
ATOM     43  C   UNL A   1      41.768  27.280  28.180  1.00  0.00     0.049 A 
ATOM     44  N   UNL A   1      43.800  29.502  28.212  1.00  0.00    -0.248 NA
ATOM     45  C   UNL A   1      42.194  30.887  29.179  1.00  0.00     0.031 C 
ATOM     46  C   UNL A   1      40.828  26.159  28.100  1.00  0.00     0.029 A 
ATOM     47  N   UNL A   1      42.981  26.709  27.871  1.00  0.00    -0.354 N 
ATOM     48  C   UNL A   1      44.355  30.759  28.441  1.00  0.00     0.074 A 
ATOM     49  C   UNL A   1      43.302  31.587  28.986  1.00  0.00     0.031 C 
ATOM     50  C   UNL A   1      41.501  25.035  27.814  1.00  0.00     0.029 A 
ATOM     51  C   UNL A   1      42.905  25.364  27.594  1.00  0.00     0.049 A 
ATOM     52  H   UNL A   1      43.825  27.216  27.851  1.00  0.00     0.167 HD
ATOM     53  C   UNL A   1      45.625  31.183  28.224  1.00  0.00     0.037 A 
ATOM     54  C   UNL A   1      43.843  24.494  27.170  1.00  0.00     0.037 A 
ATOM     55  C   UNL A   1      46.690  30.334  27.751  1.00  0.00     0.049 A 
ATOM     56  C   UNL A   1      45.243  24.985  26.931  1.00  0.00     0.074 A 
ATOM     57  C   UNL A   1      48.013  30.664  27.508  1.00  0.00     0.029 A 
ATOM     58  N   UNL A   1      46.562  28.980  27.471  1.00  0.00    -0.354 N 
ATOM     59  N   UNL A   1      45.731  26.194  27.084  1.00  0.00    -0.248 NA
ATOM     60  C   UNL A   1      46.219  23.998  26.452  1.00  0.00     0.031 C 
ATOM     61  C   UNL A   1      48.675  29.519  27.050  1.00  0.00     0.029 A 
ATOM     62  C   UNL A   1      47.779  28.463  27.056  1.00  0.00     0.049 A 
ATOM     63  H   UNL A   1      45.728  28.464  27.555  1.00  0.00     0.167 HD
ATOM     64  C   UNL A   1      47.076  26.105  26.744  1.00  0.00     0.074 A 
ATOM     65  C   UNL A   1      47.328  24.723  26.394  1.00  0.00     0.031 C 
ATOM     66  C   UNL A   1      48.018  27.082  26.721  1.00  0.00     0.037 A 
BRANCH  53  67
ATOM     67  C   UNL A   1      45.929  32.640  28.462  1.00  0.00     0.058 A 
ATOM     68  C   UNL A   1      46.398  33.118  29.696  1.00  0.00     0.135 A 
ATOM     69  C   UNL A   1      45.769  33.572  27.422  1.00  0.00     0.135 A 
ATOM     70  F   UNL A   1      46.555  32.279  30.731  1.00  0.00    -0.206 F 
ATOM     71  C   UNL A   1      46.663  34.470  29.901  1.00  0.00     0.059 A 
ATOM     72  C   UNL A   1      46.058  34.923  27.594  1.00  0.00     0.059 A 
ATOM     73  F   UNL A   1      45.328  33.174  26.219  1.00  0.00    -0.206 F 
ATOM     74  C   UNL A   1      46.487  35.366  28.845  1.00  0.00     0.060 A 
BRANCH  74  75
ATOM     75  S   UNL A   1      46.830  37.117  29.125  1.00  0.00     0.124 S 
ATOM     76  O   UNL A   1      48.001  37.322  28.279  1.00  0.00    -0.237 OA
ATOM     77  O   UNL A   1      45.599  37.754  28.668  1.00  0.00    -0.237 OA
ATOM     78  O   UNL A   1      47.074  37.190  30.562  1.00  0.00    -0.744 OA
ENDBRANCH  74  75
ENDBRANCH  53  67
BRANCH  54  79
ATOM     79  C   UNL A   1      43.479  23.072  26.913  1.00  0.00     0.058 A 
ATOM     80  C   UNL A   1      43.199  22.192  27.968  1.00  0.00     0.135 A 
ATOM     81  C   UNL A   1      43.394  22.569  25.604  1.00  0.00     0.135 A 
ATOM     82  F   UNL A   1      43.279  22.619  29.238  1.00  0.00    -0.206 F 
ATOM     83  C   UNL A   1      42.861  20.862  27.738  1.00  0.00     0.059 A 
ATOM     84  C   UNL A   1      43.024  21.254  25.348  1.00  0.00     0.059 A 
ATOM     85  F   UNL A   1      43.641  23.372  24.557  1.00  0.00    -0.206 F 
ATOM     86  C   UNL A   1      42.771  20.403  26.423  1.00  0.00     0.060 A 
BRANCH  86  87
ATOM     87  S   UNL A   1      42.279  18.690  26.131  1.00  0.00     0.124 S 
ATOM     88  O   UNL A   1      42.518  18.090  27.439  1.00  0.00    -0.237 OA
ATOM     89  O   UNL A   1      40.882  18.834  25.739  1.00  0.00    -0.237 OA
ATOM     90  O   UNL A   1      43.181  18.260  25.065  1.00  0.00    -0.744 OA
ENDBRANCH  86  87
ENDBRANCH  54  79
BRANCH  66  91
ATOM     91  C   UNL A   1      49.421  26.671  26.361  1.00  0.00     0.058 A 
ATOM     92  C   UNL A   1      50.348  26.257  27.330  1.00  0.00     0.135 A 
ATOM     93  C   UNL A   1      49.841  26.696  25.021  1.00  0.00     0.135 A 
ATOM     94  F   UNL A   1      49.999  26.219  28.626  1.00  0.00    -0.206 F 
ATOM     95  C   UNL A   1      51.657  25.928  26.991  1.00  0.00     0.059 A 
ATOM     96  C   UNL A   1      51.135  26.341  24.655  1.00  0.00     0.059 A 
ATOM     97  F   UNL A   1      48.991  27.070  24.051  1.00  0.00    -0.206 F 
ATOM     98  C   UNL A   1      52.043  25.980  25.649  1.00  0.00     0.060 A 
BRANCH  98  99
ATOM     99  S   UNL A   1      53.746  25.567  25.220  1.00  0.00     0.124 S 
ATOM    100  O   UNL A   1      53.758  24.122  25.422  1.00  0.00    -0.237 OA
ATOM    101  O   UNL A   1      53.838  26.014  23.834  1.00  0.00    -0.237 OA
ATOM    102  O   UNL A   1      54.533  26.342  26.176  1.00  0.00    -0.744 OA
ENDBRANCH  98  99
ENDBRANCH  66  91
ENDBRANCH  40  41
ENDBRANCH  33  35
ENDBRANCH  32  33
ENDBRANCH  31  32
ENDBRANCH   1  31
TORSDOF 19
ENDMDL
MODEL 3
REMARK VINA RESULT:     -11.6      2.709      3.744
REMARK SMILES COc1cccc2c(C)cc(S[C@H](C)C(=O)Nc3ccc(C(=O)OCCOC(=O)c4ccc(-c5c6nc(c(-c7c(F)cc(S(=O)(=O)[O-])cc7F)c7ccc([nH]7)c(-c7c(F)cc(S(=O)(=O)[O-])cc7F)c7nc(c(-c8c(F)cc(S(=O)(=O)[O-])cc8F)c8ccc5[nH]8)C=C7)C=C6)cc4)cc3)nc12
REMARK SMILES IDX 25 1 24 2 22 3 23 4 21 5 18 6 19 7 97 8 20 9 96 10 17 11
REMARK SMILES IDX 15 12 16 13 13 15 14 16 12 17 11 18 3 19 4 20 99 21 5 22
REMARK SMILES IDX 7 23 98 24 6 25 8 26 9 27 10 28 2 29 1 30 26 31 27 32 28 33
REMARK SMILES IDX 29 34 30 35 31 36 95 37 32 38 94 39 33 40 34 41 35 42 88 43
REMARK SMILES IDX 36 44 93 45 87 46 89 47 37 48 92 49 86 50 85 51 38 53 72 54
REMARK SMILES IDX 51 55 71 56 52 57 55 58 70 59 90 60 53 61 54 62 69 64 91 65
REMARK SMILES IDX 56 66 39 67 40 68 49 69 41 70 42 71 48 72 50 73 43 74 44 75
REMARK SMILES IDX 45 76 46 77 47 78 73 79 74 80 83 81 75 82 76 83 82 84 84 85
REMARK SMILES IDX 77 86 78 87 79 88 80 89 81 90 57 91 58 92 67 93 59 94 60 95
REMARK SMILES IDX 66 96 68 97 61 98 62 99 63 100 64 101 65 102
REMARK H PARENT 17 14 89 52 55 63
REMARK Flexibility Score: inf
ROOT
ATOM      1  C   UNL A   1      31.607  30.481  26.596  1.00  0.00     0.275 C 
ENDROOT
BRANCH   1   2
ATOM      2  O   UNL A   1      31.641  30.366  25.160  1.00  0.00    -0.458 OA
BRANCH   2   3
ATOM      3  C   UNL A   1      32.388  29.344  24.674  1.00  0.00     0.338 C 
ATOM      4  O   UNL A   1      33.412  29.452  24.018  1.00  0.00    -0.246 OA
BRANCH   3   5
ATOM      5  C   UNL A   1      31.846  28.030  25.103  1.00  0.00     0.060 A 
ATOM      6  C   UNL A   1      30.619  25.699  26.013  1.00  0.00     0.041 A 
ATOM      7  C   UNL A   1      30.046  26.401  24.959  1.00  0.00     0.027 A 
ATOM      8  C   UNL A   1      31.859  26.081  26.528  1.00  0.00     0.027 A 
ATOM      9  C   UNL A   1      30.627  27.600  24.557  1.00  0.00     0.018 A 
ATOM     10  C   UNL A   1      32.484  27.242  26.065  1.00  0.00     0.018 A 
BRANCH   6  11
ATOM     11  N   UNL A   1      29.875  24.668  26.587  1.00  0.00    -0.325 N 
ATOM     12  C   UNL A   1      30.288  23.380  26.811  1.00  0.00     0.237 C 
ATOM     13  O   UNL A   1      29.503  22.639  27.422  1.00  0.00    -0.273 OA
ATOM     14  H   UNL A   1      28.955  24.889  26.859  1.00  0.00     0.169 HD
BRANCH  12  15
ATOM     15  C   UNL A   1      31.651  22.813  26.368  1.00  0.00     0.139 C 
ATOM     16  C   UNL A   1      32.496  22.288  27.522  1.00  0.00     0.030 C 
BRANCH  15  17
ATOM     17  S   UNL A   1      31.462  21.601  25.000  1.00  0.00    -0.093 SA
BRANCH  17  18
ATOM     18  C   UNL A   1      33.003  20.741  24.846  1.00  0.00     0.098 A 
ATOM     19  C   UNL A   1      36.453  21.936  24.927  1.00  0.00     0.145 A 
ATOM     20  C   UNL A   1      37.762  21.442  24.881  1.00  0.00     0.049 A 
ATOM     21  C   UNL A   1      35.333  21.084  24.873  1.00  0.00     0.114 A 
ATOM     22  C   UNL A   1      37.988  20.078  24.817  1.00  0.00     0.005 A 
ATOM     23  C   UNL A   1      35.568  19.692  24.786  1.00  0.00     0.007 A 
ATOM     24  N   UNL A   1      34.071  21.567  24.892  1.00  0.00    -0.238 NA
ATOM     25  C   UNL A   1      36.900  19.211  24.769  1.00  0.00     0.011 A 
ATOM     26  C   UNL A   1      34.448  18.831  24.711  1.00  0.00    -0.039 A 
ATOM     27  C   UNL A   1      34.589  17.335  24.618  1.00  0.00     0.045 C 
ATOM     28  C   UNL A   1      33.159  19.375  24.734  1.00  0.00     0.039 A 
BRANCH  19  29
ATOM     29  O   UNL A   1      36.393  23.314  24.952  1.00  0.00    -0.494 OA
ATOM     30  C   UNL A   1      36.887  23.898  26.157  1.00  0.00     0.278 C 
ENDBRANCH  19  29
ENDBRANCH  17  18
ENDBRANCH  15  17
ENDBRANCH  12  15
ENDBRANCH   6  11
ENDBRANCH   3   5
ENDBRANCH   2   3
ENDBRANCH   1   2
BRANCH   1  31
ATOM     31  C   UNL A   1      32.822  31.246  27.126  1.00  0.00     0.275 C 
BRANCH  31  32
ATOM     32  O   UNL A   1      33.901  30.351  27.459  1.00  0.00    -0.458 OA
BRANCH  32  33
ATOM     33  C   UNL A   1      34.823  30.868  28.301  1.00  0.00     0.338 C 
ATOM     34  O   UNL A   1      34.682  31.819  29.053  1.00  0.00    -0.246 OA
BRANCH  33  35
ATOM     35  C   UNL A   1      36.055  30.065  28.295  1.00  0.00     0.060 A 
ATOM     36  C   UNL A   1      36.446  29.487  29.495  1.00  0.00     0.016 A 
ATOM     37  C   UNL A   1      36.939  30.096  27.220  1.00  0.00     0.016 A 
ATOM     38  C   UNL A   1      37.761  29.082  29.691  1.00  0.00     0.010 A 
ATOM     39  C   UNL A   1      38.232  29.576  27.381  1.00  0.00     0.010 A 
ATOM     40  C   UNL A   1      38.684  29.130  28.639  1.00  0.00    -0.014 A 
BRANCH  40  41
ATOM     41  C   UNL A   1      40.125  28.815  28.892  1.00  0.00     0.031 A 
ATOM     42  C   UNL A   1      41.016  29.835  29.567  1.00  0.00     0.074 A 
ATOM     43  C   UNL A   1      40.638  27.607  28.575  1.00  0.00     0.049 A 
ATOM     44  N   UNL A   1      42.314  29.823  29.736  1.00  0.00    -0.248 NA
ATOM     45  C   UNL A   1      40.359  31.036  30.107  1.00  0.00     0.031 C 
ATOM     46  C   UNL A   1      39.896  26.499  27.967  1.00  0.00     0.029 A 
ATOM     47  N   UNL A   1      41.907  27.099  28.733  1.00  0.00    -0.354 N 
ATOM     48  C   UNL A   1      42.635  31.039  30.333  1.00  0.00     0.074 A 
ATOM     49  C   UNL A   1      41.396  31.769  30.486  1.00  0.00     0.031 C 
ATOM     50  C   UNL A   1      40.704  25.435  27.849  1.00  0.00     0.029 A 
ATOM     51  C   UNL A   1      42.046  25.807  28.282  1.00  0.00     0.049 A 
ATOM     52  H   UNL A   1      42.646  27.613  29.132  1.00  0.00     0.167 HD
ATOM     53  C   UNL A   1      43.849  31.504  30.723  1.00  0.00     0.037 A 
ATOM     54  C   UNL A   1      43.135  25.018  28.184  1.00  0.00     0.037 A 
ATOM     55  C   UNL A   1      45.071  30.743  30.637  1.00  0.00     0.049 A 
ATOM     56  C   UNL A   1      44.470  25.553  28.618  1.00  0.00     0.074 A 
ATOM     57  C   UNL A   1      46.349  31.119  31.015  1.00  0.00     0.029 A 
ATOM     58  N   UNL A   1      45.165  29.443  30.161  1.00  0.00    -0.354 N 
ATOM     59  N   UNL A   1      44.765  26.733  29.112  1.00  0.00    -0.248 NA
ATOM     60  C   UNL A   1      45.623  24.656  28.471  1.00  0.00     0.031 C 
ATOM     61  C   UNL A   1      47.219  30.059  30.736  1.00  0.00     0.029 A 
ATOM     62  C   UNL A   1      46.477  29.004  30.233  1.00  0.00     0.049 A 
ATOM     63  H   UNL A   1      44.409  28.911  29.821  1.00  0.00     0.167 HD
ATOM     64  C   UNL A   1      46.134  26.708  29.359  1.00  0.00     0.074 A 
ATOM     65  C   UNL A   1      46.603  25.393  28.975  1.00  0.00     0.031 C 
ATOM     66  C   UNL A   1      46.930  27.688  29.857  1.00  0.00     0.037 A 
BRANCH  53  67
ATOM     67  C   UNL A   1      43.924  32.915  31.249  1.00  0.00     0.058 A 
ATOM     68  C   UNL A   1      43.831  33.213  32.618  1.00  0.00     0.135 A 
ATOM     69  C   UNL A   1      44.120  33.987  30.362  1.00  0.00     0.135 A 
ATOM     70  F   UNL A   1      43.628  32.232  33.512  1.00  0.00    -0.206 F 
ATOM     71  C   UNL A   1      43.891  34.524  33.084  1.00  0.00     0.059 A 
ATOM     72  C   UNL A   1      44.216  35.303  30.808  1.00  0.00     0.059 A 
ATOM     73  F   UNL A   1      44.220  33.764  29.042  1.00  0.00    -0.206 F 
ATOM     74  C   UNL A   1      44.081  35.563  32.171  1.00  0.00     0.060 A 
BRANCH  74  75
ATOM     75  S   UNL A   1      44.154  37.259  32.789  1.00  0.00     0.124 S 
ATOM     76  O   UNL A   1      42.997  37.293  33.679  1.00  0.00    -0.237 OA
ATOM     77  O   UNL A   1      45.458  37.297  33.444  1.00  0.00    -0.237 OA
ATOM     78  O   UNL A   1      44.040  38.067  31.579  1.00  0.00    -0.744 OA
ENDBRANCH  74  75
ENDBRANCH  53  67
BRANCH  54  79
ATOM     79  C   UNL A   1      43.010  23.644  27.621  1.00  0.00     0.058 A 
ATOM     80  C   UNL A   1      42.612  22.564  28.422  1.00  0.00     0.135 A 
ATOM     81  C   UNL A   1      43.276  23.388  26.265  1.00  0.00     0.135 A 
ATOM     82  F   UNL A   1      42.358  22.753  29.726  1.00  0.00    -0.206 F 
ATOM     83  C   UNL A   1      42.495  21.277  27.905  1.00  0.00     0.059 A 
ATOM     84  C   UNL A   1      43.133  22.117  25.719  1.00  0.00     0.059 A 
ATOM     85  F   UNL A   1      43.649  24.387  25.452  1.00  0.00    -0.206 F 
ATOM     86  C   UNL A   1      42.753  21.065  26.550  1.00  0.00     0.060 A 
BRANCH  86  87
ATOM     87  S   UNL A   1      42.548  19.402  25.876  1.00  0.00     0.124 S 
ATOM     88  O   UNL A   1      41.107  19.351  25.657  1.00  0.00    -0.237 OA
ATOM     89  O   UNL A   1      43.376  19.452  24.677  1.00  0.00    -0.237 OA
ATOM     90  O   UNL A   1      43.055  18.543  26.944  1.00  0.00    -0.744 OA
ENDBRANCH  86  87
ENDBRANCH  54  79
BRANCH  66  91
ATOM     91  C   UNL A   1      48.380  27.348  30.069  1.00  0.00     0.058 A 
ATOM     92  C   UNL A   1      48.861  26.865  31.296  1.00  0.00     0.135 A 
ATOM     93  C   UNL A   1      49.303  27.512  29.024  1.00  0.00     0.135 A 
ATOM     94  F   UNL A   1      48.022  26.694  32.331  1.00  0.00    -0.206 F 
ATOM     95  C   UNL A   1      50.213  26.603  31.496  1.00  0.00     0.059 A 
ATOM     96  C   UNL A   1      50.654  27.226  29.190  1.00  0.00     0.059 A 
ATOM     97  F   UNL A   1      48.896  27.957  27.824  1.00  0.00    -0.206 F 
ATOM     98  C   UNL A   1      51.104  26.793  30.437  1.00  0.00     0.060 A 
BRANCH  98  99
ATOM     99  S   UNL A   1      52.858  26.466  30.708  1.00  0.00     0.124 S 
ATOM    100  O   UNL A   1      53.284  27.688  31.382  1.00  0.00    -0.237 OA
ATOM    101  O   UNL A   1      52.829  25.263  31.535  1.00  0.00    -0.237 OA
ATOM    102  O   UNL A   1      53.380  26.279  29.358  1.00  0.00    -0.744 OA
ENDBRANCH  98  99
ENDBRANCH  66  91
ENDBRANCH  40  41
ENDBRANCH  33  35
ENDBRANCH  32  33
ENDBRANCH  31  32
ENDBRANCH   1  31
TORSDOF 19
ENDMDL
