MODEL 1
REMARK VINA RESULT:     -10.6      0.000      0.000
REMARK SMILES CCCCCCNC(=O)Oc1cccc(-c2ccc([C@H](C)C(=O)OCCOC(=O)c3ccc(-c4c5nc(c(-c6c(F)cc(S(=O)(=O)[O-])cc6F)c6ccc([nH]6)c(-c6c(F)cc(S(=O)(=O)[O-])cc6F)c6nc(c(-c7c(F)cc(S(=O)(=O)[O-])cc7F)c7ccc4[nH]7)C=C6)C=C5)cc3)cc2F)c1
REMARK SMILES IDX 20 1 21 2 19 3 16 4 17 5 97 6 18 7 96 8 98 9 15 10 11 11
REMARK SMILES IDX 12 12 99 13 13 14 14 15 10 16 8 17 7 18 9 20 6 21 5 22 4 23
REMARK SMILES IDX 3 24 2 25 1 26 22 27 23 28 24 29 25 30 26 31 27 32 28 33
REMARK SMILES IDX 29 34 30 35 31 36 95 37 32 38 94 39 33 40 34 41 35 42 88 43
REMARK SMILES IDX 36 44 93 45 87 46 89 47 37 48 92 49 86 50 85 51 38 53 72 54
REMARK SMILES IDX 51 55 71 56 52 57 55 58 70 59 90 60 53 61 54 62 69 64 91 65
REMARK SMILES IDX 56 66 39 67 40 68 49 69 41 70 42 71 48 72 50 73 43 74 44 75
REMARK SMILES IDX 45 76 46 77 47 78 73 79 74 80 83 81 75 82 76 83 82 84 84 85
REMARK SMILES IDX 77 86 78 87 79 88 80 89 81 90 57 91 58 92 67 93 59 94 60 95
REMARK SMILES IDX 66 96 68 97 61 98 62 99 63 100 64 101 65 102
REMARK H PARENT 7 19 89 52 55 63
REMARK Flexibility Score: inf
ROOT
ATOM      1  C   UNL A   1      35.293  21.102  24.522  1.00  0.00     0.126 C 
ATOM      2  C   UNL A   1      34.179  20.154  24.955  1.00  0.00     0.025 C 
ENDROOT
BRANCH   1   3
ATOM      3  C   UNL A   1      34.944  22.561  24.719  1.00  0.00    -0.031 A 
ATOM      4  C   UNL A   1      34.105  25.235  25.036  1.00  0.00     0.018 A 
ATOM      5  C   UNL A   1      34.758  24.821  23.866  1.00  0.00     0.012 A 
ATOM      6  C   UNL A   1      33.897  24.289  26.046  1.00  0.00     0.131 A 
ATOM      7  C   UNL A   1      35.175  23.501  23.708  1.00  0.00     0.005 A 
ATOM      8  C   UNL A   1      34.302  22.968  25.897  1.00  0.00     0.044 A 
ATOM      9  F   UNL A   1      33.281  24.637  27.188  1.00  0.00    -0.206 F 
BRANCH   4  10
ATOM     10  C   UNL A   1      33.676  26.626  25.193  1.00  0.00    -0.012 A 
ATOM     11  C   UNL A   1      32.378  28.517  24.422  1.00  0.00     0.133 A 
ATOM     12  C   UNL A   1      32.810  29.286  25.498  1.00  0.00     0.047 A 
ATOM     13  C   UNL A   1      32.822  27.207  24.250  1.00  0.00     0.056 A 
ATOM     14  C   UNL A   1      33.673  28.724  26.435  1.00  0.00     0.004 A 
ATOM     15  C   UNL A   1      34.098  27.401  26.286  1.00  0.00     0.009 A 
BRANCH  11  16
ATOM     16  O   UNL A   1      31.577  29.139  23.456  1.00  0.00    -0.410 OA
BRANCH  16  17
ATOM     17  C   UNL A   1      30.416  29.759  23.894  1.00  0.00     0.412 C 
ATOM     18  N   UNL A   1      29.287  29.046  23.602  1.00  0.00    -0.321 N 
ATOM     19  H   UNL A   1      28.429  29.442  23.881  1.00  0.00     0.167 HD
ATOM     20  O   UNL A   1      30.343  30.835  24.476  1.00  0.00    -0.224 OA
BRANCH  18  21
ATOM     21  C   UNL A   1      29.224  27.770  22.924  1.00  0.00     0.119 C 
BRANCH  21  22
ATOM     22  C   UNL A   1      29.085  26.604  23.902  1.00  0.00     0.021 C 
BRANCH  22  23
ATOM     23  C   UNL A   1      30.070  25.449  23.678  1.00  0.00     0.002 C 
BRANCH  23  24
ATOM     24  C   UNL A   1      30.447  24.650  24.931  1.00  0.00    -0.000 C 
BRANCH  24  25
ATOM     25  C   UNL A   1      30.914  23.214  24.678  1.00  0.00    -0.003 C 
ATOM     26  C   UNL A   1      30.778  22.314  25.896  1.00  0.00     0.004 C 
ENDBRANCH  24  25
ENDBRANCH  23  24
ENDBRANCH  22  23
ENDBRANCH  21  22
ENDBRANCH  18  21
ENDBRANCH  16  17
ENDBRANCH  11  16
ENDBRANCH   4  10
ENDBRANCH   1   3
BRANCH   1  27
ATOM     27  C   UNL A   1      36.663  20.817  25.132  1.00  0.00     0.313 C 
ATOM     28  O   UNL A   1      37.217  19.726  25.035  1.00  0.00    -0.252 OA
BRANCH  27  29
ATOM     29  O   UNL A   1      37.213  21.904  25.737  1.00  0.00    -0.462 OA
BRANCH  29  30
ATOM     30  C   UNL A   1      38.642  22.032  25.608  1.00  0.00     0.274 C 
BRANCH  30  31
ATOM     31  C   UNL A   1      39.253  22.772  26.802  1.00  0.00     0.275 C 
BRANCH  31  32
ATOM     32  O   UNL A   1      39.272  24.199  26.602  1.00  0.00    -0.458 OA
BRANCH  32  33
ATOM     33  C   UNL A   1      40.502  24.763  26.628  1.00  0.00     0.338 C 
ATOM     34  O   UNL A   1      41.392  24.628  25.804  1.00  0.00    -0.246 OA
BRANCH  33  35
ATOM     35  C   UNL A   1      40.601  25.699  27.755  1.00  0.00     0.060 A 
ATOM     36  C   UNL A   1      39.531  25.771  28.649  1.00  0.00     0.016 A 
ATOM     37  C   UNL A   1      41.678  26.577  27.869  1.00  0.00     0.016 A 
ATOM     38  C   UNL A   1      39.516  26.730  29.654  1.00  0.00     0.010 A 
ATOM     39  C   UNL A   1      41.671  27.533  28.889  1.00  0.00     0.010 A 
ATOM     40  C   UNL A   1      40.583  27.624  29.776  1.00  0.00    -0.014 A 
BRANCH  40  41
ATOM     41  C   UNL A   1      40.525  28.691  30.802  1.00  0.00     0.031 A 
ATOM     42  C   UNL A   1      41.481  28.658  31.959  1.00  0.00     0.074 A 
ATOM     43  C   UNL A   1      39.638  29.695  30.675  1.00  0.00     0.049 A 
ATOM     44  N   UNL A   1      41.522  29.422  33.019  1.00  0.00    -0.248 NA
ATOM     45  C   UNL A   1      42.531  27.628  31.918  1.00  0.00     0.031 C 
ATOM     46  C   UNL A   1      38.707  29.862  29.556  1.00  0.00     0.029 A 
ATOM     47  N   UNL A   1      39.375  30.764  31.491  1.00  0.00    -0.354 N 
ATOM     48  C   UNL A   1      42.580  28.951  33.785  1.00  0.00     0.074 A 
ATOM     49  C   UNL A   1      43.150  27.826  33.074  1.00  0.00     0.031 C 
ATOM     50  C   UNL A   1      37.976  30.971  29.757  1.00  0.00     0.029 A 
ATOM     51  C   UNL A   1      38.347  31.558  31.042  1.00  0.00     0.049 A 
ATOM     52  H   UNL A   1      39.875  30.946  32.321  1.00  0.00     0.167 HD
ATOM     53  C   UNL A   1      43.031  29.417  34.974  1.00  0.00     0.037 A 
ATOM     54  C   UNL A   1      37.749  32.618  31.619  1.00  0.00     0.037 A 
ATOM     55  C   UNL A   1      42.465  30.549  35.660  1.00  0.00     0.049 A 
ATOM     56  C   UNL A   1      38.230  33.079  32.967  1.00  0.00     0.074 A 
ATOM     57  C   UNL A   1      42.842  31.098  36.873  1.00  0.00     0.029 A 
ATOM     58  N   UNL A   1      41.404  31.309  35.189  1.00  0.00    -0.354 N 
ATOM     59  N   UNL A   1      39.205  32.599  33.703  1.00  0.00    -0.248 NA
ATOM     60  C   UNL A   1      37.524  34.218  33.570  1.00  0.00     0.031 C 
ATOM     61  C   UNL A   1      41.986  32.170  37.151  1.00  0.00     0.029 A 
ATOM     62  C   UNL A   1      41.103  32.315  36.092  1.00  0.00     0.049 A 
ATOM     63  H   UNL A   1      40.934  31.156  34.338  1.00  0.00     0.167 HD
ATOM     64  C   UNL A   1      39.242  33.389  34.846  1.00  0.00     0.074 A 
ATOM     65  C   UNL A   1      38.199  34.385  34.699  1.00  0.00     0.031 C 
ATOM     66  C   UNL A   1      40.063  33.299  35.921  1.00  0.00     0.037 A 
BRANCH  53  67
ATOM     67  C   UNL A   1      44.171  28.680  35.620  1.00  0.00     0.058 A 
ATOM     68  C   UNL A   1      45.510  29.017  35.369  1.00  0.00     0.135 A 
ATOM     69  C   UNL A   1      43.918  27.631  36.520  1.00  0.00     0.135 A 
ATOM     70  F   UNL A   1      45.809  29.998  34.502  1.00  0.00    -0.206 F 
ATOM     71  C   UNL A   1      46.559  28.324  35.967  1.00  0.00     0.059 A 
ATOM     72  C   UNL A   1      44.950  26.940  37.146  1.00  0.00     0.059 A 
ATOM     73  F   UNL A   1      42.656  27.265  36.793  1.00  0.00    -0.206 F 
ATOM     74  C   UNL A   1      46.269  27.284  36.852  1.00  0.00     0.060 A 
BRANCH  74  75
ATOM     75  S   UNL A   1      47.638  26.389  37.617  1.00  0.00     0.124 S 
ATOM     76  O   UNL A   1      47.187  26.298  39.002  1.00  0.00    -0.237 OA
ATOM     77  O   UNL A   1      47.649  25.135  36.871  1.00  0.00    -0.237 OA
ATOM     78  O   UNL A   1      48.785  27.262  37.388  1.00  0.00    -0.744 OA
ENDBRANCH  74  75
ENDBRANCH  53  67
BRANCH  54  79
ATOM     79  C   UNL A   1      36.614  33.292  30.935  1.00  0.00     0.058 A 
ATOM     80  C   UNL A   1      35.299  33.133  31.392  1.00  0.00     0.135 A 
ATOM     81  C   UNL A   1      36.826  34.122  29.823  1.00  0.00     0.135 A 
ATOM     82  F   UNL A   1      35.045  32.341  32.445  1.00  0.00    -0.206 F 
ATOM     83  C   UNL A   1      34.229  33.766  30.766  1.00  0.00     0.059 A 
ATOM     84  C   UNL A   1      35.777  34.786  29.195  1.00  0.00     0.059 A 
ATOM     85  F   UNL A   1      38.068  34.314  29.353  1.00  0.00    -0.206 F 
ATOM     86  C   UNL A   1      34.480  34.594  29.669  1.00  0.00     0.060 A 
BRANCH  86  87
ATOM     87  S   UNL A   1      33.093  35.453  28.894  1.00  0.00     0.124 S 
ATOM     88  O   UNL A   1      32.341  35.906  30.059  1.00  0.00    -0.237 OA
ATOM     89  O   UNL A   1      33.767  36.495  28.124  1.00  0.00    -0.237 OA
ATOM     90  O   UNL A   1      32.456  34.410  28.097  1.00  0.00    -0.744 OA
ENDBRANCH  86  87
ENDBRANCH  54  79
BRANCH  66  91
ATOM     91  C   UNL A   1      39.887  34.323  37.006  1.00  0.00     0.058 A 
ATOM     92  C   UNL A   1      40.468  35.597  36.915  1.00  0.00     0.135 A 
ATOM     93  C   UNL A   1      39.089  34.042  38.125  1.00  0.00     0.135 A 
ATOM     94  F   UNL A   1      41.246  35.912  35.867  1.00  0.00    -0.206 F 
ATOM     95  C   UNL A   1      40.280  36.551  37.910  1.00  0.00     0.059 A 
ATOM     96  C   UNL A   1      38.868  34.988  39.120  1.00  0.00     0.059 A 
ATOM     97  F   UNL A   1      38.504  32.840  38.254  1.00  0.00    -0.206 F 
ATOM     98  C   UNL A   1      39.479  36.237  39.009  1.00  0.00     0.060 A 
BRANCH  98  99
ATOM     99  S   UNL A   1      39.214  37.494  40.277  1.00  0.00     0.124 S 
ATOM    100  O   UNL A   1      38.660  36.699  41.368  1.00  0.00    -0.237 OA
ATOM    101  O   UNL A   1      40.561  38.014  40.492  1.00  0.00    -0.237 OA
ATOM    102  O   UNL A   1      38.286  38.425  39.643  1.00  0.00    -0.744 OA
ENDBRANCH  98  99
ENDBRANCH  66  91
ENDBRANCH  40  41
ENDBRANCH  33  35
ENDBRANCH  32  33
ENDBRANCH  31  32
ENDBRANCH  30  31
ENDBRANCH  29  30
ENDBRANCH  27  29
ENDBRANCH   1  27
TORSDOF 23
ENDMDL
MODEL 2
REMARK VINA RESULT:     -10.2      6.407     11.771
REMARK SMILES CCCCCCNC(=O)Oc1cccc(-c2ccc([C@H](C)C(=O)OCCOC(=O)c3ccc(-c4c5nc(c(-c6c(F)cc(S(=O)(=O)[O-])cc6F)c6ccc([nH]6)c(-c6c(F)cc(S(=O)(=O)[O-])cc6F)c6nc(c(-c7c(F)cc(S(=O)(=O)[O-])cc7F)c7ccc4[nH]7)C=C6)C=C5)cc3)cc2F)c1
REMARK SMILES IDX 20 1 21 2 19 3 16 4 17 5 97 6 18 7 96 8 98 9 15 10 11 11
REMARK SMILES IDX 12 12 99 13 13 14 14 15 10 16 8 17 7 18 9 20 6 21 5 22 4 23
REMARK SMILES IDX 3 24 2 25 1 26 22 27 23 28 24 29 25 30 26 31 27 32 28 33
REMARK SMILES IDX 29 34 30 35 31 36 95 37 32 38 94 39 33 40 34 41 35 42 88 43
REMARK SMILES IDX 36 44 93 45 87 46 89 47 37 48 92 49 86 50 85 51 38 53 72 54
REMARK SMILES IDX 51 55 71 56 52 57 55 58 70 59 90 60 53 61 54 62 69 64 91 65
REMARK SMILES IDX 56 66 39 67 40 68 49 69 41 70 42 71 48 72 50 73 43 74 44 75
REMARK SMILES IDX 45 76 46 77 47 78 73 79 74 80 83 81 75 82 76 83 82 84 84 85
REMARK SMILES IDX 77 86 78 87 79 88 80 89 81 90 57 91 58 92 67 93 59 94 60 95
REMARK SMILES IDX 66 96 68 97 61 98 62 99 63 100 64 101 65 102
REMARK H PARENT 7 19 89 52 55 63
REMARK Flexibility Score: inf
ROOT
ATOM      1  C   UNL A   1      35.180  33.823  28.782  1.00  0.00     0.126 C 
ATOM      2  C   UNL A   1      36.678  33.799  28.495  1.00  0.00     0.025 C 
ENDROOT
BRANCH   1   3
ATOM      3  C   UNL A   1      34.450  32.614  28.241  1.00  0.00    -0.031 A 
ATOM      4  C   UNL A   1      33.197  30.376  27.063  1.00  0.00     0.018 A 
ATOM      5  C   UNL A   1      32.568  31.630  27.073  1.00  0.00     0.012 A 
ATOM      6  C   UNL A   1      34.455  30.264  27.668  1.00  0.00     0.131 A 
ATOM      7  C   UNL A   1      33.185  32.736  27.655  1.00  0.00     0.005 A 
ATOM      8  C   UNL A   1      35.081  31.362  28.246  1.00  0.00     0.044 A 
ATOM      9  F   UNL A   1      35.095  29.084  27.691  1.00  0.00    -0.206 F 
BRANCH   4  10
ATOM     10  C   UNL A   1      32.538  29.221  26.453  1.00  0.00    -0.012 A 
ATOM     11  C   UNL A   1      32.017  27.900  24.494  1.00  0.00     0.133 A 
ATOM     12  C   UNL A   1      31.309  26.984  25.266  1.00  0.00     0.047 A 
ATOM     13  C   UNL A   1      32.606  29.024  25.070  1.00  0.00     0.056 A 
ATOM     14  C   UNL A   1      31.220  27.178  26.643  1.00  0.00     0.004 A 
ATOM     15  C   UNL A   1      31.835  28.286  27.232  1.00  0.00     0.009 A 
BRANCH  11  16
ATOM     16  O   UNL A   1      32.016  27.719  23.105  1.00  0.00    -0.410 OA
BRANCH  16  17
ATOM     17  C   UNL A   1      33.241  27.500  22.491  1.00  0.00     0.412 C 
ATOM     18  N   UNL A   1      33.465  26.183  22.204  1.00  0.00    -0.321 N 
ATOM     19  H   UNL A   1      34.325  25.963  21.776  1.00  0.00     0.167 HD
ATOM     20  O   UNL A   1      34.080  28.351  22.220  1.00  0.00    -0.224 OA
BRANCH  18  21
ATOM     21  C   UNL A   1      32.569  25.078  22.467  1.00  0.00     0.119 C 
BRANCH  21  22
ATOM     22  C   UNL A   1      33.310  23.745  22.560  1.00  0.00     0.021 C 
BRANCH  22  23
ATOM     23  C   UNL A   1      32.409  22.508  22.662  1.00  0.00     0.002 C 
BRANCH  23  24
ATOM     24  C   UNL A   1      32.952  21.362  23.524  1.00  0.00    -0.000 C 
BRANCH  24  25
ATOM     25  C   UNL A   1      33.730  21.791  24.771  1.00  0.00    -0.003 C 
ATOM     26  C   UNL A   1      34.474  20.645  25.438  1.00  0.00     0.004 C 
ENDBRANCH  24  25
ENDBRANCH  23  24
ENDBRANCH  22  23
ENDBRANCH  21  22
ENDBRANCH  18  21
ENDBRANCH  16  17
ENDBRANCH  11  16
ENDBRANCH   4  10
ENDBRANCH   1   3
BRANCH   1  27
ATOM     27  C   UNL A   1      34.801  34.037  30.245  1.00  0.00     0.313 C 
ATOM     28  O   UNL A   1      33.647  34.247  30.606  1.00  0.00    -0.252 OA
BRANCH  27  29
ATOM     29  O   UNL A   1      35.859  33.916  31.092  1.00  0.00    -0.462 OA
BRANCH  29  30
ATOM     30  C   UNL A   1      35.711  32.939  32.138  1.00  0.00     0.274 C 
BRANCH  30  31
ATOM     31  C   UNL A   1      37.068  32.465  32.666  1.00  0.00     0.275 C 
BRANCH  31  32
ATOM     32  O   UNL A   1      37.083  31.049  32.928  1.00  0.00    -0.458 OA
BRANCH  32  33
ATOM     33  C   UNL A   1      37.021  30.264  31.828  1.00  0.00     0.338 C 
ATOM     34  O   UNL A   1      36.017  29.826  31.291  1.00  0.00    -0.246 OA
BRANCH  33  35
ATOM     35  C   UNL A   1      38.363  30.094  31.256  1.00  0.00     0.060 A 
ATOM     36  C   UNL A   1      38.531  30.327  29.889  1.00  0.00     0.016 A 
ATOM     37  C   UNL A   1      39.417  29.603  32.025  1.00  0.00     0.016 A 
ATOM     38  C   UNL A   1      39.746  30.055  29.273  1.00  0.00     0.010 A 
ATOM     39  C   UNL A   1      40.645  29.343  31.408  1.00  0.00     0.010 A 
ATOM     40  C   UNL A   1      40.810  29.553  30.027  1.00  0.00    -0.014 A 
BRANCH  40  41
ATOM     41  C   UNL A   1      42.078  29.196  29.350  1.00  0.00     0.031 A 
ATOM     42  C   UNL A   1      42.259  27.811  28.798  1.00  0.00     0.074 A 
ATOM     43  C   UNL A   1      43.045  30.122  29.207  1.00  0.00     0.049 A 
ATOM     44  N   UNL A   1      43.325  27.262  28.278  1.00  0.00    -0.248 NA
ATOM     45  C   UNL A   1      41.084  26.927  28.839  1.00  0.00     0.031 C 
ATOM     46  C   UNL A   1      42.950  31.516  29.646  1.00  0.00     0.029 A 
ATOM     47  N   UNL A   1      44.296  30.030  28.654  1.00  0.00    -0.354 N 
ATOM     48  C   UNL A   1      42.961  25.961  27.954  1.00  0.00     0.074 A 
ATOM     49  C   UNL A   1      41.577  25.799  28.347  1.00  0.00     0.031 C 
ATOM     50  C   UNL A   1      44.094  32.149  29.342  1.00  0.00     0.029 A 
ATOM     51  C   UNL A   1      45.021  31.194  28.741  1.00  0.00     0.049 A 
ATOM     52  H   UNL A   1      44.641  29.208  28.234  1.00  0.00     0.167 HD
ATOM     53  C   UNL A   1      43.716  24.994  27.382  1.00  0.00     0.037 A 
ATOM     54  C   UNL A   1      46.300  31.450  28.406  1.00  0.00     0.037 A 
ATOM     55  C   UNL A   1      45.087  25.177  26.979  1.00  0.00     0.049 A 
ATOM     56  C   UNL A   1      47.136  30.342  27.827  1.00  0.00     0.074 A 
ATOM     57  C   UNL A   1      45.945  24.260  26.399  1.00  0.00     0.029 A 
ATOM     58  N   UNL A   1      45.798  26.362  27.112  1.00  0.00    -0.354 N 
ATOM     59  N   UNL A   1      46.794  29.103  27.565  1.00  0.00    -0.248 NA
ATOM     60  C   UNL A   1      48.534  30.663  27.510  1.00  0.00     0.031 C 
ATOM     61  C   UNL A   1      47.185  24.881  26.211  1.00  0.00     0.029 A 
ATOM     62  C   UNL A   1      47.088  26.197  26.637  1.00  0.00     0.049 A 
ATOM     63  H   UNL A   1      45.438  27.197  27.490  1.00  0.00     0.167 HD
ATOM     64  C   UNL A   1      47.928  28.501  27.033  1.00  0.00     0.074 A 
ATOM     65  C   UNL A   1      48.963  29.515  27.001  1.00  0.00     0.031 C 
ATOM     66  C   UNL A   1      48.099  27.223  26.610  1.00  0.00     0.037 A 
BRANCH  53  67
ATOM     67  C   UNL A   1      43.085  23.643  27.190  1.00  0.00     0.058 A 
ATOM     68  C   UNL A   1      42.984  22.715  28.237  1.00  0.00     0.135 A 
ATOM     69  C   UNL A   1      42.556  23.280  25.940  1.00  0.00     0.135 A 
ATOM     70  F   UNL A   1      43.490  23.005  29.447  1.00  0.00    -0.206 F 
ATOM     71  C   UNL A   1      42.403  21.465  28.048  1.00  0.00     0.059 A 
ATOM     72  C   UNL A   1      41.951  22.044  25.734  1.00  0.00     0.059 A 
ATOM     73  F   UNL A   1      42.630  24.128  24.902  1.00  0.00    -0.206 F 
ATOM     74  C   UNL A   1      41.893  21.136  26.791  1.00  0.00     0.060 A 
BRANCH  74  75
ATOM     75  S   UNL A   1      41.147  19.509  26.556  1.00  0.00     0.124 S 
ATOM     76  O   UNL A   1      40.900  19.101  27.935  1.00  0.00    -0.237 OA
ATOM     77  O   UNL A   1      39.960  19.819  25.766  1.00  0.00    -0.237 OA
ATOM     78  O   UNL A   1      42.184  18.757  25.856  1.00  0.00    -0.744 OA
ENDBRANCH  74  75
ENDBRANCH  53  67
BRANCH  54  79
ATOM     79  C   UNL A   1      46.870  32.803  28.639  1.00  0.00     0.058 A 
ATOM     80  C   UNL A   1      46.930  33.749  27.606  1.00  0.00     0.135 A 
ATOM     81  C   UNL A   1      47.348  33.182  29.903  1.00  0.00     0.135 A 
ATOM     82  F   UNL A   1      46.494  33.430  26.377  1.00  0.00    -0.206 F 
ATOM     83  C   UNL A   1      47.452  35.022  27.814  1.00  0.00     0.059 A 
ATOM     84  C   UNL A   1      47.852  34.457  30.143  1.00  0.00     0.059 A 
ATOM     85  F   UNL A   1      47.303  32.316  30.927  1.00  0.00    -0.206 F 
ATOM     86  C   UNL A   1      47.909  35.367  29.088  1.00  0.00     0.060 A 
BRANCH  86  87
ATOM     87  S   UNL A   1      48.537  37.038  29.364  1.00  0.00     0.124 S 
ATOM     88  O   UNL A   1      47.428  37.852  28.878  1.00  0.00    -0.237 OA
ATOM     89  O   UNL A   1      48.757  37.052  30.806  1.00  0.00    -0.237 OA
ATOM     90  O   UNL A   1      49.751  37.076  28.553  1.00  0.00    -0.744 OA
ENDBRANCH  86  87
ENDBRANCH  54  79
BRANCH  66  91
ATOM     91  C   UNL A   1      49.445  26.862  26.047  1.00  0.00     0.058 A 
ATOM     92  C   UNL A   1      49.793  27.166  24.722  1.00  0.00     0.135 A 
ATOM     93  C   UNL A   1      50.412  26.250  26.858  1.00  0.00     0.135 A 
ATOM     94  F   UNL A   1      48.899  27.746  23.905  1.00  0.00    -0.206 F 
ATOM     95  C   UNL A   1      51.049  26.854  24.214  1.00  0.00     0.059 A 
ATOM     96  C   UNL A   1      51.682  25.950  26.378  1.00  0.00     0.059 A 
ATOM     97  F   UNL A   1      50.131  25.948  28.136  1.00  0.00    -0.206 F 
ATOM     98  C   UNL A   1      51.988  26.245  25.050  1.00  0.00     0.060 A 
BRANCH  98  99
ATOM     99  S   UNL A   1      53.626  25.874  24.390  1.00  0.00     0.124 S 
ATOM    100  O   UNL A   1      53.444  26.166  22.972  1.00  0.00    -0.237 OA
ATOM    101  O   UNL A   1      54.480  26.803  25.124  1.00  0.00    -0.237 OA
ATOM    102  O   UNL A   1      53.815  24.466  24.723  1.00  0.00    -0.744 OA
ENDBRANCH  98  99
ENDBRANCH  66  91
ENDBRANCH  40  41
ENDBRANCH  33  35
ENDBRANCH  32  33
ENDBRANCH  31  32
ENDBRANCH  30  31
ENDBRANCH  29  30
ENDBRANCH  27  29
ENDBRANCH   1  27
TORSDOF 23
ENDMDL
MODEL 3
REMARK VINA RESULT:     -10.2      6.567     11.796
REMARK SMILES CCCCCCNC(=O)Oc1cccc(-c2ccc([C@H](C)C(=O)OCCOC(=O)c3ccc(-c4c5nc(c(-c6c(F)cc(S(=O)(=O)[O-])cc6F)c6ccc([nH]6)c(-c6c(F)cc(S(=O)(=O)[O-])cc6F)c6nc(c(-c7c(F)cc(S(=O)(=O)[O-])cc7F)c7ccc4[nH]7)C=C6)C=C5)cc3)cc2F)c1
REMARK SMILES IDX 20 1 21 2 19 3 16 4 17 5 97 6 18 7 96 8 98 9 15 10 11 11
REMARK SMILES IDX 12 12 99 13 13 14 14 15 10 16 8 17 7 18 9 20 6 21 5 22 4 23
REMARK SMILES IDX 3 24 2 25 1 26 22 27 23 28 24 29 25 30 26 31 27 32 28 33
REMARK SMILES IDX 29 34 30 35 31 36 95 37 32 38 94 39 33 40 34 41 35 42 88 43
REMARK SMILES IDX 36 44 93 45 87 46 89 47 37 48 92 49 86 50 85 51 38 53 72 54
REMARK SMILES IDX 51 55 71 56 52 57 55 58 70 59 90 60 53 61 54 62 69 64 91 65
REMARK SMILES IDX 56 66 39 67 40 68 49 69 41 70 42 71 48 72 50 73 43 74 44 75
REMARK SMILES IDX 45 76 46 77 47 78 73 79 74 80 83 81 75 82 76 83 82 84 84 85
REMARK SMILES IDX 77 86 78 87 79 88 80 89 81 90 57 91 58 92 67 93 59 94 60 95
REMARK SMILES IDX 66 96 68 97 61 98 62 99 63 100 64 101 65 102
REMARK H PARENT 7 19 89 52 55 63
REMARK Flexibility Score: inf
ROOT
ATOM      1  C   UNL A   1      35.396  33.750  29.011  1.00  0.00     0.126 C 
ATOM      2  C   UNL A   1      36.909  33.549  29.040  1.00  0.00     0.025 C 
ENDROOT
BRANCH   1   3
ATOM      3  C   UNL A   1      34.666  32.665  28.250  1.00  0.00    -0.031 A 
ATOM      4  C   UNL A   1      33.211  30.595  27.002  1.00  0.00     0.018 A 
ATOM      5  C   UNL A   1      34.535  30.392  27.419  1.00  0.00     0.012 A 
ATOM      6  C   UNL A   1      32.639  31.857  27.209  1.00  0.00     0.131 A 
ATOM      7  C   UNL A   1      35.256  31.414  28.034  1.00  0.00     0.005 A 
ATOM      8  C   UNL A   1      33.348  32.880  27.827  1.00  0.00     0.044 A 
ATOM      9  F   UNL A   1      31.377  32.103  26.823  1.00  0.00    -0.206 F 
BRANCH   4  10
ATOM     10  C   UNL A   1      32.465  29.517  26.353  1.00  0.00    -0.012 A 
ATOM     11  C   UNL A   1      31.761  27.202  26.285  1.00  0.00     0.133 A 
ATOM     12  C   UNL A   1      31.006  27.438  25.140  1.00  0.00     0.047 A 
ATOM     13  C   UNL A   1      32.507  28.220  26.877  1.00  0.00     0.056 A 
ATOM     14  C   UNL A   1      30.968  28.721  24.600  1.00  0.00     0.004 A 
ATOM     15  C   UNL A   1      31.689  29.754  25.206  1.00  0.00     0.009 A 
BRANCH  11  16
ATOM     16  O   UNL A   1      31.842  25.884  26.753  1.00  0.00    -0.410 OA
BRANCH  16  17
ATOM     17  C   UNL A   1      31.696  24.868  25.820  1.00  0.00     0.412 C 
ATOM     18  N   UNL A   1      32.891  24.378  25.373  1.00  0.00    -0.321 N 
ATOM     19  H   UNL A   1      32.851  23.660  24.701  1.00  0.00     0.167 HD
ATOM     20  O   UNL A   1      30.638  24.420  25.394  1.00  0.00    -0.224 OA
BRANCH  18  21
ATOM     21  C   UNL A   1      34.209  24.809  25.787  1.00  0.00     0.119 C 
BRANCH  21  22
ATOM     22  C   UNL A   1      35.313  23.932  25.198  1.00  0.00     0.021 C 
BRANCH  22  23
ATOM     23  C   UNL A   1      34.821  22.759  24.341  1.00  0.00     0.002 C 
BRANCH  23  24
ATOM     24  C   UNL A   1      35.405  21.388  24.700  1.00  0.00    -0.000 C 
BRANCH  24  25
ATOM     25  C   UNL A   1      34.376  20.286  24.968  1.00  0.00    -0.003 C 
ATOM     26  C   UNL A   1      32.971  20.819  25.199  1.00  0.00     0.004 C 
ENDBRANCH  24  25
ENDBRANCH  23  24
ENDBRANCH  22  23
ENDBRANCH  21  22
ENDBRANCH  18  21
ENDBRANCH  16  17
ENDBRANCH  11  16
ENDBRANCH   4  10
ENDBRANCH   1   3
BRANCH   1  27
ATOM     27  C   UNL A   1      34.741  33.948  30.375  1.00  0.00     0.313 C 
ATOM     28  O   UNL A   1      33.545  34.190  30.506  1.00  0.00    -0.252 OA
BRANCH  27  29
ATOM     29  O   UNL A   1      35.605  33.775  31.411  1.00  0.00    -0.462 OA
BRANCH  29  30
ATOM     30  C   UNL A   1      35.514  32.511  32.095  1.00  0.00     0.274 C 
BRANCH  30  31
ATOM     31  C   UNL A   1      36.898  31.945  32.425  1.00  0.00     0.275 C 
BRANCH  31  32
ATOM     32  O   UNL A   1      36.875  30.513  32.576  1.00  0.00    -0.458 OA
BRANCH  32  33
ATOM     33  C   UNL A   1      36.876  29.816  31.416  1.00  0.00     0.338 C 
ATOM     34  O   UNL A   1      35.905  29.384  30.815  1.00  0.00    -0.246 OA
BRANCH  33  35
ATOM     35  C   UNL A   1      38.239  29.743  30.874  1.00  0.00     0.060 A 
ATOM     36  C   UNL A   1      38.424  30.010  29.516  1.00  0.00     0.016 A 
ATOM     37  C   UNL A   1      39.304  29.308  31.661  1.00  0.00     0.016 A 
ATOM     38  C   UNL A   1      39.668  29.828  28.925  1.00  0.00     0.010 A 
ATOM     39  C   UNL A   1      40.561  29.138  31.071  1.00  0.00     0.010 A 
ATOM     40  C   UNL A   1      40.744  29.382  29.698  1.00  0.00    -0.014 A 
BRANCH  40  41
ATOM     41  C   UNL A   1      42.048  29.119  29.046  1.00  0.00     0.031 A 
ATOM     42  C   UNL A   1      42.336  27.755  28.488  1.00  0.00     0.074 A 
ATOM     43  C   UNL A   1      42.951  30.110  28.933  1.00  0.00     0.049 A 
ATOM     44  N   UNL A   1      43.448  27.286  27.988  1.00  0.00    -0.248 NA
ATOM     45  C   UNL A   1      41.224  26.792  28.496  1.00  0.00     0.031 C 
ATOM     46  C   UNL A   1      42.751  31.491  29.379  1.00  0.00     0.029 A 
ATOM     47  N   UNL A   1      44.217  30.110  28.407  1.00  0.00    -0.354 N 
ATOM     48  C   UNL A   1      43.182  25.966  27.646  1.00  0.00     0.074 A 
ATOM     49  C   UNL A   1      41.804  25.705  28.007  1.00  0.00     0.031 C 
ATOM     50  C   UNL A   1      43.855  32.204  29.106  1.00  0.00     0.029 A 
ATOM     51  C   UNL A   1      44.859  31.320  28.519  1.00  0.00     0.049 A 
ATOM     52  H   UNL A   1      44.628  29.318  27.989  1.00  0.00     0.167 HD
ATOM     53  C   UNL A   1      44.015  25.058  27.083  1.00  0.00     0.037 A 
ATOM     54  C   UNL A   1      46.124  31.667  28.215  1.00  0.00     0.037 A 
ATOM     55  C   UNL A   1      45.378  25.339  26.713  1.00  0.00     0.049 A 
ATOM     56  C   UNL A   1      47.047  30.625  27.646  1.00  0.00     0.074 A 
ATOM     57  C   UNL A   1      46.309  24.488  26.144  1.00  0.00     0.029 A 
ATOM     58  N   UNL A   1      46.002  26.569  26.871  1.00  0.00    -0.354 N 
ATOM     59  N   UNL A   1      46.797  29.367  27.366  1.00  0.00    -0.248 NA
ATOM     60  C   UNL A   1      48.427  31.043  27.362  1.00  0.00     0.031 C 
ATOM     61  C   UNL A   1      47.507  25.195  25.989  1.00  0.00     0.029 A 
ATOM     62  C   UNL A   1      47.310  26.497  26.423  1.00  0.00     0.049 A 
ATOM     63  H   UNL A   1      45.577  27.373  27.246  1.00  0.00     0.167 HD
ATOM     64  C   UNL A   1      47.981  28.850  26.856  1.00  0.00     0.074 A 
ATOM     65  C   UNL A   1      48.944  29.933  26.855  1.00  0.00     0.031 C 
ATOM     66  C   UNL A   1      48.249  27.591  26.427  1.00  0.00     0.037 A 
BRANCH  53  67
ATOM     67  C   UNL A   1      43.482  23.669  26.866  1.00  0.00     0.058 A 
ATOM     68  C   UNL A   1      43.090  23.214  25.598  1.00  0.00     0.135 A 
ATOM     69  C   UNL A   1      43.379  22.774  27.944  1.00  0.00     0.135 A 
ATOM     70  F   UNL A   1      43.150  24.036  24.537  1.00  0.00    -0.206 F 
ATOM     71  C   UNL A   1      42.591  21.929  25.408  1.00  0.00     0.059 A 
ATOM     72  C   UNL A   1      42.904  21.477  27.773  1.00  0.00     0.059 A 
ATOM     73  F   UNL A   1      43.735  23.158  29.179  1.00  0.00    -0.206 F 
ATOM     74  C   UNL A   1      42.499  21.068  26.503  1.00  0.00     0.060 A 
BRANCH  74  75
ATOM     75  S   UNL A   1      41.845  19.404  26.246  1.00  0.00     0.124 S 
ATOM     76  O   UNL A   1      42.270  18.733  27.470  1.00  0.00    -0.237 OA
ATOM     77  O   UNL A   1      40.411  19.646  26.122  1.00  0.00    -0.237 OA
ATOM     78  O   UNL A   1      42.511  18.962  25.025  1.00  0.00    -0.744 OA
ENDBRANCH  74  75
ENDBRANCH  53  67
BRANCH  54  79
ATOM     79  C   UNL A   1      46.594  33.054  28.471  1.00  0.00     0.058 A 
ATOM     80  C   UNL A   1      47.186  33.402  29.693  1.00  0.00     0.135 A 
ATOM     81  C   UNL A   1      46.479  34.052  27.491  1.00  0.00     0.135 A 
ATOM     82  F   UNL A   1      47.309  32.484  30.665  1.00  0.00    -0.206 F 
ATOM     83  C   UNL A   1      47.639  34.694  29.941  1.00  0.00     0.059 A 
ATOM     84  C   UNL A   1      46.946  35.345  27.705  1.00  0.00     0.059 A 
ATOM     85  F   UNL A   1      45.929  33.766  26.300  1.00  0.00    -0.206 F 
ATOM     86  C   UNL A   1      47.517  35.659  28.938  1.00  0.00     0.060 A 
BRANCH  86  87
ATOM     87  S   UNL A   1      48.154  37.320  29.247  1.00  0.00     0.124 S 
ATOM     88  O   UNL A   1      48.990  37.537  28.071  1.00  0.00    -0.237 OA
ATOM     89  O   UNL A   1      46.930  38.113  29.316  1.00  0.00    -0.237 OA
ATOM     90  O   UNL A   1      48.869  37.174  30.512  1.00  0.00    -0.744 OA
ENDBRANCH  86  87
ENDBRANCH  54  79
BRANCH  66  91
ATOM     91  C   UNL A   1      49.628  27.328  25.892  1.00  0.00     0.058 A 
ATOM     92  C   UNL A   1      50.674  26.908  26.728  1.00  0.00     0.135 A 
ATOM     93  C   UNL A   1      49.892  27.452  24.519  1.00  0.00     0.135 A 
ATOM     94  F   UNL A   1      50.473  26.781  28.049  1.00  0.00    -0.206 F 
ATOM     95  C   UNL A   1      51.942  26.641  26.223  1.00  0.00     0.059 A 
ATOM     96  C   UNL A   1      51.146  27.168  23.989  1.00  0.00     0.059 A 
ATOM     97  F   UNL A   1      48.922  27.842  23.676  1.00  0.00    -0.206 F 
ATOM     98  C   UNL A   1      52.169  26.774  24.851  1.00  0.00     0.060 A 
BRANCH  98  99
ATOM     99  S   UNL A   1      53.809  26.392  24.202  1.00  0.00     0.124 S 
ATOM    100  O   UNL A   1      54.390  27.724  24.071  1.00  0.00    -0.237 OA
ATOM    101  O   UNL A   1      54.376  25.553  25.252  1.00  0.00    -0.237 OA
ATOM    102  O   UNL A   1      53.524  25.703  22.946  1.00  0.00    -0.744 OA
ENDBRANCH  98  99
ENDBRANCH  66  91
ENDBRANCH  40  41
ENDBRANCH  33  35
ENDBRANCH  32  33
ENDBRANCH  31  32
ENDBRANCH  30  31
ENDBRANCH  29  30
ENDBRANCH  27  29
ENDBRANCH   1  27
TORSDOF 23
ENDMDL
