MODEL 1
REMARK VINA RESULT:     -12.9      0.000      0.000
REMARK SMILES NS(=O)(=O)c1ccc(-n2nc(C(=O)OCCOC(=O)c3ccc(-c4c5nc(c(-c6c(F)cc(S(=O)(=O)[O-])cc6F)c6ccc([nH]6)c(-c6c(F)cc(S(=O)(=O)[O-])cc6F)c6nc(c(-c7c(F)cc(S(=O)(=O)[O-])cc7F)c7ccc4[nH]7)C=C6)C=C5)cc3)cc2-c2cc3ccccc3s2)cc1
REMARK SMILES IDX 15 1 14 2 12 3 13 4 11 5 9 6 10 7 87 8 86 9 8 10 5 11 6 12
REMARK SMILES IDX 98 13 7 14 97 15 2 16 3 17 4 18 1 19 88 22 89 23 96 24 90 25
REMARK SMILES IDX 95 26 91 27 94 28 92 29 93 30 16 31 17 32 18 33 19 34 20 35
REMARK SMILES IDX 21 36 85 37 22 38 84 39 23 40 24 41 25 42 78 43 26 44 83 45
REMARK SMILES IDX 77 46 79 47 27 48 82 49 76 50 75 51 28 53 62 54 41 55 61 56
REMARK SMILES IDX 42 57 45 58 60 59 80 60 43 61 44 62 59 64 81 65 46 66 29 67
REMARK SMILES IDX 30 68 39 69 31 70 32 71 38 72 40 73 33 74 34 75 35 76 36 77
REMARK SMILES IDX 37 78 63 79 64 80 73 81 65 82 66 83 72 84 74 85 67 86 68 87
REMARK SMILES IDX 69 88 70 89 71 90 47 91 48 92 57 93 49 94 50 95 56 96 58 97
REMARK SMILES IDX 51 98 52 99 53 100 54 101 55 102
REMARK H PARENT 1 20 1 21 79 52 45 63
REMARK Flexibility Score: inf
ROOT
ATOM      1  C   UNL A   1      40.757  19.898  26.807  1.00  0.00     0.275 C 
ENDROOT
BRANCH   1   2
ATOM      2  O   UNL A   1      39.756  20.361  25.890  1.00  0.00    -0.457 OA
BRANCH   2   3
ATOM      3  C   UNL A   1      39.343  21.666  26.036  1.00  0.00     0.358 C 
ATOM      4  O   UNL A   1      40.004  22.531  26.602  1.00  0.00    -0.244 OA
BRANCH   3   5
ATOM      5  C   UNL A   1      38.015  21.876  25.443  1.00  0.00     0.171 A 
ATOM      6  N   UNL A   1      36.146  22.819  25.029  1.00  0.00    -0.231 N 
ATOM      7  N   UNL A   1      37.478  23.077  25.155  1.00  0.00    -0.160 NA
ATOM      8  C   UNL A   1      35.868  21.496  25.293  1.00  0.00     0.085 A 
ATOM      9  C   UNL A   1      37.086  20.856  25.155  1.00  0.00     0.068 A 
BRANCH   6  10
ATOM     10  C   UNL A   1      35.265  23.878  24.741  1.00  0.00     0.065 A 
ATOM     11  C   UNL A   1      33.594  25.991  24.090  1.00  0.00     0.082 A 
ATOM     12  C   UNL A   1      34.016  25.821  25.414  1.00  0.00     0.024 A 
ATOM     13  C   UNL A   1      33.996  25.103  23.088  1.00  0.00     0.024 A 
ATOM     14  C   UNL A   1      34.837  24.744  25.748  1.00  0.00     0.030 A 
ATOM     15  C   UNL A   1      34.864  24.060  23.409  1.00  0.00     0.030 A 
BRANCH  11  16
ATOM     16  S   UNL A   1      32.516  27.317  23.643  1.00  0.00     0.238 S 
ATOM     17  O   UNL A   1      33.231  28.561  23.746  1.00  0.00    -0.207 OA
ATOM     18  O   UNL A   1      31.225  27.091  24.259  1.00  0.00    -0.207 OA
BRANCH  16  19
ATOM     19  N   UNL A   1      32.258  27.105  21.990  1.00  0.00    -0.225 NA
ATOM     20  H   UNL A   1      31.844  26.188  21.827  1.00  0.00     0.137 HD
ATOM     21  H   UNL A   1      33.148  27.170  21.497  1.00  0.00     0.137 HD
ENDBRANCH  16  19
ENDBRANCH  11  16
ENDBRANCH   6  10
BRANCH   8  22
ATOM     22  C   UNL A   1      34.705  20.874  25.876  1.00  0.00     0.054 A 
ATOM     23  C   UNL A   1      33.620  21.535  26.451  1.00  0.00     0.031 A 
ATOM     24  S   UNL A   1      33.944  19.660  24.855  1.00  0.00    -0.134 S 
ATOM     25  C   UNL A   1      32.690  21.816  25.360  1.00  0.00    -0.007 A 
ATOM     26  C   UNL A   1      32.917  20.944  24.285  1.00  0.00     0.035 A 
ATOM     27  C   UNL A   1      31.788  22.887  25.168  1.00  0.00     0.009 A 
ATOM     28  C   UNL A   1      32.409  21.180  23.000  1.00  0.00     0.019 A 
ATOM     29  C   UNL A   1      31.301  23.149  23.881  1.00  0.00     0.001 A 
ATOM     30  C   UNL A   1      31.644  22.331  22.807  1.00  0.00     0.001 A 
ENDBRANCH   8  22
ENDBRANCH   3   5
ENDBRANCH   2   3
ENDBRANCH   1   2
BRANCH   1  31
ATOM     31  C   UNL A   1      42.007  19.455  26.058  1.00  0.00     0.275 C 
BRANCH  31  32
ATOM     32  O   UNL A   1      42.498  20.513  25.243  1.00  0.00    -0.458 OA
BRANCH  32  33
ATOM     33  C   UNL A   1      43.839  20.688  25.277  1.00  0.00     0.338 C 
ATOM     34  O   UNL A   1      44.691  19.815  25.269  1.00  0.00    -0.246 OA
BRANCH  33  35
ATOM     35  C   UNL A   1      44.127  22.099  25.524  1.00  0.00     0.060 A 
ATOM     36  C   UNL A   1      44.802  22.413  26.705  1.00  0.00     0.016 A 
ATOM     37  C   UNL A   1      43.420  23.056  24.784  1.00  0.00     0.016 A 
ATOM     38  C   UNL A   1      44.554  23.643  27.272  1.00  0.00     0.010 A 
ATOM     39  C   UNL A   1      43.169  24.274  25.356  1.00  0.00     0.010 A 
ATOM     40  C   UNL A   1      43.657  24.512  26.634  1.00  0.00    -0.014 A 
BRANCH  40  41
ATOM     41  C   UNL A   1      43.365  25.782  27.255  1.00  0.00     0.031 A 
ATOM     42  C   UNL A   1      44.407  26.767  26.905  1.00  0.00     0.074 A 
ATOM     43  C   UNL A   1      42.237  26.037  27.947  1.00  0.00     0.049 A 
ATOM     44  N   UNL A   1      45.437  27.080  27.617  1.00  0.00    -0.248 NA
ATOM     45  C   UNL A   1      44.487  27.233  25.509  1.00  0.00     0.031 C 
ATOM     46  C   UNL A   1      41.040  25.197  28.066  1.00  0.00     0.029 A 
ATOM     47  N   UNL A   1      41.888  27.160  28.637  1.00  0.00    -0.354 N 
ATOM     48  C   UNL A   1      46.092  28.053  26.874  1.00  0.00     0.074 A 
ATOM     49  C   UNL A   1      45.657  27.877  25.517  1.00  0.00     0.031 C 
ATOM     50  C   UNL A   1      40.023  25.930  28.579  1.00  0.00     0.029 A 
ATOM     51  C   UNL A   1      40.535  27.230  28.974  1.00  0.00     0.049 A 
ATOM     52  H   UNL A   1      42.535  27.861  28.877  1.00  0.00     0.167 HD
ATOM     53  C   UNL A   1      46.591  29.152  27.505  1.00  0.00     0.037 A 
ATOM     54  C   UNL A   1      39.906  28.308  29.515  1.00  0.00     0.037 A 
ATOM     55  C   UNL A   1      46.612  28.937  28.932  1.00  0.00     0.049 A 
ATOM     56  C   UNL A   1      40.955  29.118  30.183  1.00  0.00     0.074 A 
ATOM     57  C   UNL A   1      47.371  28.221  29.831  1.00  0.00     0.029 A 
ATOM     58  N   UNL A   1      45.409  29.203  29.532  1.00  0.00    -0.354 N 
ATOM     59  N   UNL A   1      41.638  28.690  31.213  1.00  0.00    -0.248 NA
ATOM     60  C   UNL A   1      41.544  30.246  29.470  1.00  0.00     0.031 C 
ATOM     61  C   UNL A   1      46.527  27.968  30.954  1.00  0.00     0.029 A 
ATOM     62  C   UNL A   1      45.296  28.587  30.746  1.00  0.00     0.049 A 
ATOM     63  H   UNL A   1      44.709  29.772  29.135  1.00  0.00     0.167 HD
ATOM     64  C   UNL A   1      42.908  29.198  31.020  1.00  0.00     0.074 A 
ATOM     65  C   UNL A   1      42.754  30.265  30.037  1.00  0.00     0.031 C 
ATOM     66  C   UNL A   1      44.012  28.495  31.408  1.00  0.00     0.037 A 
BRANCH  53  67
ATOM     67  C   UNL A   1      46.537  30.559  26.943  1.00  0.00     0.058 A 
ATOM     68  C   UNL A   1      47.725  31.319  26.903  1.00  0.00     0.135 A 
ATOM     69  C   UNL A   1      45.348  31.290  26.716  1.00  0.00     0.135 A 
ATOM     70  F   UNL A   1      48.915  30.737  27.128  1.00  0.00    -0.206 F 
ATOM     71  C   UNL A   1      47.726  32.699  26.696  1.00  0.00     0.059 A 
ATOM     72  C   UNL A   1      45.330  32.654  26.457  1.00  0.00     0.059 A 
ATOM     73  F   UNL A   1      44.132  30.746  26.825  1.00  0.00    -0.206 F 
ATOM     74  C   UNL A   1      46.520  33.359  26.477  1.00  0.00     0.060 A 
BRANCH  74  75
ATOM     75  S   UNL A   1      46.508  35.143  26.244  1.00  0.00     0.124 S 
ATOM     76  O   UNL A   1      46.360  35.619  27.614  1.00  0.00    -0.237 OA
ATOM     77  O   UNL A   1      47.808  35.372  25.622  1.00  0.00    -0.237 OA
ATOM     78  O   UNL A   1      45.357  35.360  25.372  1.00  0.00    -0.744 OA
ENDBRANCH  74  75
ENDBRANCH  53  67
BRANCH  54  79
ATOM     79  C   UNL A   1      38.563  28.866  29.188  1.00  0.00     0.058 A 
ATOM     80  C   UNL A   1      37.592  29.084  30.186  1.00  0.00     0.135 A 
ATOM     81  C   UNL A   1      38.325  29.491  27.949  1.00  0.00     0.135 A 
ATOM     82  F   UNL A   1      37.745  28.541  31.403  1.00  0.00    -0.206 F 
ATOM     83  C   UNL A   1      36.483  29.918  29.985  1.00  0.00     0.059 A 
ATOM     84  C   UNL A   1      37.227  30.326  27.726  1.00  0.00     0.059 A 
ATOM     85  F   UNL A   1      39.208  29.384  26.945  1.00  0.00    -0.206 F 
ATOM     86  C   UNL A   1      36.322  30.556  28.756  1.00  0.00     0.060 A 
BRANCH  86  87
ATOM     87  S   UNL A   1      34.992  31.768  28.543  1.00  0.00     0.124 S 
ATOM     88  O   UNL A   1      35.610  32.739  27.646  1.00  0.00    -0.237 OA
ATOM     89  O   UNL A   1      33.924  30.959  27.966  1.00  0.00    -0.237 OA
ATOM     90  O   UNL A   1      34.747  32.244  29.902  1.00  0.00    -0.744 OA
ENDBRANCH  86  87
ENDBRANCH  54  79
BRANCH  66  91
ATOM     91  C   UNL A   1      43.863  27.505  32.522  1.00  0.00     0.058 A 
ATOM     92  C   UNL A   1      43.631  27.816  33.872  1.00  0.00     0.135 A 
ATOM     93  C   UNL A   1      43.865  26.148  32.163  1.00  0.00     0.135 A 
ATOM     94  F   UNL A   1      43.544  29.090  34.280  1.00  0.00    -0.206 F 
ATOM     95  C   UNL A   1      43.436  26.812  34.827  1.00  0.00     0.059 A 
ATOM     96  C   UNL A   1      43.644  25.138  33.086  1.00  0.00     0.059 A 
ATOM     97  F   UNL A   1      44.041  25.795  30.879  1.00  0.00    -0.206 F 
ATOM     98  C   UNL A   1      43.442  25.475  34.421  1.00  0.00     0.060 A 
BRANCH  98  99
ATOM     99  S   UNL A   1      43.139  24.172  35.634  1.00  0.00     0.124 S 
ATOM    100  O   UNL A   1      43.874  24.657  36.797  1.00  0.00    -0.237 OA
ATOM    101  O   UNL A   1      41.684  24.184  35.753  1.00  0.00    -0.237 OA
ATOM    102  O   UNL A   1      43.693  22.978  35.002  1.00  0.00    -0.744 OA
ENDBRANCH  98  99
ENDBRANCH  66  91
ENDBRANCH  40  41
ENDBRANCH  33  35
ENDBRANCH  32  33
ENDBRANCH  31  32
ENDBRANCH   1  31
TORSDOF 18
ENDMDL
MODEL 2
REMARK VINA RESULT:     -12.3      2.209      3.033
REMARK SMILES NS(=O)(=O)c1ccc(-n2nc(C(=O)OCCOC(=O)c3ccc(-c4c5nc(c(-c6c(F)cc(S(=O)(=O)[O-])cc6F)c6ccc([nH]6)c(-c6c(F)cc(S(=O)(=O)[O-])cc6F)c6nc(c(-c7c(F)cc(S(=O)(=O)[O-])cc7F)c7ccc4[nH]7)C=C6)C=C5)cc3)cc2-c2cc3ccccc3s2)cc1
REMARK SMILES IDX 15 1 14 2 12 3 13 4 11 5 9 6 10 7 87 8 86 9 8 10 5 11 6 12
REMARK SMILES IDX 98 13 7 14 97 15 2 16 3 17 4 18 1 19 88 22 89 23 96 24 90 25
REMARK SMILES IDX 95 26 91 27 94 28 92 29 93 30 16 31 17 32 18 33 19 34 20 35
REMARK SMILES IDX 21 36 85 37 22 38 84 39 23 40 24 41 25 42 78 43 26 44 83 45
REMARK SMILES IDX 77 46 79 47 27 48 82 49 76 50 75 51 28 53 62 54 41 55 61 56
REMARK SMILES IDX 42 57 45 58 60 59 80 60 43 61 44 62 59 64 81 65 46 66 29 67
REMARK SMILES IDX 30 68 39 69 31 70 32 71 38 72 40 73 33 74 34 75 35 76 36 77
REMARK SMILES IDX 37 78 63 79 64 80 73 81 65 82 66 83 72 84 74 85 67 86 68 87
REMARK SMILES IDX 69 88 70 89 71 90 47 91 48 92 57 93 49 94 50 95 56 96 58 97
REMARK SMILES IDX 51 98 52 99 53 100 54 101 55 102
REMARK H PARENT 1 20 1 21 79 52 45 63
REMARK Flexibility Score: inf
ROOT
ATOM      1  C   UNL A   1      39.978  21.734  26.271  1.00  0.00     0.275 C 
ENDROOT
BRANCH   1   2
ATOM      2  O   UNL A   1      38.724  22.256  25.808  1.00  0.00    -0.457 OA
BRANCH   2   3
ATOM      3  C   UNL A   1      37.855  21.355  25.235  1.00  0.00     0.358 C 
ATOM      4  O   UNL A   1      38.127  20.175  25.039  1.00  0.00    -0.244 OA
BRANCH   3   5
ATOM      5  C   UNL A   1      36.579  21.994  24.882  1.00  0.00     0.171 A 
ATOM      6  N   UNL A   1      35.021  23.450  24.863  1.00  0.00    -0.231 N 
ATOM      7  N   UNL A   1      36.375  23.322  24.804  1.00  0.00    -0.160 NA
ATOM      8  C   UNL A   1      34.412  22.226  25.033  1.00  0.00     0.085 A 
ATOM      9  C   UNL A   1      35.371  21.310  24.642  1.00  0.00     0.068 A 
BRANCH   6  10
ATOM     10  C   UNL A   1      34.449  24.736  24.826  1.00  0.00     0.065 A 
ATOM     11  C   UNL A   1      33.387  27.291  24.665  1.00  0.00     0.082 A 
ATOM     12  C   UNL A   1      33.831  26.798  25.899  1.00  0.00     0.024 A 
ATOM     13  C   UNL A   1      33.463  26.507  23.510  1.00  0.00     0.024 A 
ATOM     14  C   UNL A   1      34.342  25.503  25.986  1.00  0.00     0.030 A 
ATOM     15  C   UNL A   1      34.028  25.235  23.584  1.00  0.00     0.030 A 
BRANCH  11  16
ATOM     16  S   UNL A   1      32.690  28.908  24.530  1.00  0.00     0.238 S 
ATOM     17  O   UNL A   1      33.439  29.815  25.358  1.00  0.00    -0.207 OA
ATOM     18  O   UNL A   1      31.247  28.796  24.581  1.00  0.00    -0.207 OA
BRANCH  16  19
ATOM     19  N   UNL A   1      33.039  29.381  22.950  1.00  0.00    -0.225 NA
ATOM     20  H   UNL A   1      33.176  30.391  22.921  1.00  0.00     0.137 HD
ATOM     21  H   UNL A   1      32.264  29.125  22.339  1.00  0.00     0.137 HD
ENDBRANCH  16  19
ENDBRANCH  11  16
ENDBRANCH   6  10
BRANCH   8  22
ATOM     22  C   UNL A   1      33.201  21.862  25.726  1.00  0.00     0.054 A 
ATOM     23  C   UNL A   1      32.435  22.698  26.538  1.00  0.00     0.031 A 
ATOM     24  S   UNL A   1      31.999  21.068  24.715  1.00  0.00    -0.134 S 
ATOM     25  C   UNL A   1      31.497  23.382  25.650  1.00  0.00    -0.007 A 
ATOM     26  C   UNL A   1      31.326  22.653  24.464  1.00  0.00     0.035 A 
ATOM     27  C   UNL A   1      30.929  24.673  25.725  1.00  0.00     0.009 A 
ATOM     28  C   UNL A   1      30.752  23.209  23.312  1.00  0.00     0.019 A 
ATOM     29  C   UNL A   1      30.383  25.248  24.570  1.00  0.00     0.001 A 
ATOM     30  C   UNL A   1      30.336  24.540  23.372  1.00  0.00     0.001 A 
ENDBRANCH   8  22
ENDBRANCH   3   5
ENDBRANCH   2   3
ENDBRANCH   1   2
BRANCH   1  31
ATOM     31  C   UNL A   1      40.613  22.678  27.282  1.00  0.00     0.275 C 
BRANCH  31  32
ATOM     32  O   UNL A   1      42.023  22.731  27.094  1.00  0.00    -0.458 OA
BRANCH  32  33
ATOM     33  C   UNL A   1      42.428  23.343  25.958  1.00  0.00     0.338 C 
ATOM     34  O   UNL A   1      42.751  22.804  24.912  1.00  0.00    -0.246 OA
BRANCH  33  35
ATOM     35  C   UNL A   1      42.613  24.767  26.226  1.00  0.00     0.060 A 
ATOM     36  C   UNL A   1      43.456  25.111  27.284  1.00  0.00     0.016 A 
ATOM     37  C   UNL A   1      41.691  25.667  25.676  1.00  0.00     0.016 A 
ATOM     38  C   UNL A   1      43.193  26.286  27.952  1.00  0.00     0.010 A 
ATOM     39  C   UNL A   1      41.427  26.830  26.348  1.00  0.00     0.010 A 
ATOM     40  C   UNL A   1      42.112  27.074  27.531  1.00  0.00    -0.014 A 
BRANCH  40  41
ATOM     41  C   UNL A   1      41.812  28.283  28.261  1.00  0.00     0.031 A 
ATOM     42  C   UNL A   1      42.896  29.267  28.077  1.00  0.00     0.074 A 
ATOM     43  C   UNL A   1      40.649  28.499  28.907  1.00  0.00     0.049 A 
ATOM     44  N   UNL A   1      43.886  29.476  28.878  1.00  0.00    -0.248 NA
ATOM     45  C   UNL A   1      43.073  29.870  26.744  1.00  0.00     0.031 C 
ATOM     46  C   UNL A   1      39.428  27.686  28.868  1.00  0.00     0.029 A 
ATOM     47  N   UNL A   1      40.284  29.556  29.687  1.00  0.00    -0.354 N 
ATOM     48  C   UNL A   1      44.608  30.500  28.279  1.00  0.00     0.074 A 
ATOM     49  C   UNL A   1      44.255  30.476  26.888  1.00  0.00     0.031 C 
ATOM     50  C   UNL A   1      38.398  28.393  29.392  1.00  0.00     0.029 A 
ATOM     51  C   UNL A   1      38.915  29.631  29.949  1.00  0.00     0.049 A 
ATOM     52  H   UNL A   1      40.931  30.210  30.037  1.00  0.00     0.167 HD
ATOM     53  C   UNL A   1      45.093  31.513  29.050  1.00  0.00     0.037 A 
ATOM     54  C   UNL A   1      38.278  30.666  30.559  1.00  0.00     0.037 A 
ATOM     55  C   UNL A   1      45.020  31.154  30.445  1.00  0.00     0.049 A 
ATOM     56  C   UNL A   1      39.302  31.373  31.369  1.00  0.00     0.074 A 
ATOM     57  C   UNL A   1      45.705  30.329  31.309  1.00  0.00     0.029 A 
ATOM     58  N   UNL A   1      43.788  31.393  30.997  1.00  0.00    -0.354 N 
ATOM     59  N   UNL A   1      39.909  30.823  32.388  1.00  0.00    -0.248 NA
ATOM     60  C   UNL A   1      39.960  32.550  30.813  1.00  0.00     0.031 C 
ATOM     61  C   UNL A   1      44.786  29.988  32.348  1.00  0.00     0.029 A 
ATOM     62  C   UNL A   1      43.586  30.660  32.132  1.00  0.00     0.049 A 
ATOM     63  H   UNL A   1      43.128  32.019  30.619  1.00  0.00     0.167 HD
ATOM     64  C   UNL A   1      41.200  31.310  32.325  1.00  0.00     0.074 A 
ATOM     65  C   UNL A   1      41.132  32.476  31.450  1.00  0.00     0.031 C 
ATOM     66  C   UNL A   1      42.261  30.540  32.703  1.00  0.00     0.037 A 
BRANCH  53  67
ATOM     67  C   UNL A   1      45.107  32.971  28.633  1.00  0.00     0.058 A 
ATOM     68  C   UNL A   1      46.340  33.655  28.599  1.00  0.00     0.135 A 
ATOM     69  C   UNL A   1      43.960  33.795  28.550  1.00  0.00     0.135 A 
ATOM     70  F   UNL A   1      47.497  32.979  28.695  1.00  0.00    -0.206 F 
ATOM     71  C   UNL A   1      46.425  35.046  28.530  1.00  0.00     0.059 A 
ATOM     72  C   UNL A   1      44.023  35.177  28.429  1.00  0.00     0.059 A 
ATOM     73  F   UNL A   1      42.717  33.322  28.676  1.00  0.00    -0.206 F 
ATOM     74  C   UNL A   1      45.257  35.800  28.449  1.00  0.00     0.060 A 
BRANCH  74  75
ATOM     75  S   UNL A   1      45.355  37.595  28.395  1.00  0.00     0.124 S 
ATOM     76  O   UNL A   1      44.010  37.952  27.960  1.00  0.00    -0.237 OA
ATOM     77  O   UNL A   1      45.690  37.919  29.778  1.00  0.00    -0.237 OA
ATOM     78  O   UNL A   1      46.419  37.844  27.426  1.00  0.00    -0.744 OA
ENDBRANCH  74  75
ENDBRANCH  53  67
BRANCH  54  79
ATOM     79  C   UNL A   1      36.971  31.294  30.213  1.00  0.00     0.058 A 
ATOM     80  C   UNL A   1      36.162  31.902  31.193  1.00  0.00     0.135 A 
ATOM     81  C   UNL A   1      36.646  31.589  28.876  1.00  0.00     0.135 A 
ATOM     82  F   UNL A   1      36.409  31.691  32.495  1.00  0.00    -0.206 F 
ATOM     83  C   UNL A   1      35.131  32.795  30.868  1.00  0.00     0.059 A 
ATOM     84  C   UNL A   1      35.624  32.474  28.526  1.00  0.00     0.059 A 
ATOM     85  F   UNL A   1      37.380  31.096  27.866  1.00  0.00    -0.206 F 
ATOM     86  C   UNL A   1      34.885  33.094  29.529  1.00  0.00     0.060 A 
BRANCH  86  87
ATOM     87  S   UNL A   1      33.674  34.374  29.104  1.00  0.00     0.124 S 
ATOM     88  O   UNL A   1      32.826  33.680  28.142  1.00  0.00    -0.237 OA
ATOM     89  O   UNL A   1      33.064  34.665  30.398  1.00  0.00    -0.237 OA
ATOM     90  O   UNL A   1      34.497  35.447  28.550  1.00  0.00    -0.744 OA
ENDBRANCH  86  87
ENDBRANCH  54  79
BRANCH  66  91
ATOM     91  C   UNL A   1      42.021  29.445  33.698  1.00  0.00     0.058 A 
ATOM     92  C   UNL A   1      41.753  28.101  33.393  1.00  0.00     0.135 A 
ATOM     93  C   UNL A   1      42.169  29.783  35.052  1.00  0.00     0.135 A 
ATOM     94  F   UNL A   1      41.669  27.687  32.119  1.00  0.00    -0.206 F 
ATOM     95  C   UNL A   1      41.614  27.140  34.400  1.00  0.00     0.059 A 
ATOM     96  C   UNL A   1      42.066  28.842  36.065  1.00  0.00     0.059 A 
ATOM     97  F   UNL A   1      42.467  31.046  35.400  1.00  0.00    -0.206 F 
ATOM     98  C   UNL A   1      41.775  27.522  35.734  1.00  0.00     0.060 A 
BRANCH  98  99
ATOM     99  S   UNL A   1      41.650  26.281  37.039  1.00  0.00     0.124 S 
ATOM    100  O   UNL A   1      40.375  26.616  37.662  1.00  0.00    -0.237 OA
ATOM    101  O   UNL A   1      41.680  25.029  36.288  1.00  0.00    -0.237 OA
ATOM    102  O   UNL A   1      42.830  26.530  37.864  1.00  0.00    -0.744 OA
ENDBRANCH  98  99
ENDBRANCH  66  91
ENDBRANCH  40  41
ENDBRANCH  33  35
ENDBRANCH  32  33
ENDBRANCH  31  32
ENDBRANCH   1  31
TORSDOF 18
ENDMDL
MODEL 3
REMARK VINA RESULT:     -12.2      2.810      9.336
REMARK SMILES NS(=O)(=O)c1ccc(-n2nc(C(=O)OCCOC(=O)c3ccc(-c4c5nc(c(-c6c(F)cc(S(=O)(=O)[O-])cc6F)c6ccc([nH]6)c(-c6c(F)cc(S(=O)(=O)[O-])cc6F)c6nc(c(-c7c(F)cc(S(=O)(=O)[O-])cc7F)c7ccc4[nH]7)C=C6)C=C5)cc3)cc2-c2cc3ccccc3s2)cc1
REMARK SMILES IDX 15 1 14 2 12 3 13 4 11 5 9 6 10 7 87 8 86 9 8 10 5 11 6 12
REMARK SMILES IDX 98 13 7 14 97 15 2 16 3 17 4 18 1 19 88 22 89 23 96 24 90 25
REMARK SMILES IDX 95 26 91 27 94 28 92 29 93 30 16 31 17 32 18 33 19 34 20 35
REMARK SMILES IDX 21 36 85 37 22 38 84 39 23 40 24 41 25 42 78 43 26 44 83 45
REMARK SMILES IDX 77 46 79 47 27 48 82 49 76 50 75 51 28 53 62 54 41 55 61 56
REMARK SMILES IDX 42 57 45 58 60 59 80 60 43 61 44 62 59 64 81 65 46 66 29 67
REMARK SMILES IDX 30 68 39 69 31 70 32 71 38 72 40 73 33 74 34 75 35 76 36 77
REMARK SMILES IDX 37 78 63 79 64 80 73 81 65 82 66 83 72 84 74 85 67 86 68 87
REMARK SMILES IDX 69 88 70 89 71 90 47 91 48 92 57 93 49 94 50 95 56 96 58 97
REMARK SMILES IDX 51 98 52 99 53 100 54 101 55 102
REMARK H PARENT 1 20 1 21 79 52 45 63
REMARK Flexibility Score: inf
ROOT
ATOM      1  C   UNL A   1      32.461  30.433  26.536  1.00  0.00     0.275 C 
ENDROOT
BRANCH   1   2
ATOM      2  O   UNL A   1      32.534  29.137  27.145  1.00  0.00    -0.457 OA
BRANCH   2   3
ATOM      3  C   UNL A   1      33.325  28.203  26.513  1.00  0.00     0.358 C 
ATOM      4  O   UNL A   1      34.498  28.396  26.210  1.00  0.00    -0.244 OA
BRANCH   3   5
ATOM      5  C   UNL A   1      32.579  26.966  26.242  1.00  0.00     0.171 A 
ATOM      6  N   UNL A   1      32.201  24.975  25.576  1.00  0.00    -0.231 N 
ATOM      7  N   UNL A   1      33.102  25.726  26.268  1.00  0.00    -0.160 NA
ATOM      8  C   UNL A   1      31.176  25.754  25.086  1.00  0.00     0.085 A 
ATOM      9  C   UNL A   1      31.227  26.906  25.849  1.00  0.00     0.068 A 
BRANCH   6  10
ATOM     10  C   UNL A   1      32.450  23.602  25.389  1.00  0.00     0.065 A 
ATOM     11  C   UNL A   1      32.886  20.879  25.117  1.00  0.00     0.082 A 
ATOM     12  C   UNL A   1      33.948  21.775  24.937  1.00  0.00     0.024 A 
ATOM     13  C   UNL A   1      31.602  21.339  25.424  1.00  0.00     0.024 A 
ATOM     14  C   UNL A   1      33.724  23.147  25.049  1.00  0.00     0.030 A 
ATOM     15  C   UNL A   1      31.390  22.706  25.594  1.00  0.00     0.030 A 
BRANCH  11  16
ATOM     16  S   UNL A   1      33.126  19.138  24.935  1.00  0.00     0.238 S 
ATOM     17  O   UNL A   1      34.498  18.886  24.586  1.00  0.00    -0.207 OA
ATOM     18  O   UNL A   1      32.007  18.592  24.196  1.00  0.00    -0.207 OA
BRANCH  16  19
ATOM     19  N   UNL A   1      32.961  18.530  26.499  1.00  0.00    -0.225 NA
ATOM     20  H   UNL A   1      32.069  18.043  26.581  1.00  0.00     0.137 HD
ATOM     21  H   UNL A   1      32.992  19.299  27.167  1.00  0.00     0.137 HD
ENDBRANCH  16  19
ENDBRANCH  11  16
ENDBRANCH   6  10
BRANCH   8  22
ATOM     22  C   UNL A   1      30.387  25.629  23.886  1.00  0.00     0.054 A 
ATOM     23  C   UNL A   1      29.099  26.129  23.692  1.00  0.00     0.031 A 
ATOM     24  S   UNL A   1      31.228  26.098  22.413  1.00  0.00    -0.134 S 
ATOM     25  C   UNL A   1      29.261  27.501  23.217  1.00  0.00    -0.007 A 
ATOM     26  C   UNL A   1      30.534  27.676  22.653  1.00  0.00     0.035 A 
ATOM     27  C   UNL A   1      28.454  28.645  23.403  1.00  0.00     0.009 A 
ATOM     28  C   UNL A   1      31.086  28.943  22.412  1.00  0.00     0.019 A 
ATOM     29  C   UNL A   1      29.008  29.915  23.197  1.00  0.00     0.001 A 
ATOM     30  C   UNL A   1      30.319  30.059  22.750  1.00  0.00     0.001 A 
ENDBRANCH   8  22
ENDBRANCH   3   5
ENDBRANCH   2   3
ENDBRANCH   1   2
BRANCH   1  31
ATOM     31  C   UNL A   1      33.168  31.471  27.397  1.00  0.00     0.275 C 
BRANCH  31  32
ATOM     32  O   UNL A   1      34.339  30.915  27.983  1.00  0.00    -0.458 OA
BRANCH  32  33
ATOM     33  C   UNL A   1      35.377  31.773  28.116  1.00  0.00     0.338 C 
ATOM     34  O   UNL A   1      35.513  32.848  27.556  1.00  0.00    -0.246 OA
BRANCH  33  35
ATOM     35  C   UNL A   1      36.430  31.127  28.895  1.00  0.00     0.060 A 
ATOM     36  C   UNL A   1      37.525  31.912  29.260  1.00  0.00     0.016 A 
ATOM     37  C   UNL A   1      36.470  29.726  28.917  1.00  0.00     0.016 A 
ATOM     38  C   UNL A   1      38.740  31.283  29.410  1.00  0.00     0.010 A 
ATOM     39  C   UNL A   1      37.681  29.104  29.058  1.00  0.00     0.010 A 
ATOM     40  C   UNL A   1      38.812  29.897  29.202  1.00  0.00    -0.014 A 
BRANCH  40  41
ATOM     41  C   UNL A   1      40.096  29.247  29.317  1.00  0.00     0.031 A 
ATOM     42  C   UNL A   1      40.465  29.102  30.738  1.00  0.00     0.074 A 
ATOM     43  C   UNL A   1      40.778  28.747  28.267  1.00  0.00     0.049 A 
ATOM     44  N   UNL A   1      41.225  29.893  31.417  1.00  0.00    -0.248 NA
ATOM     45  C   UNL A   1      39.685  28.168  31.570  1.00  0.00     0.031 C 
ATOM     46  C   UNL A   1      40.322  28.594  26.882  1.00  0.00     0.029 A 
ATOM     47  N   UNL A   1      42.022  28.187  28.240  1.00  0.00    -0.354 N 
ATOM     48  C   UNL A   1      41.279  29.323  32.683  1.00  0.00     0.074 A 
ATOM     49  C   UNL A   1      40.116  28.489  32.793  1.00  0.00     0.031 C 
ATOM     50  C   UNL A   1      41.172  27.778  26.214  1.00  0.00     0.029 A 
ATOM     51  C   UNL A   1      42.310  27.487  27.068  1.00  0.00     0.049 A 
ATOM     52  H   UNL A   1      42.661  28.270  28.984  1.00  0.00     0.167 HD
ATOM     53  C   UNL A   1      42.471  29.267  33.339  1.00  0.00     0.037 A 
ATOM     54  C   UNL A   1      43.406  26.709  26.856  1.00  0.00     0.037 A 
ATOM     55  C   UNL A   1      43.435  30.123  32.691  1.00  0.00     0.049 A 
ATOM     56  C   UNL A   1      44.449  27.184  27.799  1.00  0.00     0.074 A 
ATOM     57  C   UNL A   1      43.682  31.476  32.604  1.00  0.00     0.029 A 
ATOM     58  N   UNL A   1      44.053  29.524  31.625  1.00  0.00    -0.354 N 
ATOM     59  N   UNL A   1      44.979  28.378  27.734  1.00  0.00    -0.248 NA
ATOM     60  C   UNL A   1      44.624  26.494  29.072  1.00  0.00     0.031 C 
ATOM     61  C   UNL A   1      44.377  31.676  31.374  1.00  0.00     0.029 A 
ATOM     62  C   UNL A   1      44.596  30.441  30.769  1.00  0.00     0.049 A 
ATOM     63  H   UNL A   1      44.100  28.550  31.492  1.00  0.00     0.167 HD
ATOM     64  C   UNL A   1      45.168  28.744  29.053  1.00  0.00     0.074 A 
ATOM     65  C   UNL A   1      45.088  27.502  29.815  1.00  0.00     0.031 C 
ATOM     66  C   UNL A   1      45.033  30.043  29.447  1.00  0.00     0.037 A 
BRANCH  53  67
ATOM     67  C   UNL A   1      42.933  28.087  34.173  1.00  0.00     0.058 A 
ATOM     68  C   UNL A   1      43.225  28.294  35.537  1.00  0.00     0.135 A 
ATOM     69  C   UNL A   1      43.373  26.851  33.644  1.00  0.00     0.135 A 
ATOM     70  F   UNL A   1      42.877  29.442  36.142  1.00  0.00    -0.206 F 
ATOM     71  C   UNL A   1      43.935  27.367  36.302  1.00  0.00     0.059 A 
ATOM     72  C   UNL A   1      44.036  25.893  34.400  1.00  0.00     0.059 A 
ATOM     73  F   UNL A   1      43.274  26.541  32.348  1.00  0.00    -0.206 F 
ATOM     74  C   UNL A   1      44.340  26.168  35.721  1.00  0.00     0.060 A 
BRANCH  74  75
ATOM     75  S   UNL A   1      45.285  24.982  36.688  1.00  0.00     0.124 S 
ATOM     76  O   UNL A   1      46.456  25.767  37.056  1.00  0.00    -0.237 OA
ATOM     77  O   UNL A   1      44.356  24.670  37.770  1.00  0.00    -0.237 OA
ATOM     78  O   UNL A   1      45.524  23.894  35.744  1.00  0.00    -0.744 OA
ENDBRANCH  74  75
ENDBRANCH  53  67
BRANCH  54  79
ATOM     79  C   UNL A   1      43.494  25.384  26.181  1.00  0.00     0.058 A 
ATOM     80  C   UNL A   1      44.489  25.109  25.221  1.00  0.00     0.135 A 
ATOM     81  C   UNL A   1      42.809  24.266  26.695  1.00  0.00     0.135 A 
ATOM     82  F   UNL A   1      45.205  26.111  24.689  1.00  0.00    -0.206 F 
ATOM     83  C   UNL A   1      44.823  23.802  24.839  1.00  0.00     0.059 A 
ATOM     84  C   UNL A   1      43.123  22.956  26.329  1.00  0.00     0.059 A 
ATOM     85  F   UNL A   1      41.872  24.413  27.645  1.00  0.00    -0.206 F 
ATOM     86  C   UNL A   1      44.149  22.728  25.418  1.00  0.00     0.060 A 
BRANCH  86  87
ATOM     87  S   UNL A   1      44.688  21.035  25.063  1.00  0.00     0.124 S 
ATOM     88  O   UNL A   1      46.029  21.018  25.637  1.00  0.00    -0.237 OA
ATOM     89  O   UNL A   1      43.686  20.237  25.763  1.00  0.00    -0.237 OA
ATOM     90  O   UNL A   1      44.634  20.961  23.605  1.00  0.00    -0.744 OA
ENDBRANCH  86  87
ENDBRANCH  54  79
BRANCH  66  91
ATOM     91  C   UNL A   1      45.260  31.119  28.428  1.00  0.00     0.058 A 
ATOM     92  C   UNL A   1      44.288  31.653  27.567  1.00  0.00     0.135 A 
ATOM     93  C   UNL A   1      46.537  31.702  28.403  1.00  0.00     0.135 A 
ATOM     94  F   UNL A   1      43.027  31.196  27.584  1.00  0.00    -0.206 F 
ATOM     95  C   UNL A   1      44.586  32.708  26.699  1.00  0.00     0.059 A 
ATOM     96  C   UNL A   1      46.846  32.768  27.573  1.00  0.00     0.059 A 
ATOM     97  F   UNL A   1      47.493  31.258  29.235  1.00  0.00    -0.206 F 
ATOM     98  C   UNL A   1      45.870  33.260  26.712  1.00  0.00     0.060 A 
BRANCH  98  99
ATOM     99  S   UNL A   1      46.253  34.657  25.633  1.00  0.00     0.124 S 
ATOM    100  O   UNL A   1      45.390  34.405  24.485  1.00  0.00    -0.237 OA
ATOM    101  O   UNL A   1      45.889  35.803  26.461  1.00  0.00    -0.237 OA
ATOM    102  O   UNL A   1      47.684  34.512  25.379  1.00  0.00    -0.744 OA
ENDBRANCH  98  99
ENDBRANCH  66  91
ENDBRANCH  40  41
ENDBRANCH  33  35
ENDBRANCH  32  33
ENDBRANCH  31  32
ENDBRANCH   1  31
TORSDOF 18
ENDMDL
