MODEL 1
REMARK VINA RESULT:     -11.0      0.000      0.000
REMARK SMILES CCC(CC)(Nc1cc2ccccc2c(=O)[nH]1)C(=O)OCCOC(=O)c1ccc(-c2c3nc(c(-c4c(F)cc(S(=O)(=O)[O-])cc4F)c4ccc([nH]4)c(-c4c(F)cc(S(=O)(=O)[O-])cc4F)c4nc(c(-c5c(F)cc(S(=O)(=O)[O-])cc5F)c5ccc2[nH]5)C=C4)C=C3)cc1
REMARK SMILES IDX 22 1 21 2 20 3 18 4 19 5 3 6 2 7 1 8 4 9 5 10 6 11 7 13 8 14
REMARK SMILES IDX 17 15 9 16 15 17 10 19 14 20 16 21 11 22 13 23 12 24 23 25
REMARK SMILES IDX 24 26 25 27 26 28 27 29 91 30 28 31 90 32 29 33 30 34 31 35
REMARK SMILES IDX 84 36 32 37 89 38 83 39 85 40 33 41 88 42 82 43 81 44 34 46
REMARK SMILES IDX 68 47 47 48 67 49 48 50 51 51 66 52 86 53 49 54 50 55 65 57
REMARK SMILES IDX 87 58 52 59 35 60 36 61 45 62 37 63 38 64 44 65 46 66 39 67
REMARK SMILES IDX 40 68 41 69 42 70 43 71 69 72 70 73 79 74 71 75 72 76 78 77
REMARK SMILES IDX 80 78 73 79 74 80 75 81 76 82 77 83 53 84 54 85 63 86 55 87
REMARK SMILES IDX 56 88 62 89 64 90 57 91 58 92 59 93 60 94 61 95
REMARK H PARENT 6 12 17 18 85 45 51 56
REMARK Flexibility Score: inf
ROOT
ATOM      1  C   UNL A   1      33.289  29.044  26.448  1.00  0.00     0.275 C 
ENDROOT
BRANCH   1   2
ATOM      2  C   UNL A   1      33.836  27.747  25.843  1.00  0.00     0.274 C 
BRANCH   2   3
ATOM      3  O   UNL A   1      33.077  26.604  26.303  1.00  0.00    -0.460 OA
BRANCH   3   4
ATOM      4  C   UNL A   1      33.405  25.395  25.775  1.00  0.00     0.331 C 
ATOM      5  O   UNL A   1      34.562  25.101  25.496  1.00  0.00    -0.249 OA
BRANCH   4   6
ATOM      6  C   UNL A   1      32.169  24.490  25.441  1.00  0.00     0.136 C 
BRANCH   6   7
ATOM      7  C   UNL A   1      31.034  25.357  24.786  1.00  0.00     0.037 C 
ATOM      8  C   UNL A   1      31.332  26.088  23.482  1.00  0.00     0.007 C 
ENDBRANCH   6   7
BRANCH   6   9
ATOM      9  C   UNL A   1      31.726  23.859  26.783  1.00  0.00     0.037 C 
ATOM     10  C   UNL A   1      30.345  23.210  26.784  1.00  0.00     0.007 C 
ENDBRANCH   6   9
BRANCH   6  11
ATOM     11  N   UNL A   1      32.387  23.393  24.443  1.00  0.00    -0.356 N 
ATOM     12  H   UNL A   1      32.003  23.587  23.558  1.00  0.00     0.163 HD
BRANCH  11  13
ATOM     13  C   UNL A   1      33.013  22.168  24.512  1.00  0.00     0.107 A 
ATOM     14  C   UNL A   1      32.386  21.051  24.093  1.00  0.00     0.053 A 
ATOM     15  N   UNL A   1      34.258  22.035  25.054  1.00  0.00    -0.308 N 
ATOM     16  C   UNL A   1      33.060  19.749  24.115  1.00  0.00    -0.009 A 
ATOM     17  C   UNL A   1      35.003  20.882  25.138  1.00  0.00     0.257 A 
ATOM     18  H   UNL A   1      34.667  22.851  25.422  1.00  0.00     0.171 HD
ATOM     19  C   UNL A   1      32.444  18.598  23.614  1.00  0.00     0.009 A 
ATOM     20  C   UNL A   1      34.366  19.657  24.612  1.00  0.00     0.047 A 
ATOM     21  O   UNL A   1      36.139  20.877  25.600  1.00  0.00    -0.269 OA
ATOM     22  C   UNL A   1      33.136  17.382  23.596  1.00  0.00     0.001 A 
ATOM     23  C   UNL A   1      35.062  18.444  24.592  1.00  0.00     0.014 A 
ATOM     24  C   UNL A   1      34.443  17.305  24.078  1.00  0.00     0.001 A 
ENDBRANCH  11  13
ENDBRANCH   6  11
ENDBRANCH   4   6
ENDBRANCH   3   4
ENDBRANCH   2   3
ENDBRANCH   1   2
BRANCH   1  25
ATOM     25  O   UNL A   1      33.742  29.148  27.805  1.00  0.00    -0.458 OA
BRANCH  25  26
ATOM     26  C   UNL A   1      34.417  30.273  28.139  1.00  0.00     0.338 C 
ATOM     27  O   UNL A   1      33.957  31.396  28.242  1.00  0.00    -0.246 OA
BRANCH  26  28
ATOM     28  C   UNL A   1      35.845  29.925  28.349  1.00  0.00     0.060 A 
ATOM     29  C   UNL A   1      36.760  30.038  27.302  1.00  0.00     0.016 A 
ATOM     30  C   UNL A   1      36.283  29.459  29.588  1.00  0.00     0.016 A 
ATOM     31  C   UNL A   1      38.091  29.661  27.463  1.00  0.00     0.010 A 
ATOM     32  C   UNL A   1      37.641  29.162  29.777  1.00  0.00     0.010 A 
ATOM     33  C   UNL A   1      38.560  29.254  28.714  1.00  0.00    -0.014 A 
BRANCH  33  34
ATOM     34  C   UNL A   1      39.999  28.922  28.910  1.00  0.00     0.031 A 
ATOM     35  C   UNL A   1      40.950  29.971  29.421  1.00  0.00     0.074 A 
ATOM     36  C   UNL A   1      40.463  27.685  28.632  1.00  0.00     0.049 A 
ATOM     37  N   UNL A   1      42.256  29.958  29.452  1.00  0.00    -0.248 NA
ATOM     38  C   UNL A   1      40.349  31.201  29.960  1.00  0.00     0.031 C 
ATOM     39  C   UNL A   1      39.650  26.551  28.184  1.00  0.00     0.029 A 
ATOM     40  N   UNL A   1      41.738  27.173  28.679  1.00  0.00    -0.354 N 
ATOM     41  C   UNL A   1      42.637  31.196  29.956  1.00  0.00     0.074 A 
ATOM     42  C   UNL A   1      41.421  31.933  30.228  1.00  0.00     0.031 C 
ATOM     43  C   UNL A   1      40.438  25.477  28.018  1.00  0.00     0.029 A 
ATOM     44  C   UNL A   1      41.824  25.866  28.259  1.00  0.00     0.049 A 
ATOM     45  H   UNL A   1      42.516  27.693  28.983  1.00  0.00     0.167 HD
ATOM     46  C   UNL A   1      43.887  31.674  30.165  1.00  0.00     0.037 A 
ATOM     47  C   UNL A   1      42.895  25.079  28.037  1.00  0.00     0.037 A 
ATOM     48  C   UNL A   1      45.092  30.918  29.938  1.00  0.00     0.049 A 
ATOM     49  C   UNL A   1      44.274  25.644  28.240  1.00  0.00     0.074 A 
ATOM     50  C   UNL A   1      46.405  31.316  30.123  1.00  0.00     0.029 A 
ATOM     51  N   UNL A   1      45.131  29.605  29.496  1.00  0.00    -0.354 N 
ATOM     52  N   UNL A   1      44.620  26.841  28.652  1.00  0.00    -0.248 NA
ATOM     53  C   UNL A   1      45.407  24.763  27.927  1.00  0.00     0.031 C 
ATOM     54  C   UNL A   1      47.239  30.251  29.765  1.00  0.00     0.029 A 
ATOM     55  C   UNL A   1      46.445  29.179  29.392  1.00  0.00     0.049 A 
ATOM     56  H   UNL A   1      44.340  29.057  29.285  1.00  0.00     0.167 HD
ATOM     57  C   UNL A   1      46.010  26.853  28.648  1.00  0.00     0.074 A 
ATOM     58  C   UNL A   1      46.441  25.540  28.218  1.00  0.00     0.031 C 
ATOM     59  C   UNL A   1      46.854  27.865  28.966  1.00  0.00     0.037 A 
BRANCH  46  60
ATOM     60  C   UNL A   1      44.022  33.097  30.628  1.00  0.00     0.058 A 
ATOM     61  C   UNL A   1      44.084  34.169  29.727  1.00  0.00     0.135 A 
ATOM     62  C   UNL A   1      44.042  33.391  32.002  1.00  0.00     0.135 A 
ATOM     63  F   UNL A   1      44.088  33.941  28.404  1.00  0.00    -0.206 F 
ATOM     64  C   UNL A   1      44.176  35.486  30.170  1.00  0.00     0.059 A 
ATOM     65  C   UNL A   1      44.114  34.700  32.469  1.00  0.00     0.059 A 
ATOM     66  F   UNL A   1      43.990  32.400  32.906  1.00  0.00    -0.206 F 
ATOM     67  C   UNL A   1      44.192  35.740  31.543  1.00  0.00     0.060 A 
BRANCH  67  68
ATOM     68  S   UNL A   1      44.300  37.453  32.106  1.00  0.00     0.124 S 
ATOM     69  O   UNL A   1      43.403  37.437  33.256  1.00  0.00    -0.237 OA
ATOM     70  O   UNL A   1      45.720  37.594  32.414  1.00  0.00    -0.237 OA
ATOM     71  O   UNL A   1      43.833  38.219  30.956  1.00  0.00    -0.744 OA
ENDBRANCH  67  68
ENDBRANCH  46  60
BRANCH  47  72
ATOM     72  C   UNL A   1      42.712  23.692  27.531  1.00  0.00     0.058 A 
ATOM     73  C   UNL A   1      42.805  23.402  26.163  1.00  0.00     0.135 A 
ATOM     74  C   UNL A   1      42.437  22.630  28.407  1.00  0.00     0.135 A 
ATOM     75  F   UNL A   1      43.052  24.385  25.283  1.00  0.00    -0.206 F 
ATOM     76  C   UNL A   1      42.622  22.110  25.677  1.00  0.00     0.059 A 
ATOM     77  C   UNL A   1      42.278  21.327  27.950  1.00  0.00     0.059 A 
ATOM     78  F   UNL A   1      42.346  22.853  29.727  1.00  0.00    -0.206 F 
ATOM     79  C   UNL A   1      42.360  21.078  26.581  1.00  0.00     0.060 A 
BRANCH  79  80
ATOM     80  S   UNL A   1      42.171  19.394  25.954  1.00  0.00     0.124 S 
ATOM     81  O   UNL A   1      42.775  18.614  27.028  1.00  0.00    -0.237 OA
ATOM     82  O   UNL A   1      40.724  19.275  25.813  1.00  0.00    -0.237 OA
ATOM     83  O   UNL A   1      42.914  19.424  24.698  1.00  0.00    -0.744 OA
ENDBRANCH  79  80
ENDBRANCH  47  72
BRANCH  59  84
ATOM     84  C   UNL A   1      48.326  27.582  28.886  1.00  0.00     0.058 A 
ATOM     85  C   UNL A   1      49.016  26.990  29.955  1.00  0.00     0.135 A 
ATOM     86  C   UNL A   1      49.043  27.866  27.715  1.00  0.00     0.135 A 
ATOM     87  F   UNL A   1      48.375  26.707  31.100  1.00  0.00    -0.206 F 
ATOM     88  C   UNL A   1      50.376  26.709  29.873  1.00  0.00     0.059 A 
ATOM     89  C   UNL A   1      50.399  27.575  27.602  1.00  0.00     0.059 A 
ATOM     90  F   UNL A   1      48.425  28.425  26.662  1.00  0.00    -0.206 F 
ATOM     91  C   UNL A   1      51.060  27.007  28.691  1.00  0.00     0.060 A 
BRANCH  91  92
ATOM     92  S   UNL A   1      52.818  26.611  28.581  1.00  0.00     0.124 S 
ATOM     93  O   UNL A   1      53.081  26.073  29.911  1.00  0.00    -0.237 OA
ATOM     94  O   UNL A   1      52.856  25.646  27.486  1.00  0.00    -0.237 OA
ATOM     95  O   UNL A   1      53.436  27.902  28.291  1.00  0.00    -0.744 OA
ENDBRANCH  91  92
ENDBRANCH  59  84
ENDBRANCH  33  34
ENDBRANCH  26  28
ENDBRANCH  25  26
ENDBRANCH   1  25
TORSDOF 18
ENDMDL
MODEL 2
REMARK VINA RESULT:     -11.0      1.270      2.076
REMARK SMILES CCC(CC)(Nc1cc2ccccc2c(=O)[nH]1)C(=O)OCCOC(=O)c1ccc(-c2c3nc(c(-c4c(F)cc(S(=O)(=O)[O-])cc4F)c4ccc([nH]4)c(-c4c(F)cc(S(=O)(=O)[O-])cc4F)c4nc(c(-c5c(F)cc(S(=O)(=O)[O-])cc5F)c5ccc2[nH]5)C=C4)C=C3)cc1
REMARK SMILES IDX 22 1 21 2 20 3 18 4 19 5 3 6 2 7 1 8 4 9 5 10 6 11 7 13 8 14
REMARK SMILES IDX 17 15 9 16 15 17 10 19 14 20 16 21 11 22 13 23 12 24 23 25
REMARK SMILES IDX 24 26 25 27 26 28 27 29 91 30 28 31 90 32 29 33 30 34 31 35
REMARK SMILES IDX 84 36 32 37 89 38 83 39 85 40 33 41 88 42 82 43 81 44 34 46
REMARK SMILES IDX 68 47 47 48 67 49 48 50 51 51 66 52 86 53 49 54 50 55 65 57
REMARK SMILES IDX 87 58 52 59 35 60 36 61 45 62 37 63 38 64 44 65 46 66 39 67
REMARK SMILES IDX 40 68 41 69 42 70 43 71 69 72 70 73 79 74 71 75 72 76 78 77
REMARK SMILES IDX 80 78 73 79 74 80 75 81 76 82 77 83 53 84 54 85 63 86 55 87
REMARK SMILES IDX 56 88 62 89 64 90 57 91 58 92 59 93 60 94 61 95
REMARK H PARENT 6 12 17 18 85 45 51 56
REMARK Flexibility Score: inf
ROOT
ATOM      1  C   UNL A   1      32.623  29.430  26.860  1.00  0.00     0.275 C 
ENDROOT
BRANCH   1   2
ATOM      2  C   UNL A   1      31.565  28.408  27.288  1.00  0.00     0.274 C 
BRANCH   2   3
ATOM      3  O   UNL A   1      31.841  27.110  26.710  1.00  0.00    -0.460 OA
BRANCH   3   4
ATOM      4  C   UNL A   1      31.495  26.930  25.408  1.00  0.00     0.331 C 
ATOM      5  O   UNL A   1      30.514  27.479  24.916  1.00  0.00    -0.249 OA
BRANCH   4   6
ATOM      6  C   UNL A   1      32.375  25.874  24.655  1.00  0.00     0.136 C 
BRANCH   6   7
ATOM      7  C   UNL A   1      33.719  26.538  24.183  1.00  0.00     0.037 C 
ATOM      8  C   UNL A   1      33.764  27.203  22.811  1.00  0.00     0.007 C 
ENDBRANCH   6   7
BRANCH   6   9
ATOM      9  C   UNL A   1      31.519  25.371  23.468  1.00  0.00     0.037 C 
ATOM     10  C   UNL A   1      30.739  24.084  23.712  1.00  0.00     0.007 C 
ENDBRANCH   6   9
BRANCH   6  11
ATOM     11  N   UNL A   1      32.834  24.690  25.451  1.00  0.00    -0.356 N 
ATOM     12  H   UNL A   1      32.216  24.441  26.176  1.00  0.00     0.163 HD
BRANCH  11  13
ATOM     13  C   UNL A   1      33.945  23.878  25.375  1.00  0.00     0.107 A 
ATOM     14  C   UNL A   1      35.161  24.344  25.720  1.00  0.00     0.053 A 
ATOM     15  N   UNL A   1      33.862  22.602  24.901  1.00  0.00    -0.308 N 
ATOM     16  C   UNL A   1      36.343  23.476  25.691  1.00  0.00    -0.009 A 
ATOM     17  C   UNL A   1      34.882  21.684  24.819  1.00  0.00     0.257 A 
ATOM     18  H   UNL A   1      32.978  22.306  24.584  1.00  0.00     0.171 HD
ATOM     19  C   UNL A   1      37.594  23.930  26.118  1.00  0.00     0.009 A 
ATOM     20  C   UNL A   1      36.212  22.148  25.267  1.00  0.00     0.047 A 
ATOM     21  O   UNL A   1      34.694  20.539  24.423  1.00  0.00    -0.269 OA
ATOM     22  C   UNL A   1      38.690  23.060  26.133  1.00  0.00     0.001 A 
ATOM     23  C   UNL A   1      37.304  21.274  25.285  1.00  0.00     0.014 A 
ATOM     24  C   UNL A   1      38.545  21.733  25.724  1.00  0.00     0.001 A 
ENDBRANCH  11  13
ENDBRANCH   6  11
ENDBRANCH   4   6
ENDBRANCH   3   4
ENDBRANCH   2   3
ENDBRANCH   1   2
BRANCH   1  25
ATOM     25  O   UNL A   1      33.825  29.191  27.606  1.00  0.00    -0.458 OA
BRANCH  25  26
ATOM     26  C   UNL A   1      34.466  30.278  28.096  1.00  0.00     0.338 C 
ATOM     27  O   UNL A   1      33.979  31.372  28.322  1.00  0.00    -0.246 OA
BRANCH  26  28
ATOM     28  C   UNL A   1      35.894  29.933  28.307  1.00  0.00     0.060 A 
ATOM     29  C   UNL A   1      36.815  30.075  27.268  1.00  0.00     0.016 A 
ATOM     30  C   UNL A   1      36.327  29.439  29.536  1.00  0.00     0.016 A 
ATOM     31  C   UNL A   1      38.146  29.701  27.428  1.00  0.00     0.010 A 
ATOM     32  C   UNL A   1      37.685  29.143  29.727  1.00  0.00     0.010 A 
ATOM     33  C   UNL A   1      38.610  29.266  28.672  1.00  0.00    -0.014 A 
BRANCH  33  34
ATOM     34  C   UNL A   1      40.050  28.936  28.869  1.00  0.00     0.031 A 
ATOM     35  C   UNL A   1      41.001  29.990  29.368  1.00  0.00     0.074 A 
ATOM     36  C   UNL A   1      40.514  27.696  28.601  1.00  0.00     0.049 A 
ATOM     37  N   UNL A   1      42.308  29.978  29.396  1.00  0.00    -0.248 NA
ATOM     38  C   UNL A   1      40.401  31.226  29.895  1.00  0.00     0.031 C 
ATOM     39  C   UNL A   1      39.700  26.558  28.165  1.00  0.00     0.029 A 
ATOM     40  N   UNL A   1      41.789  27.185  28.651  1.00  0.00    -0.354 N 
ATOM     41  C   UNL A   1      42.689  31.221  29.887  1.00  0.00     0.074 A 
ATOM     42  C   UNL A   1      41.474  31.960  30.155  1.00  0.00     0.031 C 
ATOM     43  C   UNL A   1      40.489  25.483  28.009  1.00  0.00     0.029 A 
ATOM     44  C   UNL A   1      41.874  25.874  28.243  1.00  0.00     0.049 A 
ATOM     45  H   UNL A   1      42.567  27.709  28.949  1.00  0.00     0.167 HD
ATOM     46  C   UNL A   1      43.939  31.702  30.089  1.00  0.00     0.037 A 
ATOM     47  C   UNL A   1      42.946  25.086  28.027  1.00  0.00     0.037 A 
ATOM     48  C   UNL A   1      45.144  30.943  29.868  1.00  0.00     0.049 A 
ATOM     49  C   UNL A   1      44.325  25.653  28.223  1.00  0.00     0.074 A 
ATOM     50  C   UNL A   1      46.457  31.343  30.047  1.00  0.00     0.029 A 
ATOM     51  N   UNL A   1      45.183  29.626  29.438  1.00  0.00    -0.354 N 
ATOM     52  N   UNL A   1      44.671  26.854  28.622  1.00  0.00    -0.248 NA
ATOM     53  C   UNL A   1      45.457  24.769  27.916  1.00  0.00     0.031 C 
ATOM     54  C   UNL A   1      47.291  30.276  29.697  1.00  0.00     0.029 A 
ATOM     55  C   UNL A   1      46.496  29.200  29.337  1.00  0.00     0.049 A 
ATOM     56  H   UNL A   1      44.392  29.076  29.235  1.00  0.00     0.167 HD
ATOM     57  C   UNL A   1      46.061  26.867  28.616  1.00  0.00     0.074 A 
ATOM     58  C   UNL A   1      46.492  25.549  28.198  1.00  0.00     0.031 C 
ATOM     59  C   UNL A   1      46.905  27.882  28.923  1.00  0.00     0.037 A 
BRANCH  46  60
ATOM     60  C   UNL A   1      44.075  33.129  30.538  1.00  0.00     0.058 A 
ATOM     61  C   UNL A   1      44.146  34.192  29.626  1.00  0.00     0.135 A 
ATOM     62  C   UNL A   1      44.085  33.437  31.909  1.00  0.00     0.135 A 
ATOM     63  F   UNL A   1      44.159  33.949  28.306  1.00  0.00    -0.206 F 
ATOM     64  C   UNL A   1      44.238  35.512  30.057  1.00  0.00     0.059 A 
ATOM     65  C   UNL A   1      44.157  34.751  32.363  1.00  0.00     0.059 A 
ATOM     66  F   UNL A   1      44.023  32.456  32.824  1.00  0.00    -0.206 F 
ATOM     67  C   UNL A   1      44.245  35.781  31.427  1.00  0.00     0.060 A 
BRANCH  67  68
ATOM     68  S   UNL A   1      44.353  37.499  31.972  1.00  0.00     0.124 S 
ATOM     69  O   UNL A   1      45.788  37.644  32.193  1.00  0.00    -0.237 OA
ATOM     70  O   UNL A   1      43.813  38.227  30.828  1.00  0.00    -0.237 OA
ATOM     71  O   UNL A   1      43.527  37.528  33.174  1.00  0.00    -0.744 OA
ENDBRANCH  67  68
ENDBRANCH  46  60
BRANCH  47  72
ATOM     72  C   UNL A   1      42.762  23.694  27.535  1.00  0.00     0.058 A 
ATOM     73  C   UNL A   1      42.745  23.407  26.163  1.00  0.00     0.135 A 
ATOM     74  C   UNL A   1      42.598  22.624  28.429  1.00  0.00     0.135 A 
ATOM     75  F   UNL A   1      42.883  24.398  25.269  1.00  0.00    -0.206 F 
ATOM     76  C   UNL A   1      42.560  22.110  25.692  1.00  0.00     0.059 A 
ATOM     77  C   UNL A   1      42.440  21.316  27.983  1.00  0.00     0.059 A 
ATOM     78  F   UNL A   1      42.615  22.844  29.752  1.00  0.00    -0.206 F 
ATOM     79  C   UNL A   1      42.410  21.070  26.612  1.00  0.00     0.060 A 
BRANCH  79  80
ATOM     80  S   UNL A   1      42.219  19.382  25.999  1.00  0.00     0.124 S 
ATOM     81  O   UNL A   1      40.777  19.306  25.796  1.00  0.00    -0.237 OA
ATOM     82  O   UNL A   1      43.035  19.396  24.789  1.00  0.00    -0.237 OA
ATOM     83  O   UNL A   1      42.749  18.571  27.091  1.00  0.00    -0.744 OA
ENDBRANCH  79  80
ENDBRANCH  47  72
BRANCH  59  84
ATOM     84  C   UNL A   1      48.377  27.598  28.843  1.00  0.00     0.058 A 
ATOM     85  C   UNL A   1      49.079  27.062  29.933  1.00  0.00     0.135 A 
ATOM     86  C   UNL A   1      49.083  27.826  27.652  1.00  0.00     0.135 A 
ATOM     87  F   UNL A   1      48.449  26.834  31.097  1.00  0.00    -0.206 F 
ATOM     88  C   UNL A   1      50.439  26.780  29.852  1.00  0.00     0.059 A 
ATOM     89  C   UNL A   1      50.438  27.533  27.541  1.00  0.00     0.059 A 
ATOM     90  F   UNL A   1      48.453  28.331  26.579  1.00  0.00    -0.206 F 
ATOM     91  C   UNL A   1      51.110  27.020  28.650  1.00  0.00     0.060 A 
BRANCH  91  92
ATOM     92  S   UNL A   1      52.869  26.624  28.543  1.00  0.00     0.124 S 
ATOM     93  O   UNL A   1      52.878  25.615  27.490  1.00  0.00    -0.237 OA
ATOM     94  O   UNL A   1      53.462  27.912  28.193  1.00  0.00    -0.237 OA
ATOM     95  O   UNL A   1      53.187  26.139  29.883  1.00  0.00    -0.744 OA
ENDBRANCH  91  92
ENDBRANCH  59  84
ENDBRANCH  33  34
ENDBRANCH  26  28
ENDBRANCH  25  26
ENDBRANCH   1  25
TORSDOF 18
ENDMDL
MODEL 3
REMARK VINA RESULT:     -11.0      1.534      3.803
REMARK SMILES CCC(CC)(Nc1cc2ccccc2c(=O)[nH]1)C(=O)OCCOC(=O)c1ccc(-c2c3nc(c(-c4c(F)cc(S(=O)(=O)[O-])cc4F)c4ccc([nH]4)c(-c4c(F)cc(S(=O)(=O)[O-])cc4F)c4nc(c(-c5c(F)cc(S(=O)(=O)[O-])cc5F)c5ccc2[nH]5)C=C4)C=C3)cc1
REMARK SMILES IDX 22 1 21 2 20 3 18 4 19 5 3 6 2 7 1 8 4 9 5 10 6 11 7 13 8 14
REMARK SMILES IDX 17 15 9 16 15 17 10 19 14 20 16 21 11 22 13 23 12 24 23 25
REMARK SMILES IDX 24 26 25 27 26 28 27 29 91 30 28 31 90 32 29 33 30 34 31 35
REMARK SMILES IDX 84 36 32 37 89 38 83 39 85 40 33 41 88 42 82 43 81 44 34 46
REMARK SMILES IDX 68 47 47 48 67 49 48 50 51 51 66 52 86 53 49 54 50 55 65 57
REMARK SMILES IDX 87 58 52 59 35 60 36 61 45 62 37 63 38 64 44 65 46 66 39 67
REMARK SMILES IDX 40 68 41 69 42 70 43 71 69 72 70 73 79 74 71 75 72 76 78 77
REMARK SMILES IDX 80 78 73 79 74 80 75 81 76 82 77 83 53 84 54 85 63 86 55 87
REMARK SMILES IDX 56 88 62 89 64 90 57 91 58 92 59 93 60 94 61 95
REMARK H PARENT 6 12 17 18 85 45 51 56
REMARK Flexibility Score: inf
ROOT
ATOM      1  C   UNL A   1      32.705  29.303  26.696  1.00  0.00     0.275 C 
ENDROOT
BRANCH   1   2
ATOM      2  C   UNL A   1      31.930  27.986  26.580  1.00  0.00     0.274 C 
BRANCH   2   3
ATOM      3  O   UNL A   1      32.770  26.941  26.036  1.00  0.00    -0.460 OA
BRANCH   3   4
ATOM      4  C   UNL A   1      32.282  25.673  26.084  1.00  0.00     0.331 C 
ATOM      5  O   UNL A   1      31.844  25.186  27.121  1.00  0.00    -0.249 OA
BRANCH   4   6
ATOM      6  C   UNL A   1      32.456  24.873  24.748  1.00  0.00     0.136 C 
BRANCH   6   7
ATOM      7  C   UNL A   1      32.005  23.381  24.956  1.00  0.00     0.037 C 
ATOM      8  C   UNL A   1      32.325  22.362  23.868  1.00  0.00     0.007 C 
ENDBRANCH   6   7
BRANCH   6   9
ATOM      9  C   UNL A   1      33.953  24.986  24.371  1.00  0.00     0.037 C 
ATOM     10  C   UNL A   1      34.939  24.473  25.416  1.00  0.00     0.007 C 
ENDBRANCH   6   9
BRANCH   6  11
ATOM     11  N   UNL A   1      31.632  25.324  23.579  1.00  0.00    -0.356 N 
ATOM     12  H   UNL A   1      31.848  24.852  22.742  1.00  0.00     0.163 HD
BRANCH  11  13
ATOM     13  C   UNL A   1      30.637  26.266  23.436  1.00  0.00     0.107 A 
ATOM     14  C   UNL A   1      30.892  27.452  22.849  1.00  0.00     0.053 A 
ATOM     15  N   UNL A   1      29.383  26.055  23.928  1.00  0.00    -0.308 N 
ATOM     16  C   UNL A   1      29.831  28.442  22.646  1.00  0.00    -0.009 A 
ATOM     17  C   UNL A   1      28.299  26.892  23.811  1.00  0.00     0.257 A 
ATOM     18  H   UNL A   1      29.238  25.214  24.420  1.00  0.00     0.171 HD
ATOM     19  C   UNL A   1      30.070  29.643  21.972  1.00  0.00     0.009 A 
ATOM     20  C   UNL A   1      28.535  28.166  23.100  1.00  0.00     0.047 A 
ATOM     21  O   UNL A   1      27.194  26.587  24.247  1.00  0.00    -0.269 OA
ATOM     22  C   UNL A   1      29.022  30.542  21.744  1.00  0.00     0.001 A 
ATOM     23  C   UNL A   1      27.484  29.060  22.870  1.00  0.00     0.014 A 
ATOM     24  C   UNL A   1      27.730  30.249  22.186  1.00  0.00     0.001 A 
ENDBRANCH  11  13
ENDBRANCH   6  11
ENDBRANCH   4   6
ENDBRANCH   3   4
ENDBRANCH   2   3
ENDBRANCH   1   2
BRANCH   1  25
ATOM     25  O   UNL A   1      33.737  29.146  27.680  1.00  0.00    -0.458 OA
BRANCH  25  26
ATOM     26  C   UNL A   1      34.396  30.266  28.058  1.00  0.00     0.338 C 
ATOM     27  O   UNL A   1      33.925  31.383  28.181  1.00  0.00    -0.246 OA
BRANCH  26  28
ATOM     28  C   UNL A   1      35.822  29.924  28.291  1.00  0.00     0.060 A 
ATOM     29  C   UNL A   1      36.747  30.014  27.251  1.00  0.00     0.016 A 
ATOM     30  C   UNL A   1      36.247  29.485  29.544  1.00  0.00     0.016 A 
ATOM     31  C   UNL A   1      38.076  29.641  27.433  1.00  0.00     0.010 A 
ATOM     32  C   UNL A   1      37.603  29.192  29.753  1.00  0.00     0.010 A 
ATOM     33  C   UNL A   1      38.533  29.261  28.698  1.00  0.00    -0.014 A 
BRANCH  33  34
ATOM     34  C   UNL A   1      39.970  28.933  28.915  1.00  0.00     0.031 A 
ATOM     35  C   UNL A   1      40.909  29.985  29.442  1.00  0.00     0.074 A 
ATOM     36  C   UNL A   1      40.442  27.698  28.643  1.00  0.00     0.049 A 
ATOM     37  N   UNL A   1      42.215  29.977  29.493  1.00  0.00    -0.248 NA
ATOM     38  C   UNL A   1      40.296  31.213  29.973  1.00  0.00     0.031 C 
ATOM     39  C   UNL A   1      39.640  26.563  28.181  1.00  0.00     0.029 A 
ATOM     40  N   UNL A   1      41.718  27.191  28.709  1.00  0.00    -0.354 N 
ATOM     41  C   UNL A   1      42.584  31.215  30.004  1.00  0.00     0.074 A 
ATOM     42  C   UNL A   1      41.362  31.948  30.259  1.00  0.00     0.031 C 
ATOM     43  C   UNL A   1      40.435  25.492  28.026  1.00  0.00     0.029 A 
ATOM     44  C   UNL A   1      41.815  25.884  28.288  1.00  0.00     0.049 A 
ATOM     45  H   UNL A   1      42.489  27.713  29.025  1.00  0.00     0.167 HD
ATOM     46  C   UNL A   1      43.829  31.698  30.233  1.00  0.00     0.037 A 
ATOM     47  C   UNL A   1      42.892  25.102  28.082  1.00  0.00     0.037 A 
ATOM     48  C   UNL A   1      45.040  30.945  30.024  1.00  0.00     0.049 A 
ATOM     49  C   UNL A   1      44.266  25.671  28.307  1.00  0.00     0.074 A 
ATOM     50  C   UNL A   1      46.348  31.348  30.229  1.00  0.00     0.029 A 
ATOM     51  N   UNL A   1      45.090  29.633  29.580  1.00  0.00    -0.354 N 
ATOM     52  N   UNL A   1      44.602  26.869  28.725  1.00  0.00    -0.248 NA
ATOM     53  C   UNL A   1      45.406  24.794  28.010  1.00  0.00     0.031 C 
ATOM     54  C   UNL A   1      47.191  30.286  29.883  1.00  0.00     0.029 A 
ATOM     55  C   UNL A   1      46.407  29.212  29.497  1.00  0.00     0.049 A 
ATOM     56  H   UNL A   1      44.305  29.083  29.357  1.00  0.00     0.167 HD
ATOM     57  C   UNL A   1      45.991  26.886  28.743  1.00  0.00     0.074 A 
ATOM     58  C   UNL A   1      46.434  25.574  28.318  1.00  0.00     0.031 C 
ATOM     59  C   UNL A   1      46.827  27.900  29.076  1.00  0.00     0.037 A 
BRANCH  46  60
ATOM     60  C   UNL A   1      43.952  33.120  30.699  1.00  0.00     0.058 A 
ATOM     61  C   UNL A   1      43.956  34.199  29.803  1.00  0.00     0.135 A 
ATOM     62  C   UNL A   1      44.020  33.407  32.073  1.00  0.00     0.135 A 
ATOM     63  F   UNL A   1      43.913  33.978  28.480  1.00  0.00    -0.206 F 
ATOM     64  C   UNL A   1      44.038  35.514  30.252  1.00  0.00     0.059 A 
ATOM     65  C   UNL A   1      44.082  34.715  32.545  1.00  0.00     0.059 A 
ATOM     66  F   UNL A   1      44.023  32.409  32.973  1.00  0.00    -0.206 F 
ATOM     67  C   UNL A   1      44.102  35.761  31.625  1.00  0.00     0.060 A 
BRANCH  67  68
ATOM     68  S   UNL A   1      44.196  37.472  32.194  1.00  0.00     0.124 S 
ATOM     69  O   UNL A   1      43.866  38.202  30.974  1.00  0.00    -0.237 OA
ATOM     70  O   UNL A   1      43.184  37.510  33.245  1.00  0.00    -0.237 OA
ATOM     71  O   UNL A   1      45.574  37.604  32.652  1.00  0.00    -0.744 OA
ENDBRANCH  67  68
ENDBRANCH  46  60
BRANCH  47  72
ATOM     72  C   UNL A   1      42.721  23.715  27.572  1.00  0.00     0.058 A 
ATOM     73  C   UNL A   1      42.720  23.444  26.196  1.00  0.00     0.135 A 
ATOM     74  C   UNL A   1      42.554  22.633  28.451  1.00  0.00     0.135 A 
ATOM     75  F   UNL A   1      42.862  24.446  25.315  1.00  0.00    -0.206 F 
ATOM     76  C   UNL A   1      42.548  22.152  25.708  1.00  0.00     0.059 A 
ATOM     77  C   UNL A   1      42.408  21.330  27.989  1.00  0.00     0.059 A 
ATOM     78  F   UNL A   1      42.556  22.838  29.777  1.00  0.00    -0.206 F 
ATOM     79  C   UNL A   1      42.394  21.100  26.614  1.00  0.00     0.060 A 
BRANCH  79  80
ATOM     80  S   UNL A   1      42.219  19.418  25.979  1.00  0.00     0.124 S 
ATOM     81  O   UNL A   1      42.731  18.630  27.095  1.00  0.00    -0.237 OA
ATOM     82  O   UNL A   1      40.784  19.325  25.736  1.00  0.00    -0.237 OA
ATOM     83  O   UNL A   1      43.049  19.430  24.779  1.00  0.00    -0.744 OA
ENDBRANCH  79  80
ENDBRANCH  47  72
BRANCH  59  84
ATOM     84  C   UNL A   1      48.301  27.621  29.018  1.00  0.00     0.058 A 
ATOM     85  C   UNL A   1      48.992  27.106  30.125  1.00  0.00     0.135 A 
ATOM     86  C   UNL A   1      49.019  27.834  27.832  1.00  0.00     0.135 A 
ATOM     87  F   UNL A   1      48.349  26.894  31.284  1.00  0.00    -0.206 F 
ATOM     88  C   UNL A   1      50.354  26.829  30.064  1.00  0.00     0.059 A 
ATOM     89  C   UNL A   1      50.378  27.544  27.741  1.00  0.00     0.059 A 
ATOM     90  F   UNL A   1      48.401  28.319  26.744  1.00  0.00    -0.206 F 
ATOM     91  C   UNL A   1      51.039  27.053  28.867  1.00  0.00     0.060 A 
BRANCH  91  92
ATOM     92  S   UNL A   1      52.800  26.663  28.787  1.00  0.00     0.124 S 
ATOM     93  O   UNL A   1      53.032  26.085  30.106  1.00  0.00    -0.237 OA
ATOM     94  O   UNL A   1      52.866  25.730  27.665  1.00  0.00    -0.237 OA
ATOM     95  O   UNL A   1      53.422  27.962  28.551  1.00  0.00    -0.744 OA
ENDBRANCH  91  92
ENDBRANCH  59  84
ENDBRANCH  33  34
ENDBRANCH  26  28
ENDBRANCH  25  26
ENDBRANCH   1  25
TORSDOF 18
ENDMDL
