MODEL 1
REMARK VINA RESULT:     -10.7      0.000      0.000
REMARK SMILES CCc1nc(=O)n([C@@H](CC)C(C)C)c(CC)c1CC(=O)OCCOC(=O)c1ccc(-c2c3nc(c(-c4c(F)cc(S(=O)(=O)[O-])cc4F)c4ccc([nH]4)c(-c4c(F)cc(S(=O)(=O)[O-])cc4F)c4nc(c(-c5c(F)cc(S(=O)(=O)[O-])cc5F)c5ccc2[nH]5)C=C4)C=C3)cc1
REMARK SMILES IDX 22 1 21 2 19 3 20 4 18 5 17 6 3 7 4 8 5 9 14 10 6 11 7 12
REMARK SMILES IDX 2 13 1 14 15 15 16 16 8 17 9 18 10 19 11 20 12 21 13 22
REMARK SMILES IDX 23 23 24 24 25 25 26 26 27 27 28 28 92 29 29 30 91 31 30 32
REMARK SMILES IDX 31 33 32 34 85 35 33 36 90 37 84 38 86 39 34 40 89 41 83 42
REMARK SMILES IDX 82 43 35 45 69 46 48 47 68 48 49 49 52 50 67 51 87 52 50 53
REMARK SMILES IDX 51 54 66 56 88 57 53 58 36 59 37 60 46 61 38 62 39 63 45 64
REMARK SMILES IDX 47 65 40 66 41 67 42 68 43 69 44 70 70 71 71 72 80 73 72 74
REMARK SMILES IDX 73 75 79 76 81 77 74 78 75 79 76 80 77 81 78 82 54 83 55 84
REMARK SMILES IDX 64 85 56 86 57 87 63 88 65 89 58 90 59 91 60 92 61 93 62 94
REMARK H PARENT 86 44 52 55
REMARK Flexibility Score: inf
ROOT
ATOM      1  C   UNL A   1      31.414  28.193  27.597  1.00  0.00     0.274 C 
ENDROOT
BRANCH   1   2
ATOM      2  O   UNL A   1      30.952  27.389  26.472  1.00  0.00    -0.462 OA
BRANCH   2   3
ATOM      3  C   UNL A   1      31.307  26.081  26.504  1.00  0.00     0.310 C 
ATOM      4  O   UNL A   1      30.492  25.159  26.545  1.00  0.00    -0.252 OA
BRANCH   3   5
ATOM      5  C   UNL A   1      32.800  25.770  26.345  1.00  0.00     0.162 C 
BRANCH   5   6
ATOM      6  C   UNL A   1      33.384  24.824  25.324  1.00  0.00     0.005 A 
ATOM      7  C   UNL A   1      33.657  25.378  23.958  1.00  0.00     0.051 A 
ATOM      8  N   UNL A   1      34.309  24.766  23.035  1.00  0.00    -0.198 NA
ATOM      9  C   UNL A   1      34.806  23.511  23.253  1.00  0.00     0.348 A 
ATOM     10  C   UNL A   1      33.932  23.597  25.552  1.00  0.00     0.028 A 
ATOM     11  O   UNL A   1      35.432  22.955  22.364  1.00  0.00    -0.246 OA
ATOM     12  N   UNL A   1      34.583  22.909  24.503  1.00  0.00    -0.293 N 
BRANCH   7  13
ATOM     13  C   UNL A   1      33.216  26.798  23.591  1.00  0.00     0.053 C 
ATOM     14  C   UNL A   1      33.660  27.181  22.182  1.00  0.00     0.011 C 
ENDBRANCH   7  13
BRANCH  10  15
ATOM     15  C   UNL A   1      34.023  22.969  26.954  1.00  0.00     0.051 C 
ATOM     16  C   UNL A   1      32.706  22.509  27.605  1.00  0.00     0.010 C 
ENDBRANCH  10  15
BRANCH  12  17
ATOM     17  C   UNL A   1      35.012  21.491  24.667  1.00  0.00     0.094 C 
BRANCH  17  18
ATOM     18  C   UNL A   1      36.299  21.387  25.526  1.00  0.00     0.022 C 
ATOM     19  C   UNL A   1      37.487  20.676  24.908  1.00  0.00     0.006 C 
ENDBRANCH  17  18
BRANCH  17  20
ATOM     20  C   UNL A   1      33.889  20.447  24.924  1.00  0.00     0.006 C 
ATOM     21  C   UNL A   1      32.687  20.707  24.001  1.00  0.00     0.009 C 
ATOM     22  C   UNL A   1      34.401  19.024  24.639  1.00  0.00     0.009 C 
ENDBRANCH  17  20
ENDBRANCH  12  17
ENDBRANCH   5   6
ENDBRANCH   3   5
ENDBRANCH   2   3
ENDBRANCH   1   2
BRANCH   1  23
ATOM     23  C   UNL A   1      32.456  29.270  27.204  1.00  0.00     0.275 C 
BRANCH  23  24
ATOM     24  O   UNL A   1      33.805  28.986  27.664  1.00  0.00    -0.458 OA
BRANCH  24  25
ATOM     25  C   UNL A   1      34.453  30.122  27.979  1.00  0.00     0.338 C 
ATOM     26  O   UNL A   1      33.908  31.209  28.026  1.00  0.00    -0.246 OA
BRANCH  25  27
ATOM     27  C   UNL A   1      35.861  30.067  28.366  1.00  0.00     0.060 A 
ATOM     28  C   UNL A   1      36.239  29.546  29.602  1.00  0.00     0.016 A 
ATOM     29  C   UNL A   1      36.791  30.140  27.325  1.00  0.00     0.016 A 
ATOM     30  C   UNL A   1      37.574  29.174  29.806  1.00  0.00     0.010 A 
ATOM     31  C   UNL A   1      38.081  29.650  27.492  1.00  0.00     0.010 A 
ATOM     32  C   UNL A   1      38.510  29.234  28.756  1.00  0.00    -0.014 A 
BRANCH  32  33
ATOM     33  C   UNL A   1      39.959  29.005  29.011  1.00  0.00     0.031 A 
ATOM     34  C   UNL A   1      40.550  27.652  28.687  1.00  0.00     0.074 A 
ATOM     35  C   UNL A   1      40.749  29.991  29.482  1.00  0.00     0.049 A 
ATOM     36  N   UNL A   1      41.807  27.295  28.639  1.00  0.00    -0.248 NA
ATOM     37  C   UNL A   1      39.614  26.550  28.395  1.00  0.00     0.031 C 
ATOM     38  C   UNL A   1      40.290  31.307  29.932  1.00  0.00     0.029 A 
ATOM     39  N   UNL A   1      42.113  30.045  29.640  1.00  0.00    -0.354 N 
ATOM     40  C   UNL A   1      41.803  25.949  28.288  1.00  0.00     0.074 A 
ATOM     41  C   UNL A   1      40.430  25.521  28.232  1.00  0.00     0.031 C 
ATOM     42  C   UNL A   1      41.358  32.055  30.263  1.00  0.00     0.029 A 
ATOM     43  C   UNL A   1      42.576  31.277  30.047  1.00  0.00     0.049 A 
ATOM     44  H   UNL A   1      42.705  29.276  29.477  1.00  0.00     0.167 HD
ATOM     45  C   UNL A   1      42.847  25.151  27.979  1.00  0.00     0.037 A 
ATOM     46  C   UNL A   1      43.838  31.734  30.188  1.00  0.00     0.037 A 
ATOM     47  C   UNL A   1      44.214  25.584  28.000  1.00  0.00     0.049 A 
ATOM     48  C   UNL A   1      44.991  30.834  29.820  1.00  0.00     0.074 A 
ATOM     49  C   UNL A   1      45.343  24.875  27.638  1.00  0.00     0.029 A 
ATOM     50  N   UNL A   1      44.633  26.840  28.407  1.00  0.00    -0.354 N 
ATOM     51  N   UNL A   1      44.962  29.605  29.360  1.00  0.00    -0.248 NA
ATOM     52  C   UNL A   1      46.348  31.382  29.970  1.00  0.00     0.031 C 
ATOM     53  C   UNL A   1      46.454  25.689  27.867  1.00  0.00     0.029 A 
ATOM     54  C   UNL A   1      46.009  26.921  28.326  1.00  0.00     0.049 A 
ATOM     55  H   UNL A   1      44.039  27.566  28.708  1.00  0.00     0.167 HD
ATOM     56  C   UNL A   1      46.288  29.248  29.138  1.00  0.00     0.074 A 
ATOM     57  C   UNL A   1      47.098  30.389  29.507  1.00  0.00     0.031 C 
ATOM     58  C   UNL A   1      46.791  28.079  28.670  1.00  0.00     0.037 A 
BRANCH  45  59
ATOM     59  C   UNL A   1      42.556  23.746  27.535  1.00  0.00     0.058 A 
ATOM     60  C   UNL A   1      42.421  23.430  26.173  1.00  0.00     0.135 A 
ATOM     61  C   UNL A   1      42.493  22.697  28.463  1.00  0.00     0.135 A 
ATOM     62  F   UNL A   1      42.448  24.401  25.247  1.00  0.00    -0.206 F 
ATOM     63  C   UNL A   1      42.234  22.120  25.747  1.00  0.00     0.059 A 
ATOM     64  C   UNL A   1      42.332  21.375  28.058  1.00  0.00     0.059 A 
ATOM     65  F   UNL A   1      42.604  22.949  29.777  1.00  0.00    -0.206 F 
ATOM     66  C   UNL A   1      42.203  21.098  26.697  1.00  0.00     0.060 A 
BRANCH  66  67
ATOM     67  S   UNL A   1      42.022  19.399  26.116  1.00  0.00     0.124 S 
ATOM     68  O   UNL A   1      40.609  19.364  25.753  1.00  0.00    -0.237 OA
ATOM     69  O   UNL A   1      42.964  19.352  25.003  1.00  0.00    -0.237 OA
ATOM     70  O   UNL A   1      42.389  18.600  27.281  1.00  0.00    -0.744 OA
ENDBRANCH  66  67
ENDBRANCH  45  59
BRANCH  46  71
ATOM     71  C   UNL A   1      44.083  33.135  30.633  1.00  0.00     0.058 A 
ATOM     72  C   UNL A   1      44.165  34.188  29.709  1.00  0.00     0.135 A 
ATOM     73  C   UNL A   1      44.242  33.450  31.992  1.00  0.00     0.135 A 
ATOM     74  F   UNL A   1      44.025  33.940  28.398  1.00  0.00    -0.206 F 
ATOM     75  C   UNL A   1      44.416  35.497  30.111  1.00  0.00     0.059 A 
ATOM     76  C   UNL A   1      44.471  34.754  32.421  1.00  0.00     0.059 A 
ATOM     77  F   UNL A   1      44.159  32.483  32.920  1.00  0.00    -0.206 F 
ATOM     78  C   UNL A   1      44.568  35.770  31.471  1.00  0.00     0.060 A 
BRANCH  78  79
ATOM     79  S   UNL A   1      44.858  37.478  31.984  1.00  0.00     0.124 S 
ATOM     80  O   UNL A   1      44.288  37.483  33.326  1.00  0.00    -0.237 OA
ATOM     81  O   UNL A   1      46.313  37.576  31.908  1.00  0.00    -0.237 OA
ATOM     82  O   UNL A   1      44.133  38.257  30.986  1.00  0.00    -0.744 OA
ENDBRANCH  78  79
ENDBRANCH  46  71
BRANCH  58  83
ATOM     83  C   UNL A   1      48.278  27.956  28.499  1.00  0.00     0.058 A 
ATOM     84  C   UNL A   1      49.066  27.289  29.447  1.00  0.00     0.135 A 
ATOM     85  C   UNL A   1      48.886  28.360  27.299  1.00  0.00     0.135 A 
ATOM     86  F   UNL A   1      48.529  26.886  30.609  1.00  0.00    -0.206 F 
ATOM     87  C   UNL A   1      50.406  27.013  29.206  1.00  0.00     0.059 A 
ATOM     88  C   UNL A   1      50.218  28.072  27.026  1.00  0.00     0.059 A 
ATOM     89  F   UNL A   1      48.167  28.989  26.354  1.00  0.00    -0.206 F 
ATOM     90  C   UNL A   1      50.969  27.393  27.985  1.00  0.00     0.060 A 
BRANCH  90  91
ATOM     91  S   UNL A   1      52.681  26.931  27.647  1.00  0.00     0.124 S 
ATOM     92  O   UNL A   1      53.027  27.849  26.567  1.00  0.00    -0.237 OA
ATOM     93  O   UNL A   1      53.330  27.187  28.929  1.00  0.00    -0.237 OA
ATOM     94  O   UNL A   1      52.587  25.524  27.269  1.00  0.00    -0.744 OA
ENDBRANCH  90  91
ENDBRANCH  58  83
ENDBRANCH  32  33
ENDBRANCH  25  27
ENDBRANCH  24  25
ENDBRANCH  23  24
ENDBRANCH   1  23
TORSDOF 20
ENDMDL
MODEL 2
REMARK VINA RESULT:     -10.4      3.977      9.917
REMARK SMILES CCc1nc(=O)n([C@@H](CC)C(C)C)c(CC)c1CC(=O)OCCOC(=O)c1ccc(-c2c3nc(c(-c4c(F)cc(S(=O)(=O)[O-])cc4F)c4ccc([nH]4)c(-c4c(F)cc(S(=O)(=O)[O-])cc4F)c4nc(c(-c5c(F)cc(S(=O)(=O)[O-])cc5F)c5ccc2[nH]5)C=C4)C=C3)cc1
REMARK SMILES IDX 22 1 21 2 19 3 20 4 18 5 17 6 3 7 4 8 5 9 14 10 6 11 7 12
REMARK SMILES IDX 2 13 1 14 15 15 16 16 8 17 9 18 10 19 11 20 12 21 13 22
REMARK SMILES IDX 23 23 24 24 25 25 26 26 27 27 28 28 92 29 29 30 91 31 30 32
REMARK SMILES IDX 31 33 32 34 85 35 33 36 90 37 84 38 86 39 34 40 89 41 83 42
REMARK SMILES IDX 82 43 35 45 69 46 48 47 68 48 49 49 52 50 67 51 87 52 50 53
REMARK SMILES IDX 51 54 66 56 88 57 53 58 36 59 37 60 46 61 38 62 39 63 45 64
REMARK SMILES IDX 47 65 40 66 41 67 42 68 43 69 44 70 70 71 71 72 80 73 72 74
REMARK SMILES IDX 73 75 79 76 81 77 74 78 75 79 76 80 77 81 78 82 54 83 55 84
REMARK SMILES IDX 64 85 56 86 57 87 63 88 65 89 58 90 59 91 60 92 61 93 62 94
REMARK H PARENT 86 44 52 55
REMARK Flexibility Score: inf
ROOT
ATOM      1  C   UNL A   1      35.864  21.834  24.875  1.00  0.00     0.274 C 
ENDROOT
BRANCH   1   2
ATOM      2  O   UNL A   1      34.712  22.722  24.973  1.00  0.00    -0.462 OA
BRANCH   2   3
ATOM      3  C   UNL A   1      33.593  22.298  24.336  1.00  0.00     0.310 C 
ATOM      4  O   UNL A   1      33.272  21.113  24.245  1.00  0.00    -0.252 OA
BRANCH   3   5
ATOM      5  C   UNL A   1      32.636  23.386  23.834  1.00  0.00     0.162 C 
BRANCH   5   6
ATOM      6  C   UNL A   1      32.157  24.563  24.648  1.00  0.00     0.005 A 
ATOM      7  C   UNL A   1      31.253  24.269  25.807  1.00  0.00     0.051 A 
ATOM      8  N   UNL A   1      30.901  25.124  26.699  1.00  0.00    -0.198 NA
ATOM      9  C   UNL A   1      31.344  26.416  26.633  1.00  0.00     0.348 A 
ATOM     10  C   UNL A   1      32.640  25.837  24.622  1.00  0.00     0.028 A 
ATOM     11  O   UNL A   1      31.005  27.206  27.499  1.00  0.00    -0.246 OA
ATOM     12  N   UNL A   1      32.186  26.782  25.569  1.00  0.00    -0.293 N 
BRANCH   7  13
ATOM     13  C   UNL A   1      30.728  22.849  26.045  1.00  0.00     0.053 C 
ATOM     14  C   UNL A   1      29.591  22.829  27.061  1.00  0.00     0.011 C 
ENDBRANCH   7  13
BRANCH  10  15
ATOM     15  C   UNL A   1      33.793  26.276  23.702  1.00  0.00     0.051 C 
ATOM     16  C   UNL A   1      33.466  26.467  22.209  1.00  0.00     0.010 C 
ENDBRANCH  10  15
BRANCH  12  17
ATOM     17  C   UNL A   1      32.541  28.224  25.443  1.00  0.00     0.094 C 
BRANCH  17  18
ATOM     18  C   UNL A   1      31.398  29.030  24.772  1.00  0.00     0.022 C 
ATOM     19  C   UNL A   1      30.679  28.372  23.611  1.00  0.00     0.006 C 
ENDBRANCH  17  18
BRANCH  17  20
ATOM     20  C   UNL A   1      33.263  28.874  26.658  1.00  0.00     0.006 C 
ATOM     21  C   UNL A   1      34.789  28.768  26.501  1.00  0.00     0.009 C 
ATOM     22  C   UNL A   1      32.904  30.368  26.761  1.00  0.00     0.009 C 
ENDBRANCH  17  20
ENDBRANCH  12  17
ENDBRANCH   5   6
ENDBRANCH   3   5
ENDBRANCH   2   3
ENDBRANCH   1   2
BRANCH   1  23
ATOM     23  C   UNL A   1      37.135  22.525  24.319  1.00  0.00     0.275 C 
BRANCH  23  24
ATOM     24  O   UNL A   1      37.607  23.638  25.126  1.00  0.00    -0.458 OA
BRANCH  24  25
ATOM     25  C   UNL A   1      38.639  23.263  25.903  1.00  0.00     0.338 C 
ATOM     26  O   UNL A   1      39.089  22.132  25.913  1.00  0.00    -0.246 OA
BRANCH  25  27
ATOM     27  C   UNL A   1      39.325  24.258  26.723  1.00  0.00     0.060 A 
ATOM     28  C   UNL A   1      40.064  25.281  26.131  1.00  0.00     0.016 A 
ATOM     29  C   UNL A   1      38.868  24.397  28.037  1.00  0.00     0.016 A 
ATOM     30  C   UNL A   1      40.404  26.406  26.894  1.00  0.00     0.010 A 
ATOM     31  C   UNL A   1      39.098  25.569  28.747  1.00  0.00     0.010 A 
ATOM     32  C   UNL A   1      39.934  26.555  28.214  1.00  0.00    -0.014 A 
BRANCH  32  33
ATOM     33  C   UNL A   1      40.431  27.657  29.081  1.00  0.00     0.031 A 
ATOM     34  C   UNL A   1      39.570  28.886  29.262  1.00  0.00     0.074 A 
ATOM     35  C   UNL A   1      41.607  27.556  29.733  1.00  0.00     0.049 A 
ATOM     36  N   UNL A   1      39.706  29.867  30.116  1.00  0.00    -0.248 NA
ATOM     37  C   UNL A   1      38.414  29.049  28.360  1.00  0.00     0.031 C 
ATOM     38  C   UNL A   1      42.581  26.475  29.567  1.00  0.00     0.029 A 
ATOM     39  N   UNL A   1      42.174  28.369  30.686  1.00  0.00    -0.354 N 
ATOM     40  C   UNL A   1      38.647  30.733  29.867  1.00  0.00     0.074 A 
ATOM     41  C   UNL A   1      37.933  30.225  28.724  1.00  0.00     0.031 C 
ATOM     42  C   UNL A   1      43.597  26.664  30.429  1.00  0.00     0.029 A 
ATOM     43  C   UNL A   1      43.347  27.873  31.210  1.00  0.00     0.049 A 
ATOM     44  H   UNL A   1      41.777  29.223  30.969  1.00  0.00     0.167 HD
ATOM     45  C   UNL A   1      38.263  31.825  30.563  1.00  0.00     0.037 A 
ATOM     46  C   UNL A   1      44.108  28.323  32.230  1.00  0.00     0.037 A 
ATOM     47  C   UNL A   1      38.952  32.312  31.722  1.00  0.00     0.049 A 
ATOM     48  C   UNL A   1      43.654  29.534  33.008  1.00  0.00     0.074 A 
ATOM     49  C   UNL A   1      38.607  33.369  32.542  1.00  0.00     0.029 A 
ATOM     50  N   UNL A   1      40.127  31.773  32.221  1.00  0.00    -0.354 N 
ATOM     51  N   UNL A   1      42.574  30.261  32.841  1.00  0.00    -0.248 NA
ATOM     52  C   UNL A   1      44.504  29.975  34.125  1.00  0.00     0.031 C 
ATOM     53  C   UNL A   1      39.599  33.498  33.517  1.00  0.00     0.029 A 
ATOM     54  C   UNL A   1      40.534  32.491  33.329  1.00  0.00     0.049 A 
ATOM     55  H   UNL A   1      40.600  30.996  31.844  1.00  0.00     0.167 HD
ATOM     56  C   UNL A   1      42.603  31.223  33.846  1.00  0.00     0.074 A 
ATOM     57  C   UNL A   1      43.800  30.984  34.623  1.00  0.00     0.031 C 
ATOM     58  C   UNL A   1      41.716  32.215  34.104  1.00  0.00     0.037 A 
BRANCH  45  59
ATOM     59  C   UNL A   1      37.012  32.534  30.132  1.00  0.00     0.058 A 
ATOM     60  C   UNL A   1      35.770  32.235  30.718  1.00  0.00     0.135 A 
ATOM     61  C   UNL A   1      37.062  33.573  29.191  1.00  0.00     0.135 A 
ATOM     62  F   UNL A   1      35.665  31.232  31.604  1.00  0.00    -0.206 F 
ATOM     63  C   UNL A   1      34.622  32.942  30.385  1.00  0.00     0.059 A 
ATOM     64  C   UNL A   1      35.929  34.311  28.862  1.00  0.00     0.059 A 
ATOM     65  F   UNL A   1      38.222  33.889  28.595  1.00  0.00    -0.206 F 
ATOM     66  C   UNL A   1      34.714  33.988  29.465  1.00  0.00     0.060 A 
BRANCH  66  67
ATOM     67  S   UNL A   1      33.222  34.933  29.096  1.00  0.00     0.124 S 
ATOM     68  O   UNL A   1      32.586  34.093  28.086  1.00  0.00    -0.237 OA
ATOM     69  O   UNL A   1      32.557  34.978  30.393  1.00  0.00    -0.237 OA
ATOM     70  O   UNL A   1      33.739  36.210  28.613  1.00  0.00    -0.744 OA
ENDBRANCH  66  67
ENDBRANCH  45  59
BRANCH  46  71
ATOM     71  C   UNL A   1      45.344  27.590  32.624  1.00  0.00     0.058 A 
ATOM     72  C   UNL A   1      46.595  27.932  32.087  1.00  0.00     0.135 A 
ATOM     73  C   UNL A   1      45.301  26.530  33.543  1.00  0.00     0.135 A 
ATOM     74  F   UNL A   1      46.691  28.935  31.200  1.00  0.00    -0.206 F 
ATOM     75  C   UNL A   1      47.753  27.241  32.430  1.00  0.00     0.059 A 
ATOM     76  C   UNL A   1      46.448  25.837  33.920  1.00  0.00     0.059 A 
ATOM     77  F   UNL A   1      44.132  26.170  34.098  1.00  0.00    -0.206 F 
ATOM     78  C   UNL A   1      47.670  26.193  33.348  1.00  0.00     0.060 A 
BRANCH  78  79
ATOM     79  S   UNL A   1      49.184  25.325  33.812  1.00  0.00     0.124 S 
ATOM     80  O   UNL A   1      50.007  26.419  34.316  1.00  0.00    -0.237 OA
ATOM     81  O   UNL A   1      48.699  24.379  34.812  1.00  0.00    -0.237 OA
ATOM     82  O   UNL A   1      49.627  24.727  32.557  1.00  0.00    -0.744 OA
ENDBRANCH  78  79
ENDBRANCH  46  71
BRANCH  58  83
ATOM     83  C   UNL A   1      41.969  33.116  35.278  1.00  0.00     0.058 A 
ATOM     84  C   UNL A   1      42.555  34.378  35.112  1.00  0.00     0.135 A 
ATOM     85  C   UNL A   1      41.466  32.781  36.546  1.00  0.00     0.135 A 
ATOM     86  F   UNL A   1      43.051  34.743  33.919  1.00  0.00    -0.206 F 
ATOM     87  C   UNL A   1      42.623  35.286  36.163  1.00  0.00     0.059 A 
ATOM     88  C   UNL A   1      41.502  33.682  37.604  1.00  0.00     0.059 A 
ATOM     89  F   UNL A   1      40.882  31.588  36.749  1.00  0.00    -0.206 F 
ATOM     90  C   UNL A   1      42.078  34.935  37.401  1.00  0.00     0.060 A 
BRANCH  90  91
ATOM     91  S   UNL A   1      42.080  36.166  38.721  1.00  0.00     0.124 S 
ATOM     92  O   UNL A   1      43.477  36.588  38.729  1.00  0.00    -0.237 OA
ATOM     93  O   UNL A   1      41.122  37.150  38.227  1.00  0.00    -0.237 OA
ATOM     94  O   UNL A   1      41.646  35.410  39.893  1.00  0.00    -0.744 OA
ENDBRANCH  90  91
ENDBRANCH  58  83
ENDBRANCH  32  33
ENDBRANCH  25  27
ENDBRANCH  24  25
ENDBRANCH  23  24
ENDBRANCH   1  23
TORSDOF 20
ENDMDL
MODEL 3
REMARK VINA RESULT:     -10.4      4.370      8.822
REMARK SMILES CCc1nc(=O)n([C@@H](CC)C(C)C)c(CC)c1CC(=O)OCCOC(=O)c1ccc(-c2c3nc(c(-c4c(F)cc(S(=O)(=O)[O-])cc4F)c4ccc([nH]4)c(-c4c(F)cc(S(=O)(=O)[O-])cc4F)c4nc(c(-c5c(F)cc(S(=O)(=O)[O-])cc5F)c5ccc2[nH]5)C=C4)C=C3)cc1
REMARK SMILES IDX 22 1 21 2 19 3 20 4 18 5 17 6 3 7 4 8 5 9 14 10 6 11 7 12
REMARK SMILES IDX 2 13 1 14 15 15 16 16 8 17 9 18 10 19 11 20 12 21 13 22
REMARK SMILES IDX 23 23 24 24 25 25 26 26 27 27 28 28 92 29 29 30 91 31 30 32
REMARK SMILES IDX 31 33 32 34 85 35 33 36 90 37 84 38 86 39 34 40 89 41 83 42
REMARK SMILES IDX 82 43 35 45 69 46 48 47 68 48 49 49 52 50 67 51 87 52 50 53
REMARK SMILES IDX 51 54 66 56 88 57 53 58 36 59 37 60 46 61 38 62 39 63 45 64
REMARK SMILES IDX 47 65 40 66 41 67 42 68 43 69 44 70 70 71 71 72 80 73 72 74
REMARK SMILES IDX 73 75 79 76 81 77 74 78 75 79 76 80 77 81 78 82 54 83 55 84
REMARK SMILES IDX 64 85 56 86 57 87 63 88 65 89 58 90 59 91 60 92 61 93 62 94
REMARK H PARENT 86 44 52 55
REMARK Flexibility Score: inf
ROOT
ATOM      1  C   UNL A   1      31.953  28.556  27.500  1.00  0.00     0.274 C 
ENDROOT
BRANCH   1   2
ATOM      2  O   UNL A   1      31.298  27.724  26.498  1.00  0.00    -0.462 OA
BRANCH   2   3
ATOM      3  C   UNL A   1      31.627  26.409  26.525  1.00  0.00     0.310 C 
ATOM      4  O   UNL A   1      30.795  25.503  26.580  1.00  0.00    -0.252 OA
BRANCH   3   5
ATOM      5  C   UNL A   1      33.111  26.069  26.338  1.00  0.00     0.162 C 
BRANCH   5   6
ATOM      6  C   UNL A   1      33.651  25.048  25.367  1.00  0.00     0.005 A 
ATOM      7  C   UNL A   1      33.933  25.515  23.971  1.00  0.00     0.051 A 
ATOM      8  N   UNL A   1      34.554  24.830  23.079  1.00  0.00    -0.198 NA
ATOM      9  C   UNL A   1      35.005  23.571  23.362  1.00  0.00     0.348 A 
ATOM     10  C   UNL A   1      34.154  23.815  25.659  1.00  0.00     0.028 A 
ATOM     11  O   UNL A   1      35.602  22.944  22.501  1.00  0.00    -0.246 OA
ATOM     12  N   UNL A   1      34.770  23.047  24.645  1.00  0.00    -0.293 N 
BRANCH   7  13
ATOM     13  C   UNL A   1      33.542  26.929  23.529  1.00  0.00     0.053 C 
ATOM     14  C   UNL A   1      33.274  26.998  22.029  1.00  0.00     0.011 C 
ENDBRANCH   7  13
BRANCH  10  15
ATOM     15  C   UNL A   1      34.234  23.262  27.093  1.00  0.00     0.051 C 
ATOM     16  C   UNL A   1      32.970  22.585  27.655  1.00  0.00     0.010 C 
ENDBRANCH  10  15
BRANCH  12  17
ATOM     17  C   UNL A   1      35.148  21.625  24.883  1.00  0.00     0.094 C 
BRANCH  17  18
ATOM     18  C   UNL A   1      34.066  20.656  24.340  1.00  0.00     0.022 C 
ATOM     19  C   UNL A   1      33.249  19.888  25.361  1.00  0.00     0.006 C 
ENDBRANCH  17  18
BRANCH  17  20
ATOM     20  C   UNL A   1      36.638  21.249  24.644  1.00  0.00     0.006 C 
ATOM     21  C   UNL A   1      37.556  22.053  25.580  1.00  0.00     0.009 C 
ATOM     22  C   UNL A   1      36.868  19.754  24.932  1.00  0.00     0.009 C 
ENDBRANCH  17  20
ENDBRANCH  12  17
ENDBRANCH   5   6
ENDBRANCH   3   5
ENDBRANCH   2   3
ENDBRANCH   1   2
BRANCH   1  23
ATOM     23  C   UNL A   1      32.219  30.006  27.026  1.00  0.00     0.275 C 
BRANCH  23  24
ATOM     24  O   UNL A   1      33.575  30.238  26.556  1.00  0.00    -0.458 OA
BRANCH  24  25
ATOM     25  C   UNL A   1      34.231  31.075  27.380  1.00  0.00     0.338 C 
ATOM     26  O   UNL A   1      33.729  32.081  27.845  1.00  0.00    -0.246 OA
BRANCH  25  27
ATOM     27  C   UNL A   1      35.584  30.742  27.820  1.00  0.00     0.060 A 
ATOM     28  C   UNL A   1      36.561  31.729  27.924  1.00  0.00     0.016 A 
ATOM     29  C   UNL A   1      35.727  29.540  28.521  1.00  0.00     0.016 A 
ATOM     30  C   UNL A   1      37.717  31.469  28.674  1.00  0.00     0.010 A 
ATOM     31  C   UNL A   1      36.813  29.338  29.364  1.00  0.00     0.010 A 
ATOM     32  C   UNL A   1      37.858  30.266  29.391  1.00  0.00    -0.014 A 
BRANCH  32  33
ATOM     33  C   UNL A   1      39.148  29.913  30.043  1.00  0.00     0.031 A 
ATOM     34  C   UNL A   1      39.456  30.491  31.406  1.00  0.00     0.074 A 
ATOM     35  C   UNL A   1      40.016  29.063  29.460  1.00  0.00     0.049 A 
ATOM     36  N   UNL A   1      40.413  30.169  32.238  1.00  0.00    -0.248 NA
ATOM     37  C   UNL A   1      38.594  31.583  31.896  1.00  0.00     0.031 C 
ATOM     38  C   UNL A   1      39.892  28.516  28.107  1.00  0.00     0.029 A 
ATOM     39  N   UNL A   1      41.169  28.490  29.943  1.00  0.00    -0.354 N 
ATOM     40  C   UNL A   1      40.244  30.996  33.344  1.00  0.00     0.074 A 
ATOM     41  C   UNL A   1      39.164  31.900  33.046  1.00  0.00     0.031 C 
ATOM     42  C   UNL A   1      40.896  27.647  27.890  1.00  0.00     0.029 A 
ATOM     43  C   UNL A   1      41.733  27.571  29.086  1.00  0.00     0.049 A 
ATOM     44  H   UNL A   1      41.555  28.715  30.820  1.00  0.00     0.167 HD
ATOM     45  C   UNL A   1      40.888  30.966  34.530  1.00  0.00     0.037 A 
ATOM     46  C   UNL A   1      42.778  26.736  29.263  1.00  0.00     0.037 A 
ATOM     47  C   UNL A   1      41.940  30.043  34.842  1.00  0.00     0.049 A 
ATOM     48  C   UNL A   1      43.475  26.705  30.601  1.00  0.00     0.074 A 
ATOM     49  C   UNL A   1      42.613  29.882  36.038  1.00  0.00     0.029 A 
ATOM     50  N   UNL A   1      42.469  29.125  33.948  1.00  0.00    -0.354 N 
ATOM     51  N   UNL A   1      43.212  27.401  31.683  1.00  0.00    -0.248 NA
ATOM     52  C   UNL A   1      44.596  25.764  30.755  1.00  0.00     0.031 C 
ATOM     53  C   UNL A   1      43.582  28.894  35.856  1.00  0.00     0.029 A 
ATOM     54  C   UNL A   1      43.478  28.408  34.561  1.00  0.00     0.049 A 
ATOM     55  H   UNL A   1      42.171  29.002  33.018  1.00  0.00     0.167 HD
ATOM     56  C   UNL A   1      44.111  26.961  32.648  1.00  0.00     0.074 A 
ATOM     57  C   UNL A   1      44.923  25.934  32.030  1.00  0.00     0.031 C 
ATOM     58  C   UNL A   1      44.253  27.370  33.933  1.00  0.00     0.037 A 
BRANCH  45  59
ATOM     59  C   UNL A   1      40.440  31.918  35.601  1.00  0.00     0.058 A 
ATOM     60  C   UNL A   1      39.323  31.632  36.404  1.00  0.00     0.135 A 
ATOM     61  C   UNL A   1      41.174  33.079  35.885  1.00  0.00     0.135 A 
ATOM     62  F   UNL A   1      38.572  30.547  36.156  1.00  0.00    -0.206 F 
ATOM     63  C   UNL A   1      38.950  32.465  37.451  1.00  0.00     0.059 A 
ATOM     64  C   UNL A   1      40.834  33.914  36.946  1.00  0.00     0.059 A 
ATOM     65  F   UNL A   1      42.243  33.402  35.140  1.00  0.00    -0.206 F 
ATOM     66  C   UNL A   1      39.720  33.598  37.722  1.00  0.00     0.060 A 
BRANCH  66  67
ATOM     67  S   UNL A   1      39.253  34.631  39.126  1.00  0.00     0.124 S 
ATOM     68  O   UNL A   1      40.470  34.598  39.931  1.00  0.00    -0.237 OA
ATOM     69  O   UNL A   1      38.952  35.906  38.484  1.00  0.00    -0.237 OA
ATOM     70  O   UNL A   1      38.106  33.931  39.697  1.00  0.00    -0.744 OA
ENDBRANCH  66  67
ENDBRANCH  45  59
BRANCH  46  71
ATOM     71  C   UNL A   1      43.191  25.809  28.173  1.00  0.00     0.058 A 
ATOM     72  C   UNL A   1      44.200  26.161  27.262  1.00  0.00     0.135 A 
ATOM     73  C   UNL A   1      42.585  24.552  28.015  1.00  0.00     0.135 A 
ATOM     74  F   UNL A   1      44.808  27.353  27.365  1.00  0.00    -0.206 F 
ATOM     75  C   UNL A   1      44.579  25.314  26.225  1.00  0.00     0.059 A 
ATOM     76  C   UNL A   1      42.962  23.677  27.001  1.00  0.00     0.059 A 
ATOM     77  F   UNL A   1      41.624  24.160  28.867  1.00  0.00    -0.206 F 
ATOM     78  C   UNL A   1      43.954  24.072  26.102  1.00  0.00     0.060 A 
BRANCH  78  79
ATOM     79  S   UNL A   1      44.478  22.965  24.774  1.00  0.00     0.124 S 
ATOM     80  O   UNL A   1      45.516  23.757  24.124  1.00  0.00    -0.237 OA
ATOM     81  O   UNL A   1      44.938  21.795  25.516  1.00  0.00    -0.237 OA
ATOM     82  O   UNL A   1      43.257  22.766  24.000  1.00  0.00    -0.744 OA
ENDBRANCH  78  79
ENDBRANCH  46  71
BRANCH  58  83
ATOM     83  C   UNL A   1      45.298  26.710  34.785  1.00  0.00     0.058 A 
ATOM     84  C   UNL A   1      45.020  25.537  35.499  1.00  0.00     0.135 A 
ATOM     85  C   UNL A   1      46.628  27.162  34.747  1.00  0.00     0.135 A 
ATOM     86  F   UNL A   1      43.764  25.067  35.565  1.00  0.00    -0.206 F 
ATOM     87  C   UNL A   1      46.028  24.824  36.138  1.00  0.00     0.059 A 
ATOM     88  C   UNL A   1      47.655  26.452  35.357  1.00  0.00     0.059 A 
ATOM     89  F   UNL A   1      46.945  28.274  34.062  1.00  0.00    -0.206 F 
ATOM     90  C   UNL A   1      47.345  25.281  36.047  1.00  0.00     0.060 A 
BRANCH  90  91
ATOM     91  S   UNL A   1      48.654  24.284  36.792  1.00  0.00     0.124 S 
ATOM     92  O   UNL A   1      47.888  23.377  37.639  1.00  0.00    -0.237 OA
ATOM     93  O   UNL A   1      49.286  23.681  35.623  1.00  0.00    -0.237 OA
ATOM     94  O   UNL A   1      49.469  25.267  37.501  1.00  0.00    -0.744 OA
ENDBRANCH  90  91
ENDBRANCH  58  83
ENDBRANCH  32  33
ENDBRANCH  25  27
ENDBRANCH  24  25
ENDBRANCH  23  24
ENDBRANCH   1  23
TORSDOF 20
ENDMDL
