MODEL 1
REMARK VINA RESULT:      -9.1      0.000      0.000
REMARK SMILES O=C(OCCOC(=O)[C@@H](CCCCO)c1ccc(Cl)cc1)c1ccc(-c2c3nc(c(-c4c(F)cc(S(=O)(=O)[O-])cc4F)c4ccc([nH]4)c(-c4c(F)cc(S(=O)(=O)[O-])cc4F)c4nc(c(-c5c(F)cc(S(=O)(=O)[O-])cc5F)c5ccc2[nH]5)C=C4)C=C3)cc1
REMARK SMILES IDX 5 1 4 2 3 3 2 4 1 5 22 6 23 7 87 8 24 9 86 10 25 11 26 12
REMARK SMILES IDX 27 13 80 14 28 15 85 16 79 17 81 18 29 19 84 20 78 21 77 22
REMARK SMILES IDX 30 24 64 25 43 26 63 27 44 28 47 29 62 30 82 31 45 32 46 33
REMARK SMILES IDX 61 35 83 36 48 37 31 38 32 39 41 40 33 41 34 42 40 43 42 44
REMARK SMILES IDX 35 45 36 46 37 47 38 48 39 49 65 50 66 51 75 52 67 53 68 54
REMARK SMILES IDX 74 55 76 56 69 57 70 58 71 59 72 60 73 61 49 62 50 63 59 64
REMARK SMILES IDX 51 65 52 66 58 67 60 68 53 69 54 70 55 71 56 72 57 73 6 74
REMARK SMILES IDX 7 75 8 76 9 77 10 78 11 79 12 80 13 81 14 82 15 84 16 85
REMARK SMILES IDX 21 86 17 87 20 88 18 89 19 90
REMARK H PARENT 81 23 47 34 14 83
REMARK Flexibility Score: inf
ROOT
ATOM      1  C   UNL A   1      34.115  33.569  29.148  1.00  0.00     0.274 C 
ENDROOT
BRANCH   1   2
ATOM      2  C   UNL A   1      34.022  32.787  27.834  1.00  0.00     0.275 C 
BRANCH   2   3
ATOM      3  O   UNL A   1      33.775  31.392  27.993  1.00  0.00    -0.458 OA
BRANCH   3   4
ATOM      4  C   UNL A   1      34.598  30.350  27.752  1.00  0.00     0.338 C 
ATOM      5  O   UNL A   1      34.171  29.465  27.009  1.00  0.00    -0.246 OA
BRANCH   4   6
ATOM      6  C   UNL A   1      35.947  30.142  28.393  1.00  0.00     0.060 A 
ATOM      7  C   UNL A   1      36.256  29.836  29.730  1.00  0.00     0.016 A 
ATOM      8  C   UNL A   1      37.013  30.146  27.488  1.00  0.00     0.016 A 
ATOM      9  C   UNL A   1      37.554  29.441  30.130  1.00  0.00     0.010 A 
ATOM     10  C   UNL A   1      38.274  29.681  27.866  1.00  0.00     0.010 A 
ATOM     11  C   UNL A   1      38.572  29.306  29.192  1.00  0.00    -0.014 A 
BRANCH  11  12
ATOM     12  C   UNL A   1      39.959  28.815  29.486  1.00  0.00     0.031 A 
ATOM     13  C   UNL A   1      41.007  29.876  29.715  1.00  0.00     0.074 A 
ATOM     14  C   UNL A   1      40.347  27.526  29.310  1.00  0.00     0.049 A 
ATOM     15  N   UNL A   1      42.304  29.804  29.601  1.00  0.00    -0.248 NA
ATOM     16  C   UNL A   1      40.503  31.233  30.015  1.00  0.00     0.031 C 
ATOM     17  C   UNL A   1      39.479  26.376  29.029  1.00  0.00     0.029 A 
ATOM     18  N   UNL A   1      41.615  26.990  29.201  1.00  0.00    -0.354 N 
ATOM     19  C   UNL A   1      42.749  31.097  29.841  1.00  0.00     0.074 A 
ATOM     20  C   UNL A   1      41.592  31.959  29.830  1.00  0.00     0.031 C 
ATOM     21  C   UNL A   1      40.229  25.330  28.631  1.00  0.00     0.029 A 
ATOM     22  C   UNL A   1      41.635  25.705  28.685  1.00  0.00     0.049 A 
ATOM     23  H   UNL A   1      42.429  27.475  29.465  1.00  0.00     0.167 HD
ATOM     24  C   UNL A   1      43.976  31.513  30.226  1.00  0.00     0.037 A 
ATOM     25  C   UNL A   1      42.671  24.932  28.294  1.00  0.00     0.037 A 
ATOM     26  C   UNL A   1      45.093  30.628  30.358  1.00  0.00     0.049 A 
ATOM     27  C   UNL A   1      44.067  25.411  28.604  1.00  0.00     0.074 A 
ATOM     28  C   UNL A   1      46.333  30.872  30.913  1.00  0.00     0.029 A 
ATOM     29  N   UNL A   1      45.087  29.308  29.936  1.00  0.00    -0.354 N 
ATOM     30  N   UNL A   1      44.455  26.590  29.030  1.00  0.00    -0.248 NA
ATOM     31  C   UNL A   1      45.153  24.428  28.484  1.00  0.00     0.031 C 
ATOM     32  C   UNL A   1      47.089  29.699  30.806  1.00  0.00     0.029 A 
ATOM     33  C   UNL A   1      46.303  28.721  30.216  1.00  0.00     0.049 A 
ATOM     34  H   UNL A   1      44.327  28.858  29.502  1.00  0.00     0.167 HD
ATOM     35  C   UNL A   1      45.804  26.452  29.342  1.00  0.00     0.074 A 
ATOM     36  C   UNL A   1      46.176  25.097  28.996  1.00  0.00     0.031 C 
ATOM     37  C   UNL A   1      46.640  27.353  29.913  1.00  0.00     0.037 A 
BRANCH  24  38
ATOM     38  C   UNL A   1      44.088  32.939  30.688  1.00  0.00     0.058 A 
ATOM     39  C   UNL A   1      43.751  33.290  32.009  1.00  0.00     0.135 A 
ATOM     40  C   UNL A   1      44.492  33.963  29.822  1.00  0.00     0.135 A 
ATOM     41  F   UNL A   1      43.349  32.349  32.880  1.00  0.00    -0.206 F 
ATOM     42  C   UNL A   1      43.741  34.609  32.435  1.00  0.00     0.059 A 
ATOM     43  C   UNL A   1      44.531  35.291  30.242  1.00  0.00     0.059 A 
ATOM     44  F   UNL A   1      44.832  33.685  28.554  1.00  0.00    -0.206 F 
ATOM     45  C   UNL A   1      44.131  35.606  31.541  1.00  0.00     0.060 A 
BRANCH  45  46
ATOM     46  S   UNL A   1      44.109  37.312  32.121  1.00  0.00     0.124 S 
ATOM     47  O   UNL A   1      43.125  37.243  33.196  1.00  0.00    -0.237 OA
ATOM     48  O   UNL A   1      45.490  37.518  32.537  1.00  0.00    -0.237 OA
ATOM     49  O   UNL A   1      43.695  38.066  30.937  1.00  0.00    -0.744 OA
ENDBRANCH  45  46
ENDBRANCH  24  38
BRANCH  25  50
ATOM     50  C   UNL A   1      42.475  23.584  27.681  1.00  0.00     0.058 A 
ATOM     51  C   UNL A   1      42.443  22.429  28.479  1.00  0.00     0.135 A 
ATOM     52  C   UNL A   1      42.416  23.408  26.289  1.00  0.00     0.135 A 
ATOM     53  F   UNL A   1      42.522  22.540  29.813  1.00  0.00    -0.206 F 
ATOM     54  C   UNL A   1      42.390  21.152  27.925  1.00  0.00     0.059 A 
ATOM     55  C   UNL A   1      42.356  22.138  25.710  1.00  0.00     0.059 A 
ATOM     56  F   UNL A   1      42.433  24.475  25.476  1.00  0.00    -0.206 F 
ATOM     57  C   UNL A   1      42.351  21.014  26.537  1.00  0.00     0.060 A 
BRANCH  57  58
ATOM     58  S   UNL A   1      42.269  19.346  25.839  1.00  0.00     0.124 S 
ATOM     59  O   UNL A   1      43.167  19.459  24.694  1.00  0.00    -0.237 OA
ATOM     60  O   UNL A   1      42.754  18.526  26.946  1.00  0.00    -0.237 OA
ATOM     61  O   UNL A   1      40.856  19.182  25.514  1.00  0.00    -0.744 OA
ENDBRANCH  57  58
ENDBRANCH  25  50
BRANCH  37  62
ATOM     62  C   UNL A   1      48.003  26.882  30.325  1.00  0.00     0.058 A 
ATOM     63  C   UNL A   1      49.149  27.163  29.572  1.00  0.00     0.135 A 
ATOM     64  C   UNL A   1      48.162  26.215  31.553  1.00  0.00     0.135 A 
ATOM     65  F   UNL A   1      49.044  27.787  28.387  1.00  0.00    -0.206 F 
ATOM     66  C   UNL A   1      50.412  26.797  30.020  1.00  0.00     0.059 A 
ATOM     67  C   UNL A   1      49.418  25.869  32.035  1.00  0.00     0.059 A 
ATOM     68  F   UNL A   1      47.092  25.929  32.312  1.00  0.00    -0.206 F 
ATOM     69  C   UNL A   1      50.537  26.160  31.258  1.00  0.00     0.060 A 
BRANCH  69  70
ATOM     70  S   UNL A   1      52.188  25.763  31.864  1.00  0.00     0.124 S 
ATOM     71  O   UNL A   1      51.981  24.437  32.435  1.00  0.00    -0.237 OA
ATOM     72  O   UNL A   1      52.988  25.812  30.643  1.00  0.00    -0.237 OA
ATOM     73  O   UNL A   1      52.463  26.826  32.826  1.00  0.00    -0.744 OA
ENDBRANCH  69  70
ENDBRANCH  37  62
ENDBRANCH  11  12
ENDBRANCH   4   6
ENDBRANCH   3   4
ENDBRANCH   2   3
ENDBRANCH   1   2
BRANCH   1  74
ATOM     74  O   UNL A   1      34.933  32.971  30.178  1.00  0.00    -0.462 OA
BRANCH  74  75
ATOM     75  C   UNL A   1      36.114  33.608  30.443  1.00  0.00     0.313 C 
ATOM     76  O   UNL A   1      36.901  33.956  29.567  1.00  0.00    -0.252 OA
BRANCH  75  77
ATOM     77  C   UNL A   1      36.437  33.767  31.941  1.00  0.00     0.129 C 
BRANCH  77  78
ATOM     78  C   UNL A   1      35.190  34.016  32.820  1.00  0.00     0.020 C 
BRANCH  78  79
ATOM     79  C   UNL A   1      35.062  35.390  33.461  1.00  0.00     0.004 C 
BRANCH  79  80
ATOM     80  C   UNL A   1      34.211  36.493  32.840  1.00  0.00     0.028 C 
BRANCH  80  81
ATOM     81  C   UNL A   1      33.172  36.073  31.823  1.00  0.00     0.156 C 
BRANCH  81  82
ATOM     82  O   UNL A   1      32.772  37.212  31.066  1.00  0.00    -0.396 OA
ATOM     83  H   UNL A   1      33.439  37.909  31.154  1.00  0.00     0.210 HD
ENDBRANCH  81  82
ENDBRANCH  80  81
ENDBRANCH  79  80
ENDBRANCH  78  79
ENDBRANCH  77  78
BRANCH  77  84
ATOM     84  C   UNL A   1      37.424  32.769  32.539  1.00  0.00    -0.034 A 
ATOM     85  C   UNL A   1      38.776  33.152  32.683  1.00  0.00     0.006 A 
ATOM     86  C   UNL A   1      37.043  31.506  33.014  1.00  0.00     0.006 A 
ATOM     87  C   UNL A   1      39.680  32.359  33.393  1.00  0.00     0.021 A 
ATOM     88  C   UNL A   1      37.958  30.697  33.694  1.00  0.00     0.021 A 
ATOM     89  C   UNL A   1      39.261  31.138  33.905  1.00  0.00     0.041 A 
ATOM     90  Cl  UNL A   1      40.342  30.168  34.819  1.00  0.00    -0.084 Cl
ENDBRANCH  77  84
ENDBRANCH  75  77
ENDBRANCH  74  75
ENDBRANCH   1  74
TORSDOF 20
ENDMDL
MODEL 2
REMARK VINA RESULT:      -8.9      4.410      6.555
REMARK SMILES O=C(OCCOC(=O)[C@@H](CCCCO)c1ccc(Cl)cc1)c1ccc(-c2c3nc(c(-c4c(F)cc(S(=O)(=O)[O-])cc4F)c4ccc([nH]4)c(-c4c(F)cc(S(=O)(=O)[O-])cc4F)c4nc(c(-c5c(F)cc(S(=O)(=O)[O-])cc5F)c5ccc2[nH]5)C=C4)C=C3)cc1
REMARK SMILES IDX 5 1 4 2 3 3 2 4 1 5 22 6 23 7 87 8 24 9 86 10 25 11 26 12
REMARK SMILES IDX 27 13 80 14 28 15 85 16 79 17 81 18 29 19 84 20 78 21 77 22
REMARK SMILES IDX 30 24 64 25 43 26 63 27 44 28 47 29 62 30 82 31 45 32 46 33
REMARK SMILES IDX 61 35 83 36 48 37 31 38 32 39 41 40 33 41 34 42 40 43 42 44
REMARK SMILES IDX 35 45 36 46 37 47 38 48 39 49 65 50 66 51 75 52 67 53 68 54
REMARK SMILES IDX 74 55 76 56 69 57 70 58 71 59 72 60 73 61 49 62 50 63 59 64
REMARK SMILES IDX 51 65 52 66 58 67 60 68 53 69 54 70 55 71 56 72 57 73 6 74
REMARK SMILES IDX 7 75 8 76 9 77 10 78 11 79 12 80 13 81 14 82 15 84 16 85
REMARK SMILES IDX 21 86 17 87 20 88 18 89 19 90
REMARK H PARENT 81 23 47 34 14 83
REMARK Flexibility Score: inf
ROOT
ATOM      1  C   UNL A   1      31.997  29.462  25.318  1.00  0.00     0.274 C 
ENDROOT
BRANCH   1   2
ATOM      2  C   UNL A   1      33.372  29.787  25.905  1.00  0.00     0.275 C 
BRANCH   2   3
ATOM      3  O   UNL A   1      33.369  30.834  26.873  1.00  0.00    -0.458 OA
BRANCH   3   4
ATOM      4  C   UNL A   1      34.384  31.286  27.640  1.00  0.00     0.338 C 
ATOM      5  O   UNL A   1      34.316  32.456  28.018  1.00  0.00    -0.246 OA
BRANCH   4   6
ATOM      6  C   UNL A   1      35.628  30.505  27.984  1.00  0.00     0.060 A 
ATOM      7  C   UNL A   1      36.862  30.462  27.312  1.00  0.00     0.016 A 
ATOM      8  C   UNL A   1      35.555  29.829  29.206  1.00  0.00     0.016 A 
ATOM      9  C   UNL A   1      38.009  29.866  27.886  1.00  0.00     0.010 A 
ATOM     10  C   UNL A   1      36.704  29.311  29.806  1.00  0.00     0.010 A 
ATOM     11  C   UNL A   1      37.960  29.327  29.167  1.00  0.00    -0.014 A 
BRANCH  11  12
ATOM     12  C   UNL A   1      39.129  28.747  29.907  1.00  0.00     0.031 A 
ATOM     13  C   UNL A   1      39.748  29.624  30.968  1.00  0.00     0.074 A 
ATOM     14  C   UNL A   1      39.783  27.626  29.509  1.00  0.00     0.049 A 
ATOM     15  N   UNL A   1      40.946  29.590  31.483  1.00  0.00    -0.248 NA
ATOM     16  C   UNL A   1      38.925  30.761  31.433  1.00  0.00     0.031 C 
ATOM     17  C   UNL A   1      39.360  26.685  28.465  1.00  0.00     0.029 A 
ATOM     18  N   UNL A   1      41.037  27.163  29.853  1.00  0.00    -0.354 N 
ATOM     19  C   UNL A   1      40.991  30.682  32.338  1.00  0.00     0.074 A 
ATOM     20  C   UNL A   1      39.828  31.491  32.065  1.00  0.00     0.031 C 
ATOM     21  C   UNL A   1      40.385  25.871  28.149  1.00  0.00     0.029 A 
ATOM     22  C   UNL A   1      41.521  26.181  29.005  1.00  0.00     0.049 A 
ATOM     23  H   UNL A   1      41.541  27.498  30.629  1.00  0.00     0.167 HD
ATOM     24  C   UNL A   1      41.814  30.903  33.388  1.00  0.00     0.037 A 
ATOM     25  C   UNL A   1      42.744  25.613  28.927  1.00  0.00     0.037 A 
ATOM     26  C   UNL A   1      42.892  30.026  33.730  1.00  0.00     0.049 A 
ATOM     27  C   UNL A   1      43.736  25.919  30.020  1.00  0.00     0.074 A 
ATOM     28  C   UNL A   1      43.681  30.022  34.863  1.00  0.00     0.029 A 
ATOM     29  N   UNL A   1      43.317  28.976  32.933  1.00  0.00    -0.354 N 
ATOM     30  N   UNL A   1      43.669  26.834  30.959  1.00  0.00    -0.248 NA
ATOM     31  C   UNL A   1      44.919  25.050  30.112  1.00  0.00     0.031 C 
ATOM     32  C   UNL A   1      44.603  28.977  34.739  1.00  0.00     0.029 A 
ATOM     33  C   UNL A   1      44.361  28.314  33.545  1.00  0.00     0.049 A 
ATOM     34  H   UNL A   1      42.931  28.738  32.059  1.00  0.00     0.167 HD
ATOM     35  C   UNL A   1      44.732  26.572  31.817  1.00  0.00     0.074 A 
ATOM     36  C   UNL A   1      45.461  25.456  31.251  1.00  0.00     0.031 C 
ATOM     37  C   UNL A   1      45.041  27.170  32.994  1.00  0.00     0.037 A 
BRANCH  24  38
ATOM     38  C   UNL A   1      41.445  32.034  34.306  1.00  0.00     0.058 A 
ATOM     39  C   UNL A   1      40.495  31.842  35.328  1.00  0.00     0.135 A 
ATOM     40  C   UNL A   1      41.996  33.313  34.157  1.00  0.00     0.135 A 
ATOM     41  F   UNL A   1      39.926  30.639  35.510  1.00  0.00    -0.206 F 
ATOM     42  C   UNL A   1      40.054  32.891  36.121  1.00  0.00     0.059 A 
ATOM     43  C   UNL A   1      41.599  34.371  34.973  1.00  0.00     0.059 A 
ATOM     44  F   UNL A   1      42.911  33.551  33.205  1.00  0.00    -0.206 F 
ATOM     45  C   UNL A   1      40.610  34.154  35.934  1.00  0.00     0.060 A 
BRANCH  45  46
ATOM     46  S   UNL A   1      40.019  35.498  36.979  1.00  0.00     0.124 S 
ATOM     47  O   UNL A   1      41.213  35.810  37.757  1.00  0.00    -0.237 OA
ATOM     48  O   UNL A   1      39.619  36.502  36.001  1.00  0.00    -0.237 OA
ATOM     49  O   UNL A   1      38.922  34.885  37.729  1.00  0.00    -0.744 OA
ENDBRANCH  45  46
ENDBRANCH  24  38
BRANCH  25  50
ATOM     50  C   UNL A   1      43.094  24.613  27.874  1.00  0.00     0.058 A 
ATOM     51  C   UNL A   1      42.891  23.241  28.089  1.00  0.00     0.135 A 
ATOM     52  C   UNL A   1      43.728  24.992  26.679  1.00  0.00     0.135 A 
ATOM     53  F   UNL A   1      42.313  22.824  29.225  1.00  0.00    -0.206 F 
ATOM     54  C   UNL A   1      43.325  22.280  27.179  1.00  0.00     0.059 A 
ATOM     55  C   UNL A   1      44.167  24.047  25.748  1.00  0.00     0.059 A 
ATOM     56  F   UNL A   1      43.940  26.290  26.414  1.00  0.00    -0.206 F 
ATOM     57  C   UNL A   1      43.968  22.691  26.010  1.00  0.00     0.060 A 
BRANCH  57  58
ATOM     58  S   UNL A   1      44.512  21.427  24.836  1.00  0.00     0.124 S 
ATOM     59  O   UNL A   1      45.848  21.115  25.333  1.00  0.00    -0.237 OA
ATOM     60  O   UNL A   1      43.507  20.384  25.020  1.00  0.00    -0.237 OA
ATOM     61  O   UNL A   1      44.467  22.115  23.549  1.00  0.00    -0.744 OA
ENDBRANCH  57  58
ENDBRANCH  25  50
BRANCH  37  62
ATOM     62  C   UNL A   1      46.132  26.563  33.823  1.00  0.00     0.058 A 
ATOM     63  C   UNL A   1      47.450  27.034  33.786  1.00  0.00     0.135 A 
ATOM     64  C   UNL A   1      45.817  25.546  34.743  1.00  0.00     0.135 A 
ATOM     65  F   UNL A   1      47.799  27.995  32.915  1.00  0.00    -0.206 F 
ATOM     66  C   UNL A   1      48.423  26.518  34.632  1.00  0.00     0.059 A 
ATOM     67  C   UNL A   1      46.767  25.038  35.620  1.00  0.00     0.059 A 
ATOM     68  F   UNL A   1      44.565  25.066  34.819  1.00  0.00    -0.206 F 
ATOM     69  C   UNL A   1      48.069  25.528  35.553  1.00  0.00     0.060 A 
BRANCH  69  70
ATOM     70  S   UNL A   1      49.324  24.924  36.699  1.00  0.00     0.124 S 
ATOM     71  O   UNL A   1      49.888  23.803  35.954  1.00  0.00    -0.237 OA
ATOM     72  O   UNL A   1      50.193  26.087  36.850  1.00  0.00    -0.237 OA
ATOM     73  O   UNL A   1      48.555  24.566  37.887  1.00  0.00    -0.744 OA
ENDBRANCH  69  70
ENDBRANCH  37  62
ENDBRANCH  11  12
ENDBRANCH   4   6
ENDBRANCH   3   4
ENDBRANCH   2   3
ENDBRANCH   1   2
BRANCH   1  74
ATOM     74  O   UNL A   1      31.378  28.249  25.802  1.00  0.00    -0.462 OA
BRANCH  74  75
ATOM     75  C   UNL A   1      31.646  27.117  25.082  1.00  0.00     0.313 C 
ATOM     76  O   UNL A   1      32.715  26.921  24.510  1.00  0.00    -0.252 OA
BRANCH  75  77
ATOM     77  C   UNL A   1      30.460  26.141  24.952  1.00  0.00     0.129 C 
BRANCH  77  78
ATOM     78  C   UNL A   1      29.365  26.624  23.974  1.00  0.00     0.020 C 
BRANCH  78  79
ATOM     79  C   UNL A   1      29.748  27.735  23.007  1.00  0.00     0.004 C 
BRANCH  79  80
ATOM     80  C   UNL A   1      29.069  29.100  23.038  1.00  0.00     0.028 C 
BRANCH  80  81
ATOM     81  C   UNL A   1      29.429  30.075  21.937  1.00  0.00     0.156 C 
BRANCH  81  82
ATOM     82  O   UNL A   1      30.814  29.945  21.632  1.00  0.00    -0.396 OA
ATOM     83  H   UNL A   1      31.173  29.166  22.084  1.00  0.00     0.210 HD
ENDBRANCH  81  82
ENDBRANCH  80  81
ENDBRANCH  79  80
ENDBRANCH  78  79
ENDBRANCH  77  78
BRANCH  77  84
ATOM     84  C   UNL A   1      30.803  24.661  24.812  1.00  0.00    -0.034 A 
ATOM     85  C   UNL A   1      31.012  24.131  23.519  1.00  0.00     0.006 A 
ATOM     86  C   UNL A   1      30.983  23.809  25.910  1.00  0.00     0.006 A 
ATOM     87  C   UNL A   1      31.512  22.839  23.341  1.00  0.00     0.021 A 
ATOM     88  C   UNL A   1      31.450  22.503  25.728  1.00  0.00     0.021 A 
ATOM     89  C   UNL A   1      31.739  22.035  24.451  1.00  0.00     0.041 A 
ATOM     90  Cl  UNL A   1      32.394  20.461  24.257  1.00  0.00    -0.084 Cl
ENDBRANCH  77  84
ENDBRANCH  75  77
ENDBRANCH  74  75
ENDBRANCH   1  74
TORSDOF 20
ENDMDL
MODEL 3
REMARK VINA RESULT:      -8.9      4.302      6.806
REMARK SMILES O=C(OCCOC(=O)[C@@H](CCCCO)c1ccc(Cl)cc1)c1ccc(-c2c3nc(c(-c4c(F)cc(S(=O)(=O)[O-])cc4F)c4ccc([nH]4)c(-c4c(F)cc(S(=O)(=O)[O-])cc4F)c4nc(c(-c5c(F)cc(S(=O)(=O)[O-])cc5F)c5ccc2[nH]5)C=C4)C=C3)cc1
REMARK SMILES IDX 5 1 4 2 3 3 2 4 1 5 22 6 23 7 87 8 24 9 86 10 25 11 26 12
REMARK SMILES IDX 27 13 80 14 28 15 85 16 79 17 81 18 29 19 84 20 78 21 77 22
REMARK SMILES IDX 30 24 64 25 43 26 63 27 44 28 47 29 62 30 82 31 45 32 46 33
REMARK SMILES IDX 61 35 83 36 48 37 31 38 32 39 41 40 33 41 34 42 40 43 42 44
REMARK SMILES IDX 35 45 36 46 37 47 38 48 39 49 65 50 66 51 75 52 67 53 68 54
REMARK SMILES IDX 74 55 76 56 69 57 70 58 71 59 72 60 73 61 49 62 50 63 59 64
REMARK SMILES IDX 51 65 52 66 58 67 60 68 53 69 54 70 55 71 56 72 57 73 6 74
REMARK SMILES IDX 7 75 8 76 9 77 10 78 11 79 12 80 13 81 14 82 15 84 16 85
REMARK SMILES IDX 21 86 17 87 20 88 18 89 19 90
REMARK H PARENT 81 23 47 34 14 83
REMARK Flexibility Score: inf
ROOT
ATOM      1  C   UNL A   1      33.452  28.522  25.875  1.00  0.00     0.274 C 
ENDROOT
BRANCH   1   2
ATOM      2  C   UNL A   1      32.765  29.565  26.760  1.00  0.00     0.275 C 
BRANCH   2   3
ATOM      3  O   UNL A   1      33.441  30.818  26.832  1.00  0.00    -0.458 OA
BRANCH   3   4
ATOM      4  C   UNL A   1      34.404  31.217  27.690  1.00  0.00     0.338 C 
ATOM      5  O   UNL A   1      34.287  32.345  28.171  1.00  0.00    -0.246 OA
BRANCH   4   6
ATOM      6  C   UNL A   1      35.647  30.432  28.027  1.00  0.00     0.060 A 
ATOM      7  C   UNL A   1      36.859  30.345  27.320  1.00  0.00     0.016 A 
ATOM      8  C   UNL A   1      35.603  29.806  29.277  1.00  0.00     0.016 A 
ATOM      9  C   UNL A   1      38.015  29.755  27.882  1.00  0.00     0.010 A 
ATOM     10  C   UNL A   1      36.763  29.295  29.862  1.00  0.00     0.010 A 
ATOM     11  C   UNL A   1      37.999  29.268  29.184  1.00  0.00    -0.014 A 
BRANCH  11  12
ATOM     12  C   UNL A   1      39.183  28.700  29.911  1.00  0.00     0.031 A 
ATOM     13  C   UNL A   1      39.805  29.584  30.964  1.00  0.00     0.074 A 
ATOM     14  C   UNL A   1      39.843  27.585  29.506  1.00  0.00     0.049 A 
ATOM     15  N   UNL A   1      41.010  29.562  31.464  1.00  0.00    -0.248 NA
ATOM     16  C   UNL A   1      38.976  30.713  31.438  1.00  0.00     0.031 C 
ATOM     17  C   UNL A   1      39.418  26.640  28.467  1.00  0.00     0.029 A 
ATOM     18  N   UNL A   1      41.106  27.135  29.834  1.00  0.00    -0.354 N 
ATOM     19  C   UNL A   1      41.054  30.655  32.319  1.00  0.00     0.074 A 
ATOM     20  C   UNL A   1      39.879  31.453  32.059  1.00  0.00     0.031 C 
ATOM     21  C   UNL A   1      40.448  25.836  28.139  1.00  0.00     0.029 A 
ATOM     22  C   UNL A   1      41.591  26.159  28.981  1.00  0.00     0.049 A 
ATOM     23  H   UNL A   1      41.616  27.477  30.604  1.00  0.00     0.167 HD
ATOM     24  C   UNL A   1      41.887  30.886  33.358  1.00  0.00     0.037 A 
ATOM     25  C   UNL A   1      42.818  25.603  28.889  1.00  0.00     0.037 A 
ATOM     26  C   UNL A   1      42.978  30.020  33.688  1.00  0.00     0.049 A 
ATOM     27  C   UNL A   1      43.820  25.920  29.970  1.00  0.00     0.074 A 
ATOM     28  C   UNL A   1      43.780  30.025  34.812  1.00  0.00     0.029 A 
ATOM     29  N   UNL A   1      43.404  28.974  32.886  1.00  0.00    -0.354 N 
ATOM     30  N   UNL A   1      43.754  26.834  30.909  1.00  0.00    -0.248 NA
ATOM     31  C   UNL A   1      45.013  25.063  30.048  1.00  0.00     0.031 C 
ATOM     32  C   UNL A   1      44.711  28.989  34.677  1.00  0.00     0.029 A 
ATOM     33  C   UNL A   1      44.461  28.323  33.487  1.00  0.00     0.049 A 
ATOM     34  H   UNL A   1      43.010  28.732  32.017  1.00  0.00     0.167 HD
ATOM     35  C   UNL A   1      44.830  26.584  31.754  1.00  0.00     0.074 A 
ATOM     36  C   UNL A   1      45.563  25.476  31.181  1.00  0.00     0.031 C 
ATOM     37  C   UNL A   1      45.147  27.186  32.927  1.00  0.00     0.037 A 
BRANCH  24  38
ATOM     38  C   UNL A   1      41.516  32.014  34.280  1.00  0.00     0.058 A 
ATOM     39  C   UNL A   1      40.580  31.813  35.312  1.00  0.00     0.135 A 
ATOM     40  C   UNL A   1      42.054  33.297  34.125  1.00  0.00     0.135 A 
ATOM     41  F   UNL A   1      40.025  30.604  35.501  1.00  0.00    -0.206 F 
ATOM     42  C   UNL A   1      40.137  32.857  36.110  1.00  0.00     0.059 A 
ATOM     43  C   UNL A   1      41.655  34.352  34.944  1.00  0.00     0.059 A 
ATOM     44  F   UNL A   1      42.955  33.544  33.163  1.00  0.00    -0.206 F 
ATOM     45  C   UNL A   1      40.680  34.126  35.917  1.00  0.00     0.060 A 
BRANCH  45  46
ATOM     46  S   UNL A   1      40.087  35.465  36.968  1.00  0.00     0.124 S 
ATOM     47  O   UNL A   1      39.019  34.803  37.709  1.00  0.00    -0.237 OA
ATOM     48  O   UNL A   1      41.276  35.806  37.738  1.00  0.00    -0.237 OA
ATOM     49  O   UNL A   1      39.651  36.480  36.008  1.00  0.00    -0.744 OA
ENDBRANCH  45  46
ENDBRANCH  24  38
BRANCH  25  50
ATOM     50  C   UNL A   1      43.166  24.606  27.832  1.00  0.00     0.058 A 
ATOM     51  C   UNL A   1      42.935  23.236  28.032  1.00  0.00     0.135 A 
ATOM     52  C   UNL A   1      43.824  24.984  26.651  1.00  0.00     0.135 A 
ATOM     53  F   UNL A   1      42.333  22.820  29.156  1.00  0.00    -0.206 F 
ATOM     54  C   UNL A   1      43.365  22.275  27.120  1.00  0.00     0.059 A 
ATOM     55  C   UNL A   1      44.261  24.040  25.717  1.00  0.00     0.059 A 
ATOM     56  F   UNL A   1      44.064  26.280  26.401  1.00  0.00    -0.206 F 
ATOM     57  C   UNL A   1      44.033  22.685  25.965  1.00  0.00     0.060 A 
BRANCH  57  58
ATOM     58  S   UNL A   1      44.572  21.422  24.787  1.00  0.00     0.124 S 
ATOM     59  O   UNL A   1      45.921  21.131  25.261  1.00  0.00    -0.237 OA
ATOM     60  O   UNL A   1      43.585  20.366  24.997  1.00  0.00    -0.237 OA
ATOM     61  O   UNL A   1      44.493  22.101  23.498  1.00  0.00    -0.744 OA
ENDBRANCH  57  58
ENDBRANCH  25  50
BRANCH  37  62
ATOM     62  C   UNL A   1      46.254  26.591  33.744  1.00  0.00     0.058 A 
ATOM     63  C   UNL A   1      46.038  25.534  34.638  1.00  0.00     0.135 A 
ATOM     64  C   UNL A   1      47.574  27.035  33.549  1.00  0.00     0.135 A 
ATOM     65  F   UNL A   1      44.793  25.085  34.865  1.00  0.00    -0.206 F 
ATOM     66  C   UNL A   1      47.095  24.936  35.314  1.00  0.00     0.059 A 
ATOM     67  C   UNL A   1      48.647  26.431  34.190  1.00  0.00     0.059 A 
ATOM     68  F   UNL A   1      47.830  28.041  32.698  1.00  0.00    -0.206 F 
ATOM     69  C   UNL A   1      48.396  25.385  35.075  1.00  0.00     0.060 A 
BRANCH  69  70
ATOM     70  S   UNL A   1      49.764  24.547  35.899  1.00  0.00     0.124 S 
ATOM     71  O   UNL A   1      50.271  25.600  36.772  1.00  0.00    -0.237 OA
ATOM     72  O   UNL A   1      49.092  23.437  36.567  1.00  0.00    -0.237 OA
ATOM     73  O   UNL A   1      50.643  24.166  34.797  1.00  0.00    -0.744 OA
ENDBRANCH  69  70
ENDBRANCH  37  62
ENDBRANCH  11  12
ENDBRANCH   4   6
ENDBRANCH   3   4
ENDBRANCH   2   3
ENDBRANCH   1   2
BRANCH   1  74
ATOM     74  O   UNL A   1      32.685  27.329  25.599  1.00  0.00    -0.462 OA
BRANCH  74  75
ATOM     75  C   UNL A   1      32.492  27.040  24.276  1.00  0.00     0.313 C 
ATOM     76  O   UNL A   1      33.399  27.050  23.447  1.00  0.00    -0.252 OA
BRANCH  75  77
ATOM     77  C   UNL A   1      31.024  26.798  23.876  1.00  0.00     0.129 C 
BRANCH  77  78
ATOM     78  C   UNL A   1      30.303  25.761  24.768  1.00  0.00     0.020 C 
BRANCH  78  79
ATOM     79  C   UNL A   1      30.693  24.302  24.582  1.00  0.00     0.004 C 
BRANCH  79  80
ATOM     80  C   UNL A   1      30.841  23.350  25.763  1.00  0.00     0.028 C 
BRANCH  80  81
ATOM     81  C   UNL A   1      31.957  22.330  25.692  1.00  0.00     0.156 C 
BRANCH  81  82
ATOM     82  O   UNL A   1      31.400  21.021  25.750  1.00  0.00    -0.396 OA
ATOM     83  H   UNL A   1      31.150  20.816  26.664  1.00  0.00     0.210 HD
ENDBRANCH  81  82
ENDBRANCH  80  81
ENDBRANCH  79  80
ENDBRANCH  78  79
ENDBRANCH  77  78
BRANCH  77  84
ATOM     84  C   UNL A   1      30.185  28.034  23.567  1.00  0.00    -0.034 A 
ATOM     85  C   UNL A   1      28.853  27.860  23.130  1.00  0.00     0.006 A 
ATOM     86  C   UNL A   1      30.652  29.343  23.754  1.00  0.00     0.006 A 
ATOM     87  C   UNL A   1      27.983  28.946  23.015  1.00  0.00     0.021 A 
ATOM     88  C   UNL A   1      29.789  30.433  23.604  1.00  0.00     0.021 A 
ATOM     89  C   UNL A   1      28.455  30.229  23.264  1.00  0.00     0.041 A 
ATOM     90  Cl  UNL A   1      27.393  31.573  23.173  1.00  0.00    -0.084 Cl
ENDBRANCH  77  84
ENDBRANCH  75  77
ENDBRANCH  74  75
ENDBRANCH   1  74
TORSDOF 20
ENDMDL
