MODEL 1
REMARK VINA RESULT:     -10.9      0.000      0.000
REMARK SMILES CCCCCCNC(=O)Oc1cccc(-c2ccc([C@@H](C)C(=O)OCCOC(=O)c3ccc(-c4c5nc(c(-c6c(F)cc(S(=O)(=O)[O-])cc6F)c6ccc([nH]6)c(-c6c(F)cc(S(=O)(=O)[O-])cc6F)c6nc(c(-c7c(F)cc(S(=O)(=O)[O-])cc7F)c7ccc4[nH]7)C=C6)C=C5)cc3)cc2F)c1
REMARK SMILES IDX 20 1 21 2 19 3 16 4 17 5 97 6 18 7 96 8 98 9 15 10 11 11
REMARK SMILES IDX 12 12 99 13 13 14 14 15 10 16 8 17 7 18 9 20 6 21 5 22 4 23
REMARK SMILES IDX 3 24 2 25 1 26 22 27 23 28 24 29 25 30 26 31 27 32 28 33
REMARK SMILES IDX 29 34 30 35 31 36 95 37 32 38 94 39 33 40 34 41 35 42 88 43
REMARK SMILES IDX 36 44 93 45 87 46 89 47 37 48 92 49 86 50 85 51 38 53 72 54
REMARK SMILES IDX 51 55 71 56 52 57 55 58 70 59 90 60 53 61 54 62 69 64 91 65
REMARK SMILES IDX 56 66 39 67 40 68 49 69 41 70 42 71 48 72 50 73 43 74 44 75
REMARK SMILES IDX 45 76 46 77 47 78 73 79 74 80 83 81 75 82 76 83 82 84 84 85
REMARK SMILES IDX 77 86 78 87 79 88 80 89 81 90 57 91 58 92 67 93 59 94 60 95
REMARK SMILES IDX 66 96 68 97 61 98 62 99 63 100 64 101 65 102
REMARK H PARENT 7 19 89 52 55 63
REMARK Flexibility Score: inf
ROOT
ATOM      1  C   UNL A   1      34.458  34.288  28.877  1.00  0.00     0.126 C 
ATOM      2  C   UNL A   1      34.280  35.495  27.958  1.00  0.00     0.025 C 
ENDROOT
BRANCH   1   3
ATOM      3  C   UNL A   1      34.013  32.988  28.222  1.00  0.00    -0.031 A 
ATOM      4  C   UNL A   1      33.218  30.524  27.029  1.00  0.00     0.018 A 
ATOM      5  C   UNL A   1      32.361  31.636  27.047  1.00  0.00     0.012 A 
ATOM      6  C   UNL A   1      34.476  30.674  27.622  1.00  0.00     0.131 A 
ATOM      7  C   UNL A   1      32.752  32.848  27.629  1.00  0.00     0.005 A 
ATOM      8  C   UNL A   1      34.875  31.881  28.201  1.00  0.00     0.044 A 
ATOM      9  F   UNL A   1      35.351  29.656  27.621  1.00  0.00    -0.206 F 
BRANCH   4  10
ATOM     10  C   UNL A   1      32.799  29.266  26.392  1.00  0.00    -0.012 A 
ATOM     11  C   UNL A   1      32.615  27.818  24.453  1.00  0.00     0.133 A 
ATOM     12  C   UNL A   1      31.991  26.831  25.214  1.00  0.00     0.047 A 
ATOM     13  C   UNL A   1      33.002  29.034  25.021  1.00  0.00     0.056 A 
ATOM     14  C   UNL A   1      31.775  27.050  26.570  1.00  0.00     0.004 A 
ATOM     15  C   UNL A   1      32.178  28.256  27.152  1.00  0.00     0.009 A 
BRANCH  11  16
ATOM     16  O   UNL A   1      32.737  27.575  23.077  1.00  0.00    -0.410 OA
BRANCH  16  17
ATOM     17  C   UNL A   1      31.685  26.926  22.449  1.00  0.00     0.412 C 
ATOM     18  N   UNL A   1      30.665  27.769  22.100  1.00  0.00    -0.321 N 
ATOM     19  H   UNL A   1      29.910  27.366  21.612  1.00  0.00     0.167 HD
ATOM     20  O   UNL A   1      31.604  25.722  22.232  1.00  0.00    -0.224 OA
BRANCH  18  21
ATOM     21  C   UNL A   1      30.575  29.190  22.371  1.00  0.00     0.119 C 
BRANCH  21  22
ATOM     22  C   UNL A   1      29.242  29.788  21.927  1.00  0.00     0.021 C 
BRANCH  22  23
ATOM     23  C   UNL A   1      28.189  29.922  23.034  1.00  0.00     0.002 C 
BRANCH  23  24
ATOM     24  C   UNL A   1      27.840  31.355  23.452  1.00  0.00    -0.000 C 
BRANCH  24  25
ATOM     25  C   UNL A   1      29.032  32.269  23.745  1.00  0.00    -0.003 C 
ATOM     26  C   UNL A   1      28.902  33.651  23.122  1.00  0.00     0.004 C 
ENDBRANCH  24  25
ENDBRANCH  23  24
ENDBRANCH  22  23
ENDBRANCH  21  22
ENDBRANCH  18  21
ENDBRANCH  16  17
ENDBRANCH  11  16
ENDBRANCH   4  10
ENDBRANCH   1   3
BRANCH   1  27
ATOM     27  C   UNL A   1      33.854  34.588  30.245  1.00  0.00     0.313 C 
ATOM     28  O   UNL A   1      33.136  35.563  30.442  1.00  0.00    -0.252 OA
BRANCH  27  29
ATOM     29  O   UNL A   1      34.137  33.650  31.188  1.00  0.00    -0.462 OA
BRANCH  29  30
ATOM     30  C   UNL A   1      35.442  33.713  31.797  1.00  0.00     0.274 C 
BRANCH  30  31
ATOM     31  C   UNL A   1      36.013  32.315  32.047  1.00  0.00     0.275 C 
BRANCH  31  32
ATOM     32  O   UNL A   1      36.323  31.642  30.813  1.00  0.00    -0.458 OA
BRANCH  32  33
ATOM     33  C   UNL A   1      36.701  30.351  30.953  1.00  0.00     0.338 C 
ATOM     34  O   UNL A   1      35.997  29.410  31.280  1.00  0.00    -0.246 OA
BRANCH  33  35
ATOM     35  C   UNL A   1      38.093  30.185  30.513  1.00  0.00     0.060 A 
ATOM     36  C   UNL A   1      38.348  30.229  29.141  1.00  0.00     0.016 A 
ATOM     37  C   UNL A   1      39.117  29.896  31.416  1.00  0.00     0.016 A 
ATOM     38  C   UNL A   1      39.622  29.954  28.656  1.00  0.00     0.010 A 
ATOM     39  C   UNL A   1      40.401  29.631  30.930  1.00  0.00     0.010 A 
ATOM     40  C   UNL A   1      40.654  29.638  29.546  1.00  0.00    -0.014 A 
BRANCH  40  41
ATOM     41  C   UNL A   1      41.980  29.257  29.004  1.00  0.00     0.031 A 
ATOM     42  C   UNL A   1      43.078  30.278  28.926  1.00  0.00     0.074 A 
ATOM     43  C   UNL A   1      42.205  27.986  28.625  1.00  0.00     0.049 A 
ATOM     44  N   UNL A   1      44.302  30.143  28.483  1.00  0.00    -0.248 NA
ATOM     45  C   UNL A   1      42.756  31.629  29.407  1.00  0.00     0.031 C 
ATOM     46  C   UNL A   1      41.220  26.907  28.676  1.00  0.00     0.029 A 
ATOM     47  N   UNL A   1      43.334  27.390  28.125  1.00  0.00    -0.354 N 
ATOM     48  C   UNL A   1      44.892  31.393  28.616  1.00  0.00     0.074 A 
ATOM     49  C   UNL A   1      43.884  32.280  29.158  1.00  0.00     0.031 C 
ATOM     50  C   UNL A   1      41.787  25.776  28.224  1.00  0.00     0.029 A 
ATOM     51  C   UNL A   1      43.164  26.060  27.826  1.00  0.00     0.049 A 
ATOM     52  H   UNL A   1      44.185  27.868  27.995  1.00  0.00     0.167 HD
ATOM     53  C   UNL A   1      46.162  31.766  28.321  1.00  0.00     0.037 A 
ATOM     54  C   UNL A   1      44.016  25.173  27.275  1.00  0.00     0.037 A 
ATOM     55  C   UNL A   1      47.161  30.877  27.790  1.00  0.00     0.049 A 
ATOM     56  C   UNL A   1      45.414  25.608  26.940  1.00  0.00     0.074 A 
ATOM     57  C   UNL A   1      48.480  31.151  27.471  1.00  0.00     0.029 A 
ATOM     58  N   UNL A   1      46.951  29.536  27.492  1.00  0.00    -0.354 N 
ATOM     59  N   UNL A   1      45.965  26.791  27.086  1.00  0.00    -0.248 NA
ATOM     60  C   UNL A   1      46.309  24.593  26.371  1.00  0.00     0.031 C 
ATOM     61  C   UNL A   1      49.057  29.986  26.950  1.00  0.00     0.029 A 
ATOM     62  C   UNL A   1      48.108  28.975  26.978  1.00  0.00     0.049 A 
ATOM     63  H   UNL A   1      46.102  29.056  27.627  1.00  0.00     0.167 HD
ATOM     64  C   UNL A   1      47.274  26.661  26.636  1.00  0.00     0.074 A 
ATOM     65  C   UNL A   1      47.437  25.278  26.227  1.00  0.00     0.031 C 
ATOM     66  C   UNL A   1      48.251  27.599  26.568  1.00  0.00     0.037 A 
BRANCH  53  67
ATOM     67  C   UNL A   1      46.515  33.211  28.539  1.00  0.00     0.058 A 
ATOM     68  C   UNL A   1      46.357  34.173  27.528  1.00  0.00     0.135 A 
ATOM     69  C   UNL A   1      47.044  33.635  29.769  1.00  0.00     0.135 A 
ATOM     70  F   UNL A   1      45.869  33.818  26.329  1.00  0.00    -0.206 F 
ATOM     71  C   UNL A   1      46.757  35.493  27.710  1.00  0.00     0.059 A 
ATOM     72  C   UNL A   1      47.429  34.956  29.981  1.00  0.00     0.059 A 
ATOM     73  F   UNL A   1      47.213  32.759  30.771  1.00  0.00    -0.206 F 
ATOM     74  C   UNL A   1      47.305  35.872  28.937  1.00  0.00     0.060 A 
BRANCH  74  75
ATOM     75  S   UNL A   1      47.869  37.574  29.148  1.00  0.00     0.124 S 
ATOM     76  O   UNL A   1      46.601  38.289  29.259  1.00  0.00    -0.237 OA
ATOM     77  O   UNL A   1      48.660  37.498  30.373  1.00  0.00    -0.237 OA
ATOM     78  O   UNL A   1      48.632  37.832  27.931  1.00  0.00    -0.744 OA
ENDBRANCH  74  75
ENDBRANCH  53  67
BRANCH  54  79
ATOM     79  C   UNL A   1      43.548  23.789  27.014  1.00  0.00     0.058 A 
ATOM     80  C   UNL A   1      43.417  22.857  28.051  1.00  0.00     0.135 A 
ATOM     81  C   UNL A   1      43.150  23.397  25.725  1.00  0.00     0.135 A 
ATOM     82  F   UNL A   1      43.793  23.184  29.298  1.00  0.00    -0.206 F 
ATOM     83  C   UNL A   1      42.895  21.588  27.826  1.00  0.00     0.059 A 
ATOM     84  C   UNL A   1      42.607  22.141  25.478  1.00  0.00     0.059 A 
ATOM     85  F   UNL A   1      43.245  24.260  24.701  1.00  0.00    -0.206 F 
ATOM     86  C   UNL A   1      42.483  21.242  26.537  1.00  0.00     0.060 A 
BRANCH  86  87
ATOM     87  S   UNL A   1      41.711  19.630  26.273  1.00  0.00     0.124 S 
ATOM     88  O   UNL A   1      42.151  18.896  27.454  1.00  0.00    -0.237 OA
ATOM     89  O   UNL A   1      40.292  19.972  26.224  1.00  0.00    -0.237 OA
ATOM     90  O   UNL A   1      42.283  19.190  25.004  1.00  0.00    -0.744 OA
ENDBRANCH  86  87
ENDBRANCH  54  79
BRANCH  66  91
ATOM     91  C   UNL A   1      49.588  27.162  26.040  1.00  0.00     0.058 A 
ATOM     92  C   UNL A   1      50.577  26.644  26.890  1.00  0.00     0.135 A 
ATOM     93  C   UNL A   1      49.863  27.214  24.664  1.00  0.00     0.135 A 
ATOM     94  F   UNL A   1      50.366  26.580  28.213  1.00  0.00    -0.206 F 
ATOM     95  C   UNL A   1      51.803  26.208  26.395  1.00  0.00     0.059 A 
ATOM     96  C   UNL A   1      51.074  26.764  24.146  1.00  0.00     0.059 A 
ATOM     97  F   UNL A   1      48.946  27.693  23.808  1.00  0.00    -0.206 F 
ATOM     98  C   UNL A   1      52.042  26.273  25.021  1.00  0.00     0.060 A 
BRANCH  98  99
ATOM     99  S   UNL A   1      53.622  25.672  24.384  1.00  0.00     0.124 S 
ATOM    100  O   UNL A   1      53.553  26.089  22.987  1.00  0.00    -0.237 OA
ATOM    101  O   UNL A   1      54.588  26.387  25.211  1.00  0.00    -0.237 OA
ATOM    102  O   UNL A   1      53.554  24.232  24.614  1.00  0.00    -0.744 OA
ENDBRANCH  98  99
ENDBRANCH  66  91
ENDBRANCH  40  41
ENDBRANCH  33  35
ENDBRANCH  32  33
ENDBRANCH  31  32
ENDBRANCH  30  31
ENDBRANCH  29  30
ENDBRANCH  27  29
ENDBRANCH   1  27
TORSDOF 23
ENDMDL
MODEL 2
REMARK VINA RESULT:     -10.9      1.545      8.503
REMARK SMILES CCCCCCNC(=O)Oc1cccc(-c2ccc([C@@H](C)C(=O)OCCOC(=O)c3ccc(-c4c5nc(c(-c6c(F)cc(S(=O)(=O)[O-])cc6F)c6ccc([nH]6)c(-c6c(F)cc(S(=O)(=O)[O-])cc6F)c6nc(c(-c7c(F)cc(S(=O)(=O)[O-])cc7F)c7ccc4[nH]7)C=C6)C=C5)cc3)cc2F)c1
REMARK SMILES IDX 20 1 21 2 19 3 16 4 17 5 97 6 18 7 96 8 98 9 15 10 11 11
REMARK SMILES IDX 12 12 99 13 13 14 14 15 10 16 8 17 7 18 9 20 6 21 5 22 4 23
REMARK SMILES IDX 3 24 2 25 1 26 22 27 23 28 24 29 25 30 26 31 27 32 28 33
REMARK SMILES IDX 29 34 30 35 31 36 95 37 32 38 94 39 33 40 34 41 35 42 88 43
REMARK SMILES IDX 36 44 93 45 87 46 89 47 37 48 92 49 86 50 85 51 38 53 72 54
REMARK SMILES IDX 51 55 71 56 52 57 55 58 70 59 90 60 53 61 54 62 69 64 91 65
REMARK SMILES IDX 56 66 39 67 40 68 49 69 41 70 42 71 48 72 50 73 43 74 44 75
REMARK SMILES IDX 45 76 46 77 47 78 73 79 74 80 83 81 75 82 76 83 82 84 84 85
REMARK SMILES IDX 77 86 78 87 79 88 80 89 81 90 57 91 58 92 67 93 59 94 60 95
REMARK SMILES IDX 66 96 68 97 61 98 62 99 63 100 64 101 65 102
REMARK H PARENT 7 19 89 52 55 63
REMARK Flexibility Score: inf
ROOT
ATOM      1  C   UNL A   1      34.654  33.563  28.715  1.00  0.00     0.126 C 
ATOM      2  C   UNL A   1      34.509  34.768  27.788  1.00  0.00     0.025 C 
ENDROOT
BRANCH   1   3
ATOM      3  C   UNL A   1      34.176  32.271  28.068  1.00  0.00    -0.031 A 
ATOM      4  C   UNL A   1      33.319  29.821  26.890  1.00  0.00     0.018 A 
ATOM      5  C   UNL A   1      32.478  30.945  26.930  1.00  0.00     0.012 A 
ATOM      6  C   UNL A   1      34.593  29.953  27.453  1.00  0.00     0.131 A 
ATOM      7  C   UNL A   1      32.899  32.150  27.506  1.00  0.00     0.005 A 
ATOM      8  C   UNL A   1      35.021  31.152  28.025  1.00  0.00     0.044 A 
ATOM      9  F   UNL A   1      35.453  28.923  27.429  1.00  0.00    -0.206 F 
BRANCH   4  10
ATOM     10  C   UNL A   1      32.867  28.570  26.261  1.00  0.00    -0.012 A 
ATOM     11  C   UNL A   1      33.145  26.772  24.655  1.00  0.00     0.133 A 
ATOM     12  C   UNL A   1      31.970  26.163  25.091  1.00  0.00     0.047 A 
ATOM     13  C   UNL A   1      33.588  27.973  25.213  1.00  0.00     0.056 A 
ATOM     14  C   UNL A   1      31.241  26.747  26.121  1.00  0.00     0.004 A 
ATOM     15  C   UNL A   1      31.688  27.938  26.701  1.00  0.00     0.009 A 
BRANCH  11  16
ATOM     16  O   UNL A   1      33.798  26.180  23.563  1.00  0.00    -0.410 OA
BRANCH  16  17
ATOM     17  C   UNL A   1      33.010  25.521  22.631  1.00  0.00     0.412 C 
ATOM     18  N   UNL A   1      33.059  24.159  22.754  1.00  0.00    -0.321 N 
ATOM     19  H   UNL A   1      32.484  23.643  22.143  1.00  0.00     0.167 HD
ATOM     20  O   UNL A   1      32.346  26.047  21.745  1.00  0.00    -0.224 OA
BRANCH  18  21
ATOM     21  C   UNL A   1      33.864  23.394  23.684  1.00  0.00     0.119 C 
BRANCH  21  22
ATOM     22  C   UNL A   1      35.279  23.142  23.166  1.00  0.00     0.021 C 
BRANCH  22  23
ATOM     23  C   UNL A   1      36.393  23.318  24.205  1.00  0.00     0.002 C 
BRANCH  23  24
ATOM     24  C   UNL A   1      37.230  22.069  24.503  1.00  0.00    -0.000 C 
BRANCH  24  25
ATOM     25  C   UNL A   1      36.444  20.839  24.964  1.00  0.00    -0.003 C 
ATOM     26  C   UNL A   1      37.278  19.568  25.000  1.00  0.00     0.004 C 
ENDBRANCH  24  25
ENDBRANCH  23  24
ENDBRANCH  22  23
ENDBRANCH  21  22
ENDBRANCH  18  21
ENDBRANCH  16  17
ENDBRANCH  11  16
ENDBRANCH   4  10
ENDBRANCH   1   3
BRANCH   1  27
ATOM     27  C   UNL A   1      34.056  33.889  30.080  1.00  0.00     0.313 C 
ATOM     28  O   UNL A   1      33.290  34.832  30.249  1.00  0.00    -0.252 OA
BRANCH  27  29
ATOM     29  O   UNL A   1      34.405  33.009  31.056  1.00  0.00    -0.462 OA
BRANCH  29  30
ATOM     30  C   UNL A   1      35.221  33.517  32.130  1.00  0.00     0.274 C 
BRANCH  30  31
ATOM     31  C   UNL A   1      36.586  32.826  32.175  1.00  0.00     0.275 C 
BRANCH  31  32
ATOM     32  O   UNL A   1      36.807  32.016  31.006  1.00  0.00    -0.458 OA
BRANCH  32  33
ATOM     33  C   UNL A   1      36.939  30.693  31.252  1.00  0.00     0.338 C 
ATOM     34  O   UNL A   1      36.140  29.967  31.820  1.00  0.00    -0.246 OA
BRANCH  33  35
ATOM     35  C   UNL A   1      38.154  30.181  30.604  1.00  0.00     0.060 A 
ATOM     36  C   UNL A   1      39.163  29.676  31.427  1.00  0.00     0.016 A 
ATOM     37  C   UNL A   1      38.347  30.280  29.226  1.00  0.00     0.016 A 
ATOM     38  C   UNL A   1      40.385  29.294  30.884  1.00  0.00     0.010 A 
ATOM     39  C   UNL A   1      39.572  29.885  28.677  1.00  0.00     0.010 A 
ATOM     40  C   UNL A   1      40.604  29.411  29.507  1.00  0.00    -0.014 A 
BRANCH  40  41
ATOM     41  C   UNL A   1      41.943  29.087  28.962  1.00  0.00     0.031 A 
ATOM     42  C   UNL A   1      42.227  27.708  28.443  1.00  0.00     0.074 A 
ATOM     43  C   UNL A   1      42.885  30.046  28.894  1.00  0.00     0.049 A 
ATOM     44  N   UNL A   1      43.332  27.228  27.931  1.00  0.00    -0.248 NA
ATOM     45  C   UNL A   1      41.124  26.738  28.514  1.00  0.00     0.031 C 
ATOM     46  C   UNL A   1      42.713  31.426  29.347  1.00  0.00     0.029 A 
ATOM     47  N   UNL A   1      44.169  30.004  28.415  1.00  0.00    -0.354 N 
ATOM     48  C   UNL A   1      43.063  25.898  27.632  1.00  0.00     0.074 A 
ATOM     49  C   UNL A   1      41.699  25.640  28.044  1.00  0.00     0.031 C 
ATOM     50  C   UNL A   1      43.853  32.102  29.126  1.00  0.00     0.029 A 
ATOM     51  C   UNL A   1      44.840  31.196  28.543  1.00  0.00     0.049 A 
ATOM     52  H   UNL A   1      44.571  29.199  28.017  1.00  0.00     0.167 HD
ATOM     53  C   UNL A   1      43.878  24.978  27.059  1.00  0.00     0.037 A 
ATOM     54  C   UNL A   1      46.113  31.518  28.242  1.00  0.00     0.037 A 
ATOM     55  C   UNL A   1      45.231  25.244  26.645  1.00  0.00     0.049 A 
ATOM     56  C   UNL A   1      47.006  30.481  27.622  1.00  0.00     0.074 A 
ATOM     57  C   UNL A   1      46.134  24.386  26.041  1.00  0.00     0.029 A 
ATOM     58  N   UNL A   1      45.880  26.463  26.798  1.00  0.00    -0.354 N 
ATOM     59  N   UNL A   1      46.735  29.230  27.329  1.00  0.00    -0.248 NA
ATOM     60  C   UNL A   1      48.374  30.896  27.286  1.00  0.00     0.031 C 
ATOM     61  C   UNL A   1      47.339  25.076  25.859  1.00  0.00     0.029 A 
ATOM     62  C   UNL A   1      47.176  26.376  26.315  1.00  0.00     0.049 A 
ATOM     63  H   UNL A   1      45.477  27.271  27.191  1.00  0.00     0.167 HD
ATOM     64  C   UNL A   1      47.894  28.710  26.767  1.00  0.00     0.074 A 
ATOM     65  C   UNL A   1      48.865  29.787  26.745  1.00  0.00     0.031 C 
ATOM     66  C   UNL A   1      48.132  27.455  26.309  1.00  0.00     0.037 A 
BRANCH  53  67
ATOM     67  C   UNL A   1      43.323  23.592  26.886  1.00  0.00     0.058 A 
ATOM     68  C   UNL A   1      43.148  22.723  27.975  1.00  0.00     0.135 A 
ATOM     69  C   UNL A   1      42.986  23.116  25.608  1.00  0.00     0.135 A 
ATOM     70  F   UNL A   1      43.467  23.122  29.216  1.00  0.00    -0.206 F 
ATOM     71  C   UNL A   1      42.706  21.415  27.799  1.00  0.00     0.059 A 
ATOM     72  C   UNL A   1      42.520  21.819  25.412  1.00  0.00     0.059 A 
ATOM     73  F   UNL A   1      43.130  23.905  24.532  1.00  0.00    -0.206 F 
ATOM     74  C   UNL A   1      42.408  20.967  26.510  1.00  0.00     0.060 A 
BRANCH  74  75
ATOM     75  S   UNL A   1      41.885  19.254  26.285  1.00  0.00     0.124 S 
ATOM     76  O   UNL A   1      42.621  18.883  25.079  1.00  0.00    -0.237 OA
ATOM     77  O   UNL A   1      42.335  18.619  27.519  1.00  0.00    -0.237 OA
ATOM     78  O   UNL A   1      40.438  19.359  26.130  1.00  0.00    -0.744 OA
ENDBRANCH  74  75
ENDBRANCH  53  67
BRANCH  54  79
ATOM     79  C   UNL A   1      46.599  32.890  28.533  1.00  0.00     0.058 A 
ATOM     80  C   UNL A   1      47.199  33.204  29.759  1.00  0.00     0.135 A 
ATOM     81  C   UNL A   1      46.540  33.896  27.554  1.00  0.00     0.135 A 
ATOM     82  F   UNL A   1      47.271  32.278  30.728  1.00  0.00    -0.206 F 
ATOM     83  C   UNL A   1      47.736  34.464  30.004  1.00  0.00     0.059 A 
ATOM     84  C   UNL A   1      47.086  35.156  27.768  1.00  0.00     0.059 A 
ATOM     85  F   UNL A   1      45.985  33.638  26.359  1.00  0.00    -0.206 F 
ATOM     86  C   UNL A   1      47.684  35.431  28.997  1.00  0.00     0.060 A 
BRANCH  86  87
ATOM     87  S   UNL A   1      48.474  37.030  29.285  1.00  0.00     0.124 S 
ATOM     88  O   UNL A   1      48.487  37.094  30.741  1.00  0.00    -0.237 OA
ATOM     89  O   UNL A   1      49.773  36.852  28.641  1.00  0.00    -0.237 OA
ATOM     90  O   UNL A   1      47.578  37.970  28.617  1.00  0.00    -0.744 OA
ENDBRANCH  86  87
ENDBRANCH  54  79
BRANCH  66  91
ATOM     91  C   UNL A   1      49.495  27.180  25.737  1.00  0.00     0.058 A 
ATOM     92  C   UNL A   1      50.536  26.680  26.534  1.00  0.00     0.135 A 
ATOM     93  C   UNL A   1      49.745  27.368  24.369  1.00  0.00     0.135 A 
ATOM     94  F   UNL A   1      50.349  26.489  27.849  1.00  0.00    -0.206 F 
ATOM     95  C   UNL A   1      51.787  26.393  25.997  1.00  0.00     0.059 A 
ATOM     96  C   UNL A   1      50.983  27.069  23.807  1.00  0.00     0.059 A 
ATOM     97  F   UNL A   1      48.779  27.835  23.562  1.00  0.00    -0.206 F 
ATOM     98  C   UNL A   1      52.000  26.592  24.631  1.00  0.00     0.060 A 
BRANCH  98  99
ATOM     99  S   UNL A   1      53.617  26.183  23.936  1.00  0.00     0.124 S 
ATOM    100  O   UNL A   1      54.403  27.354  24.314  1.00  0.00    -0.237 OA
ATOM    101  O   UNL A   1      53.955  24.944  24.627  1.00  0.00    -0.237 OA
ATOM    102  O   UNL A   1      53.346  26.043  22.509  1.00  0.00    -0.744 OA
ENDBRANCH  98  99
ENDBRANCH  66  91
ENDBRANCH  40  41
ENDBRANCH  33  35
ENDBRANCH  32  33
ENDBRANCH  31  32
ENDBRANCH  30  31
ENDBRANCH  29  30
ENDBRANCH  27  29
ENDBRANCH   1  27
TORSDOF 23
ENDMDL
MODEL 3
REMARK VINA RESULT:     -10.6      6.060     12.224
REMARK SMILES CCCCCCNC(=O)Oc1cccc(-c2ccc([C@@H](C)C(=O)OCCOC(=O)c3ccc(-c4c5nc(c(-c6c(F)cc(S(=O)(=O)[O-])cc6F)c6ccc([nH]6)c(-c6c(F)cc(S(=O)(=O)[O-])cc6F)c6nc(c(-c7c(F)cc(S(=O)(=O)[O-])cc7F)c7ccc4[nH]7)C=C6)C=C5)cc3)cc2F)c1
REMARK SMILES IDX 20 1 21 2 19 3 16 4 17 5 97 6 18 7 96 8 98 9 15 10 11 11
REMARK SMILES IDX 12 12 99 13 13 14 14 15 10 16 8 17 7 18 9 20 6 21 5 22 4 23
REMARK SMILES IDX 3 24 2 25 1 26 22 27 23 28 24 29 25 30 26 31 27 32 28 33
REMARK SMILES IDX 29 34 30 35 31 36 95 37 32 38 94 39 33 40 34 41 35 42 88 43
REMARK SMILES IDX 36 44 93 45 87 46 89 47 37 48 92 49 86 50 85 51 38 53 72 54
REMARK SMILES IDX 51 55 71 56 52 57 55 58 70 59 90 60 53 61 54 62 69 64 91 65
REMARK SMILES IDX 56 66 39 67 40 68 49 69 41 70 42 71 48 72 50 73 43 74 44 75
REMARK SMILES IDX 45 76 46 77 47 78 73 79 74 80 83 81 75 82 76 83 82 84 84 85
REMARK SMILES IDX 77 86 78 87 79 88 80 89 81 90 57 91 58 92 67 93 59 94 60 95
REMARK SMILES IDX 66 96 68 97 61 98 62 99 63 100 64 101 65 102
REMARK H PARENT 7 19 89 52 55 63
REMARK Flexibility Score: inf
ROOT
ATOM      1  C   UNL A   1      40.886  22.873  26.811  1.00  0.00     0.126 C 
ATOM      2  C   UNL A   1      40.975  22.743  28.331  1.00  0.00     0.025 C 
ENDROOT
BRANCH   1   3
ATOM      3  C   UNL A   1      39.489  22.581  26.283  1.00  0.00    -0.031 A 
ATOM      4  C   UNL A   1      36.864  22.091  25.286  1.00  0.00     0.018 A 
ATOM      5  C   UNL A   1      37.859  21.100  25.240  1.00  0.00     0.012 A 
ATOM      6  C   UNL A   1      37.214  23.326  25.840  1.00  0.00     0.131 A 
ATOM      7  C   UNL A   1      39.147  21.339  25.733  1.00  0.00     0.005 A 
ATOM      8  C   UNL A   1      38.496  23.570  26.337  1.00  0.00     0.044 A 
ATOM      9  F   UNL A   1      36.304  24.309  25.932  1.00  0.00    -0.206 F 
BRANCH   4  10
ATOM     10  C   UNL A   1      35.509  21.814  24.785  1.00  0.00    -0.012 A 
ATOM     11  C   UNL A   1      33.514  22.464  23.566  1.00  0.00     0.133 A 
ATOM     12  C   UNL A   1      32.916  21.234  23.831  1.00  0.00     0.047 A 
ATOM     13  C   UNL A   1      34.788  22.769  24.049  1.00  0.00     0.056 A 
ATOM     14  C   UNL A   1      33.613  20.281  24.566  1.00  0.00     0.004 A 
ATOM     15  C   UNL A   1      34.898  20.569  25.036  1.00  0.00     0.009 A 
BRANCH  11  16
ATOM     16  O   UNL A   1      32.736  23.414  22.886  1.00  0.00    -0.410 OA
BRANCH  16  17
ATOM     17  C   UNL A   1      31.570  23.843  23.505  1.00  0.00     0.412 C 
ATOM     18  N   UNL A   1      31.118  25.042  23.027  1.00  0.00    -0.321 N 
ATOM     19  H   UNL A   1      30.269  25.372  23.403  1.00  0.00     0.167 HD
ATOM     20  O   UNL A   1      30.981  23.268  24.413  1.00  0.00    -0.224 OA
BRANCH  18  21
ATOM     21  C   UNL A   1      31.752  25.880  22.028  1.00  0.00     0.119 C 
BRANCH  21  22
ATOM     22  C   UNL A   1      31.864  27.337  22.472  1.00  0.00     0.021 C 
BRANCH  22  23
ATOM     23  C   UNL A   1      30.898  27.753  23.587  1.00  0.00     0.002 C 
BRANCH  23  24
ATOM     24  C   UNL A   1      30.151  29.073  23.364  1.00  0.00    -0.000 C 
BRANCH  24  25
ATOM     25  C   UNL A   1      28.661  28.945  23.037  1.00  0.00    -0.003 C 
ATOM     26  C   UNL A   1      28.221  29.815  21.869  1.00  0.00     0.004 C 
ENDBRANCH  24  25
ENDBRANCH  23  24
ENDBRANCH  22  23
ENDBRANCH  21  22
ENDBRANCH  18  21
ENDBRANCH  16  17
ENDBRANCH  11  16
ENDBRANCH   4  10
ENDBRANCH   1   3
BRANCH   1  27
ATOM     27  C   UNL A   1      42.024  22.093  26.159  1.00  0.00     0.313 C 
ATOM     28  O   UNL A   1      42.460  21.053  26.640  1.00  0.00    -0.252 OA
BRANCH  27  29
ATOM     29  O   UNL A   1      42.453  22.628  24.985  1.00  0.00    -0.462 OA
BRANCH  29  30
ATOM     30  C   UNL A   1      43.787  23.174  24.967  1.00  0.00     0.274 C 
BRANCH  30  31
ATOM     31  C   UNL A   1      43.965  24.260  26.031  1.00  0.00     0.275 C 
BRANCH  31  32
ATOM     32  O   UNL A   1      43.683  25.568  25.502  1.00  0.00    -0.458 OA
BRANCH  32  33
ATOM     33  C   UNL A   1      42.409  25.987  25.681  1.00  0.00     0.338 C 
ATOM     34  O   UNL A   1      41.442  25.719  24.989  1.00  0.00    -0.246 OA
BRANCH  33  35
ATOM     35  C   UNL A   1      42.299  26.730  26.945  1.00  0.00     0.060 A 
ATOM     36  C   UNL A   1      41.339  26.304  27.865  1.00  0.00     0.016 A 
ATOM     37  C   UNL A   1      43.053  27.878  27.187  1.00  0.00     0.016 A 
ATOM     38  C   UNL A   1      41.102  27.039  29.021  1.00  0.00     0.010 A 
ATOM     39  C   UNL A   1      42.823  28.613  28.356  1.00  0.00     0.010 A 
ATOM     40  C   UNL A   1      41.831  28.207  29.267  1.00  0.00    -0.014 A 
BRANCH  40  41
ATOM     41  C   UNL A   1      41.498  29.026  30.456  1.00  0.00     0.031 A 
ATOM     42  C   UNL A   1      42.340  28.925  31.695  1.00  0.00     0.074 A 
ATOM     43  C   UNL A   1      40.467  29.889  30.405  1.00  0.00     0.049 A 
ATOM     44  N   UNL A   1      42.212  29.553  32.836  1.00  0.00    -0.248 NA
ATOM     45  C   UNL A   1      43.474  27.990  31.645  1.00  0.00     0.031 C 
ATOM     46  C   UNL A   1      39.595  30.087  29.248  1.00  0.00     0.029 A 
ATOM     47  N   UNL A   1      39.983  30.761  31.346  1.00  0.00    -0.354 N 
ATOM     48  C   UNL A   1      43.237  29.080  33.645  1.00  0.00     0.074 A 
ATOM     49  C   UNL A   1      43.963  28.093  32.873  1.00  0.00     0.031 C 
ATOM     50  C   UNL A   1      38.678  31.023  29.548  1.00  0.00     0.029 A 
ATOM     51  C   UNL A   1      38.883  31.467  30.925  1.00  0.00     0.049 A 
ATOM     52  H   UNL A   1      40.387  30.872  32.237  1.00  0.00     0.167 HD
ATOM     53  C   UNL A   1      43.549  29.441  34.914  1.00  0.00     0.037 A 
ATOM     54  C   UNL A   1      38.114  32.358  31.580  1.00  0.00     0.037 A 
ATOM     55  C   UNL A   1      42.827  30.429  35.673  1.00  0.00     0.049 A 
ATOM     56  C   UNL A   1      38.466  32.734  32.991  1.00  0.00     0.074 A 
ATOM     57  C   UNL A   1      43.071  30.878  36.959  1.00  0.00     0.029 A 
ATOM     58  N   UNL A   1      41.711  31.118  35.215  1.00  0.00    -0.354 N 
ATOM     59  N   UNL A   1      39.449  32.292  33.740  1.00  0.00    -0.248 NA
ATOM     60  C   UNL A   1      37.612  33.733  33.646  1.00  0.00     0.031 C 
ATOM     61  C   UNL A   1      42.084  31.814  37.291  1.00  0.00     0.029 A 
ATOM     62  C   UNL A   1      41.246  31.977  36.198  1.00  0.00     0.049 A 
ATOM     63  H   UNL A   1      41.311  31.013  34.322  1.00  0.00     0.167 HD
ATOM     64  C   UNL A   1      39.338  32.963  34.952  1.00  0.00     0.074 A 
ATOM     65  C   UNL A   1      38.200  33.856  34.829  1.00  0.00     0.031 C 
ATOM     66  C   UNL A   1      40.107  32.852  36.063  1.00  0.00     0.037 A 
BRANCH  53  67
ATOM     67  C   UNL A   1      44.705  28.729  35.560  1.00  0.00     0.058 A 
ATOM     68  C   UNL A   1      46.022  29.203  35.448  1.00  0.00     0.135 A 
ATOM     69  C   UNL A   1      44.495  27.541  36.279  1.00  0.00     0.135 A 
ATOM     70  F   UNL A   1      46.280  30.326  34.760  1.00  0.00    -0.206 F 
ATOM     71  C   UNL A   1      47.097  28.498  35.983  1.00  0.00     0.059 A 
ATOM     72  C   UNL A   1      45.552  26.833  36.843  1.00  0.00     0.059 A 
ATOM     73  F   UNL A   1      43.256  27.045  36.420  1.00  0.00    -0.206 F 
ATOM     74  C   UNL A   1      46.853  27.306  36.667  1.00  0.00     0.060 A 
BRANCH  74  75
ATOM     75  S   UNL A   1      48.256  26.372  37.313  1.00  0.00     0.124 S 
ATOM     76  O   UNL A   1      48.128  25.114  36.583  1.00  0.00    -0.237 OA
ATOM     77  O   UNL A   1      49.393  27.206  36.937  1.00  0.00    -0.237 OA
ATOM     78  O   UNL A   1      47.985  26.298  38.745  1.00  0.00    -0.744 OA
ENDBRANCH  74  75
ENDBRANCH  53  67
BRANCH  54  79
ATOM     79  C   UNL A   1      36.937  32.943  30.889  1.00  0.00     0.058 A 
ATOM     80  C   UNL A   1      35.646  32.442  31.102  1.00  0.00     0.135 A 
ATOM     81  C   UNL A   1      37.078  34.066  30.058  1.00  0.00     0.135 A 
ATOM     82  F   UNL A   1      35.464  31.365  31.881  1.00  0.00    -0.206 F 
ATOM     83  C   UNL A   1      34.531  33.042  30.526  1.00  0.00     0.059 A 
ATOM     84  C   UNL A   1      35.977  34.695  29.487  1.00  0.00     0.059 A 
ATOM     85  F   UNL A   1      38.294  34.589  29.835  1.00  0.00    -0.206 F 
ATOM     86  C   UNL A   1      34.706  34.175  29.728  1.00  0.00     0.060 A 
BRANCH  86  87
ATOM     87  S   UNL A   1      33.244  35.009  29.069  1.00  0.00     0.124 S 
ATOM     88  O   UNL A   1      32.445  35.199  30.274  1.00  0.00    -0.237 OA
ATOM     89  O   UNL A   1      33.817  36.218  28.485  1.00  0.00    -0.237 OA
ATOM     90  O   UNL A   1      32.718  34.047  28.105  1.00  0.00    -0.744 OA
ENDBRANCH  86  87
ENDBRANCH  54  79
BRANCH  66  91
ATOM     91  C   UNL A   1      39.751  33.722  37.235  1.00  0.00     0.058 A 
ATOM     92  C   UNL A   1      38.812  33.312  38.194  1.00  0.00     0.135 A 
ATOM     93  C   UNL A   1      40.394  34.955  37.430  1.00  0.00     0.135 A 
ATOM     94  F   UNL A   1      38.165  32.146  38.050  1.00  0.00    -0.206 F 
ATOM     95  C   UNL A   1      38.508  34.105  39.297  1.00  0.00     0.059 A 
ATOM     96  C   UNL A   1      40.120  35.754  38.536  1.00  0.00     0.059 A 
ATOM     97  F   UNL A   1      41.307  35.389  36.546  1.00  0.00    -0.206 F 
ATOM     98  C   UNL A   1      39.167  35.324  39.459  1.00  0.00     0.060 A 
BRANCH  98  99
ATOM     99  S   UNL A   1      38.792  36.329  40.912  1.00  0.00     0.124 S 
ATOM    100  O   UNL A   1      40.091  36.383  41.575  1.00  0.00    -0.237 OA
ATOM    101  O   UNL A   1      38.331  37.581  40.321  1.00  0.00    -0.237 OA
ATOM    102  O   UNL A   1      37.765  35.555  41.602  1.00  0.00    -0.744 OA
ENDBRANCH  98  99
ENDBRANCH  66  91
ENDBRANCH  40  41
ENDBRANCH  33  35
ENDBRANCH  32  33
ENDBRANCH  31  32
ENDBRANCH  30  31
ENDBRANCH  29  30
ENDBRANCH  27  29
ENDBRANCH   1  27
TORSDOF 23
ENDMDL
