MODEL 1
REMARK VINA RESULT:     -11.5      0.000      0.000
REMARK SMILES C[C@](NC(=O)[C@](C)([NH3+])C(F)(F)F)(C(=O)OCCOC(=O)c1ccc(-c2c3nc(c(-c4c(F)cc(S(=O)(=O)[O-])cc4F)c4ccc([nH]4)c(-c4c(F)cc(S(=O)(=O)[O-])cc4F)c4nc(c(-c5c(F)cc(S(=O)(=O)[O-])cc5F)c5ccc2[nH]5)C=C4)C=C3)cc1)c1ccccc1
REMARK SMILES IDX 16 1 15 2 13 3 14 4 2 5 1 6 87 7 88 8 92 9 89 10 91 11 90 12
REMARK SMILES IDX 3 13 4 14 5 16 6 17 7 18 8 19 9 23 10 24 11 25 12 26 17 27
REMARK SMILES IDX 18 28 19 29 20 30 21 31 22 32 86 33 23 34 85 35 24 36 25 37
REMARK SMILES IDX 26 38 79 39 27 40 84 41 78 42 80 43 28 44 83 45 77 46 76 47
REMARK SMILES IDX 29 49 63 50 42 51 62 52 43 53 46 54 61 55 81 56 44 57 45 58
REMARK SMILES IDX 60 60 82 61 47 62 30 63 31 64 40 65 32 66 33 67 39 68 41 69
REMARK SMILES IDX 34 70 35 71 36 72 37 73 38 74 64 75 65 76 74 77 66 78 67 79
REMARK SMILES IDX 73 80 75 81 68 82 69 83 70 84 71 85 72 86 48 87 49 88 58 89
REMARK SMILES IDX 50 90 51 91 57 92 59 93 52 94 53 95 54 96 55 97 56 98
REMARK H PARENT 3 15 8 20 8 21 8 22 80 48 46 59
REMARK Flexibility Score: inf
ROOT
ATOM      1  C   UNL A   1      32.235  28.784  26.296  1.00  0.00     0.274 C 
ENDROOT
BRANCH   1   2
ATOM      2  O   UNL A   1      31.403  29.102  25.162  1.00  0.00    -0.460 OA
BRANCH   2   3
ATOM      3  C   UNL A   1      31.797  28.626  23.937  1.00  0.00     0.336 C 
ATOM      4  O   UNL A   1      32.693  29.126  23.268  1.00  0.00    -0.249 OA
BRANCH   3   5
ATOM      5  C   UNL A   1      30.880  27.432  23.454  1.00  0.00     0.161 C 
ATOM      6  C   UNL A   1      31.515  27.036  22.117  1.00  0.00     0.053 C 
BRANCH   5   7
ATOM      7  C   UNL A   1      30.932  26.268  24.476  1.00  0.00    -0.012 A 
ATOM      8  C   UNL A   1      29.820  25.949  25.286  1.00  0.00     0.007 A 
ATOM      9  C   UNL A   1      32.069  25.442  24.612  1.00  0.00     0.007 A 
ATOM     10  C   UNL A   1      29.856  24.897  26.209  1.00  0.00     0.000 A 
ATOM     11  C   UNL A   1      32.098  24.379  25.526  1.00  0.00     0.000 A 
ATOM     12  C   UNL A   1      30.996  24.111  26.330  1.00  0.00     0.000 A 
ENDBRANCH   5   7
BRANCH   5  13
ATOM     13  N   UNL A   1      29.495  27.996  23.381  1.00  0.00    -0.331 N 
ATOM     14  C   UNL A   1      28.680  28.944  22.894  1.00  0.00     0.291 C 
ATOM     15  H   UNL A   1      28.932  27.411  23.938  1.00  0.00     0.165 HD
ATOM     16  O   UNL A   1      27.487  28.651  23.085  1.00  0.00    -0.267 OA
BRANCH  14  17
ATOM     17  C   UNL A   1      29.004  30.247  22.148  1.00  0.00     0.267 C 
ATOM     18  C   UNL A   1      27.972  30.469  21.039  1.00  0.00     0.100 C 
BRANCH  17  19
ATOM     19  N   UNL A   1      30.346  30.290  21.514  1.00  0.00    -0.337 N 
ATOM     20  H   UNL A   1      30.905  31.022  21.951  1.00  0.00     0.345 HD
ATOM     21  H   UNL A   1      30.245  30.487  20.518  1.00  0.00     0.345 HD
ATOM     22  H   UNL A   1      30.809  29.389  21.636  1.00  0.00     0.345 HD
ENDBRANCH  17  19
BRANCH  17  23
ATOM     23  C   UNL A   1      28.861  31.364  23.229  1.00  0.00     0.453 C 
ATOM     24  F   UNL A   1      27.573  31.453  23.661  1.00  0.00    -0.164 F 
ATOM     25  F   UNL A   1      29.612  31.167  24.332  1.00  0.00    -0.164 F 
ATOM     26  F   UNL A   1      29.170  32.583  22.715  1.00  0.00    -0.164 F 
ENDBRANCH  17  23
ENDBRANCH  14  17
ENDBRANCH   5  13
ENDBRANCH   3   5
ENDBRANCH   2   3
ENDBRANCH   1   2
BRANCH   1  27
ATOM     27  C   UNL A   1      33.061  29.992  26.724  1.00  0.00     0.275 C 
BRANCH  27  28
ATOM     28  O   UNL A   1      33.878  29.621  27.844  1.00  0.00    -0.458 OA
BRANCH  28  29
ATOM     29  C   UNL A   1      34.654  30.594  28.367  1.00  0.00     0.338 C 
ATOM     30  O   UNL A   1      34.302  31.682  28.796  1.00  0.00    -0.246 OA
BRANCH  29  31
ATOM     31  C   UNL A   1      36.035  30.100  28.424  1.00  0.00     0.060 A 
ATOM     32  C   UNL A   1      36.518  29.638  29.644  1.00  0.00     0.016 A 
ATOM     33  C   UNL A   1      36.876  30.167  27.317  1.00  0.00     0.016 A 
ATOM     34  C   UNL A   1      37.852  29.286  29.780  1.00  0.00     0.010 A 
ATOM     35  C   UNL A   1      38.206  29.741  27.440  1.00  0.00     0.010 A 
ATOM     36  C   UNL A   1      38.714  29.316  28.682  1.00  0.00    -0.014 A 
BRANCH  36  37
ATOM     37  C   UNL A   1      40.146  28.955  28.862  1.00  0.00     0.031 A 
ATOM     38  C   UNL A   1      41.112  29.983  29.380  1.00  0.00     0.074 A 
ATOM     39  C   UNL A   1      40.580  27.704  28.605  1.00  0.00     0.049 A 
ATOM     40  N   UNL A   1      42.418  29.959  29.383  1.00  0.00    -0.248 NA
ATOM     41  C   UNL A   1      40.533  31.204  29.968  1.00  0.00     0.031 C 
ATOM     42  C   UNL A   1      39.741  26.579  28.183  1.00  0.00     0.029 A 
ATOM     43  N   UNL A   1      41.842  27.164  28.668  1.00  0.00    -0.354 N 
ATOM     44  C   UNL A   1      42.818  31.190  29.886  1.00  0.00     0.074 A 
ATOM     45  C   UNL A   1      41.618  31.926  30.216  1.00  0.00     0.031 C 
ATOM     46  C   UNL A   1      40.503  25.482  28.053  1.00  0.00     0.029 A 
ATOM     47  C   UNL A   1      41.897  25.847  28.274  1.00  0.00     0.049 A 
ATOM     48  H   UNL A   1      42.633  27.671  28.967  1.00  0.00     0.167 HD
ATOM     49  C   UNL A   1      44.078  31.664  30.036  1.00  0.00     0.037 A 
ATOM     50  C   UNL A   1      42.951  25.040  28.041  1.00  0.00     0.037 A 
ATOM     51  C   UNL A   1      45.264  30.892  29.780  1.00  0.00     0.049 A 
ATOM     52  C   UNL A   1      44.339  25.596  28.183  1.00  0.00     0.074 A 
ATOM     53  C   UNL A   1      46.586  31.270  29.933  1.00  0.00     0.029 A 
ATOM     54  N   UNL A   1      45.271  29.578  29.336  1.00  0.00    -0.354 N 
ATOM     55  N   UNL A   1      44.709  26.791  28.576  1.00  0.00    -0.248 NA
ATOM     56  C   UNL A   1      45.452  24.713  27.806  1.00  0.00     0.031 C 
ATOM     57  C   UNL A   1      47.395  30.195  29.548  1.00  0.00     0.029 A 
ATOM     58  C   UNL A   1      46.574  29.138  29.187  1.00  0.00     0.049 A 
ATOM     59  H   UNL A   1      44.468  29.039  29.152  1.00  0.00     0.167 HD
ATOM     60  C   UNL A   1      46.094  26.810  28.477  1.00  0.00     0.074 A 
ATOM     61  C   UNL A   1      46.500  25.497  28.020  1.00  0.00     0.031 C 
ATOM     62  C   UNL A   1      46.953  27.829  28.722  1.00  0.00     0.037 A 
BRANCH  49  63
ATOM     63  C   UNL A   1      44.245  33.099  30.441  1.00  0.00     0.058 A 
ATOM     64  C   UNL A   1      44.173  34.151  29.518  1.00  0.00     0.135 A 
ATOM     65  C   UNL A   1      44.419  33.421  31.797  1.00  0.00     0.135 A 
ATOM     66  F   UNL A   1      44.030  33.895  28.208  1.00  0.00    -0.206 F 
ATOM     67  C   UNL A   1      44.273  35.479  29.927  1.00  0.00     0.059 A 
ATOM     68  C   UNL A   1      44.502  34.740  32.229  1.00  0.00     0.059 A 
ATOM     69  F   UNL A   1      44.501  32.447  32.717  1.00  0.00    -0.206 F 
ATOM     70  C   UNL A   1      44.435  35.763  31.285  1.00  0.00     0.060 A 
BRANCH  70  71
ATOM     71  S   UNL A   1      44.529  37.489  31.807  1.00  0.00     0.124 S 
ATOM     72  O   UNL A   1      43.493  37.538  32.835  1.00  0.00    -0.237 OA
ATOM     73  O   UNL A   1      45.902  37.597  32.287  1.00  0.00    -0.237 OA
ATOM     74  O   UNL A   1      44.236  38.230  30.585  1.00  0.00    -0.744 OA
ENDBRANCH  70  71
ENDBRANCH  49  63
BRANCH  50  75
ATOM     75  C   UNL A   1      42.731  23.657  27.538  1.00  0.00     0.058 A 
ATOM     76  C   UNL A   1      42.757  23.368  26.166  1.00  0.00     0.135 A 
ATOM     77  C   UNL A   1      42.497  22.595  28.427  1.00  0.00     0.135 A 
ATOM     78  F   UNL A   1      42.961  24.351  25.277  1.00  0.00    -0.206 F 
ATOM     79  C   UNL A   1      42.556  22.074  25.693  1.00  0.00     0.059 A 
ATOM     80  C   UNL A   1      42.323  21.291  27.980  1.00  0.00     0.059 A 
ATOM     81  F   UNL A   1      42.468  22.818  29.750  1.00  0.00    -0.206 F 
ATOM     82  C   UNL A   1      42.343  21.041  26.608  1.00  0.00     0.060 A 
BRANCH  82  83
ATOM     83  S   UNL A   1      42.144  19.352  26.001  1.00  0.00     0.124 S 
ATOM     84  O   UNL A   1      42.665  18.576  27.119  1.00  0.00    -0.237 OA
ATOM     85  O   UNL A   1      40.703  19.267  25.780  1.00  0.00    -0.237 OA
ATOM     86  O   UNL A   1      42.955  19.340  24.787  1.00  0.00    -0.744 OA
ENDBRANCH  82  83
ENDBRANCH  50  75
BRANCH  62  87
ATOM     87  C   UNL A   1      48.411  27.567  28.494  1.00  0.00     0.058 A 
ATOM     88  C   UNL A   1      49.200  26.958  29.481  1.00  0.00     0.135 A 
ATOM     89  C   UNL A   1      49.010  27.869  27.261  1.00  0.00     0.135 A 
ATOM     90  F   UNL A   1      48.672  26.660  30.678  1.00  0.00    -0.206 F 
ATOM     91  C   UNL A   1      50.540  26.662  29.256  1.00  0.00     0.059 A 
ATOM     92  C   UNL A   1      50.343  27.566  27.009  1.00  0.00     0.059 A 
ATOM     93  F   UNL A   1      48.292  28.448  26.285  1.00  0.00    -0.206 F 
ATOM     94  C   UNL A   1      51.101  26.968  28.015  1.00  0.00     0.060 A 
BRANCH  94  95
ATOM     95  S   UNL A   1      52.828  26.536  27.715  1.00  0.00     0.124 S 
ATOM     96  O   UNL A   1      53.324  27.745  27.066  1.00  0.00    -0.237 OA
ATOM     97  O   UNL A   1      53.330  26.289  29.064  1.00  0.00    -0.237 OA
ATOM     98  O   UNL A   1      52.738  25.355  26.861  1.00  0.00    -0.744 OA
ENDBRANCH  94  95
ENDBRANCH  62  87
ENDBRANCH  36  37
ENDBRANCH  29  31
ENDBRANCH  28  29
ENDBRANCH  27  28
ENDBRANCH   1  27
TORSDOF 19
ENDMDL
MODEL 2
REMARK VINA RESULT:     -11.2      1.903      3.448
REMARK SMILES C[C@](NC(=O)[C@](C)([NH3+])C(F)(F)F)(C(=O)OCCOC(=O)c1ccc(-c2c3nc(c(-c4c(F)cc(S(=O)(=O)[O-])cc4F)c4ccc([nH]4)c(-c4c(F)cc(S(=O)(=O)[O-])cc4F)c4nc(c(-c5c(F)cc(S(=O)(=O)[O-])cc5F)c5ccc2[nH]5)C=C4)C=C3)cc1)c1ccccc1
REMARK SMILES IDX 16 1 15 2 13 3 14 4 2 5 1 6 87 7 88 8 92 9 89 10 91 11 90 12
REMARK SMILES IDX 3 13 4 14 5 16 6 17 7 18 8 19 9 23 10 24 11 25 12 26 17 27
REMARK SMILES IDX 18 28 19 29 20 30 21 31 22 32 86 33 23 34 85 35 24 36 25 37
REMARK SMILES IDX 26 38 79 39 27 40 84 41 78 42 80 43 28 44 83 45 77 46 76 47
REMARK SMILES IDX 29 49 63 50 42 51 62 52 43 53 46 54 61 55 81 56 44 57 45 58
REMARK SMILES IDX 60 60 82 61 47 62 30 63 31 64 40 65 32 66 33 67 39 68 41 69
REMARK SMILES IDX 34 70 35 71 36 72 37 73 38 74 64 75 65 76 74 77 66 78 67 79
REMARK SMILES IDX 73 80 75 81 68 82 69 83 70 84 71 85 72 86 48 87 49 88 58 89
REMARK SMILES IDX 50 90 51 91 57 92 59 93 52 94 53 95 54 96 55 97 56 98
REMARK H PARENT 3 15 8 20 8 21 8 22 80 48 46 59
REMARK Flexibility Score: inf
ROOT
ATOM      1  C   UNL A   1      32.066  27.604  26.973  1.00  0.00     0.274 C 
ENDROOT
BRANCH   1   2
ATOM      2  O   UNL A   1      31.168  27.356  25.873  1.00  0.00    -0.460 OA
BRANCH   2   3
ATOM      3  C   UNL A   1      31.043  26.060  25.440  1.00  0.00     0.336 C 
ATOM      4  O   UNL A   1      31.106  25.086  26.180  1.00  0.00    -0.249 OA
BRANCH   3   5
ATOM      5  C   UNL A   1      30.923  25.982  23.865  1.00  0.00     0.161 C 
ATOM      6  C   UNL A   1      30.059  24.734  23.653  1.00  0.00     0.053 C 
BRANCH   5   7
ATOM      7  C   UNL A   1      30.228  27.254  23.316  1.00  0.00    -0.012 A 
ATOM      8  C   UNL A   1      28.837  27.451  23.455  1.00  0.00     0.007 A 
ATOM      9  C   UNL A   1      30.954  28.294  22.695  1.00  0.00     0.007 A 
ATOM     10  C   UNL A   1      28.201  28.599  22.966  1.00  0.00     0.000 A 
ATOM     11  C   UNL A   1      30.318  29.450  22.220  1.00  0.00     0.000 A 
ATOM     12  C   UNL A   1      28.941  29.599  22.346  1.00  0.00     0.000 A 
ENDBRANCH   5   7
BRANCH   5  13
ATOM     13  N   UNL A   1      32.330  25.900  23.360  1.00  0.00    -0.331 N 
ATOM     14  C   UNL A   1      33.480  25.213  23.315  1.00  0.00     0.291 C 
ATOM     15  H   UNL A   1      32.474  26.712  22.822  1.00  0.00     0.165 HD
ATOM     16  O   UNL A   1      34.241  25.670  22.444  1.00  0.00    -0.267 OA
BRANCH  14  17
ATOM     17  C   UNL A   1      33.941  23.990  24.121  1.00  0.00     0.267 C 
ATOM     18  C   UNL A   1      34.883  23.140  23.265  1.00  0.00     0.100 C 
BRANCH  17  19
ATOM     19  N   UNL A   1      32.850  23.100  24.590  1.00  0.00    -0.337 N 
ATOM     20  H   UNL A   1      32.200  22.926  23.823  1.00  0.00     0.345 HD
ATOM     21  H   UNL A   1      32.355  23.546  25.361  1.00  0.00     0.345 HD
ATOM     22  H   UNL A   1      33.245  22.214  24.907  1.00  0.00     0.345 HD
ENDBRANCH  17  19
BRANCH  17  23
ATOM     23  C   UNL A   1      34.729  24.591  25.328  1.00  0.00     0.453 C 
ATOM     24  F   UNL A   1      34.356  23.992  26.492  1.00  0.00    -0.164 F 
ATOM     25  F   UNL A   1      36.067  24.445  25.245  1.00  0.00    -0.164 F 
ATOM     26  F   UNL A   1      34.454  25.913  25.481  1.00  0.00    -0.164 F 
ENDBRANCH  17  23
ENDBRANCH  14  17
ENDBRANCH   5  13
ENDBRANCH   3   5
ENDBRANCH   2   3
ENDBRANCH   1   2
BRANCH   1  27
ATOM     27  C   UNL A   1      32.702  28.986  26.859  1.00  0.00     0.275 C 
BRANCH  27  28
ATOM     28  O   UNL A   1      34.022  28.935  27.419  1.00  0.00    -0.458 OA
BRANCH  28  29
ATOM     29  C   UNL A   1      34.518  30.100  27.889  1.00  0.00     0.338 C 
ATOM     30  O   UNL A   1      33.917  31.147  28.080  1.00  0.00    -0.246 OA
BRANCH  29  31
ATOM     31  C   UNL A   1      35.931  29.894  28.230  1.00  0.00     0.060 A 
ATOM     32  C   UNL A   1      36.882  30.091  27.233  1.00  0.00     0.016 A 
ATOM     33  C   UNL A   1      36.316  29.431  29.484  1.00  0.00     0.016 A 
ATOM     34  C   UNL A   1      38.213  29.783  27.466  1.00  0.00     0.010 A 
ATOM     35  C   UNL A   1      37.673  29.190  29.739  1.00  0.00     0.010 A 
ATOM     36  C   UNL A   1      38.635  29.344  28.723  1.00  0.00    -0.014 A 
BRANCH  36  37
ATOM     37  C   UNL A   1      40.065  28.999  28.938  1.00  0.00     0.031 A 
ATOM     38  C   UNL A   1      41.008  30.035  29.482  1.00  0.00     0.074 A 
ATOM     39  C   UNL A   1      40.519  27.752  28.690  1.00  0.00     0.049 A 
ATOM     40  N   UNL A   1      42.314  30.024  29.517  1.00  0.00    -0.248 NA
ATOM     41  C   UNL A   1      40.402  31.248  30.058  1.00  0.00     0.031 C 
ATOM     42  C   UNL A   1      39.703  26.620  28.245  1.00  0.00     0.029 A 
ATOM     43  N   UNL A   1      41.785  27.225  28.784  1.00  0.00    -0.354 N 
ATOM     44  C   UNL A   1      42.689  31.258  30.033  1.00  0.00     0.074 A 
ATOM     45  C   UNL A   1      41.472  31.981  30.334  1.00  0.00     0.031 C 
ATOM     46  C   UNL A   1      40.479  25.530  28.133  1.00  0.00     0.029 A 
ATOM     47  C   UNL A   1      41.863  25.909  28.389  1.00  0.00     0.049 A 
ATOM     48  H   UNL A   1      42.562  27.739  29.103  1.00  0.00     0.167 HD
ATOM     49  C   UNL A   1      43.939  31.745  30.215  1.00  0.00     0.037 A 
ATOM     50  C   UNL A   1      42.931  25.113  28.181  1.00  0.00     0.037 A 
ATOM     51  C   UNL A   1      45.139  30.985  29.988  1.00  0.00     0.049 A 
ATOM     52  C   UNL A   1      44.308  25.683  28.359  1.00  0.00     0.074 A 
ATOM     53  C   UNL A   1      46.453  31.377  30.174  1.00  0.00     0.029 A 
ATOM     54  N   UNL A   1      45.171  29.673  29.542  1.00  0.00    -0.354 N 
ATOM     55  N   UNL A   1      44.657  26.882  28.763  1.00  0.00    -0.248 NA
ATOM     56  C   UNL A   1      45.440  24.813  28.008  1.00  0.00     0.031 C 
ATOM     57  C   UNL A   1      47.282  30.311  29.808  1.00  0.00     0.029 A 
ATOM     58  C   UNL A   1      46.482  29.246  29.425  1.00  0.00     0.049 A 
ATOM     59  H   UNL A   1      44.378  29.126  29.337  1.00  0.00     0.167 HD
ATOM     60  C   UNL A   1      46.044  26.915  28.699  1.00  0.00     0.074 A 
ATOM     61  C   UNL A   1      46.474  25.606  28.250  1.00  0.00     0.031 C 
ATOM     62  C   UNL A   1      46.886  27.942  28.968  1.00  0.00     0.037 A 
BRANCH  49  63
ATOM     63  C   UNL A   1      44.081  33.181  30.626  1.00  0.00     0.058 A 
ATOM     64  C   UNL A   1      44.004  34.235  29.706  1.00  0.00     0.135 A 
ATOM     65  C   UNL A   1      44.236  33.501  31.985  1.00  0.00     0.135 A 
ATOM     66  F   UNL A   1      43.879  33.981  28.394  1.00  0.00    -0.206 F 
ATOM     67  C   UNL A   1      44.081  35.562  30.120  1.00  0.00     0.059 A 
ATOM     68  C   UNL A   1      44.295  34.819  32.423  1.00  0.00     0.059 A 
ATOM     69  F   UNL A   1      44.321  32.525  32.903  1.00  0.00    -0.206 F 
ATOM     70  C   UNL A   1      44.223  35.844  31.481  1.00  0.00     0.060 A 
BRANCH  70  71
ATOM     71  S   UNL A   1      44.287  37.570  32.010  1.00  0.00     0.124 S 
ATOM     72  O   UNL A   1      45.690  37.706  32.388  1.00  0.00    -0.237 OA
ATOM     73  O   UNL A   1      43.884  38.283  30.802  1.00  0.00    -0.237 OA
ATOM     74  O   UNL A   1      43.332  37.622  33.112  1.00  0.00    -0.744 OA
ENDBRANCH  70  71
ENDBRANCH  49  63
BRANCH  50  75
ATOM     75  C   UNL A   1      42.738  23.729  27.671  1.00  0.00     0.058 A 
ATOM     76  C   UNL A   1      42.607  22.642  28.546  1.00  0.00     0.135 A 
ATOM     77  C   UNL A   1      42.672  23.472  26.292  1.00  0.00     0.135 A 
ATOM     78  F   UNL A   1      42.679  22.835  29.872  1.00  0.00    -0.206 F 
ATOM     79  C   UNL A   1      42.421  21.346  28.072  1.00  0.00     0.059 A 
ATOM     80  C   UNL A   1      42.458  22.192  25.796  1.00  0.00     0.059 A 
ATOM     81  F   UNL A   1      42.785  24.480  25.412  1.00  0.00    -0.206 F 
ATOM     82  C   UNL A   1      42.345  21.131  26.694  1.00  0.00     0.060 A 
BRANCH  82  83
ATOM     83  S   UNL A   1      42.041  19.462  26.077  1.00  0.00     0.124 S 
ATOM     84  O   UNL A   1      42.486  18.649  27.203  1.00  0.00    -0.237 OA
ATOM     85  O   UNL A   1      40.602  19.477  25.828  1.00  0.00    -0.237 OA
ATOM     86  O   UNL A   1      42.873  19.396  24.879  1.00  0.00    -0.744 OA
ENDBRANCH  82  83
ENDBRANCH  50  75
BRANCH  62  87
ATOM     87  C   UNL A   1      48.352  27.696  28.776  1.00  0.00     0.058 A 
ATOM     88  C   UNL A   1      48.976  27.961  27.548  1.00  0.00     0.135 A 
ATOM     89  C   UNL A   1      49.150  27.250  29.841  1.00  0.00     0.135 A 
ATOM     90  F   UNL A   1      48.250  28.379  26.499  1.00  0.00    -0.206 F 
ATOM     91  C   UNL A   1      50.345  27.787  27.379  1.00  0.00     0.059 A 
ATOM     92  C   UNL A   1      50.523  27.087  29.700  1.00  0.00     0.059 A 
ATOM     93  F   UNL A   1      48.597  26.988  31.036  1.00  0.00    -0.206 F 
ATOM     94  C   UNL A   1      51.110  27.351  28.463  1.00  0.00     0.060 A 
BRANCH  94  95
ATOM     95  S   UNL A   1      52.893  27.174  28.248  1.00  0.00     0.124 S 
ATOM     96  O   UNL A   1      53.357  28.530  28.525  1.00  0.00    -0.237 OA
ATOM     97  O   UNL A   1      53.234  26.170  29.251  1.00  0.00    -0.237 OA
ATOM     98  O   UNL A   1      53.025  26.735  26.862  1.00  0.00    -0.744 OA
ENDBRANCH  94  95
ENDBRANCH  62  87
ENDBRANCH  36  37
ENDBRANCH  29  31
ENDBRANCH  28  29
ENDBRANCH  27  28
ENDBRANCH   1  27
TORSDOF 19
ENDMDL
MODEL 3
REMARK VINA RESULT:     -11.1      4.551      9.085
REMARK SMILES C[C@](NC(=O)[C@](C)([NH3+])C(F)(F)F)(C(=O)OCCOC(=O)c1ccc(-c2c3nc(c(-c4c(F)cc(S(=O)(=O)[O-])cc4F)c4ccc([nH]4)c(-c4c(F)cc(S(=O)(=O)[O-])cc4F)c4nc(c(-c5c(F)cc(S(=O)(=O)[O-])cc5F)c5ccc2[nH]5)C=C4)C=C3)cc1)c1ccccc1
REMARK SMILES IDX 16 1 15 2 13 3 14 4 2 5 1 6 87 7 88 8 92 9 89 10 91 11 90 12
REMARK SMILES IDX 3 13 4 14 5 16 6 17 7 18 8 19 9 23 10 24 11 25 12 26 17 27
REMARK SMILES IDX 18 28 19 29 20 30 21 31 22 32 86 33 23 34 85 35 24 36 25 37
REMARK SMILES IDX 26 38 79 39 27 40 84 41 78 42 80 43 28 44 83 45 77 46 76 47
REMARK SMILES IDX 29 49 63 50 42 51 62 52 43 53 46 54 61 55 81 56 44 57 45 58
REMARK SMILES IDX 60 60 82 61 47 62 30 63 31 64 40 65 32 66 33 67 39 68 41 69
REMARK SMILES IDX 34 70 35 71 36 72 37 73 38 74 64 75 65 76 74 77 66 78 67 79
REMARK SMILES IDX 73 80 75 81 68 82 69 83 70 84 71 85 72 86 48 87 49 88 58 89
REMARK SMILES IDX 50 90 51 91 57 92 59 93 52 94 53 95 54 96 55 97 56 98
REMARK H PARENT 3 15 8 20 8 21 8 22 80 48 46 59
REMARK Flexibility Score: inf
ROOT
ATOM      1  C   UNL A   1      38.409  21.507  25.667  1.00  0.00     0.274 C 
ENDROOT
BRANCH   1   2
ATOM      2  O   UNL A   1      37.097  21.447  25.070  1.00  0.00    -0.460 OA
BRANCH   2   3
ATOM      3  C   UNL A   1      36.100  22.180  25.662  1.00  0.00     0.336 C 
ATOM      4  O   UNL A   1      36.265  23.298  26.135  1.00  0.00    -0.249 OA
BRANCH   3   5
ATOM      5  C   UNL A   1      34.752  21.360  25.755  1.00  0.00     0.161 C 
ATOM      6  C   UNL A   1      34.401  21.453  27.244  1.00  0.00     0.053 C 
BRANCH   5   7
ATOM      7  C   UNL A   1      33.661  22.016  24.872  1.00  0.00    -0.012 A 
ATOM      8  C   UNL A   1      33.881  22.274  23.501  1.00  0.00     0.007 A 
ATOM      9  C   UNL A   1      32.384  22.344  25.379  1.00  0.00     0.007 A 
ATOM     10  C   UNL A   1      32.900  22.863  22.693  1.00  0.00     0.000 A 
ATOM     11  C   UNL A   1      31.397  22.919  24.565  1.00  0.00     0.000 A 
ATOM     12  C   UNL A   1      31.658  23.188  23.226  1.00  0.00     0.000 A 
ENDBRANCH   5   7
BRANCH   5  13
ATOM     13  N   UNL A   1      35.080  19.992  25.243  1.00  0.00    -0.331 N 
ATOM     14  C   UNL A   1      34.633  18.788  24.856  1.00  0.00     0.291 C 
ATOM     15  H   UNL A   1      36.059  19.963  25.148  1.00  0.00     0.165 HD
ATOM     16  O   UNL A   1      35.527  18.139  24.288  1.00  0.00    -0.267 OA
BRANCH  14  17
ATOM     17  C   UNL A   1      33.237  18.158  24.981  1.00  0.00     0.267 C 
ATOM     18  C   UNL A   1      32.342  18.671  23.850  1.00  0.00     0.100 C 
BRANCH  17  19
ATOM     19  N   UNL A   1      32.535  18.438  26.258  1.00  0.00    -0.337 N 
ATOM     20  H   UNL A   1      32.545  17.602  26.842  1.00  0.00     0.345 HD
ATOM     21  H   UNL A   1      31.570  18.706  26.063  1.00  0.00     0.345 HD
ATOM     22  H   UNL A   1      33.007  19.199  26.746  1.00  0.00     0.345 HD
ENDBRANCH  17  19
BRANCH  17  23
ATOM     23  C   UNL A   1      33.483  16.626  24.802  1.00  0.00     0.453 C 
ATOM     24  F   UNL A   1      32.363  15.919  25.119  1.00  0.00    -0.164 F 
ATOM     25  F   UNL A   1      33.813  16.260  23.546  1.00  0.00    -0.164 F 
ATOM     26  F   UNL A   1      34.455  16.186  25.643  1.00  0.00    -0.164 F 
ENDBRANCH  17  23
ENDBRANCH  14  17
ENDBRANCH   5  13
ENDBRANCH   3   5
ENDBRANCH   2   3
ENDBRANCH   1   2
BRANCH   1  27
ATOM     27  C   UNL A   1      39.101  20.150  25.603  1.00  0.00     0.275 C 
BRANCH  27  28
ATOM     28  O   UNL A   1      40.121  20.103  26.611  1.00  0.00    -0.458 OA
BRANCH  28  29
ATOM     29  C   UNL A   1      41.386  19.925  26.175  1.00  0.00     0.338 C 
ATOM     30  O   UNL A   1      41.855  18.943  25.618  1.00  0.00    -0.246 OA
BRANCH  29  31
ATOM     31  C   UNL A   1      42.132  21.169  26.405  1.00  0.00     0.060 A 
ATOM     32  C   UNL A   1      42.531  21.465  27.704  1.00  0.00     0.016 A 
ATOM     33  C   UNL A   1      42.364  22.077  25.376  1.00  0.00     0.016 A 
ATOM     34  C   UNL A   1      43.120  22.685  27.994  1.00  0.00     0.010 A 
ATOM     35  C   UNL A   1      43.025  23.279  25.660  1.00  0.00     0.010 A 
ATOM     36  C   UNL A   1      43.391  23.605  26.979  1.00  0.00    -0.014 A 
BRANCH  36  37
ATOM     37  C   UNL A   1      44.002  24.918  27.322  1.00  0.00     0.031 A 
ATOM     38  C   UNL A   1      43.142  26.016  27.880  1.00  0.00     0.074 A 
ATOM     39  C   UNL A   1      45.329  25.121  27.177  1.00  0.00     0.049 A 
ATOM     40  N   UNL A   1      43.413  27.287  28.016  1.00  0.00    -0.248 NA
ATOM     41  C   UNL A   1      41.795  25.637  28.341  1.00  0.00     0.031 C 
ATOM     42  C   UNL A   1      46.301  24.119  26.732  1.00  0.00     0.029 A 
ATOM     43  N   UNL A   1      46.092  26.242  27.396  1.00  0.00    -0.354 N 
ATOM     44  C   UNL A   1      42.247  27.873  28.492  1.00  0.00     0.074 A 
ATOM     45  C   UNL A   1      41.275  26.815  28.659  1.00  0.00     0.031 C 
ATOM     46  C   UNL A   1      47.529  24.660  26.738  1.00  0.00     0.029 A 
ATOM     47  C   UNL A   1      47.420  26.074  27.079  1.00  0.00     0.049 A 
ATOM     48  H   UNL A   1      45.724  27.086  27.746  1.00  0.00     0.167 HD
ATOM     49  C   UNL A   1      42.010  29.183  28.743  1.00  0.00     0.037 A 
ATOM     50  C   UNL A   1      48.427  26.966  26.997  1.00  0.00     0.037 A 
ATOM     51  C   UNL A   1      43.010  30.213  28.649  1.00  0.00     0.049 A 
ATOM     52  C   UNL A   1      48.135  28.417  27.249  1.00  0.00     0.074 A 
ATOM     53  C   UNL A   1      42.878  31.565  28.914  1.00  0.00     0.029 A 
ATOM     54  N   UNL A   1      44.329  30.003  28.278  1.00  0.00    -0.354 N 
ATOM     55  N   UNL A   1      47.006  28.978  27.614  1.00  0.00    -0.248 NA
ATOM     56  C   UNL A   1      49.237  29.366  27.033  1.00  0.00     0.031 C 
ATOM     57  C   UNL A   1      44.112  32.179  28.671  1.00  0.00     0.029 A 
ATOM     58  C   UNL A   1      45.017  31.204  28.285  1.00  0.00     0.049 A 
ATOM     59  H   UNL A   1      44.718  29.130  28.043  1.00  0.00     0.167 HD
ATOM     60  C   UNL A   1      47.257  30.343  27.654  1.00  0.00     0.074 A 
ATOM     61  C   UNL A   1      48.653  30.524  27.311  1.00  0.00     0.031 C 
ATOM     62  C   UNL A   1      46.404  31.359  27.931  1.00  0.00     0.037 A 
BRANCH  49  63
ATOM     63  C   UNL A   1      40.608  29.590  29.086  1.00  0.00     0.058 A 
ATOM     64  C   UNL A   1      39.585  29.634  28.130  1.00  0.00     0.135 A 
ATOM     65  C   UNL A   1      40.277  29.882  30.419  1.00  0.00     0.135 A 
ATOM     66  F   UNL A   1      39.854  29.385  26.838  1.00  0.00    -0.206 F 
ATOM     67  C   UNL A   1      38.278  29.959  28.483  1.00  0.00     0.059 A 
ATOM     68  C   UNL A   1      38.975  30.190  30.799  1.00  0.00     0.059 A 
ATOM     69  F   UNL A   1      41.225  29.860  31.370  1.00  0.00    -0.206 F 
ATOM     70  C   UNL A   1      37.983  30.233  29.821  1.00  0.00     0.060 A 
BRANCH  70  71
ATOM     71  S   UNL A   1      36.278  30.619  30.275  1.00  0.00     0.124 S 
ATOM     72  O   UNL A   1      35.568  30.291  29.042  1.00  0.00    -0.237 OA
ATOM     73  O   UNL A   1      36.042  29.721  31.400  1.00  0.00    -0.237 OA
ATOM     74  O   UNL A   1      36.330  32.039  30.610  1.00  0.00    -0.744 OA
ENDBRANCH  70  71
ENDBRANCH  49  63
BRANCH  50  75
ATOM     75  C   UNL A   1      49.776  26.526  26.548  1.00  0.00     0.058 A 
ATOM     76  C   UNL A   1      50.706  25.995  27.452  1.00  0.00     0.135 A 
ATOM     77  C   UNL A   1      50.153  26.623  25.200  1.00  0.00     0.135 A 
ATOM     78  F   UNL A   1      50.397  25.897  28.754  1.00  0.00    -0.206 F 
ATOM     79  C   UNL A   1      51.967  25.577  27.035  1.00  0.00     0.059 A 
ATOM     80  C   UNL A   1      51.396  26.186  24.754  1.00  0.00     0.059 A 
ATOM     81  F   UNL A   1      49.296  27.119  24.293  1.00  0.00    -0.206 F 
ATOM     82  C   UNL A   1      52.301  25.674  25.682  1.00  0.00     0.060 A 
BRANCH  82  83
ATOM     83  S   UNL A   1      53.912  25.076  25.127  1.00  0.00     0.124 S 
ATOM     84  O   UNL A   1      54.080  25.804  23.876  1.00  0.00    -0.237 OA
ATOM     85  O   UNL A   1      54.790  25.477  26.223  1.00  0.00    -0.237 OA
ATOM     86  O   UNL A   1      53.704  23.636  25.001  1.00  0.00    -0.744 OA
ENDBRANCH  82  83
ENDBRANCH  50  75
BRANCH  62  87
ATOM     87  C   UNL A   1      46.953  32.753  27.866  1.00  0.00     0.058 A 
ATOM     88  C   UNL A   1      46.704  33.577  26.759  1.00  0.00     0.135 A 
ATOM     89  C   UNL A   1      47.680  33.289  28.940  1.00  0.00     0.135 A 
ATOM     90  F   UNL A   1      46.022  33.104  25.705  1.00  0.00    -0.206 F 
ATOM     91  C   UNL A   1      47.163  34.889  26.716  1.00  0.00     0.059 A 
ATOM     92  C   UNL A   1      48.132  34.602  28.926  1.00  0.00     0.059 A 
ATOM     93  F   UNL A   1      47.937  32.537  30.023  1.00  0.00    -0.206 F 
ATOM     94  C   UNL A   1      47.875  35.393  27.806  1.00  0.00     0.060 A 
BRANCH  94  95
ATOM     95  S   UNL A   1      48.426  37.111  27.762  1.00  0.00     0.124 S 
ATOM     96  O   UNL A   1      49.706  36.991  27.072  1.00  0.00    -0.237 OA
ATOM     97  O   UNL A   1      47.359  37.765  27.009  1.00  0.00    -0.237 OA
ATOM     98  O   UNL A   1      48.503  37.478  29.173  1.00  0.00    -0.744 OA
ENDBRANCH  94  95
ENDBRANCH  62  87
ENDBRANCH  36  37
ENDBRANCH  29  31
ENDBRANCH  28  29
ENDBRANCH  27  28
ENDBRANCH   1  27
TORSDOF 19
ENDMDL
