MODEL 1
REMARK VINA RESULT:     -10.7      0.000      0.000
REMARK SMILES CC(C)(CC(=O)OCCOC(=O)c1ccc(-c2c3nc(c(-c4c(F)cc(S(=O)(=O)[O-])cc4F)c4ccc([nH]4)c(-c4c(F)cc(S(=O)(=O)[O-])cc4F)c4nc(c(-c5c(F)cc(S(=O)(=O)[O-])cc5F)c5ccc2[nH]5)C=C4)C=C3)cc1)NC(=O)c1nc(C(C)(C)C)n[nH]1
REMARK SMILES IDX 8 1 7 2 5 3 6 4 4 5 2 6 1 7 3 8 79 9 80 10 81 12 82 13 83 14
REMARK SMILES IDX 90 15 84 16 89 17 85 19 86 20 87 21 88 22 9 23 10 24 11 25
REMARK SMILES IDX 12 26 13 27 14 28 78 29 15 30 77 31 16 32 17 33 18 34 71 35
REMARK SMILES IDX 19 36 76 37 70 38 72 39 20 40 75 41 69 42 68 43 21 45 55 46
REMARK SMILES IDX 34 47 54 48 35 49 38 50 53 51 73 52 36 53 37 54 52 56 74 57
REMARK SMILES IDX 39 58 22 59 23 60 32 61 24 62 25 63 31 64 33 65 26 66 27 67
REMARK SMILES IDX 28 68 29 69 30 70 56 71 57 72 66 73 58 74 59 75 65 76 67 77
REMARK SMILES IDX 60 78 61 79 62 80 63 81 64 82 40 83 41 84 50 85 42 86 43 87
REMARK SMILES IDX 49 88 51 89 44 90 45 91 46 92 47 93 48 94
REMARK H PARENT 79 11 90 18 72 44 38 55
REMARK Flexibility Score: inf
ROOT
ATOM      1  C   UNL A   1      32.995  29.317  25.275  1.00  0.00     0.274 C 
ENDROOT
BRANCH   1   2
ATOM      2  O   UNL A   1      33.591  28.032  25.527  1.00  0.00    -0.462 OA
BRANCH   2   3
ATOM      3  C   UNL A   1      33.343  27.055  24.628  1.00  0.00     0.308 C 
ATOM      4  O   UNL A   1      33.689  27.083  23.451  1.00  0.00    -0.252 OA
BRANCH   3   5
ATOM      5  C   UNL A   1      32.583  25.875  25.193  1.00  0.00     0.150 C 
BRANCH   5   6
ATOM      6  C   UNL A   1      33.247  24.482  25.186  1.00  0.00     0.045 C 
ATOM      7  C   UNL A   1      33.115  23.842  23.793  1.00  0.00     0.035 C 
ATOM      8  C   UNL A   1      34.764  24.705  25.420  1.00  0.00     0.035 C 
BRANCH   6   9
ATOM      9  N   UNL A   1      32.771  23.676  26.332  1.00  0.00    -0.344 N 
ATOM     10  C   UNL A   1      33.280  22.509  26.853  1.00  0.00     0.289 C 
ATOM     11  H   UNL A   1      31.973  24.027  26.788  1.00  0.00     0.164 HD
ATOM     12  O   UNL A   1      33.443  22.451  28.072  1.00  0.00    -0.266 OA
BRANCH  10  13
ATOM     13  C   UNL A   1      33.644  21.420  25.988  1.00  0.00     0.214 A 
ATOM     14  N   UNL A   1      32.847  20.519  25.440  1.00  0.00    -0.207 NA
ATOM     15  N   UNL A   1      34.935  21.083  25.718  1.00  0.00    -0.255 N 
ATOM     16  C   UNL A   1      33.721  19.619  24.878  1.00  0.00     0.156 A 
ATOM     17  N   UNL A   1      35.012  19.977  24.962  1.00  0.00    -0.158 NA
ATOM     18  H   UNL A   1      35.716  21.589  26.039  1.00  0.00     0.192 HD
BRANCH  16  19
ATOM     19  C   UNL A   1      33.294  18.280  24.323  1.00  0.00     0.024 C 
ATOM     20  C   UNL A   1      34.548  17.451  23.974  1.00  0.00     0.019 C 
ATOM     21  C   UNL A   1      32.464  17.480  25.346  1.00  0.00     0.019 C 
ATOM     22  C   UNL A   1      32.445  18.462  23.053  1.00  0.00     0.019 C 
ENDBRANCH  16  19
ENDBRANCH  10  13
ENDBRANCH   6   9
ENDBRANCH   5   6
ENDBRANCH   3   5
ENDBRANCH   2   3
ENDBRANCH   1   2
BRANCH   1  23
ATOM     23  C   UNL A   1      32.808  30.085  26.579  1.00  0.00     0.275 C 
BRANCH  23  24
ATOM     24  O   UNL A   1      33.710  29.584  27.580  1.00  0.00    -0.458 OA
BRANCH  24  25
ATOM     25  C   UNL A   1      34.477  30.519  28.184  1.00  0.00     0.338 C 
ATOM     26  O   UNL A   1      34.151  31.628  28.565  1.00  0.00    -0.246 OA
BRANCH  25  27
ATOM     27  C   UNL A   1      35.838  29.999  28.355  1.00  0.00     0.060 A 
ATOM     28  C   UNL A   1      36.262  29.588  29.620  1.00  0.00     0.016 A 
ATOM     29  C   UNL A   1      36.732  30.049  27.284  1.00  0.00     0.016 A 
ATOM     30  C   UNL A   1      37.600  29.266  29.832  1.00  0.00     0.010 A 
ATOM     31  C   UNL A   1      38.063  29.682  27.488  1.00  0.00     0.010 A 
ATOM     32  C   UNL A   1      38.514  29.314  28.768  1.00  0.00    -0.014 A 
BRANCH  32  33
ATOM     33  C   UNL A   1      39.949  29.010  28.993  1.00  0.00     0.031 A 
ATOM     34  C   UNL A   1      40.866  30.071  29.533  1.00  0.00     0.074 A 
ATOM     35  C   UNL A   1      40.425  27.785  28.701  1.00  0.00     0.049 A 
ATOM     36  N   UNL A   1      42.168  30.048  29.665  1.00  0.00    -0.248 NA
ATOM     37  C   UNL A   1      40.239  31.325  29.979  1.00  0.00     0.031 C 
ATOM     38  C   UNL A   1      39.627  26.664  28.203  1.00  0.00     0.029 A 
ATOM     39  N   UNL A   1      41.699  27.282  28.775  1.00  0.00    -0.354 N 
ATOM     40  C   UNL A   1      42.520  31.292  30.177  1.00  0.00     0.074 A 
ATOM     41  C   UNL A   1      41.294  32.047  30.329  1.00  0.00     0.031 C 
ATOM     42  C   UNL A   1      40.428  25.602  28.021  1.00  0.00     0.029 A 
ATOM     43  C   UNL A   1      41.801  25.983  28.337  1.00  0.00     0.049 A 
ATOM     44  H   UNL A   1      42.466  27.801  29.109  1.00  0.00     0.167 HD
ATOM     45  C   UNL A   1      43.753  31.758  30.486  1.00  0.00     0.037 A 
ATOM     46  C   UNL A   1      42.883  25.198  28.175  1.00  0.00     0.037 A 
ATOM     47  C   UNL A   1      44.965  30.993  30.353  1.00  0.00     0.049 A 
ATOM     48  C   UNL A   1      44.243  25.746  28.501  1.00  0.00     0.074 A 
ATOM     49  C   UNL A   1      46.265  31.376  30.641  1.00  0.00     0.029 A 
ATOM     50  N   UNL A   1      45.026  29.684  29.900  1.00  0.00    -0.354 N 
ATOM     51  N   UNL A   1      44.564  26.937  28.948  1.00  0.00    -0.248 NA
ATOM     52  C   UNL A   1      45.389  24.852  28.288  1.00  0.00     0.031 C 
ATOM     53  C   UNL A   1      47.113  30.304  30.340  1.00  0.00     0.029 A 
ATOM     54  C   UNL A   1      46.340  29.244  29.893  1.00  0.00     0.049 A 
ATOM     55  H   UNL A   1      44.250  29.144  29.623  1.00  0.00     0.167 HD
ATOM     56  C   UNL A   1      45.947  26.933  29.077  1.00  0.00     0.074 A 
ATOM     57  C   UNL A   1      46.401  25.617  28.674  1.00  0.00     0.031 C 
ATOM     58  C   UNL A   1      46.768  27.930  29.486  1.00  0.00     0.037 A 
BRANCH  45  59
ATOM     59  C   UNL A   1      43.855  33.175  30.975  1.00  0.00     0.058 A 
ATOM     60  C   UNL A   1      43.852  34.263  30.088  1.00  0.00     0.135 A 
ATOM     61  C   UNL A   1      43.933  33.449  32.349  1.00  0.00     0.135 A 
ATOM     62  F   UNL A   1      43.796  34.055  28.763  1.00  0.00    -0.206 F 
ATOM     63  C   UNL A   1      43.942  35.574  30.547  1.00  0.00     0.059 A 
ATOM     64  C   UNL A   1      44.006  34.752  32.833  1.00  0.00     0.059 A 
ATOM     65  F   UNL A   1      43.943  32.442  33.239  1.00  0.00    -0.206 F 
ATOM     66  C   UNL A   1      44.024  35.808  31.922  1.00  0.00     0.060 A 
BRANCH  66  67
ATOM     67  S   UNL A   1      44.142  37.512  32.509  1.00  0.00     0.124 S 
ATOM     68  O   UNL A   1      43.981  38.259  31.266  1.00  0.00    -0.237 OA
ATOM     69  O   UNL A   1      43.029  37.601  33.449  1.00  0.00    -0.237 OA
ATOM     70  O   UNL A   1      45.470  37.571  33.110  1.00  0.00    -0.744 OA
ENDBRANCH  66  67
ENDBRANCH  45  59
BRANCH  46  71
ATOM     71  C   UNL A   1      42.718  23.819  27.652  1.00  0.00     0.058 A 
ATOM     72  C   UNL A   1      42.574  22.731  28.525  1.00  0.00     0.135 A 
ATOM     73  C   UNL A   1      42.661  23.568  26.273  1.00  0.00     0.135 A 
ATOM     74  F   UNL A   1      42.632  22.922  29.851  1.00  0.00    -0.206 F 
ATOM     75  C   UNL A   1      42.381  21.439  28.047  1.00  0.00     0.059 A 
ATOM     76  C   UNL A   1      42.448  22.289  25.773  1.00  0.00     0.059 A 
ATOM     77  F   UNL A   1      42.780  24.581  25.400  1.00  0.00    -0.206 F 
ATOM     78  C   UNL A   1      42.315  21.228  26.668  1.00  0.00     0.060 A 
BRANCH  78  79
ATOM     79  S   UNL A   1      41.987  19.562  26.053  1.00  0.00     0.124 S 
ATOM     80  O   UNL A   1      42.320  18.750  27.217  1.00  0.00    -0.237 OA
ATOM     81  O   UNL A   1      40.571  19.629  25.706  1.00  0.00    -0.237 OA
ATOM     82  O   UNL A   1      42.896  19.444  24.916  1.00  0.00    -0.744 OA
ENDBRANCH  78  79
ENDBRANCH  46  71
BRANCH  58  83
ATOM     83  C   UNL A   1      48.237  27.627  29.535  1.00  0.00     0.058 A 
ATOM     84  C   UNL A   1      49.096  28.010  28.494  1.00  0.00     0.135 A 
ATOM     85  C   UNL A   1      48.794  26.977  30.647  1.00  0.00     0.135 A 
ATOM     86  F   UNL A   1      48.606  28.626  27.407  1.00  0.00    -0.206 F 
ATOM     87  C   UNL A   1      50.459  27.741  28.544  1.00  0.00     0.059 A 
ATOM     88  C   UNL A   1      50.158  26.713  30.726  1.00  0.00     0.059 A 
ATOM     89  F   UNL A   1      48.013  26.597  31.669  1.00  0.00    -0.206 F 
ATOM     90  C   UNL A   1      50.981  27.088  29.664  1.00  0.00     0.060 A 
BRANCH  90  91
ATOM     91  S   UNL A   1      52.755  26.764  29.736  1.00  0.00     0.124 S 
ATOM     92  O   UNL A   1      52.863  26.000  30.975  1.00  0.00    -0.237 OA
ATOM     93  O   UNL A   1      52.992  26.014  28.506  1.00  0.00    -0.237 OA
ATOM     94  O   UNL A   1      53.340  28.101  29.768  1.00  0.00    -0.744 OA
ENDBRANCH  90  91
ENDBRANCH  58  83
ENDBRANCH  32  33
ENDBRANCH  25  27
ENDBRANCH  24  25
ENDBRANCH  23  24
ENDBRANCH   1  23
TORSDOF 18
ENDMDL
MODEL 2
REMARK VINA RESULT:     -10.6      2.406      3.319
REMARK SMILES CC(C)(CC(=O)OCCOC(=O)c1ccc(-c2c3nc(c(-c4c(F)cc(S(=O)(=O)[O-])cc4F)c4ccc([nH]4)c(-c4c(F)cc(S(=O)(=O)[O-])cc4F)c4nc(c(-c5c(F)cc(S(=O)(=O)[O-])cc5F)c5ccc2[nH]5)C=C4)C=C3)cc1)NC(=O)c1nc(C(C)(C)C)n[nH]1
REMARK SMILES IDX 8 1 7 2 5 3 6 4 4 5 2 6 1 7 3 8 79 9 80 10 81 12 82 13 83 14
REMARK SMILES IDX 90 15 84 16 89 17 85 19 86 20 87 21 88 22 9 23 10 24 11 25
REMARK SMILES IDX 12 26 13 27 14 28 78 29 15 30 77 31 16 32 17 33 18 34 71 35
REMARK SMILES IDX 19 36 76 37 70 38 72 39 20 40 75 41 69 42 68 43 21 45 55 46
REMARK SMILES IDX 34 47 54 48 35 49 38 50 53 51 73 52 36 53 37 54 52 56 74 57
REMARK SMILES IDX 39 58 22 59 23 60 32 61 24 62 25 63 31 64 33 65 26 66 27 67
REMARK SMILES IDX 28 68 29 69 30 70 56 71 57 72 66 73 58 74 59 75 65 76 67 77
REMARK SMILES IDX 60 78 61 79 62 80 63 81 64 82 40 83 41 84 50 85 42 86 43 87
REMARK SMILES IDX 49 88 51 89 44 90 45 91 46 92 47 93 48 94
REMARK H PARENT 79 11 90 18 72 44 38 55
REMARK Flexibility Score: inf
ROOT
ATOM      1  C   UNL A   1      33.059  29.648  27.268  1.00  0.00     0.274 C 
ENDROOT
BRANCH   1   2
ATOM      2  O   UNL A   1      33.019  29.075  25.949  1.00  0.00    -0.462 OA
BRANCH   2   3
ATOM      3  C   UNL A   1      32.921  27.730  25.869  1.00  0.00     0.308 C 
ATOM      4  O   UNL A   1      33.824  26.946  26.139  1.00  0.00    -0.252 OA
BRANCH   3   5
ATOM      5  C   UNL A   1      31.567  27.237  25.409  1.00  0.00     0.150 C 
BRANCH   5   6
ATOM      6  C   UNL A   1      31.299  27.084  23.896  1.00  0.00     0.045 C 
ATOM      7  C   UNL A   1      30.418  25.850  23.639  1.00  0.00     0.035 C 
ATOM      8  C   UNL A   1      30.460  28.315  23.461  1.00  0.00     0.035 C 
BRANCH   6   9
ATOM      9  N   UNL A   1      32.565  27.164  23.136  1.00  0.00    -0.344 N 
ATOM     10  C   UNL A   1      33.269  26.167  22.500  1.00  0.00     0.289 C 
ATOM     11  H   UNL A   1      32.964  28.062  23.077  1.00  0.00     0.164 HD
ATOM     12  O   UNL A   1      33.642  26.379  21.345  1.00  0.00    -0.266 OA
BRANCH  10  13
ATOM     13  C   UNL A   1      33.515  24.913  23.157  1.00  0.00     0.214 A 
ATOM     14  N   UNL A   1      32.955  23.743  22.902  1.00  0.00    -0.207 NA
ATOM     15  N   UNL A   1      34.292  24.793  24.268  1.00  0.00    -0.255 N 
ATOM     16  C   UNL A   1      33.401  22.946  23.930  1.00  0.00     0.156 A 
ATOM     17  N   UNL A   1      34.288  23.538  24.744  1.00  0.00    -0.158 NA
ATOM     18  H   UNL A   1      34.796  25.536  24.671  1.00  0.00     0.192 HD
BRANCH  16  19
ATOM     19  C   UNL A   1      32.855  21.564  24.208  1.00  0.00     0.024 C 
ATOM     20  C   UNL A   1      34.008  20.643  24.659  1.00  0.00     0.019 C 
ATOM     21  C   UNL A   1      31.798  21.586  25.329  1.00  0.00     0.019 C 
ATOM     22  C   UNL A   1      32.204  20.971  22.946  1.00  0.00     0.019 C 
ENDBRANCH  16  19
ENDBRANCH  10  13
ENDBRANCH   6   9
ENDBRANCH   5   6
ENDBRANCH   3   5
ENDBRANCH   2   3
ENDBRANCH   1   2
BRANCH   1  23
ATOM     23  C   UNL A   1      34.351  30.433  27.472  1.00  0.00     0.275 C 
BRANCH  23  24
ATOM     24  O   UNL A   1      35.211  29.737  28.391  1.00  0.00    -0.458 OA
BRANCH  24  25
ATOM     25  C   UNL A   1      36.139  30.505  29.004  1.00  0.00     0.338 C 
ATOM     26  O   UNL A   1      35.968  31.530  29.637  1.00  0.00    -0.246 OA
BRANCH  25  27
ATOM     27  C   UNL A   1      37.467  29.906  28.823  1.00  0.00     0.060 A 
ATOM     28  C   UNL A   1      38.247  29.615  29.943  1.00  0.00     0.016 A 
ATOM     29  C   UNL A   1      37.985  29.764  27.535  1.00  0.00     0.016 A 
ATOM     30  C   UNL A   1      39.572  29.221  29.780  1.00  0.00     0.010 A 
ATOM     31  C   UNL A   1      39.300  29.323  27.373  1.00  0.00     0.010 A 
ATOM     32  C   UNL A   1      40.112  29.074  28.494  1.00  0.00    -0.014 A 
BRANCH  32  33
ATOM     33  C   UNL A   1      41.534  28.690  28.311  1.00  0.00     0.031 A 
ATOM     34  C   UNL A   1      42.611  29.735  28.397  1.00  0.00     0.074 A 
ATOM     35  C   UNL A   1      41.852  27.408  28.059  1.00  0.00     0.049 A 
ATOM     36  N   UNL A   1      43.887  29.629  28.129  1.00  0.00    -0.248 NA
ATOM     37  C   UNL A   1      42.198  31.078  28.837  1.00  0.00     0.031 C 
ATOM     38  C   UNL A   1      40.899  26.299  27.985  1.00  0.00     0.029 A 
ATOM     39  N   UNL A   1      43.067  26.821  27.811  1.00  0.00    -0.354 N 
ATOM     40  C   UNL A   1      44.425  30.895  28.335  1.00  0.00     0.074 A 
ATOM     41  C   UNL A   1      43.336  31.754  28.747  1.00  0.00     0.031 C 
ATOM     42  C   UNL A   1      41.565  25.165  27.715  1.00  0.00     0.029 A 
ATOM     43  C   UNL A   1      42.981  25.475  27.544  1.00  0.00     0.049 A 
ATOM     44  H   UNL A   1      43.917  27.316  27.822  1.00  0.00     0.167 HD
ATOM     45  C   UNL A   1      45.709  31.300  28.188  1.00  0.00     0.037 A 
ATOM     46  C   UNL A   1      43.930  24.596  27.170  1.00  0.00     0.037 A 
ATOM     47  C   UNL A   1      46.792  30.435  27.799  1.00  0.00     0.049 A 
ATOM     48  C   UNL A   1      45.343  25.075  26.990  1.00  0.00     0.074 A 
ATOM     49  C   UNL A   1      48.129  30.749  27.624  1.00  0.00     0.029 A 
ATOM     50  N   UNL A   1      46.662  29.080  27.532  1.00  0.00    -0.354 N 
ATOM     51  N   UNL A   1      45.829  26.282  27.151  1.00  0.00    -0.248 NA
ATOM     52  C   UNL A   1      46.333  24.077  26.563  1.00  0.00     0.031 C 
ATOM     53  C   UNL A   1      48.803  29.587  27.229  1.00  0.00     0.029 A 
ATOM     54  C   UNL A   1      47.892  28.543  27.187  1.00  0.00     0.049 A 
ATOM     55  H   UNL A   1      45.819  28.572  27.581  1.00  0.00     0.167 HD
ATOM     56  C   UNL A   1      47.183  26.189  26.853  1.00  0.00     0.074 A 
ATOM     57  C   UNL A   1      47.442  24.803  26.514  1.00  0.00     0.031 C 
ATOM     58  C   UNL A   1      48.126  27.162  26.853  1.00  0.00     0.037 A 
BRANCH  45  59
ATOM     59  C   UNL A   1      46.008  32.753  28.424  1.00  0.00     0.058 A 
ATOM     60  C   UNL A   1      45.946  33.697  27.387  1.00  0.00     0.135 A 
ATOM     61  C   UNL A   1      46.338  33.211  29.710  1.00  0.00     0.135 A 
ATOM     62  F   UNL A   1      45.652  33.308  26.137  1.00  0.00    -0.206 F 
ATOM     63  C   UNL A   1      46.221  35.042  27.613  1.00  0.00     0.059 A 
ATOM     64  C   UNL A   1      46.599  34.554  29.963  1.00  0.00     0.059 A 
ATOM     65  F   UNL A   1      46.414  32.347  30.735  1.00  0.00    -0.206 F 
ATOM     66  C   UNL A   1      46.551  35.461  28.904  1.00  0.00     0.060 A 
BRANCH  66  67
ATOM     67  S   UNL A   1      46.906  37.209  29.189  1.00  0.00     0.124 S 
ATOM     68  O   UNL A   1      46.950  37.722  27.823  1.00  0.00    -0.237 OA
ATOM     69  O   UNL A   1      45.764  37.638  29.990  1.00  0.00    -0.237 OA
ATOM     70  O   UNL A   1      48.184  37.184  29.892  1.00  0.00    -0.744 OA
ENDBRANCH  66  67
ENDBRANCH  45  59
BRANCH  46  71
ATOM     71  C   UNL A   1      43.562  23.181  26.916  1.00  0.00     0.058 A 
ATOM     72  C   UNL A   1      43.269  22.313  27.976  1.00  0.00     0.135 A 
ATOM     73  C   UNL A   1      43.458  22.683  25.609  1.00  0.00     0.135 A 
ATOM     74  F   UNL A   1      43.364  22.744  29.243  1.00  0.00    -0.206 F 
ATOM     75  C   UNL A   1      42.886  20.995  27.750  1.00  0.00     0.059 A 
ATOM     76  C   UNL A   1      43.056  21.376  25.357  1.00  0.00     0.059 A 
ATOM     77  F   UNL A   1      43.716  23.483  24.562  1.00  0.00    -0.206 F 
ATOM     78  C   UNL A   1      42.778  20.536  26.435  1.00  0.00     0.060 A 
BRANCH  78  79
ATOM     79  S   UNL A   1      42.206  18.849  26.142  1.00  0.00     0.124 S 
ATOM     80  O   UNL A   1      40.821  19.074  25.746  1.00  0.00    -0.237 OA
ATOM     81  O   UNL A   1      43.105  18.392  25.086  1.00  0.00    -0.237 OA
ATOM     82  O   UNL A   1      42.398  18.204  27.437  1.00  0.00    -0.744 OA
ENDBRANCH  78  79
ENDBRANCH  46  71
BRANCH  58  83
ATOM     83  C   UNL A   1      49.525  26.756  26.494  1.00  0.00     0.058 A 
ATOM     84  C   UNL A   1      50.416  26.273  27.464  1.00  0.00     0.135 A 
ATOM     85  C   UNL A   1      49.966  26.820  25.163  1.00  0.00     0.135 A 
ATOM     86  F   UNL A   1      50.041  26.202  28.750  1.00  0.00    -0.206 F 
ATOM     87  C   UNL A   1      51.708  25.883  27.129  1.00  0.00     0.059 A 
ATOM     88  C   UNL A   1      51.248  26.419  24.803  1.00  0.00     0.059 A 
ATOM     89  F   UNL A   1      49.146  27.269  24.200  1.00  0.00    -0.206 F 
ATOM     90  C   UNL A   1      52.117  25.964  25.795  1.00  0.00     0.060 A 
BRANCH  90  91
ATOM     91  S   UNL A   1      53.787  25.433  25.361  1.00  0.00     0.124 S 
ATOM     92  O   UNL A   1      53.525  24.506  24.265  1.00  0.00    -0.237 OA
ATOM     93  O   UNL A   1      54.434  26.689  24.989  1.00  0.00    -0.237 OA
ATOM     94  O   UNL A   1      54.278  24.827  26.595  1.00  0.00    -0.744 OA
ENDBRANCH  90  91
ENDBRANCH  58  83
ENDBRANCH  32  33
ENDBRANCH  25  27
ENDBRANCH  24  25
ENDBRANCH  23  24
ENDBRANCH   1  23
TORSDOF 18
ENDMDL
MODEL 3
REMARK VINA RESULT:     -10.4      2.823      3.442
REMARK SMILES CC(C)(CC(=O)OCCOC(=O)c1ccc(-c2c3nc(c(-c4c(F)cc(S(=O)(=O)[O-])cc4F)c4ccc([nH]4)c(-c4c(F)cc(S(=O)(=O)[O-])cc4F)c4nc(c(-c5c(F)cc(S(=O)(=O)[O-])cc5F)c5ccc2[nH]5)C=C4)C=C3)cc1)NC(=O)c1nc(C(C)(C)C)n[nH]1
REMARK SMILES IDX 8 1 7 2 5 3 6 4 4 5 2 6 1 7 3 8 79 9 80 10 81 12 82 13 83 14
REMARK SMILES IDX 90 15 84 16 89 17 85 19 86 20 87 21 88 22 9 23 10 24 11 25
REMARK SMILES IDX 12 26 13 27 14 28 78 29 15 30 77 31 16 32 17 33 18 34 71 35
REMARK SMILES IDX 19 36 76 37 70 38 72 39 20 40 75 41 69 42 68 43 21 45 55 46
REMARK SMILES IDX 34 47 54 48 35 49 38 50 53 51 73 52 36 53 37 54 52 56 74 57
REMARK SMILES IDX 39 58 22 59 23 60 32 61 24 62 25 63 31 64 33 65 26 66 27 67
REMARK SMILES IDX 28 68 29 69 30 70 56 71 57 72 66 73 58 74 59 75 65 76 67 77
REMARK SMILES IDX 60 78 61 79 62 80 63 81 64 82 40 83 41 84 50 85 42 86 43 87
REMARK SMILES IDX 49 88 51 89 44 90 45 91 46 92 47 93 48 94
REMARK H PARENT 79 11 90 18 72 44 38 55
REMARK Flexibility Score: inf
ROOT
ATOM      1  C   UNL A   1      31.773  28.752  26.323  1.00  0.00     0.274 C 
ENDROOT
BRANCH   1   2
ATOM      2  O   UNL A   1      31.422  27.806  25.297  1.00  0.00    -0.462 OA
BRANCH   2   3
ATOM      3  C   UNL A   1      30.902  26.628  25.703  1.00  0.00     0.308 C 
ATOM      4  O   UNL A   1      30.641  26.342  26.868  1.00  0.00    -0.252 OA
BRANCH   3   5
ATOM      5  C   UNL A   1      30.650  25.645  24.581  1.00  0.00     0.150 C 
BRANCH   5   6
ATOM      6  C   UNL A   1      31.418  24.306  24.569  1.00  0.00     0.045 C 
ATOM      7  C   UNL A   1      31.165  23.565  23.246  1.00  0.00     0.035 C 
ATOM      8  C   UNL A   1      32.930  24.655  24.590  1.00  0.00     0.035 C 
BRANCH   6   9
ATOM      9  N   UNL A   1      31.157  23.549  25.813  1.00  0.00    -0.344 N 
ATOM     10  C   UNL A   1      31.957  22.646  26.473  1.00  0.00     0.289 C 
ATOM     11  H   UNL A   1      30.281  23.715  26.229  1.00  0.00     0.164 HD
ATOM     12  O   UNL A   1      32.098  22.789  27.688  1.00  0.00    -0.266 OA
BRANCH  10  13
ATOM     13  C   UNL A   1      32.634  21.604  25.750  1.00  0.00     0.214 A 
ATOM     14  N   UNL A   1      32.104  20.531  25.190  1.00  0.00    -0.207 NA
ATOM     15  N   UNL A   1      33.990  21.518  25.663  1.00  0.00    -0.255 N 
ATOM     16  C   UNL A   1      33.201  19.794  24.810  1.00  0.00     0.156 A 
ATOM     17  N   UNL A   1      34.377  20.408  25.014  1.00  0.00    -0.158 NA
ATOM     18  H   UNL A   1      34.610  22.188  26.029  1.00  0.00     0.192 HD
BRANCH  16  19
ATOM     19  C   UNL A   1      33.115  18.367  24.322  1.00  0.00     0.024 C 
ATOM     20  C   UNL A   1      34.541  17.795  24.169  1.00  0.00     0.019 C 
ATOM     21  C   UNL A   1      32.349  17.472  25.314  1.00  0.00     0.019 C 
ATOM     22  C   UNL A   1      32.400  18.298  22.961  1.00  0.00     0.019 C 
ENDBRANCH  16  19
ENDBRANCH  10  13
ENDBRANCH   6   9
ENDBRANCH   5   6
ENDBRANCH   3   5
ENDBRANCH   2   3
ENDBRANCH   1   2
BRANCH   1  23
ATOM     23  C   UNL A   1      33.249  28.625  26.685  1.00  0.00     0.275 C 
BRANCH  23  24
ATOM     24  O   UNL A   1      33.942  29.845  26.368  1.00  0.00    -0.458 OA
BRANCH  24  25
ATOM     25  C   UNL A   1      34.303  30.596  27.432  1.00  0.00     0.338 C 
ATOM     26  O   UNL A   1      33.728  31.560  27.902  1.00  0.00    -0.246 OA
BRANCH  25  27
ATOM     27  C   UNL A   1      35.544  30.063  28.007  1.00  0.00     0.060 A 
ATOM     28  C   UNL A   1      35.552  29.621  29.332  1.00  0.00     0.016 A 
ATOM     29  C   UNL A   1      36.727  30.133  27.271  1.00  0.00     0.016 A 
ATOM     30  C   UNL A   1      36.758  29.288  29.943  1.00  0.00     0.010 A 
ATOM     31  C   UNL A   1      37.929  29.754  27.871  1.00  0.00     0.010 A 
ATOM     32  C   UNL A   1      37.958  29.354  29.219  1.00  0.00    -0.014 A 
BRANCH  32  33
ATOM     33  C   UNL A   1      39.252  29.037  29.873  1.00  0.00     0.031 A 
ATOM     34  C   UNL A   1      39.701  29.825  31.071  1.00  0.00     0.074 A 
ATOM     35  C   UNL A   1      40.023  28.049  29.382  1.00  0.00     0.049 A 
ATOM     36  N   UNL A   1      40.852  29.797  31.693  1.00  0.00    -0.248 NA
ATOM     37  C   UNL A   1      38.732  30.773  31.642  1.00  0.00     0.031 C 
ATOM     38  C   UNL A   1      39.678  27.193  28.246  1.00  0.00     0.029 A 
ATOM     39  N   UNL A   1      41.259  27.603  29.774  1.00  0.00    -0.354 N 
ATOM     40  C   UNL A   1      40.760  30.745  32.706  1.00  0.00     0.074 A 
ATOM     41  C   UNL A   1      39.440  31.332  32.614  1.00  0.00     0.031 C 
ATOM     42  C   UNL A   1      40.678  26.321  28.035  1.00  0.00     0.029 A 
ATOM     43  C   UNL A   1      41.753  26.592  28.984  1.00  0.00     0.049 A 
ATOM     44  H   UNL A   1      41.746  27.972  30.546  1.00  0.00     0.167 HD
ATOM     45  C   UNL A   1      41.692  31.092  33.625  1.00  0.00     0.037 A 
ATOM     46  C   UNL A   1      42.950  25.976  29.000  1.00  0.00     0.037 A 
ATOM     47  C   UNL A   1      42.995  30.487  33.724  1.00  0.00     0.049 A 
ATOM     48  C   UNL A   1      43.978  26.396  30.012  1.00  0.00     0.074 A 
ATOM     49  C   UNL A   1      44.012  30.769  34.620  1.00  0.00     0.029 A 
ATOM     50  N   UNL A   1      43.458  29.471  32.901  1.00  0.00    -0.354 N 
ATOM     51  N   UNL A   1      43.890  27.319  30.939  1.00  0.00    -0.248 NA
ATOM     52  C   UNL A   1      45.273  25.703  29.972  1.00  0.00     0.031 C 
ATOM     53  C   UNL A   1      45.099  29.937  34.325  1.00  0.00     0.029 A 
ATOM     54  C   UNL A   1      44.748  29.118  33.263  1.00  0.00     0.049 A 
ATOM     55  H   UNL A   1      42.946  29.060  32.167  1.00  0.00     0.167 HD
ATOM     56  C   UNL A   1      45.112  27.314  31.598  1.00  0.00     0.074 A 
ATOM     57  C   UNL A   1      45.920  26.286  30.972  1.00  0.00     0.031 C 
ATOM     58  C   UNL A   1      45.532  28.092  32.625  1.00  0.00     0.037 A 
BRANCH  45  59
ATOM     59  C   UNL A   1      41.345  32.198  34.580  1.00  0.00     0.058 A 
ATOM     60  C   UNL A   1      41.643  33.540  34.295  1.00  0.00     0.135 A 
ATOM     61  C   UNL A   1      40.686  31.914  35.786  1.00  0.00     0.135 A 
ATOM     62  F   UNL A   1      42.289  33.862  33.163  1.00  0.00    -0.206 F 
ATOM     63  C   UNL A   1      41.315  34.560  35.182  1.00  0.00     0.059 A 
ATOM     64  C   UNL A   1      40.332  32.920  36.680  1.00  0.00     0.059 A 
ATOM     65  F   UNL A   1      40.382  30.646  36.107  1.00  0.00    -0.206 F 
ATOM     66  C   UNL A   1      40.664  34.240  36.376  1.00  0.00     0.060 A 
BRANCH  66  67
ATOM     67  S   UNL A   1      40.243  35.571  37.522  1.00  0.00     0.124 S 
ATOM     68  O   UNL A   1      41.500  35.743  38.242  1.00  0.00    -0.237 OA
ATOM     69  O   UNL A   1      39.874  36.659  36.623  1.00  0.00    -0.237 OA
ATOM     70  O   UNL A   1      39.144  35.009  38.301  1.00  0.00    -0.744 OA
ENDBRANCH  66  67
ENDBRANCH  45  59
BRANCH  46  71
ATOM     71  C   UNL A   1      43.244  24.916  28.004  1.00  0.00     0.058 A 
ATOM     72  C   UNL A   1      43.852  25.228  26.780  1.00  0.00     0.135 A 
ATOM     73  C   UNL A   1      42.957  23.570  28.272  1.00  0.00     0.135 A 
ATOM     74  F   UNL A   1      44.136  26.503  26.477  1.00  0.00    -0.206 F 
ATOM     75  C   UNL A   1      44.167  24.239  25.854  1.00  0.00     0.059 A 
ATOM     76  C   UNL A   1      43.280  22.562  27.371  1.00  0.00     0.059 A 
ATOM     77  F   UNL A   1      42.386  23.223  29.437  1.00  0.00    -0.206 F 
ATOM     78  C   UNL A   1      43.881  22.907  26.160  1.00  0.00     0.060 A 
BRANCH  78  79
ATOM     79  S   UNL A   1      44.360  21.617  24.989  1.00  0.00     0.124 S 
ATOM     80  O   UNL A   1      43.398  20.567  25.301  1.00  0.00    -0.237 OA
ATOM     81  O   UNL A   1      44.183  22.283  23.702  1.00  0.00    -0.237 OA
ATOM     82  O   UNL A   1      45.745  21.337  25.354  1.00  0.00    -0.744 OA
ENDBRANCH  78  79
ENDBRANCH  46  71
BRANCH  58  83
ATOM     83  C   UNL A   1      46.919  27.847  33.143  1.00  0.00     0.058 A 
ATOM     84  C   UNL A   1      48.023  28.548  32.635  1.00  0.00     0.135 A 
ATOM     85  C   UNL A   1      47.140  26.927  34.179  1.00  0.00     0.135 A 
ATOM     86  F   UNL A   1      47.860  29.432  31.638  1.00  0.00    -0.206 F 
ATOM     87  C   UNL A   1      49.306  28.331  33.124  1.00  0.00     0.059 A 
ATOM     88  C   UNL A   1      48.412  26.706  34.696  1.00  0.00     0.059 A 
ATOM     89  F   UNL A   1      46.114  26.237  34.701  1.00  0.00    -0.206 F 
ATOM     90  C   UNL A   1      49.492  27.405  34.154  1.00  0.00     0.060 A 
BRANCH  90  91
ATOM     91  S   UNL A   1      51.156  27.145  34.803  1.00  0.00     0.124 S 
ATOM     92  O   UNL A   1      51.499  25.852  34.221  1.00  0.00    -0.237 OA
ATOM     93  O   UNL A   1      51.887  28.293  34.274  1.00  0.00    -0.237 OA
ATOM     94  O   UNL A   1      50.957  27.151  36.250  1.00  0.00    -0.744 OA
ENDBRANCH  90  91
ENDBRANCH  58  83
ENDBRANCH  32  33
ENDBRANCH  25  27
ENDBRANCH  24  25
ENDBRANCH  23  24
ENDBRANCH   1  23
TORSDOF 18
ENDMDL
