MODEL 1
REMARK VINA RESULT:     -11.8      0.000      0.000
REMARK SMILES O=C(OCCOC(=O)c1cc(NC(=O)c2ccccc2Cl)ccc1N1CCC[C@H](C[NH+]2CCCC2)C1)c1ccc(-c2c3nc(c(-c4c(F)cc(S(=O)(=O)[O-])cc4F)c4ccc([nH]4)c(-c4c(F)cc(S(=O)(=O)[O-])cc4F)c4nc(c(-c5c(F)cc(S(=O)(=O)[O-])cc5F)c5ccc2[nH]5)C=C4)C=C3)cc1
REMARK SMILES IDX 4 1 3 2 2 3 1 4 37 5 38 6 102 7 39 8 101 9 40 10 41 11 42 12
REMARK SMILES IDX 95 13 43 14 100 15 94 16 96 17 44 18 99 19 93 20 92 21 45 23
REMARK SMILES IDX 79 24 58 25 78 26 59 27 62 28 77 29 97 30 60 31 61 32 76 34
REMARK SMILES IDX 98 35 63 36 46 37 47 38 56 39 48 40 49 41 55 42 57 43 50 44
REMARK SMILES IDX 51 45 52 46 53 47 54 48 80 49 81 50 90 51 82 52 83 53 89 54
REMARK SMILES IDX 91 55 84 56 85 57 86 58 87 59 88 60 64 61 65 62 74 63 66 64
REMARK SMILES IDX 67 65 73 66 75 67 68 68 69 69 70 70 71 71 72 72 5 73 6 74
REMARK SMILES IDX 7 75 8 76 9 77 10 78 24 79 11 80 23 81 22 82 25 83 26 84
REMARK SMILES IDX 36 85 27 86 29 87 28 88 30 89 31 90 32 91 35 92 33 94 34 95
REMARK SMILES IDX 12 96 13 97 14 99 15 100 16 101 20 102 17 103 19 104 21 105
REMARK SMILES IDX 18 106
REMARK H PARENT 96 22 62 33 31 93 12 98
REMARK Flexibility Score: inf
ROOT
ATOM      1  C   UNL A   1      38.340  23.635  25.705  1.00  0.00     0.275 C 
ENDROOT
BRANCH   1   2
ATOM      2  O   UNL A   1      39.317  24.026  26.694  1.00  0.00    -0.458 OA
BRANCH   2   3
ATOM      3  C   UNL A   1      39.913  25.236  26.617  1.00  0.00     0.338 C 
ATOM      4  O   UNL A   1      40.421  25.651  25.587  1.00  0.00    -0.246 OA
BRANCH   3   5
ATOM      5  C   UNL A   1      39.805  26.066  27.856  1.00  0.00     0.060 A 
ATOM      6  C   UNL A   1      39.002  25.714  28.939  1.00  0.00     0.016 A 
ATOM      7  C   UNL A   1      40.618  27.205  27.967  1.00  0.00     0.016 A 
ATOM      8  C   UNL A   1      39.035  26.475  30.107  1.00  0.00     0.010 A 
ATOM      9  C   UNL A   1      40.657  27.974  29.136  1.00  0.00     0.010 A 
ATOM     10  C   UNL A   1      39.863  27.608  30.217  1.00  0.00    -0.014 A 
BRANCH  10  11
ATOM     11  C   UNL A   1      39.674  28.467  31.411  1.00  0.00     0.031 A 
ATOM     12  C   UNL A   1      40.758  28.424  32.423  1.00  0.00     0.074 A 
ATOM     13  C   UNL A   1      38.654  29.336  31.535  1.00  0.00     0.049 A 
ATOM     14  N   UNL A   1      41.028  29.271  33.369  1.00  0.00    -0.248 NA
ATOM     15  C   UNL A   1      41.619  27.230  32.391  1.00  0.00     0.031 C 
ATOM     16  C   UNL A   1      37.439  29.283  30.752  1.00  0.00     0.029 A 
ATOM     17  N   UNL A   1      38.494  30.477  32.279  1.00  0.00    -0.354 N 
ATOM     18  C   UNL A   1      42.050  28.687  34.093  1.00  0.00     0.074 A 
ATOM     19  C   UNL A   1      42.381  27.433  33.453  1.00  0.00     0.031 C 
ATOM     20  C   UNL A   1      36.781  30.448  30.843  1.00  0.00     0.029 A 
ATOM     21  C   UNL A   1      37.480  31.293  31.798  1.00  0.00     0.049 A 
ATOM     22  H   UNL A   1      39.041  30.693  33.069  1.00  0.00     0.167 HD
ATOM     23  C   UNL A   1      42.608  29.146  35.233  1.00  0.00     0.037 A 
ATOM     24  C   UNL A   1      37.196  32.580  32.086  1.00  0.00     0.037 A 
ATOM     25  C   UNL A   1      42.184  30.366  35.863  1.00  0.00     0.049 A 
ATOM     26  C   UNL A   1      37.967  33.174  33.237  1.00  0.00     0.074 A 
ATOM     27  C   UNL A   1      42.621  30.927  37.045  1.00  0.00     0.029 A 
ATOM     28  N   UNL A   1      41.199  31.207  35.355  1.00  0.00    -0.354 N 
ATOM     29  N   UNL A   1      38.971  32.647  33.902  1.00  0.00    -0.248 NA
ATOM     30  C   UNL A   1      37.529  34.482  33.735  1.00  0.00     0.031 C 
ATOM     31  C   UNL A   1      41.870  32.087  37.272  1.00  0.00     0.029 A 
ATOM     32  C   UNL A   1      41.012  32.285  36.200  1.00  0.00     0.049 A 
ATOM     33  H   UNL A   1      40.705  31.057  34.517  1.00  0.00     0.167 HD
ATOM     34  C   UNL A   1      39.248  33.528  34.932  1.00  0.00     0.074 A 
ATOM     35  C   UNL A   1      38.365  34.667  34.749  1.00  0.00     0.031 C 
ATOM     36  C   UNL A   1      40.113  33.391  35.969  1.00  0.00     0.037 A 
BRANCH  23  37
ATOM     37  C   UNL A   1      43.624  28.256  35.882  1.00  0.00     0.058 A 
ATOM     38  C   UNL A   1      43.258  27.248  36.788  1.00  0.00     0.135 A 
ATOM     39  C   UNL A   1      44.992  28.478  35.664  1.00  0.00     0.135 A 
ATOM     40  F   UNL A   1      41.964  27.031  37.073  1.00  0.00    -0.206 F 
ATOM     41  C   UNL A   1      44.214  26.513  37.479  1.00  0.00     0.059 A 
ATOM     42  C   UNL A   1      45.966  27.734  36.321  1.00  0.00     0.059 A 
ATOM     43  F   UNL A   1      45.397  29.452  34.833  1.00  0.00    -0.206 F 
ATOM     44  C   UNL A   1      45.566  26.764  37.239  1.00  0.00     0.060 A 
BRANCH  44  45
ATOM     45  S   UNL A   1      46.793  25.805  38.147  1.00  0.00     0.124 S 
ATOM     46  O   UNL A   1      47.529  26.856  38.844  1.00  0.00    -0.237 OA
ATOM     47  O   UNL A   1      45.959  24.952  38.989  1.00  0.00    -0.237 OA
ATOM     48  O   UNL A   1      47.530  25.112  37.095  1.00  0.00    -0.744 OA
ENDBRANCH  44  45
ENDBRANCH  23  37
BRANCH  24  49
ATOM     49  C   UNL A   1      36.189  33.387  31.321  1.00  0.00     0.058 A 
ATOM     50  C   UNL A   1      34.920  33.655  31.872  1.00  0.00     0.135 A 
ATOM     51  C   UNL A   1      36.436  33.898  30.038  1.00  0.00     0.135 A 
ATOM     52  F   UNL A   1      34.608  33.192  33.093  1.00  0.00    -0.206 F 
ATOM     53  C   UNL A   1      33.944  34.374  31.181  1.00  0.00     0.059 A 
ATOM     54  C   UNL A   1      35.491  34.656  29.343  1.00  0.00     0.059 A 
ATOM     55  F   UNL A   1      37.616  33.673  29.439  1.00  0.00    -0.206 F 
ATOM     56  C   UNL A   1      34.241  34.875  29.916  1.00  0.00     0.060 A 
BRANCH  56  57
ATOM     57  S   UNL A   1      32.990  35.847  29.045  1.00  0.00     0.124 S 
ATOM     58  O   UNL A   1      33.810  36.845  28.369  1.00  0.00    -0.237 OA
ATOM     59  O   UNL A   1      32.365  34.846  28.186  1.00  0.00    -0.237 OA
ATOM     60  O   UNL A   1      32.144  36.349  30.123  1.00  0.00    -0.744 OA
ENDBRANCH  56  57
ENDBRANCH  24  49
BRANCH  36  61
ATOM     61  C   UNL A   1      40.134  34.506  36.970  1.00  0.00     0.058 A 
ATOM     62  C   UNL A   1      41.027  35.582  36.851  1.00  0.00     0.135 A 
ATOM     63  C   UNL A   1      39.215  34.516  38.028  1.00  0.00     0.135 A 
ATOM     64  F   UNL A   1      41.927  35.611  35.855  1.00  0.00    -0.206 F 
ATOM     65  C   UNL A   1      41.026  36.622  37.771  1.00  0.00     0.059 A 
ATOM     66  C   UNL A   1      39.175  35.561  38.941  1.00  0.00     0.059 A 
ATOM     67  F   UNL A   1      38.335  33.511  38.171  1.00  0.00    -0.206 F 
ATOM     68  C   UNL A   1      40.096  36.600  38.812  1.00  0.00     0.060 A 
BRANCH  68  69
ATOM     69  S   UNL A   1      40.090  37.964  39.992  1.00  0.00     0.124 S 
ATOM     70  O   UNL A   1      41.339  38.641  39.659  1.00  0.00    -0.237 OA
ATOM     71  O   UNL A   1      38.866  38.677  39.638  1.00  0.00    -0.237 OA
ATOM     72  O   UNL A   1      40.065  37.291  41.287  1.00  0.00    -0.744 OA
ENDBRANCH  68  69
ENDBRANCH  36  61
ENDBRANCH  10  11
ENDBRANCH   3   5
ENDBRANCH   2   3
ENDBRANCH   1   2
BRANCH   1  73
ATOM     73  C   UNL A   1      36.865  24.007  25.903  1.00  0.00     0.275 C 
BRANCH  73  74
ATOM     74  O   UNL A   1      35.988  22.959  25.485  1.00  0.00    -0.458 OA
BRANCH  74  75
ATOM     75  C   UNL A   1      35.122  23.268  24.491  1.00  0.00     0.340 C 
ATOM     76  O   UNL A   1      35.409  23.502  23.322  1.00  0.00    -0.246 OA
BRANCH  75  77
ATOM     77  C   UNL A   1      33.727  23.217  24.975  1.00  0.00     0.085 A 
ATOM     78  C   UNL A   1      33.296  24.352  25.712  1.00  0.00     0.044 A 
ATOM     79  C   UNL A   1      32.883  22.119  24.743  1.00  0.00     0.051 A 
ATOM     80  C   UNL A   1      32.021  24.411  26.262  1.00  0.00     0.042 A 
ATOM     81  C   UNL A   1      31.656  22.156  25.416  1.00  0.00     0.029 A 
ATOM     82  C   UNL A   1      31.222  23.274  26.148  1.00  0.00     0.028 A 
BRANCH  79  83
ATOM     83  N   UNL A   1      33.173  21.029  23.950  1.00  0.00    -0.370 N 
ATOM     84  C   UNL A   1      32.547  20.838  22.643  1.00  0.00     0.116 C 
ATOM     85  C   UNL A   1      34.263  20.117  24.227  1.00  0.00     0.126 C 
ATOM     86  C   UNL A   1      31.937  19.447  22.546  1.00  0.00     0.022 C 
ATOM     87  C   UNL A   1      33.719  18.685  24.200  1.00  0.00     0.064 C 
ATOM     88  C   UNL A   1      32.999  18.398  22.866  1.00  0.00     0.013 C 
BRANCH  87  89
ATOM     89  C   UNL A   1      32.841  18.454  25.455  1.00  0.00     0.267 C 
BRANCH  89  90
ATOM     90  N   UNL A   1      33.031  17.216  26.211  1.00  0.00    -0.335 N 
ATOM     91  C   UNL A   1      34.254  16.486  25.892  1.00  0.00     0.262 C 
ATOM     92  C   UNL A   1      31.920  16.265  26.148  1.00  0.00     0.262 C 
ATOM     93  H   UNL A   1      33.093  17.586  27.160  1.00  0.00     0.348 HD
ATOM     94  C   UNL A   1      33.836  15.378  24.944  1.00  0.00     0.067 C 
ATOM     95  C   UNL A   1      32.399  15.073  25.327  1.00  0.00     0.067 C 
ENDBRANCH  89  90
ENDBRANCH  87  89
ENDBRANCH  79  83
BRANCH  80  96
ATOM     96  N   UNL A   1      31.484  25.489  26.994  1.00  0.00    -0.322 N 
ATOM     97  C   UNL A   1      31.341  26.837  26.757  1.00  0.00     0.257 C 
ATOM     98  H   UNL A   1      31.131  25.217  27.872  1.00  0.00     0.170 HD
ATOM     99  O   UNL A   1      31.023  27.596  27.673  1.00  0.00    -0.269 OA
BRANCH  97 100
ATOM    100  C   UNL A   1      31.467  27.414  25.415  1.00  0.00     0.058 A 
ATOM    101  C   UNL A   1      30.448  27.179  24.485  1.00  0.00     0.015 A 
ATOM    102  C   UNL A   1      32.630  28.091  25.031  1.00  0.00     0.053 A 
ATOM    103  C   UNL A   1      30.546  27.719  23.202  1.00  0.00     0.001 A 
ATOM    104  C   UNL A   1      32.722  28.630  23.745  1.00  0.00     0.021 A 
ATOM    105  Cl  UNL A   1      33.972  28.305  26.099  1.00  0.00    -0.083 Cl
ATOM    106  C   UNL A   1      31.674  28.455  22.838  1.00  0.00     0.002 A 
ENDBRANCH  97 100
ENDBRANCH  80  96
ENDBRANCH  75  77
ENDBRANCH  74  75
ENDBRANCH  73  74
ENDBRANCH   1  73
TORSDOF 19
ENDMDL
MODEL 2
REMARK VINA RESULT:     -11.6      6.937     14.108
REMARK SMILES O=C(OCCOC(=O)c1cc(NC(=O)c2ccccc2Cl)ccc1N1CCC[C@H](C[NH+]2CCCC2)C1)c1ccc(-c2c3nc(c(-c4c(F)cc(S(=O)(=O)[O-])cc4F)c4ccc([nH]4)c(-c4c(F)cc(S(=O)(=O)[O-])cc4F)c4nc(c(-c5c(F)cc(S(=O)(=O)[O-])cc5F)c5ccc2[nH]5)C=C4)C=C3)cc1
REMARK SMILES IDX 4 1 3 2 2 3 1 4 37 5 38 6 102 7 39 8 101 9 40 10 41 11 42 12
REMARK SMILES IDX 95 13 43 14 100 15 94 16 96 17 44 18 99 19 93 20 92 21 45 23
REMARK SMILES IDX 79 24 58 25 78 26 59 27 62 28 77 29 97 30 60 31 61 32 76 34
REMARK SMILES IDX 98 35 63 36 46 37 47 38 56 39 48 40 49 41 55 42 57 43 50 44
REMARK SMILES IDX 51 45 52 46 53 47 54 48 80 49 81 50 90 51 82 52 83 53 89 54
REMARK SMILES IDX 91 55 84 56 85 57 86 58 87 59 88 60 64 61 65 62 74 63 66 64
REMARK SMILES IDX 67 65 73 66 75 67 68 68 69 69 70 70 71 71 72 72 5 73 6 74
REMARK SMILES IDX 7 75 8 76 9 77 10 78 24 79 11 80 23 81 22 82 25 83 26 84
REMARK SMILES IDX 36 85 27 86 29 87 28 88 30 89 31 90 32 91 35 92 33 94 34 95
REMARK SMILES IDX 12 96 13 97 14 99 15 100 16 101 20 102 17 103 19 104 21 105
REMARK SMILES IDX 18 106
REMARK H PARENT 96 22 62 33 31 93 12 98
REMARK Flexibility Score: inf
ROOT
ATOM      1  C   UNL A   1      37.303  32.063  34.387  1.00  0.00     0.275 C 
ENDROOT
BRANCH   1   2
ATOM      2  O   UNL A   1      37.629  31.318  33.194  1.00  0.00    -0.458 OA
BRANCH   2   3
ATOM      3  C   UNL A   1      38.223  30.108  33.290  1.00  0.00     0.338 C 
ATOM      4  O   UNL A   1      37.843  29.254  34.077  1.00  0.00    -0.246 OA
BRANCH   3   5
ATOM      5  C   UNL A   1      39.303  29.859  32.287  1.00  0.00     0.060 A 
ATOM      6  C   UNL A   1      39.839  28.596  32.045  1.00  0.00     0.016 A 
ATOM      7  C   UNL A   1      39.733  30.933  31.492  1.00  0.00     0.016 A 
ATOM      8  C   UNL A   1      40.764  28.417  31.017  1.00  0.00     0.010 A 
ATOM      9  C   UNL A   1      40.660  30.762  30.458  1.00  0.00     0.010 A 
ATOM     10  C   UNL A   1      41.180  29.495  30.214  1.00  0.00    -0.014 A 
BRANCH  10  11
ATOM     11  C   UNL A   1      42.314  29.248  29.291  1.00  0.00     0.031 A 
ATOM     12  C   UNL A   1      43.455  30.190  29.393  1.00  0.00     0.074 A 
ATOM     13  C   UNL A   1      42.384  28.170  28.489  1.00  0.00     0.049 A 
ATOM     14  N   UNL A   1      44.675  30.046  28.973  1.00  0.00    -0.248 NA
ATOM     15  C   UNL A   1      43.157  31.496  30.005  1.00  0.00     0.031 C 
ATOM     16  C   UNL A   1      41.251  27.344  28.132  1.00  0.00     0.029 A 
ATOM     17  N   UNL A   1      43.439  27.519  27.902  1.00  0.00    -0.354 N 
ATOM     18  C   UNL A   1      45.282  31.266  29.208  1.00  0.00     0.074 A 
ATOM     19  C   UNL A   1      44.309  32.125  29.845  1.00  0.00     0.031 C 
ATOM     20  C   UNL A   1      41.673  26.175  27.626  1.00  0.00     0.029 A 
ATOM     21  C   UNL A   1      43.122  26.224  27.514  1.00  0.00     0.049 A 
ATOM     22  H   UNL A   1      44.326  27.926  27.770  1.00  0.00     0.167 HD
ATOM     23  C   UNL A   1      46.531  31.637  28.854  1.00  0.00     0.037 A 
ATOM     24  C   UNL A   1      43.931  25.208  27.152  1.00  0.00     0.037 A 
ATOM     25  C   UNL A   1      47.428  30.759  28.154  1.00  0.00     0.049 A 
ATOM     26  C   UNL A   1      45.381  25.570  26.952  1.00  0.00     0.074 A 
ATOM     27  C   UNL A   1      48.700  31.015  27.686  1.00  0.00     0.029 A 
ATOM     28  N   UNL A   1      47.126  29.446  27.807  1.00  0.00    -0.354 N 
ATOM     29  N   UNL A   1      45.978  26.710  27.215  1.00  0.00    -0.248 NA
ATOM     30  C   UNL A   1      46.246  24.560  26.335  1.00  0.00     0.031 C 
ATOM     31  C   UNL A   1      49.151  29.869  27.021  1.00  0.00     0.029 A 
ATOM     32  C   UNL A   1      48.187  28.876  27.130  1.00  0.00     0.049 A 
ATOM     33  H   UNL A   1      46.278  28.988  28.013  1.00  0.00     0.167 HD
ATOM     34  C   UNL A   1      47.273  26.579  26.744  1.00  0.00     0.074 A 
ATOM     35  C   UNL A   1      47.399  25.214  26.261  1.00  0.00     0.031 C 
ATOM     36  C   UNL A   1      48.256  27.511  26.666  1.00  0.00     0.037 A 
BRANCH  23  37
ATOM     37  C   UNL A   1      46.903  33.063  29.126  1.00  0.00     0.058 A 
ATOM     38  C   UNL A   1      47.503  33.455  30.334  1.00  0.00     0.135 A 
ATOM     39  C   UNL A   1      46.567  34.064  28.203  1.00  0.00     0.135 A 
ATOM     40  F   UNL A   1      47.795  32.542  31.274  1.00  0.00    -0.206 F 
ATOM     41  C   UNL A   1      47.728  34.795  30.628  1.00  0.00     0.059 A 
ATOM     42  C   UNL A   1      46.811  35.408  28.463  1.00  0.00     0.059 A 
ATOM     43  F   UNL A   1      45.961  33.745  27.048  1.00  0.00    -0.206 F 
ATOM     44  C   UNL A   1      47.377  35.764  29.687  1.00  0.00     0.060 A 
BRANCH  44  45
ATOM     45  S   UNL A   1      47.672  37.498  30.086  1.00  0.00     0.124 S 
ATOM     46  O   UNL A   1      48.919  37.416  30.841  1.00  0.00    -0.237 OA
ATOM     47  O   UNL A   1      47.772  38.108  28.764  1.00  0.00    -0.237 OA
ATOM     48  O   UNL A   1      46.492  37.874  30.859  1.00  0.00    -0.744 OA
ENDBRANCH  44  45
ENDBRANCH  23  37
BRANCH  24  49
ATOM     49  C   UNL A   1      43.445  23.802  26.964  1.00  0.00     0.058 A 
ATOM     50  C   UNL A   1      43.205  23.295  25.671  1.00  0.00     0.135 A 
ATOM     51  C   UNL A   1      43.189  22.931  28.035  1.00  0.00     0.135 A 
ATOM     52  F   UNL A   1      43.420  24.071  24.597  1.00  0.00    -0.206 F 
ATOM     53  C   UNL A   1      42.722  22.004  25.452  1.00  0.00     0.059 A 
ATOM     54  C   UNL A   1      42.746  21.621  27.841  1.00  0.00     0.059 A 
ATOM     55  F   UNL A   1      43.380  23.344  29.297  1.00  0.00    -0.206 F 
ATOM     56  C   UNL A   1      42.499  21.171  26.547  1.00  0.00     0.060 A 
BRANCH  56  57
ATOM     57  S   UNL A   1      41.919  19.483  26.257  1.00  0.00     0.124 S 
ATOM     58  O   UNL A   1      42.639  19.129  25.039  1.00  0.00    -0.237 OA
ATOM     59  O   UNL A   1      42.345  18.798  27.474  1.00  0.00    -0.237 OA
ATOM     60  O   UNL A   1      40.476  19.646  26.112  1.00  0.00    -0.744 OA
ENDBRANCH  56  57
ENDBRANCH  24  49
BRANCH  36  61
ATOM     61  C   UNL A   1      49.542  27.070  26.036  1.00  0.00     0.058 A 
ATOM     62  C   UNL A   1      49.769  27.206  24.658  1.00  0.00     0.135 A 
ATOM     63  C   UNL A   1      50.573  26.555  26.834  1.00  0.00     0.135 A 
ATOM     64  F   UNL A   1      48.807  27.691  23.856  1.00  0.00    -0.206 F 
ATOM     65  C   UNL A   1      50.972  26.814  24.085  1.00  0.00     0.059 A 
ATOM     66  C   UNL A   1      51.795  26.187  26.287  1.00  0.00     0.059 A 
ATOM     67  F   UNL A   1      50.402  26.421  28.159  1.00  0.00    -0.206 F 
ATOM     68  C   UNL A   1      51.977  26.306  24.910  1.00  0.00     0.060 A 
BRANCH  68  69
ATOM     69  S   UNL A   1      53.543  25.818  24.160  1.00  0.00     0.124 S 
ATOM     70  O   UNL A   1      54.449  26.829  24.694  1.00  0.00    -0.237 OA
ATOM     71  O   UNL A   1      53.726  24.464  24.675  1.00  0.00    -0.237 OA
ATOM     72  O   UNL A   1      53.274  25.907  22.728  1.00  0.00    -0.744 OA
ENDBRANCH  68  69
ENDBRANCH  36  61
ENDBRANCH  10  11
ENDBRANCH   3   5
ENDBRANCH   2   3
ENDBRANCH   1   2
BRANCH   1  73
ATOM     73  C   UNL A   1      38.421  32.732  35.197  1.00  0.00     0.275 C 
BRANCH  73  74
ATOM     74  O   UNL A   1      39.440  33.274  34.354  1.00  0.00    -0.458 OA
BRANCH  74  75
ATOM     75  C   UNL A   1      39.183  34.491  33.817  1.00  0.00     0.340 C 
ATOM     76  O   UNL A   1      38.855  35.502  34.430  1.00  0.00    -0.246 OA
BRANCH  75  77
ATOM     77  C   UNL A   1      39.426  34.485  32.360  1.00  0.00     0.085 A 
ATOM     78  C   UNL A   1      38.263  34.395  31.549  1.00  0.00     0.044 A 
ATOM     79  C   UNL A   1      40.714  34.545  31.806  1.00  0.00     0.051 A 
ATOM     80  C   UNL A   1      38.355  34.333  30.164  1.00  0.00     0.042 A 
ATOM     81  C   UNL A   1      40.778  34.354  30.420  1.00  0.00     0.029 A 
ATOM     82  C   UNL A   1      39.633  34.262  29.610  1.00  0.00     0.028 A 
BRANCH  79  83
ATOM     83  N   UNL A   1      41.887  34.745  32.503  1.00  0.00    -0.370 N 
ATOM     84  C   UNL A   1      42.960  35.591  31.982  1.00  0.00     0.116 C 
ATOM     85  C   UNL A   1      42.068  34.334  33.879  1.00  0.00     0.126 C 
ATOM     86  C   UNL A   1      44.283  34.839  32.002  1.00  0.00     0.022 C 
ATOM     87  C   UNL A   1      43.363  33.520  33.978  1.00  0.00     0.064 C 
ATOM     88  C   UNL A   1      44.555  34.318  33.411  1.00  0.00     0.013 C 
BRANCH  87  89
ATOM     89  C   UNL A   1      43.147  32.143  33.306  1.00  0.00     0.267 C 
BRANCH  89  90
ATOM     90  N   UNL A   1      43.723  30.962  33.951  1.00  0.00    -0.335 N 
ATOM     91  C   UNL A   1      45.145  30.757  33.693  1.00  0.00     0.262 C 
ATOM     92  C   UNL A   1      43.038  29.698  33.674  1.00  0.00     0.262 C 
ATOM     93  H   UNL A   1      43.587  31.201  34.933  1.00  0.00     0.348 HD
ATOM     94  C   UNL A   1      45.218  29.708  32.599  1.00  0.00     0.067 C 
ATOM     95  C   UNL A   1      43.967  28.870  32.794  1.00  0.00     0.067 C 
ENDBRANCH  89  90
ENDBRANCH  87  89
ENDBRANCH  79  83
BRANCH  80  96
ATOM     96  N   UNL A   1      37.273  34.260  29.264  1.00  0.00    -0.322 N 
ATOM     97  C   UNL A   1      36.650  33.234  28.591  1.00  0.00     0.257 C 
ATOM     98  H   UNL A   1      36.873  35.139  29.075  1.00  0.00     0.170 HD
ATOM     99  O   UNL A   1      35.850  33.483  27.689  1.00  0.00    -0.269 OA
BRANCH  97 100
ATOM    100  C   UNL A   1      36.830  31.827  28.964  1.00  0.00     0.058 A 
ATOM    101  C   UNL A   1      37.663  31.026  28.176  1.00  0.00     0.015 A 
ATOM    102  C   UNL A   1      36.099  31.265  30.016  1.00  0.00     0.053 A 
ATOM    103  C   UNL A   1      37.849  29.684  28.511  1.00  0.00     0.001 A 
ATOM    104  C   UNL A   1      36.290  29.921  30.349  1.00  0.00     0.021 A 
ATOM    105  Cl  UNL A   1      34.963  32.177  30.946  1.00  0.00    -0.083 Cl
ATOM    106  C   UNL A   1      37.175  29.137  29.604  1.00  0.00     0.002 A 
ENDBRANCH  97 100
ENDBRANCH  80  96
ENDBRANCH  75  77
ENDBRANCH  74  75
ENDBRANCH  73  74
ENDBRANCH   1  73
TORSDOF 19
ENDMDL
MODEL 3
REMARK VINA RESULT:     -11.0      7.033     14.741
REMARK SMILES O=C(OCCOC(=O)c1cc(NC(=O)c2ccccc2Cl)ccc1N1CCC[C@H](C[NH+]2CCCC2)C1)c1ccc(-c2c3nc(c(-c4c(F)cc(S(=O)(=O)[O-])cc4F)c4ccc([nH]4)c(-c4c(F)cc(S(=O)(=O)[O-])cc4F)c4nc(c(-c5c(F)cc(S(=O)(=O)[O-])cc5F)c5ccc2[nH]5)C=C4)C=C3)cc1
REMARK SMILES IDX 4 1 3 2 2 3 1 4 37 5 38 6 102 7 39 8 101 9 40 10 41 11 42 12
REMARK SMILES IDX 95 13 43 14 100 15 94 16 96 17 44 18 99 19 93 20 92 21 45 23
REMARK SMILES IDX 79 24 58 25 78 26 59 27 62 28 77 29 97 30 60 31 61 32 76 34
REMARK SMILES IDX 98 35 63 36 46 37 47 38 56 39 48 40 49 41 55 42 57 43 50 44
REMARK SMILES IDX 51 45 52 46 53 47 54 48 80 49 81 50 90 51 82 52 83 53 89 54
REMARK SMILES IDX 91 55 84 56 85 57 86 58 87 59 88 60 64 61 65 62 74 63 66 64
REMARK SMILES IDX 67 65 73 66 75 67 68 68 69 69 70 70 71 71 72 72 5 73 6 74
REMARK SMILES IDX 7 75 8 76 9 77 10 78 24 79 11 80 23 81 22 82 25 83 26 84
REMARK SMILES IDX 36 85 27 86 29 87 28 88 30 89 31 90 32 91 35 92 33 94 34 95
REMARK SMILES IDX 12 96 13 97 14 99 15 100 16 101 20 102 17 103 19 104 21 105
REMARK SMILES IDX 18 106
REMARK H PARENT 96 22 62 33 31 93 12 98
REMARK Flexibility Score: inf
ROOT
ATOM      1  C   UNL A   1      37.668  32.487  34.749  1.00  0.00     0.275 C 
ENDROOT
BRANCH   1   2
ATOM      2  O   UNL A   1      37.982  31.573  33.676  1.00  0.00    -0.458 OA
BRANCH   2   3
ATOM      3  C   UNL A   1      38.677  30.443  33.928  1.00  0.00     0.338 C 
ATOM      4  O   UNL A   1      38.391  29.690  34.847  1.00  0.00    -0.246 OA
BRANCH   3   5
ATOM      5  C   UNL A   1      39.750  30.132  32.933  1.00  0.00     0.060 A 
ATOM      6  C   UNL A   1      40.614  29.048  33.064  1.00  0.00     0.016 A 
ATOM      7  C   UNL A   1      39.828  30.917  31.773  1.00  0.00     0.016 A 
ATOM      8  C   UNL A   1      41.518  28.751  32.043  1.00  0.00     0.010 A 
ATOM      9  C   UNL A   1      40.731  30.626  30.744  1.00  0.00     0.010 A 
ATOM     10  C   UNL A   1      41.582  29.534  30.875  1.00  0.00    -0.014 A 
BRANCH  10  11
ATOM     11  C   UNL A   1      42.707  29.267  29.947  1.00  0.00     0.031 A 
ATOM     12  C   UNL A   1      43.920  30.100  30.136  1.00  0.00     0.074 A 
ATOM     13  C   UNL A   1      42.702  28.253  29.062  1.00  0.00     0.049 A 
ATOM     14  N   UNL A   1      45.131  29.888  29.718  1.00  0.00    -0.248 NA
ATOM     15  C   UNL A   1      43.719  31.374  30.847  1.00  0.00     0.031 C 
ATOM     16  C   UNL A   1      41.512  27.555  28.629  1.00  0.00     0.029 A 
ATOM     17  N   UNL A   1      43.711  27.565  28.437  1.00  0.00    -0.354 N 
ATOM     18  C   UNL A   1      45.832  31.032  30.056  1.00  0.00     0.074 A 
ATOM     19  C   UNL A   1      44.921  31.916  30.750  1.00  0.00     0.031 C 
ATOM     20  C   UNL A   1      41.845  26.398  28.036  1.00  0.00     0.029 A 
ATOM     21  C   UNL A   1      43.295  26.336  27.943  1.00  0.00     0.049 A 
ATOM     22  H   UNL A   1      44.630  27.906  28.347  1.00  0.00     0.167 HD
ATOM     23  C   UNL A   1      47.112  31.324  29.746  1.00  0.00     0.037 A 
ATOM     24  C   UNL A   1      44.024  25.287  27.510  1.00  0.00     0.037 A 
ATOM     25  C   UNL A   1      47.946  30.433  28.988  1.00  0.00     0.049 A 
ATOM     26  C   UNL A   1      45.501  25.542  27.354  1.00  0.00     0.074 A 
ATOM     27  C   UNL A   1      49.243  30.619  28.555  1.00  0.00     0.029 A 
ATOM     28  N   UNL A   1      47.543  29.181  28.534  1.00  0.00    -0.354 N 
ATOM     29  N   UNL A   1      46.185  26.605  27.714  1.00  0.00    -0.248 NA
ATOM     30  C   UNL A   1      46.292  24.516  26.668  1.00  0.00     0.031 C 
ATOM     31  C   UNL A   1      49.610  29.495  27.806  1.00  0.00     0.029 A 
ATOM     32  C   UNL A   1      48.566  28.580  27.825  1.00  0.00     0.049 A 
ATOM     33  H   UNL A   1      46.658  28.780  28.694  1.00  0.00     0.167 HD
ATOM     34  C   UNL A   1      47.473  26.404  27.248  1.00  0.00     0.074 A 
ATOM     35  C   UNL A   1      47.495  25.076  26.659  1.00  0.00     0.031 C 
ATOM     36  C   UNL A   1      48.531  27.254  27.254  1.00  0.00     0.037 A 
BRANCH  23  37
ATOM     37  C   UNL A   1      47.595  32.689  30.135  1.00  0.00     0.058 A 
ATOM     38  C   UNL A   1      48.215  32.932  31.372  1.00  0.00     0.135 A 
ATOM     39  C   UNL A   1      47.347  33.786  29.297  1.00  0.00     0.135 A 
ATOM     40  F   UNL A   1      48.426  31.924  32.234  1.00  0.00    -0.206 F 
ATOM     41  C   UNL A   1      48.545  34.220  31.775  1.00  0.00     0.059 A 
ATOM     42  C   UNL A   1      47.697  35.080  29.667  1.00  0.00     0.059 A 
ATOM     43  F   UNL A   1      46.727  33.612  28.119  1.00  0.00    -0.206 F 
ATOM     44  C   UNL A   1      48.280  35.288  30.916  1.00  0.00     0.060 A 
BRANCH  44  45
ATOM     45  S   UNL A   1      48.709  36.954  31.457  1.00  0.00     0.124 S 
ATOM     46  O   UNL A   1      50.151  36.974  31.226  1.00  0.00    -0.237 OA
ATOM     47  O   UNL A   1      47.913  37.786  30.561  1.00  0.00    -0.237 OA
ATOM     48  O   UNL A   1      48.297  36.973  32.857  1.00  0.00    -0.744 OA
ENDBRANCH  44  45
ENDBRANCH  23  37
BRANCH  24  49
ATOM     49  C   UNL A   1      43.427  23.945  27.205  1.00  0.00     0.058 A 
ATOM     50  C   UNL A   1      43.169  23.025  28.241  1.00  0.00     0.135 A 
ATOM     51  C   UNL A   1      43.113  23.527  25.903  1.00  0.00     0.135 A 
ATOM     52  F   UNL A   1      43.450  23.352  29.512  1.00  0.00    -0.206 F 
ATOM     53  C   UNL A   1      42.644  21.755  27.997  1.00  0.00     0.059 A 
ATOM     54  C   UNL A   1      42.549  22.278  25.637  1.00  0.00     0.059 A 
ATOM     55  F   UNL A   1      43.343  24.340  24.860  1.00  0.00    -0.206 F 
ATOM     56  C   UNL A   1      42.333  21.391  26.689  1.00  0.00     0.060 A 
BRANCH  56  57
ATOM     57  S   UNL A   1      41.609  19.763  26.384  1.00  0.00     0.124 S 
ATOM     58  O   UNL A   1      42.330  19.340  25.189  1.00  0.00    -0.237 OA
ATOM     59  O   UNL A   1      41.934  19.046  27.614  1.00  0.00    -0.237 OA
ATOM     60  O   UNL A   1      40.192  20.056  26.196  1.00  0.00    -0.744 OA
ENDBRANCH  56  57
ENDBRANCH  24  49
BRANCH  36  61
ATOM     61  C   UNL A   1      49.787  26.759  26.605  1.00  0.00     0.058 A 
ATOM     62  C   UNL A   1      50.085  27.051  25.265  1.00  0.00     0.135 A 
ATOM     63  C   UNL A   1      50.722  26.030  27.352  1.00  0.00     0.135 A 
ATOM     64  F   UNL A   1      49.215  27.744  24.511  1.00  0.00    -0.206 F 
ATOM     65  C   UNL A   1      51.261  26.606  24.676  1.00  0.00     0.059 A 
ATOM     66  C   UNL A   1      51.918  25.602  26.793  1.00  0.00     0.059 A 
ATOM     67  F   UNL A   1      50.481  25.740  28.641  1.00  0.00    -0.206 F 
ATOM     68  C   UNL A   1      52.170  25.883  25.450  1.00  0.00     0.060 A 
BRANCH  68  69
ATOM     69  S   UNL A   1      53.704  25.325  24.683  1.00  0.00     0.124 S 
ATOM     70  O   UNL A   1      53.577  23.877  24.800  1.00  0.00    -0.237 OA
ATOM     71  O   UNL A   1      53.591  25.866  23.331  1.00  0.00    -0.237 OA
ATOM     72  O   UNL A   1      54.738  25.936  25.512  1.00  0.00    -0.744 OA
ENDBRANCH  68  69
ENDBRANCH  36  61
ENDBRANCH  10  11
ENDBRANCH   3   5
ENDBRANCH   2   3
ENDBRANCH   1   2
BRANCH   1  73
ATOM     73  C   UNL A   1      38.802  33.175  35.519  1.00  0.00     0.275 C 
BRANCH  73  74
ATOM     74  O   UNL A   1      39.964  33.359  34.708  1.00  0.00    -0.458 OA
BRANCH  74  75
ATOM     75  C   UNL A   1      40.119  34.589  34.161  1.00  0.00     0.340 C 
ATOM     76  O   UNL A   1      40.287  35.640  34.770  1.00  0.00    -0.246 OA
BRANCH  75  77
ATOM     77  C   UNL A   1      40.140  34.509  32.687  1.00  0.00     0.085 A 
ATOM     78  C   UNL A   1      38.868  34.550  32.056  1.00  0.00     0.044 A 
ATOM     79  C   UNL A   1      41.329  34.383  31.951  1.00  0.00     0.051 A 
ATOM     80  C   UNL A   1      38.744  34.438  30.676  1.00  0.00     0.042 A 
ATOM     81  C   UNL A   1      41.161  34.145  30.580  1.00  0.00     0.029 A 
ATOM     82  C   UNL A   1      39.907  34.183  29.949  1.00  0.00     0.028 A 
BRANCH  79  83
ATOM     83  N   UNL A   1      42.608  34.446  32.462  1.00  0.00    -0.370 N 
ATOM     84  C   UNL A   1      43.064  33.536  33.512  1.00  0.00     0.116 C 
ATOM     85  C   UNL A   1      43.659  35.243  31.867  1.00  0.00     0.126 C 
ATOM     86  C   UNL A   1      43.671  34.321  34.666  1.00  0.00     0.022 C 
ATOM     87  C   UNL A   1      44.293  36.109  32.960  1.00  0.00     0.064 C 
ATOM     88  C   UNL A   1      44.773  35.237  34.139  1.00  0.00     0.013 C 
BRANCH  87  89
ATOM     89  C   UNL A   1      43.297  37.224  33.363  1.00  0.00     0.267 C 
BRANCH  89  90
ATOM     90  N   UNL A   1      43.547  38.581  32.876  1.00  0.00    -0.335 N 
ATOM     91  C   UNL A   1      44.847  38.773  32.242  1.00  0.00     0.262 C 
ATOM     92  C   UNL A   1      43.379  39.645  33.868  1.00  0.00     0.262 C 
ATOM     93  H   UNL A   1      42.811  38.666  32.176  1.00  0.00     0.348 HD
ATOM     94  C   UNL A   1      45.730  39.413  33.297  1.00  0.00     0.067 C 
ATOM     95  C   UNL A   1      44.768  40.195  34.173  1.00  0.00     0.067 C 
ENDBRANCH  89  90
ENDBRANCH  87  89
ENDBRANCH  79  83
BRANCH  80  96
ATOM     96  N   UNL A   1      37.540  34.482  29.946  1.00  0.00    -0.322 N 
ATOM     97  C   UNL A   1      36.761  33.538  29.317  1.00  0.00     0.257 C 
ATOM     98  H   UNL A   1      37.174  35.392  29.868  1.00  0.00     0.170 HD
ATOM     99  O   UNL A   1      35.855  33.889  28.560  1.00  0.00    -0.269 OA
BRANCH  97 100
ATOM    100  C   UNL A   1      36.904  32.103  29.579  1.00  0.00     0.058 A 
ATOM    101  C   UNL A   1      37.626  31.323  28.668  1.00  0.00     0.015 A 
ATOM    102  C   UNL A   1      36.240  31.500  30.653  1.00  0.00     0.053 A 
ATOM    103  C   UNL A   1      37.775  29.955  28.896  1.00  0.00     0.001 A 
ATOM    104  C   UNL A   1      36.392  30.129  30.877  1.00  0.00     0.021 A 
ATOM    105  Cl  UNL A   1      35.233  32.393  31.738  1.00  0.00    -0.083 Cl
ATOM    106  C   UNL A   1      37.171  29.361  30.006  1.00  0.00     0.002 A 
ENDBRANCH  97 100
ENDBRANCH  80  96
ENDBRANCH  75  77
ENDBRANCH  74  75
ENDBRANCH  73  74
ENDBRANCH   1  73
TORSDOF 19
ENDMDL
