MODEL 1
REMARK VINA RESULT:     -11.6      0.000      0.000
REMARK SMILES CC1(C)S[C@H](c2ccc(-c3ccccc3)o2)[NH2+][C@H]1C(=O)OCCOC(=O)c1ccc(-c2c3nc(c(-c4c(F)cc(S(=O)(=O)[O-])cc4F)c4ccc([nH]4)c(-c4c(F)cc(S(=O)(=O)[O-])cc4F)c4nc(c(-c5c(F)cc(S(=O)(=O)[O-])cc5F)c5ccc2[nH]5)C=C4)C=C3)cc1
REMARK SMILES IDX 23 1 22 2 21 3 19 4 20 5 18 6 1 7 2 8 3 9 4 10 5 11 17 12
REMARK SMILES IDX 6 15 7 16 16 17 8 18 9 19 10 20 11 21 15 22 12 23 14 24
REMARK SMILES IDX 13 25 24 26 25 27 26 28 27 29 28 30 92 31 29 32 91 33 30 34
REMARK SMILES IDX 31 35 32 36 85 37 33 38 90 39 84 40 86 41 34 42 89 43 83 44
REMARK SMILES IDX 82 45 35 47 69 48 48 49 68 50 49 51 52 52 67 53 87 54 50 55
REMARK SMILES IDX 51 56 66 58 88 59 53 60 36 61 37 62 46 63 38 64 39 65 45 66
REMARK SMILES IDX 47 67 40 68 41 69 42 70 43 71 44 72 70 73 71 74 80 75 72 76
REMARK SMILES IDX 73 77 79 78 81 79 74 80 75 81 76 82 77 83 78 84 54 85 55 86
REMARK SMILES IDX 64 87 56 88 57 89 63 90 65 91 58 92 59 93 60 94 61 95 62 96
REMARK H PARENT 17 13 17 14 86 46 52 57
REMARK Flexibility Score: inf
ROOT
ATOM      1  C   UNL A   1      34.423  30.838  27.689  1.00  0.00     0.275 C 
ENDROOT
BRANCH   1   2
ATOM      2  C   UNL A   1      33.286  30.119  26.960  1.00  0.00     0.274 C 
BRANCH   2   3
ATOM      3  O   UNL A   1      33.440  28.684  26.989  1.00  0.00    -0.458 OA
BRANCH   3   4
ATOM      4  C   UNL A   1      32.307  27.957  26.813  1.00  0.00     0.366 C 
ATOM      5  O   UNL A   1      31.358  27.990  27.591  1.00  0.00    -0.245 OA
BRANCH   4   6
ATOM      6  C   UNL A   1      32.344  27.014  25.592  1.00  0.00     0.310 C 
ATOM      7  C   UNL A   1      30.534  28.327  24.191  1.00  0.00     0.030 C 
ATOM      8  C   UNL A   1      31.151  26.987  24.600  1.00  0.00     0.079 C 
ATOM      9  C   UNL A   1      30.058  26.011  25.046  1.00  0.00     0.030 C 
ATOM     10  S   UNL A   1      31.910  26.303  23.064  1.00  0.00    -0.078 SA
ATOM     11  C   UNL A   1      33.604  26.311  23.719  1.00  0.00     0.311 C 
ATOM     12  N   UNL A   1      33.607  27.255  24.838  1.00  0.00    -0.316 N 
ATOM     13  H   UNL A   1      33.632  28.213  24.490  1.00  0.00     0.348 HD
ATOM     14  H   UNL A   1      34.424  27.122  25.432  1.00  0.00     0.348 HD
BRANCH  11  15
ATOM     15  C   UNL A   1      34.060  24.906  24.009  1.00  0.00     0.172 A 
ATOM     16  C   UNL A   1      33.449  23.692  23.746  1.00  0.00     0.054 A 
ATOM     17  O   UNL A   1      35.277  24.682  24.608  1.00  0.00    -0.454 OA
ATOM     18  C   UNL A   1      34.332  22.683  24.180  1.00  0.00     0.051 A 
ATOM     19  C   UNL A   1      35.438  23.326  24.693  1.00  0.00     0.134 A 
BRANCH  19  20
ATOM     20  C   UNL A   1      36.684  22.820  25.246  1.00  0.00     0.017 A 
ATOM     21  C   UNL A   1      37.140  21.532  24.948  1.00  0.00     0.012 A 
ATOM     22  C   UNL A   1      37.503  23.671  26.004  1.00  0.00     0.012 A 
ATOM     23  C   UNL A   1      38.401  21.109  25.386  1.00  0.00     0.001 A 
ATOM     24  C   UNL A   1      38.755  23.244  26.453  1.00  0.00     0.001 A 
ATOM     25  C   UNL A   1      39.206  21.964  26.136  1.00  0.00     0.000 A 
ENDBRANCH  19  20
ENDBRANCH  11  15
ENDBRANCH   4   6
ENDBRANCH   3   4
ENDBRANCH   2   3
ENDBRANCH   1   2
BRANCH   1  26
ATOM     26  O   UNL A   1      35.279  29.905  28.371  1.00  0.00    -0.458 OA
BRANCH  26  27
ATOM     27  C   UNL A   1      36.138  30.451  29.262  1.00  0.00     0.338 C 
ATOM     28  O   UNL A   1      35.868  31.204  30.181  1.00  0.00    -0.246 OA
BRANCH  27  29
ATOM     29  C   UNL A   1      37.487  29.917  29.028  1.00  0.00     0.060 A 
ATOM     30  C   UNL A   1      38.304  29.654  30.129  1.00  0.00     0.016 A 
ATOM     31  C   UNL A   1      37.975  29.764  27.731  1.00  0.00     0.016 A 
ATOM     32  C   UNL A   1      39.619  29.242  29.944  1.00  0.00     0.010 A 
ATOM     33  C   UNL A   1      39.292  29.329  27.546  1.00  0.00     0.010 A 
ATOM     34  C   UNL A   1      40.123  29.074  28.651  1.00  0.00    -0.014 A 
BRANCH  34  35
ATOM     35  C   UNL A   1      41.532  28.658  28.460  1.00  0.00     0.031 A 
ATOM     36  C   UNL A   1      42.630  29.676  28.559  1.00  0.00     0.074 A 
ATOM     37  C   UNL A   1      41.819  27.367  28.209  1.00  0.00     0.049 A 
ATOM     38  N   UNL A   1      43.905  29.544  28.296  1.00  0.00    -0.248 NA
ATOM     39  C   UNL A   1      42.242  31.022  29.010  1.00  0.00     0.031 C 
ATOM     40  C   UNL A   1      40.840  26.280  28.140  1.00  0.00     0.029 A 
ATOM     41  N   UNL A   1      43.019  26.752  27.955  1.00  0.00    -0.354 N 
ATOM     42  C   UNL A   1      44.468  30.794  28.519  1.00  0.00     0.074 A 
ATOM     43  C   UNL A   1      43.396  31.672  28.937  1.00  0.00     0.031 C 
ATOM     44  C   UNL A   1      41.478  25.134  27.855  1.00  0.00     0.029 A 
ATOM     45  C   UNL A   1      42.899  25.413  27.672  1.00  0.00     0.049 A 
ATOM     46  H   UNL A   1      43.882  27.225  27.974  1.00  0.00     0.167 HD
ATOM     47  C   UNL A   1      45.762  31.171  28.385  1.00  0.00     0.037 A 
ATOM     48  C   UNL A   1      43.825  24.522  27.271  1.00  0.00     0.037 A 
ATOM     49  C   UNL A   1      46.824  30.283  27.989  1.00  0.00     0.049 A 
ATOM     50  C   UNL A   1      45.247  24.974  27.081  1.00  0.00     0.074 A 
ATOM     51  C   UNL A   1      48.169  30.566  27.826  1.00  0.00     0.029 A 
ATOM     52  N   UNL A   1      46.661  28.936  27.694  1.00  0.00    -0.354 N 
ATOM     53  N   UNL A   1      45.763  26.166  27.267  1.00  0.00    -0.248 NA
ATOM     54  C   UNL A   1      46.209  23.966  26.617  1.00  0.00     0.031 C 
ATOM     55  C   UNL A   1      48.814  29.397  27.405  1.00  0.00     0.029 A 
ATOM     56  C   UNL A   1      47.878  28.378  27.339  1.00  0.00     0.049 A 
ATOM     57  H   UNL A   1      45.806  28.450  27.733  1.00  0.00     0.167 HD
ATOM     58  C   UNL A   1      47.112  26.049  26.954  1.00  0.00     0.074 A 
ATOM     59  C   UNL A   1      47.335  24.666  26.580  1.00  0.00     0.031 C 
ATOM     60  C   UNL A   1      48.078  26.999  26.973  1.00  0.00     0.037 A 
BRANCH  47  61
ATOM     61  C   UNL A   1      46.091  32.614  28.635  1.00  0.00     0.058 A 
ATOM     62  C   UNL A   1      46.139  33.553  27.594  1.00  0.00     0.135 A 
ATOM     63  C   UNL A   1      46.342  33.067  29.940  1.00  0.00     0.135 A 
ATOM     64  F   UNL A   1      45.925  33.168  26.326  1.00  0.00    -0.206 F 
ATOM     65  C   UNL A   1      46.447  34.889  27.835  1.00  0.00     0.059 A 
ATOM     66  C   UNL A   1      46.632  34.401  30.207  1.00  0.00     0.059 A 
ATOM     67  F   UNL A   1      46.311  32.208  30.971  1.00  0.00    -0.206 F 
ATOM     68  C   UNL A   1      46.697  35.302  29.145  1.00  0.00     0.060 A 
BRANCH  68  69
ATOM     69  S   UNL A   1      47.103  37.036  29.446  1.00  0.00     0.124 S 
ATOM     70  O   UNL A   1      45.809  37.568  29.864  1.00  0.00    -0.237 OA
ATOM     71  O   UNL A   1      48.117  36.946  30.491  1.00  0.00    -0.237 OA
ATOM     72  O   UNL A   1      47.584  37.503  28.149  1.00  0.00    -0.744 OA
ENDBRANCH  68  69
ENDBRANCH  47  61
BRANCH  48  73
ATOM     73  C   UNL A   1      43.425  23.120  26.989  1.00  0.00     0.058 A 
ATOM     74  C   UNL A   1      43.346  22.644  25.672  1.00  0.00     0.135 A 
ATOM     75  C   UNL A   1      43.135  22.225  28.029  1.00  0.00     0.135 A 
ATOM     76  F   UNL A   1      43.610  23.465  24.644  1.00  0.00    -0.206 F 
ATOM     77  C   UNL A   1      42.981  21.330  25.396  1.00  0.00     0.059 A 
ATOM     78  C   UNL A   1      42.791  20.900  27.780  1.00  0.00     0.059 A 
ATOM     79  F   UNL A   1      43.209  22.631  29.307  1.00  0.00    -0.206 F 
ATOM     80  C   UNL A   1      42.707  20.465  26.458  1.00  0.00     0.060 A 
BRANCH  80  81
ATOM     81  S   UNL A   1      42.289  18.746  26.096  1.00  0.00     0.124 S 
ATOM     82  O   UNL A   1      43.205  18.447  25.000  1.00  0.00    -0.237 OA
ATOM     83  O   UNL A   1      42.576  18.082  27.365  1.00  0.00    -0.237 OA
ATOM     84  O   UNL A   1      40.875  18.814  25.740  1.00  0.00    -0.744 OA
ENDBRANCH  80  81
ENDBRANCH  48  73
BRANCH  60  85
ATOM     85  C   UNL A   1      49.469  26.573  26.601  1.00  0.00     0.058 A 
ATOM     86  C   UNL A   1      50.372  26.098  27.564  1.00  0.00     0.135 A 
ATOM     87  C   UNL A   1      49.885  26.594  25.261  1.00  0.00     0.135 A 
ATOM     88  F   UNL A   1      50.023  26.065  28.860  1.00  0.00    -0.206 F 
ATOM     89  C   UNL A   1      51.648  25.669  27.212  1.00  0.00     0.059 A 
ATOM     90  C   UNL A   1      51.149  26.152  24.884  1.00  0.00     0.059 A 
ATOM     91  F   UNL A   1      49.054  27.032  24.302  1.00  0.00    -0.206 F 
ATOM     92  C   UNL A   1      52.027  25.701  25.868  1.00  0.00     0.060 A 
BRANCH  92  93
ATOM     93  S   UNL A   1      53.671  25.109  25.414  1.00  0.00     0.124 S 
ATOM     94  O   UNL A   1      53.909  25.829  24.168  1.00  0.00    -0.237 OA
ATOM     95  O   UNL A   1      54.484  25.528  26.552  1.00  0.00    -0.237 OA
ATOM     96  O   UNL A   1      53.487  23.666  25.283  1.00  0.00    -0.744 OA
ENDBRANCH  92  93
ENDBRANCH  60  85
ENDBRANCH  34  35
ENDBRANCH  27  29
ENDBRANCH  26  27
ENDBRANCH   1  26
TORSDOF 16
ENDMDL
MODEL 2
REMARK VINA RESULT:     -11.6      6.552     12.034
REMARK SMILES CC1(C)S[C@H](c2ccc(-c3ccccc3)o2)[NH2+][C@H]1C(=O)OCCOC(=O)c1ccc(-c2c3nc(c(-c4c(F)cc(S(=O)(=O)[O-])cc4F)c4ccc([nH]4)c(-c4c(F)cc(S(=O)(=O)[O-])cc4F)c4nc(c(-c5c(F)cc(S(=O)(=O)[O-])cc5F)c5ccc2[nH]5)C=C4)C=C3)cc1
REMARK SMILES IDX 23 1 22 2 21 3 19 4 20 5 18 6 1 7 2 8 3 9 4 10 5 11 17 12
REMARK SMILES IDX 6 15 7 16 16 17 8 18 9 19 10 20 11 21 15 22 12 23 14 24
REMARK SMILES IDX 13 25 24 26 25 27 26 28 27 29 28 30 92 31 29 32 91 33 30 34
REMARK SMILES IDX 31 35 32 36 85 37 33 38 90 39 84 40 86 41 34 42 89 43 83 44
REMARK SMILES IDX 82 45 35 47 69 48 48 49 68 50 49 51 52 52 67 53 87 54 50 55
REMARK SMILES IDX 51 56 66 58 88 59 53 60 36 61 37 62 46 63 38 64 39 65 45 66
REMARK SMILES IDX 47 67 40 68 41 69 42 70 43 71 44 72 70 73 71 74 80 75 72 76
REMARK SMILES IDX 73 77 79 78 81 79 74 80 75 81 76 82 77 83 78 84 54 85 55 86
REMARK SMILES IDX 64 87 56 88 57 89 63 90 65 91 58 92 59 93 60 94 61 95 62 96
REMARK H PARENT 17 13 17 14 86 46 52 57
REMARK Flexibility Score: inf
ROOT
ATOM      1  C   UNL A   1      38.130  23.454  25.849  1.00  0.00     0.275 C 
ENDROOT
BRANCH   1   2
ATOM      2  C   UNL A   1      36.663  23.801  26.117  1.00  0.00     0.274 C 
BRANCH   2   3
ATOM      3  O   UNL A   1      35.778  22.699  25.820  1.00  0.00    -0.458 OA
BRANCH   3   4
ATOM      4  C   UNL A   1      34.627  22.647  26.535  1.00  0.00     0.366 C 
ATOM      5  O   UNL A   1      34.533  22.080  27.620  1.00  0.00    -0.245 OA
BRANCH   4   6
ATOM      6  C   UNL A   1      33.414  23.291  25.830  1.00  0.00     0.310 C 
ATOM      7  C   UNL A   1      32.423  21.030  24.896  1.00  0.00     0.030 C 
ATOM      8  C   UNL A   1      32.685  22.525  24.694  1.00  0.00     0.079 C 
ATOM      9  C   UNL A   1      33.334  22.772  23.329  1.00  0.00     0.030 C 
ATOM     10  S   UNL A   1      31.021  23.320  24.667  1.00  0.00    -0.078 SA
ATOM     11  C   UNL A   1      31.318  24.338  26.140  1.00  0.00     0.311 C 
ATOM     12  N   UNL A   1      32.422  23.703  26.862  1.00  0.00    -0.316 N 
ATOM     13  H   UNL A   1      32.086  22.888  27.373  1.00  0.00     0.348 HD
ATOM     14  H   UNL A   1      32.836  24.341  27.540  1.00  0.00     0.348 HD
BRANCH  11  15
ATOM     15  C   UNL A   1      31.496  25.781  25.753  1.00  0.00     0.172 A 
ATOM     16  C   UNL A   1      30.870  26.531  24.770  1.00  0.00     0.054 A 
ATOM     17  O   UNL A   1      32.381  26.580  26.438  1.00  0.00    -0.454 OA
ATOM     18  C   UNL A   1      31.373  27.843  24.869  1.00  0.00     0.051 A 
ATOM     19  C   UNL A   1      32.287  27.834  25.901  1.00  0.00     0.134 A 
BRANCH  19  20
ATOM     20  C   UNL A   1      33.091  28.892  26.492  1.00  0.00     0.017 A 
ATOM     21  C   UNL A   1      32.541  30.142  26.793  1.00  0.00     0.012 A 
ATOM     22  C   UNL A   1      34.415  28.625  26.873  1.00  0.00     0.012 A 
ATOM     23  C   UNL A   1      33.296  31.101  27.477  1.00  0.00     0.001 A 
ATOM     24  C   UNL A   1      35.174  29.588  27.543  1.00  0.00     0.001 A 
ATOM     25  C   UNL A   1      34.609  30.824  27.851  1.00  0.00     0.000 A 
ENDBRANCH  19  20
ENDBRANCH  11  15
ENDBRANCH   4   6
ENDBRANCH   3   4
ENDBRANCH   2   3
ENDBRANCH   1   2
BRANCH   1  26
ATOM     26  O   UNL A   1      38.978  24.603  26.017  1.00  0.00    -0.458 OA
BRANCH  26  27
ATOM     27  C   UNL A   1      40.113  24.387  26.720  1.00  0.00     0.338 C 
ATOM     28  O   UNL A   1      40.971  23.551  26.498  1.00  0.00    -0.246 OA
BRANCH  27  29
ATOM     29  C   UNL A   1      40.232  25.401  27.777  1.00  0.00     0.060 A 
ATOM     30  C   UNL A   1      39.253  25.452  28.772  1.00  0.00     0.016 A 
ATOM     31  C   UNL A   1      41.249  26.354  27.735  1.00  0.00     0.016 A 
ATOM     32  C   UNL A   1      39.279  26.459  29.729  1.00  0.00     0.010 A 
ATOM     33  C   UNL A   1      41.287  27.354  28.712  1.00  0.00     0.010 A 
ATOM     34  C   UNL A   1      40.297  27.417  29.709  1.00  0.00    -0.014 A 
BRANCH  34  35
ATOM     35  C   UNL A   1      40.305  28.502  30.718  1.00  0.00     0.031 A 
ATOM     36  C   UNL A   1      41.259  28.438  31.875  1.00  0.00     0.074 A 
ATOM     37  C   UNL A   1      39.463  29.543  30.585  1.00  0.00     0.049 A 
ATOM     38  N   UNL A   1      41.333  29.211  32.927  1.00  0.00    -0.248 NA
ATOM     39  C   UNL A   1      42.260  27.360  31.844  1.00  0.00     0.031 C 
ATOM     40  C   UNL A   1      38.527  29.739  29.476  1.00  0.00     0.029 A 
ATOM     41  N   UNL A   1      39.251  30.630  31.396  1.00  0.00    -0.354 N 
ATOM     42  C   UNL A   1      42.366  28.697  33.701  1.00  0.00     0.074 A 
ATOM     43  C   UNL A   1      42.888  27.544  32.998  1.00  0.00     0.031 C 
ATOM     44  C   UNL A   1      37.836  30.872  29.680  1.00  0.00     0.029 A 
ATOM     45  C   UNL A   1      38.244  31.454  30.956  1.00  0.00     0.049 A 
ATOM     46  H   UNL A   1      39.771  30.801  32.214  1.00  0.00     0.167 HD
ATOM     47  C   UNL A   1      42.832  29.147  34.890  1.00  0.00     0.037 A 
ATOM     48  C   UNL A   1      37.687  32.534  31.535  1.00  0.00     0.037 A 
ATOM     49  C   UNL A   1      42.318  30.307  35.571  1.00  0.00     0.049 A 
ATOM     50  C   UNL A   1      38.187  32.987  32.879  1.00  0.00     0.074 A 
ATOM     51  C   UNL A   1      42.723  30.848  36.780  1.00  0.00     0.029 A 
ATOM     52  N   UNL A   1      41.285  31.107  35.102  1.00  0.00    -0.354 N 
ATOM     53  N   UNL A   1      39.145  32.476  33.615  1.00  0.00    -0.248 NA
ATOM     54  C   UNL A   1      37.525  34.154  33.476  1.00  0.00     0.031 C 
ATOM     55  C   UNL A   1      41.916  31.958  37.054  1.00  0.00     0.029 A 
ATOM     56  C   UNL A   1      41.032  32.130  36.001  1.00  0.00     0.049 A 
ATOM     57  H   UNL A   1      40.806  30.968  34.254  1.00  0.00     0.167 HD
ATOM     58  C   UNL A   1      39.209  33.266  34.757  1.00  0.00     0.074 A 
ATOM     59  C   UNL A   1      38.201  34.297  34.607  1.00  0.00     0.031 C 
ATOM     60  C   UNL A   1      40.026  33.148  35.832  1.00  0.00     0.037 A 
BRANCH  47  61
ATOM     61  C   UNL A   1      43.930  28.361  35.546  1.00  0.00     0.058 A 
ATOM     62  C   UNL A   1      43.658  27.318  36.444  1.00  0.00     0.135 A 
ATOM     63  C   UNL A   1      45.274  28.641  35.253  1.00  0.00     0.135 A 
ATOM     64  F   UNL A   1      42.391  27.021  36.772  1.00  0.00    -0.206 F 
ATOM     65  C   UNL A   1      44.682  26.595  37.049  1.00  0.00     0.059 A 
ATOM     66  C   UNL A   1      46.314  27.920  35.830  1.00  0.00     0.059 A 
ATOM     67  F   UNL A   1      45.587  29.631  34.402  1.00  0.00    -0.206 F 
ATOM     68  C   UNL A   1      46.007  26.907  36.739  1.00  0.00     0.060 A 
BRANCH  68  69
ATOM     69  S   UNL A   1      47.330  25.968  37.533  1.00  0.00     0.124 S 
ATOM     70  O   UNL A   1      46.568  25.052  38.377  1.00  0.00    -0.237 OA
ATOM     71  O   UNL A   1      48.013  25.360  36.395  1.00  0.00    -0.237 OA
ATOM     72  O   UNL A   1      48.092  26.990  38.244  1.00  0.00    -0.744 OA
ENDBRANCH  68  69
ENDBRANCH  47  61
BRANCH  48  73
ATOM     73  C   UNL A   1      36.567  33.238  30.859  1.00  0.00     0.058 A 
ATOM     74  C   UNL A   1      35.243  33.063  31.286  1.00  0.00     0.135 A 
ATOM     75  C   UNL A   1      36.802  34.113  29.788  1.00  0.00     0.135 A 
ATOM     76  F   UNL A   1      34.970  32.232  32.303  1.00  0.00    -0.206 F 
ATOM     77  C   UNL A   1      34.187  33.724  30.667  1.00  0.00     0.059 A 
ATOM     78  C   UNL A   1      35.766  34.804  29.168  1.00  0.00     0.059 A 
ATOM     79  F   UNL A   1      38.054  34.323  29.352  1.00  0.00    -0.206 F 
ATOM     80  C   UNL A   1      34.460  34.594  29.609  1.00  0.00     0.060 A 
BRANCH  80  81
ATOM     81  S   UNL A   1      33.092  35.493  28.845  1.00  0.00     0.124 S 
ATOM     82  O   UNL A   1      33.804  36.502  28.068  1.00  0.00    -0.237 OA
ATOM     83  O   UNL A   1      32.425  34.448  28.074  1.00  0.00    -0.237 OA
ATOM     84  O   UNL A   1      32.339  35.992  29.992  1.00  0.00    -0.744 OA
ENDBRANCH  80  81
ENDBRANCH  48  73
BRANCH  60  85
ATOM     85  C   UNL A   1      39.882  34.171  36.920  1.00  0.00     0.058 A 
ATOM     86  C   UNL A   1      40.486  35.434  36.824  1.00  0.00     0.135 A 
ATOM     87  C   UNL A   1      39.091  33.903  38.049  1.00  0.00     0.135 A 
ATOM     88  F   UNL A   1      41.257  35.735  35.768  1.00  0.00    -0.206 F 
ATOM     89  C   UNL A   1      40.321  36.394  37.818  1.00  0.00     0.059 A 
ATOM     90  C   UNL A   1      38.897  34.854  39.045  1.00  0.00     0.059 A 
ATOM     91  F   UNL A   1      38.486  32.712  38.182  1.00  0.00    -0.206 F 
ATOM     92  C   UNL A   1      39.524  36.094  38.925  1.00  0.00     0.060 A 
BRANCH  92  93
ATOM     93  S   UNL A   1      39.285  37.358  40.192  1.00  0.00     0.124 S 
ATOM     94  O   UNL A   1      38.573  36.609  41.223  1.00  0.00    -0.237 OA
ATOM     95  O   UNL A   1      40.655  37.740  40.521  1.00  0.00    -0.237 OA
ATOM     96  O   UNL A   1      38.503  38.382  39.506  1.00  0.00    -0.744 OA
ENDBRANCH  92  93
ENDBRANCH  60  85
ENDBRANCH  34  35
ENDBRANCH  27  29
ENDBRANCH  26  27
ENDBRANCH   1  26
TORSDOF 16
ENDMDL
MODEL 3
REMARK VINA RESULT:     -11.4      2.370      3.464
REMARK SMILES CC1(C)S[C@H](c2ccc(-c3ccccc3)o2)[NH2+][C@H]1C(=O)OCCOC(=O)c1ccc(-c2c3nc(c(-c4c(F)cc(S(=O)(=O)[O-])cc4F)c4ccc([nH]4)c(-c4c(F)cc(S(=O)(=O)[O-])cc4F)c4nc(c(-c5c(F)cc(S(=O)(=O)[O-])cc5F)c5ccc2[nH]5)C=C4)C=C3)cc1
REMARK SMILES IDX 23 1 22 2 21 3 19 4 20 5 18 6 1 7 2 8 3 9 4 10 5 11 17 12
REMARK SMILES IDX 6 15 7 16 16 17 8 18 9 19 10 20 11 21 15 22 12 23 14 24
REMARK SMILES IDX 13 25 24 26 25 27 26 28 27 29 28 30 92 31 29 32 91 33 30 34
REMARK SMILES IDX 31 35 32 36 85 37 33 38 90 39 84 40 86 41 34 42 89 43 83 44
REMARK SMILES IDX 82 45 35 47 69 48 48 49 68 50 49 51 52 52 67 53 87 54 50 55
REMARK SMILES IDX 51 56 66 58 88 59 53 60 36 61 37 62 46 63 38 64 39 65 45 66
REMARK SMILES IDX 47 67 40 68 41 69 42 70 43 71 44 72 70 73 71 74 80 75 72 76
REMARK SMILES IDX 73 77 79 78 81 79 74 80 75 81 76 82 77 83 78 84 54 85 55 86
REMARK SMILES IDX 64 87 56 88 57 89 63 90 65 91 58 92 59 93 60 94 61 95 62 96
REMARK H PARENT 17 13 17 14 86 46 52 57
REMARK Flexibility Score: inf
ROOT
ATOM      1  C   UNL A   1      32.732  29.458  26.917  1.00  0.00     0.275 C 
ENDROOT
BRANCH   1   2
ATOM      2  C   UNL A   1      31.610  28.429  27.072  1.00  0.00     0.274 C 
BRANCH   2   3
ATOM      3  O   UNL A   1      32.096  27.073  26.977  1.00  0.00    -0.458 OA
BRANCH   3   4
ATOM      4  C   UNL A   1      31.338  26.214  26.250  1.00  0.00     0.366 C 
ATOM      5  O   UNL A   1      30.120  26.120  26.375  1.00  0.00    -0.245 OA
BRANCH   4   6
ATOM      6  C   UNL A   1      32.146  25.301  25.304  1.00  0.00     0.310 C 
ATOM      7  C   UNL A   1      31.586  26.640  23.101  1.00  0.00     0.030 C 
ATOM      8  C   UNL A   1      31.836  25.292  23.784  1.00  0.00     0.079 C 
ATOM      9  C   UNL A   1      30.721  24.303  23.433  1.00  0.00     0.030 C 
ATOM     10  S   UNL A   1      33.400  24.648  23.050  1.00  0.00    -0.078 SA
ATOM     11  C   UNL A   1      34.312  24.646  24.620  1.00  0.00     0.311 C 
ATOM     12  N   UNL A   1      33.599  25.563  25.509  1.00  0.00    -0.316 N 
ATOM     13  H   UNL A   1      33.819  26.530  25.270  1.00  0.00     0.348 HD
ATOM     14  H   UNL A   1      33.867  25.420  26.482  1.00  0.00     0.348 HD
BRANCH  11  15
ATOM     15  C   UNL A   1      34.511  23.237  25.109  1.00  0.00     0.172 A 
ATOM     16  C   UNL A   1      35.089  22.765  26.276  1.00  0.00     0.054 A 
ATOM     17  O   UNL A   1      34.060  22.174  24.363  1.00  0.00    -0.454 OA
ATOM     18  C   UNL A   1      34.970  21.361  26.256  1.00  0.00     0.051 A 
ATOM     19  C   UNL A   1      34.332  21.039  25.078  1.00  0.00     0.134 A 
BRANCH  19  20
ATOM     20  C   UNL A   1      33.901  19.765  24.525  1.00  0.00     0.017 A 
ATOM     21  C   UNL A   1      32.702  19.649  23.815  1.00  0.00     0.012 A 
ATOM     22  C   UNL A   1      34.750  18.651  24.606  1.00  0.00     0.012 A 
ATOM     23  C   UNL A   1      32.367  18.446  23.183  1.00  0.00     0.001 A 
ATOM     24  C   UNL A   1      34.409  17.446  23.988  1.00  0.00     0.001 A 
ATOM     25  C   UNL A   1      33.219  17.347  23.270  1.00  0.00     0.000 A 
ENDBRANCH  19  20
ENDBRANCH  11  15
ENDBRANCH   4   6
ENDBRANCH   3   4
ENDBRANCH   2   3
ENDBRANCH   1   2
BRANCH   1  26
ATOM     26  O   UNL A   1      33.802  29.209  27.845  1.00  0.00    -0.458 OA
BRANCH  26  27
ATOM     27  C   UNL A   1      34.562  30.284  28.155  1.00  0.00     0.338 C 
ATOM     28  O   UNL A   1      34.179  31.420  28.370  1.00  0.00    -0.246 OA
BRANCH  27  29
ATOM     29  C   UNL A   1      35.962  29.864  28.305  1.00  0.00     0.060 A 
ATOM     30  C   UNL A   1      36.403  29.431  29.557  1.00  0.00     0.016 A 
ATOM     31  C   UNL A   1      36.857  29.984  27.242  1.00  0.00     0.016 A 
ATOM     32  C   UNL A   1      37.743  29.121  29.760  1.00  0.00     0.010 A 
ATOM     33  C   UNL A   1      38.200  29.651  27.441  1.00  0.00     0.010 A 
ATOM     34  C   UNL A   1      38.652  29.225  28.703  1.00  0.00    -0.014 A 
BRANCH  34  35
ATOM     35  C   UNL A   1      40.083  28.916  28.932  1.00  0.00     0.031 A 
ATOM     36  C   UNL A   1      40.999  29.976  29.470  1.00  0.00     0.074 A 
ATOM     37  C   UNL A   1      40.550  27.682  28.665  1.00  0.00     0.049 A 
ATOM     38  N   UNL A   1      42.298  29.949  29.616  1.00  0.00    -0.248 NA
ATOM     39  C   UNL A   1      40.368  31.235  29.899  1.00  0.00     0.031 C 
ATOM     40  C   UNL A   1      39.744  26.557  28.186  1.00  0.00     0.029 A 
ATOM     41  N   UNL A   1      41.820  27.172  28.749  1.00  0.00    -0.354 N 
ATOM     42  C   UNL A   1      42.647  31.194  30.123  1.00  0.00     0.074 A 
ATOM     43  C   UNL A   1      41.423  31.954  30.259  1.00  0.00     0.031 C 
ATOM     44  C   UNL A   1      40.541  25.491  28.012  1.00  0.00     0.029 A 
ATOM     45  C   UNL A   1      41.918  25.871  28.317  1.00  0.00     0.049 A 
ATOM     46  H   UNL A   1      42.588  27.687  29.085  1.00  0.00     0.167 HD
ATOM     47  C   UNL A   1      43.879  31.657  30.444  1.00  0.00     0.037 A 
ATOM     48  C   UNL A   1      43.000  25.088  28.150  1.00  0.00     0.037 A 
ATOM     49  C   UNL A   1      45.088  30.885  30.324  1.00  0.00     0.049 A 
ATOM     50  C   UNL A   1      44.362  25.639  28.465  1.00  0.00     0.074 A 
ATOM     51  C   UNL A   1      46.386  31.261  30.625  1.00  0.00     0.029 A 
ATOM     52  N   UNL A   1      45.148  29.575  29.867  1.00  0.00    -0.354 N 
ATOM     53  N   UNL A   1      44.684  26.828  28.917  1.00  0.00    -0.248 NA
ATOM     54  C   UNL A   1      45.509  24.749  28.239  1.00  0.00     0.031 C 
ATOM     55  C   UNL A   1      47.234  30.189  30.322  1.00  0.00     0.029 A 
ATOM     56  C   UNL A   1      46.461  29.133  29.866  1.00  0.00     0.049 A 
ATOM     57  H   UNL A   1      44.371  29.040  29.586  1.00  0.00     0.167 HD
ATOM     58  C   UNL A   1      46.069  26.826  29.040  1.00  0.00     0.074 A 
ATOM     59  C   UNL A   1      46.522  25.512  28.627  1.00  0.00     0.031 C 
ATOM     60  C   UNL A   1      46.890  27.821  29.454  1.00  0.00     0.037 A 
BRANCH  47  61
ATOM     61  C   UNL A   1      43.981  33.077  30.920  1.00  0.00     0.058 A 
ATOM     62  C   UNL A   1      43.873  33.411  32.279  1.00  0.00     0.135 A 
ATOM     63  C   UNL A   1      44.214  34.117  30.005  1.00  0.00     0.135 A 
ATOM     64  F   UNL A   1      43.633  32.457  33.192  1.00  0.00    -0.206 F 
ATOM     65  C   UNL A   1      43.967  34.730  32.712  1.00  0.00     0.059 A 
ATOM     66  C   UNL A   1      44.331  35.440  30.417  1.00  0.00     0.059 A 
ATOM     67  F   UNL A   1      44.323  33.850  28.694  1.00  0.00    -0.206 F 
ATOM     68  C   UNL A   1      44.192  35.738  31.773  1.00  0.00     0.060 A 
BRANCH  68  69
ATOM     69  S   UNL A   1      44.306  37.448  32.343  1.00  0.00     0.124 S 
ATOM     70  O   UNL A   1      45.722  37.545  32.686  1.00  0.00    -0.237 OA
ATOM     71  O   UNL A   1      43.886  38.202  31.167  1.00  0.00    -0.237 OA
ATOM     72  O   UNL A   1      43.382  37.491  33.473  1.00  0.00    -0.744 OA
ENDBRANCH  68  69
ENDBRANCH  47  61
BRANCH  48  73
ATOM     73  C   UNL A   1      42.836  23.708  27.624  1.00  0.00     0.058 A 
ATOM     74  C   UNL A   1      42.520  22.643  28.479  1.00  0.00     0.135 A 
ATOM     75  C   UNL A   1      42.972  23.433  26.255  1.00  0.00     0.135 A 
ATOM     76  F   UNL A   1      42.384  22.857  29.797  1.00  0.00    -0.206 F 
ATOM     77  C   UNL A   1      42.355  21.348  27.996  1.00  0.00     0.059 A 
ATOM     78  C   UNL A   1      42.789  22.152  25.745  1.00  0.00     0.059 A 
ATOM     79  F   UNL A   1      43.262  24.422  25.395  1.00  0.00    -0.206 F 
ATOM     80  C   UNL A   1      42.490  21.114  26.626  1.00  0.00     0.060 A 
BRANCH  80  81
ATOM     81  S   UNL A   1      42.219  19.442  25.997  1.00  0.00     0.124 S 
ATOM     82  O   UNL A   1      40.771  19.428  25.822  1.00  0.00    -0.237 OA
ATOM     83  O   UNL A   1      43.009  19.440  24.769  1.00  0.00    -0.237 OA
ATOM     84  O   UNL A   1      42.737  18.595  27.067  1.00  0.00    -0.744 OA
ENDBRANCH  80  81
ENDBRANCH  48  73
BRANCH  60  85
ATOM     85  C   UNL A   1      48.360  27.521  29.506  1.00  0.00     0.058 A 
ATOM     86  C   UNL A   1      49.211  27.836  28.435  1.00  0.00     0.135 A 
ATOM     87  C   UNL A   1      48.932  26.958  30.658  1.00  0.00     0.135 A 
ATOM     88  F   UNL A   1      48.710  28.370  27.309  1.00  0.00    -0.206 F 
ATOM     89  C   UNL A   1      50.578  27.591  28.499  1.00  0.00     0.059 A 
ATOM     90  C   UNL A   1      50.299  26.722  30.751  1.00  0.00     0.059 A 
ATOM     91  F   UNL A   1      48.161  26.647  31.712  1.00  0.00    -0.206 F 
ATOM     92  C   UNL A   1      51.114  27.033  29.663  1.00  0.00     0.060 A 
BRANCH  92  93
ATOM     93  S   UNL A   1      52.895  26.751  29.752  1.00  0.00     0.124 S 
ATOM     94  O   UNL A   1      53.169  26.183  28.436  1.00  0.00    -0.237 OA
ATOM     95  O   UNL A   1      53.417  28.095  29.982  1.00  0.00    -0.237 OA
ATOM     96  O   UNL A   1      53.036  25.831  30.877  1.00  0.00    -0.744 OA
ENDBRANCH  92  93
ENDBRANCH  60  85
ENDBRANCH  34  35
ENDBRANCH  27  29
ENDBRANCH  26  27
ENDBRANCH   1  26
TORSDOF 16
ENDMDL
