MODEL 1
REMARK VINA RESULT:     -12.8      0.000      0.000
REMARK SMILES O=C(OCCOC(=O)c1ccc(-c2c3nc(c(-c4c(F)cc(S(=O)(=O)[O-])cc4F)c4ccc([nH]4)c(-c4c(F)cc(S(=O)(=O)[O-])cc4F)c4nc(c(-c5c(F)cc(S(=O)(=O)[O-])cc5F)c5ccc2[nH]5)C=C4)C=C3)cc1)C1=Cc2ccc(Cl)c(Cl)c2O[C@@H]1C(F)(F)F
REMARK SMILES IDX 5 1 4 2 3 3 2 4 1 5 75 6 76 7 86 8 77 9 85 10 78 11 84 12
REMARK SMILES IDX 79 13 82 14 80 15 83 16 81 17 87 18 88 19 89 20 90 21 6 22
REMARK SMILES IDX 7 23 8 24 9 25 10 26 74 27 11 28 73 29 12 30 13 31 14 32
REMARK SMILES IDX 67 33 15 34 72 35 66 36 68 37 16 38 71 39 65 40 64 41 17 43
REMARK SMILES IDX 51 44 30 45 50 46 31 47 34 48 49 49 69 50 32 51 33 52 48 54
REMARK SMILES IDX 70 55 35 56 18 57 19 58 28 59 20 60 21 61 27 62 29 63 22 64
REMARK SMILES IDX 23 65 24 66 25 67 26 68 52 69 53 70 62 71 54 72 55 73 61 74
REMARK SMILES IDX 63 75 56 76 57 77 58 78 59 79 60 80 36 81 37 82 46 83 38 84
REMARK SMILES IDX 39 85 45 86 47 87 40 88 41 89 42 90 43 91 44 92
REMARK H PARENT 68 42 34 53
REMARK Flexibility Score: inf
ROOT
ATOM      1  C   UNL A   1      45.071  25.058  25.384  1.00  0.00     0.275 C 
ENDROOT
BRANCH   1   2
ATOM      2  C   UNL A   1      45.725  23.043  25.790  1.00  0.00     0.275 C 
BRANCH   2   3
ATOM      3  O   UNL A   1      44.806  21.817  26.110  1.00  0.00    -0.459 OA
BRANCH   3   4
ATOM      4  C   UNL A   1      43.651  21.828  25.434  1.00  0.00     0.338 C 
ATOM      5  O   UNL A   1      43.394  22.205  24.321  1.00  0.00    -0.246 OA
BRANCH   4   6
ATOM      6  C   UNL A   1      42.837  21.495  26.572  1.00  0.00     0.087 C 
ATOM      7  C   UNL A   1      42.114  22.704  27.044  1.00  0.00     0.027 C 
ATOM      8  C   UNL A   1      41.995  19.925  25.821  1.00  0.00     0.316 C 
ATOM      9  C   UNL A   1      40.325  22.927  26.851  1.00  0.00     0.019 A 
ATOM     10  O   UNL A   1      40.105  20.167  25.576  1.00  0.00    -0.474 OA
ATOM     11  C   UNL A   1      39.785  24.142  27.165  1.00  0.00     0.013 A 
ATOM     12  C   UNL A   1      39.322  21.740  26.062  1.00  0.00     0.148 A 
ATOM     13  C   UNL A   1      38.437  24.295  26.798  1.00  0.00     0.023 A 
ATOM     14  C   UNL A   1      38.008  21.979  25.749  1.00  0.00     0.102 A 
ATOM     15  C   UNL A   1      37.600  23.288  26.133  1.00  0.00     0.063 A 
ATOM     16  Cl  UNL A   1      37.012  20.861  24.938  1.00  0.00    -0.079 Cl
ATOM     17  Cl  UNL A   1      35.983  23.847  25.783  1.00  0.00    -0.083 Cl
BRANCH   8  18
ATOM     18  C   UNL A   1      42.803  18.795  26.534  1.00  0.00     0.430 C 
ATOM     19  F   UNL A   1      42.634  18.812  27.861  1.00  0.00    -0.167 F 
ATOM     20  F   UNL A   1      42.278  17.600  26.130  1.00  0.00    -0.167 F 
ATOM     21  F   UNL A   1      44.106  18.698  26.210  1.00  0.00    -0.167 F 
ENDBRANCH   8  18
ENDBRANCH   4   6
ENDBRANCH   3   4
ENDBRANCH   2   3
ENDBRANCH   1   2
BRANCH   1  22
ATOM     22  O   UNL A   1      43.528  25.693  25.659  1.00  0.00    -0.458 OA
BRANCH  22  23
ATOM     23  C   UNL A   1      42.833  26.866  25.772  1.00  0.00     0.338 C 
ATOM     24  O   UNL A   1      42.101  27.425  24.982  1.00  0.00    -0.246 OA
BRANCH  23  25
ATOM     25  C   UNL A   1      42.932  27.211  27.218  1.00  0.00     0.060 A 
ATOM     26  C   UNL A   1      43.420  28.472  27.593  1.00  0.00     0.016 A 
ATOM     27  C   UNL A   1      42.203  26.443  28.122  1.00  0.00     0.016 A 
ATOM     28  C   UNL A   1      42.944  29.070  28.771  1.00  0.00     0.010 A 
ATOM     29  C   UNL A   1      41.782  27.017  29.316  1.00  0.00     0.010 A 
ATOM     30  C   UNL A   1      42.076  28.360  29.610  1.00  0.00    -0.014 A 
BRANCH  30  31
ATOM     31  C   UNL A   1      41.627  28.881  30.924  1.00  0.00     0.031 A 
ATOM     32  C   UNL A   1      40.407  29.743  30.898  1.00  0.00     0.074 A 
ATOM     33  C   UNL A   1      42.372  28.769  32.043  1.00  0.00     0.049 A 
ATOM     34  N   UNL A   1      39.950  30.568  31.798  1.00  0.00    -0.248 NA
ATOM     35  C   UNL A   1      39.635  29.711  29.645  1.00  0.00     0.031 C 
ATOM     36  C   UNL A   1      43.588  27.967  32.185  1.00  0.00     0.029 A 
ATOM     37  N   UNL A   1      42.236  29.380  33.269  1.00  0.00    -0.354 N 
ATOM     38  C   UNL A   1      38.863  31.187  31.201  1.00  0.00     0.074 A 
ATOM     39  C   UNL A   1      38.754  30.670  29.856  1.00  0.00     0.031 C 
ATOM     40  C   UNL A   1      44.103  28.164  33.414  1.00  0.00     0.029 A 
ATOM     41  C   UNL A   1      43.276  29.130  34.138  1.00  0.00     0.049 A 
ATOM     42  H   UNL A   1      41.464  29.946  33.503  1.00  0.00     0.167 HD
ATOM     43  C   UNL A   1      38.028  32.113  31.721  1.00  0.00     0.037 A 
ATOM     44  C   UNL A   1      43.536  29.647  35.359  1.00  0.00     0.037 A 
ATOM     45  C   UNL A   1      38.161  32.644  33.044  1.00  0.00     0.049 A 
ATOM     46  C   UNL A   1      42.586  30.677  35.935  1.00  0.00     0.074 A 
ATOM     47  C   UNL A   1      37.366  33.573  33.684  1.00  0.00     0.029 A 
ATOM     48  N   UNL A   1      39.174  32.295  33.926  1.00  0.00    -0.354 N 
ATOM     49  N   UNL A   1      41.520  31.213  35.386  1.00  0.00    -0.248 NA
ATOM     50  C   UNL A   1      42.869  31.173  37.290  1.00  0.00     0.031 C 
ATOM     51  C   UNL A   1      37.918  33.812  34.947  1.00  0.00     0.029 A 
ATOM     52  C   UNL A   1      39.028  32.994  35.109  1.00  0.00     0.049 A 
ATOM     53  H   UNL A   1      39.890  31.646  33.739  1.00  0.00     0.167 HD
ATOM     54  C   UNL A   1      40.988  32.079  36.338  1.00  0.00     0.074 A 
ATOM     55  C   UNL A   1      41.851  31.999  37.499  1.00  0.00     0.031 C 
ATOM     56  C   UNL A   1      39.884  32.864  36.264  1.00  0.00     0.037 A 
BRANCH  43  57
ATOM     57  C   UNL A   1      36.951  32.612  30.803  1.00  0.00     0.058 A 
ATOM     58  C   UNL A   1      37.182  33.680  29.918  1.00  0.00     0.135 A 
ATOM     59  C   UNL A   1      35.643  32.117  30.912  1.00  0.00     0.135 A 
ATOM     60  F   UNL A   1      38.410  34.213  29.808  1.00  0.00    -0.206 F 
ATOM     61  C   UNL A   1      36.139  34.292  29.236  1.00  0.00     0.059 A 
ATOM     62  C   UNL A   1      34.590  32.691  30.209  1.00  0.00     0.059 A 
ATOM     63  F   UNL A   1      35.368  31.105  31.750  1.00  0.00    -0.206 F 
ATOM     64  C   UNL A   1      34.844  33.801  29.404  1.00  0.00     0.060 A 
BRANCH  64  65
ATOM     65  S   UNL A   1      33.485  34.660  28.584  1.00  0.00     0.124 S 
ATOM     66  O   UNL A   1      32.600  34.939  29.710  1.00  0.00    -0.237 OA
ATOM     67  O   UNL A   1      34.151  35.820  28.000  1.00  0.00    -0.237 OA
ATOM     68  O   UNL A   1      32.993  33.675  27.626  1.00  0.00    -0.744 OA
ENDBRANCH  64  65
ENDBRANCH  43  57
BRANCH  44  69
ATOM     69  C   UNL A   1      44.735  29.210  36.135  1.00  0.00     0.058 A 
ATOM     70  C   UNL A   1      44.674  28.097  36.990  1.00  0.00     0.135 A 
ATOM     71  C   UNL A   1      45.959  29.893  36.054  1.00  0.00     0.135 A 
ATOM     72  F   UNL A   1      43.524  27.420  37.127  1.00  0.00    -0.206 F 
ATOM     73  C   UNL A   1      45.776  27.680  37.736  1.00  0.00     0.059 A 
ATOM     74  C   UNL A   1      47.081  29.483  36.774  1.00  0.00     0.059 A 
ATOM     75  F   UNL A   1      46.078  30.966  35.256  1.00  0.00    -0.206 F 
ATOM     76  C   UNL A   1      46.979  28.377  37.617  1.00  0.00     0.060 A 
BRANCH  76  77
ATOM     77  S   UNL A   1      48.419  27.786  38.539  1.00  0.00     0.124 S 
ATOM     78  O   UNL A   1      48.972  26.796  37.622  1.00  0.00    -0.237 OA
ATOM     79  O   UNL A   1      49.200  29.008  38.704  1.00  0.00    -0.237 OA
ATOM     80  O   UNL A   1      47.837  27.252  39.767  1.00  0.00    -0.744 OA
ENDBRANCH  76  77
ENDBRANCH  44  69
BRANCH  56  81
ATOM     81  C   UNL A   1      39.486  33.658  37.477  1.00  0.00     0.058 A 
ATOM     82  C   UNL A   1      38.636  33.133  38.460  1.00  0.00     0.135 A 
ATOM     83  C   UNL A   1      40.098  34.897  37.728  1.00  0.00     0.135 A 
ATOM     84  F   UNL A   1      38.026  31.953  38.267  1.00  0.00    -0.206 F 
ATOM     85  C   UNL A   1      38.415  33.806  39.658  1.00  0.00     0.059 A 
ATOM     86  C   UNL A   1      39.910  35.575  38.927  1.00  0.00     0.059 A 
ATOM     87  F   UNL A   1      40.931  35.435  36.822  1.00  0.00    -0.206 F 
ATOM     88  C   UNL A   1      39.069  35.019  39.890  1.00  0.00     0.060 A 
BRANCH  88  89
ATOM     89  S   UNL A   1      38.859  35.827  41.491  1.00  0.00     0.124 S 
ATOM     90  O   UNL A   1      38.904  37.236  41.117  1.00  0.00    -0.237 OA
ATOM     91  O   UNL A   1      37.559  35.326  41.926  1.00  0.00    -0.237 OA
ATOM     92  O   UNL A   1      40.000  35.346  42.266  1.00  0.00    -0.744 OA
ENDBRANCH  88  89
ENDBRANCH  56  81
ENDBRANCH  30  31
ENDBRANCH  23  25
ENDBRANCH  22  23
ENDBRANCH   1  22
TORSDOF 15
ENDMDL
MODEL 2
REMARK VINA RESULT:     -12.6      3.838      9.739
REMARK SMILES O=C(OCCOC(=O)c1ccc(-c2c3nc(c(-c4c(F)cc(S(=O)(=O)[O-])cc4F)c4ccc([nH]4)c(-c4c(F)cc(S(=O)(=O)[O-])cc4F)c4nc(c(-c5c(F)cc(S(=O)(=O)[O-])cc5F)c5ccc2[nH]5)C=C4)C=C3)cc1)C1=Cc2ccc(Cl)c(Cl)c2O[C@@H]1C(F)(F)F
REMARK SMILES IDX 5 1 4 2 3 3 2 4 1 5 75 6 76 7 86 8 77 9 85 10 78 11 84 12
REMARK SMILES IDX 79 13 82 14 80 15 83 16 81 17 87 18 88 19 89 20 90 21 6 22
REMARK SMILES IDX 7 23 8 24 9 25 10 26 74 27 11 28 73 29 12 30 13 31 14 32
REMARK SMILES IDX 67 33 15 34 72 35 66 36 68 37 16 38 71 39 65 40 64 41 17 43
REMARK SMILES IDX 51 44 30 45 50 46 31 47 34 48 49 49 69 50 32 51 33 52 48 54
REMARK SMILES IDX 70 55 35 56 18 57 19 58 28 59 20 60 21 61 27 62 29 63 22 64
REMARK SMILES IDX 23 65 24 66 25 67 26 68 52 69 53 70 62 71 54 72 55 73 61 74
REMARK SMILES IDX 63 75 56 76 57 77 58 78 59 79 60 80 36 81 37 82 46 83 38 84
REMARK SMILES IDX 39 85 45 86 47 87 40 88 41 89 42 90 43 91 44 92
REMARK H PARENT 68 42 34 53
REMARK Flexibility Score: inf
ROOT
ATOM      1  C   UNL A   1      38.374  21.973  25.536  1.00  0.00     0.275 C 
ENDROOT
BRANCH   1   2
ATOM      2  C   UNL A   1      36.788  22.979  24.477  1.00  0.00     0.275 C 
BRANCH   2   3
ATOM      3  O   UNL A   1      35.254  22.716  24.636  1.00  0.00    -0.459 OA
BRANCH   3   4
ATOM      4  C   UNL A   1      34.493  23.582  23.955  1.00  0.00     0.338 C 
ATOM      5  O   UNL A   1      34.531  23.927  22.804  1.00  0.00    -0.246 OA
BRANCH   4   6
ATOM      6  C   UNL A   1      33.834  24.111  25.119  1.00  0.00     0.087 C 
ATOM      7  C   UNL A   1      34.120  25.563  25.243  1.00  0.00     0.027 C 
ATOM      8  C   UNL A   1      32.088  23.353  24.779  1.00  0.00     0.316 C 
ATOM      9  C   UNL A   1      32.874  26.848  24.952  1.00  0.00     0.019 A 
ATOM     10  O   UNL A   1      30.769  24.706  24.430  1.00  0.00    -0.474 OA
ATOM     11  C   UNL A   1      33.280  28.152  24.926  1.00  0.00     0.013 A 
ATOM     12  C   UNL A   1      31.243  26.465  24.471  1.00  0.00     0.148 A 
ATOM     13  C   UNL A   1      32.298  29.061  24.497  1.00  0.00     0.023 A 
ATOM     14  C   UNL A   1      30.350  27.426  24.072  1.00  0.00     0.102 A 
ATOM     15  C   UNL A   1      30.926  28.729  24.093  1.00  0.00     0.063 A 
ATOM     16  Cl  UNL A   1      28.764  27.087  23.553  1.00  0.00    -0.079 Cl
ATOM     17  Cl  UNL A   1      30.000  30.113  23.568  1.00  0.00    -0.083 Cl
BRANCH   8  18
ATOM     18  C   UNL A   1      32.093  22.155  25.781  1.00  0.00     0.430 C 
ATOM     19  F   UNL A   1      32.246  22.557  27.048  1.00  0.00    -0.167 F 
ATOM     20  F   UNL A   1      30.851  21.586  25.743  1.00  0.00    -0.167 F 
ATOM     21  F   UNL A   1      32.922  21.136  25.489  1.00  0.00    -0.167 F 
ENDBRANCH   8  18
ENDBRANCH   4   6
ENDBRANCH   3   4
ENDBRANCH   2   3
ENDBRANCH   1   2
BRANCH   1  22
ATOM     22  O   UNL A   1      39.589  22.700  26.462  1.00  0.00    -0.458 OA
BRANCH  22  23
ATOM     23  C   UNL A   1      40.795  23.338  26.375  1.00  0.00     0.338 C 
ATOM     24  O   UNL A   1      41.822  23.006  25.818  1.00  0.00    -0.246 OA
BRANCH  23  25
ATOM     25  C   UNL A   1      40.521  24.709  26.887  1.00  0.00     0.060 A 
ATOM     26  C   UNL A   1      39.514  24.898  27.846  1.00  0.00     0.016 A 
ATOM     27  C   UNL A   1      41.495  25.685  26.692  1.00  0.00     0.016 A 
ATOM     28  C   UNL A   1      39.648  25.930  28.788  1.00  0.00     0.010 A 
ATOM     29  C   UNL A   1      41.590  26.739  27.592  1.00  0.00     0.010 A 
ATOM     30  C   UNL A   1      40.722  26.823  28.695  1.00  0.00    -0.014 A 
BRANCH  30  31
ATOM     31  C   UNL A   1      40.863  28.004  29.581  1.00  0.00     0.031 A 
ATOM     32  C   UNL A   1      41.887  27.886  30.662  1.00  0.00     0.074 A 
ATOM     33  C   UNL A   1      39.994  29.036  29.560  1.00  0.00     0.049 A 
ATOM     34  N   UNL A   1      42.040  28.593  31.746  1.00  0.00    -0.248 NA
ATOM     35  C   UNL A   1      42.829  26.763  30.522  1.00  0.00     0.031 C 
ATOM     36  C   UNL A   1      38.945  29.251  28.562  1.00  0.00     0.029 A 
ATOM     37  N   UNL A   1      39.827  30.078  30.443  1.00  0.00    -0.354 N 
ATOM     38  C   UNL A   1      43.066  27.971  32.441  1.00  0.00     0.074 A 
ATOM     39  C   UNL A   1      43.471  26.816  31.674  1.00  0.00     0.031 C 
ATOM     40  C   UNL A   1      38.224  30.335  28.910  1.00  0.00     0.029 A 
ATOM     41  C   UNL A   1      38.736  30.874  30.170  1.00  0.00     0.049 A 
ATOM     42  H   UNL A   1      40.434  30.240  31.203  1.00  0.00     0.167 HD
ATOM     43  C   UNL A   1      43.623  28.325  33.620  1.00  0.00     0.037 A 
ATOM     44  C   UNL A   1      38.202  31.896  30.877  1.00  0.00     0.037 A 
ATOM     45  C   UNL A   1      43.196  29.454  34.389  1.00  0.00     0.049 A 
ATOM     46  C   UNL A   1      38.843  32.289  32.192  1.00  0.00     0.074 A 
ATOM     47  C   UNL A   1      43.696  29.918  35.589  1.00  0.00     0.029 A 
ATOM     48  N   UNL A   1      42.148  30.290  34.031  1.00  0.00    -0.354 N 
ATOM     49  N   UNL A   1      39.858  31.732  32.814  1.00  0.00    -0.248 NA
ATOM     50  C   UNL A   1      38.272  33.442  32.903  1.00  0.00     0.031 C 
ATOM     51  C   UNL A   1      42.926  31.020  35.976  1.00  0.00     0.029 A 
ATOM     52  C   UNL A   1      41.980  31.270  34.991  1.00  0.00     0.049 A 
ATOM     53  H   UNL A   1      41.603  30.200  33.216  1.00  0.00     0.167 HD
ATOM     54  C   UNL A   1      40.068  32.487  33.965  1.00  0.00     0.074 A 
ATOM     55  C   UNL A   1      39.072  33.540  33.958  1.00  0.00     0.031 C 
ATOM     56  C   UNL A   1      41.001  32.330  34.936  1.00  0.00     0.037 A 
BRANCH  43  57
ATOM     57  C   UNL A   1      44.711  27.424  34.126  1.00  0.00     0.058 A 
ATOM     58  C   UNL A   1      44.422  26.326  34.956  1.00  0.00     0.135 A 
ATOM     59  C   UNL A   1      46.057  27.744  33.900  1.00  0.00     0.135 A 
ATOM     60  F   UNL A   1      43.148  26.004  35.232  1.00  0.00    -0.206 F 
ATOM     61  C   UNL A   1      45.431  25.629  35.608  1.00  0.00     0.059 A 
ATOM     62  C   UNL A   1      47.084  27.035  34.514  1.00  0.00     0.059 A 
ATOM     63  F   UNL A   1      46.385  28.789  33.124  1.00  0.00    -0.206 F 
ATOM     64  C   UNL A   1      46.757  26.004  35.395  1.00  0.00     0.060 A 
BRANCH  64  65
ATOM     65  S   UNL A   1      48.052  25.151  36.317  1.00  0.00     0.124 S 
ATOM     66  O   UNL A   1      49.216  25.395  35.471  1.00  0.00    -0.237 OA
ATOM     67  O   UNL A   1      48.042  25.853  37.597  1.00  0.00    -0.237 OA
ATOM     68  O   UNL A   1      47.583  23.770  36.359  1.00  0.00    -0.744 OA
ENDBRANCH  64  65
ENDBRANCH  43  57
BRANCH  44  69
ATOM     69  C   UNL A   1      37.006  32.633  30.371  1.00  0.00     0.058 A 
ATOM     70  C   UNL A   1      35.718  32.325  30.840  1.00  0.00     0.135 A 
ATOM     71  C   UNL A   1      37.115  33.646  29.406  1.00  0.00     0.135 A 
ATOM     72  F   UNL A   1      35.551  31.348  31.744  1.00  0.00    -0.206 F 
ATOM     73  C   UNL A   1      34.585  32.988  30.370  1.00  0.00     0.059 A 
ATOM     74  C   UNL A   1      35.998  34.339  28.935  1.00  0.00     0.059 A 
ATOM     75  F   UNL A   1      38.319  33.983  28.917  1.00  0.00    -0.206 F 
ATOM     76  C   UNL A   1      34.736  34.000  29.420  1.00  0.00     0.060 A 
BRANCH  76  77
ATOM     77  S   UNL A   1      33.266  34.898  28.869  1.00  0.00     0.124 S 
ATOM     78  O   UNL A   1      32.527  35.053  30.117  1.00  0.00    -0.237 OA
ATOM     79  O   UNL A   1      33.843  36.119  28.314  1.00  0.00    -0.237 OA
ATOM     80  O   UNL A   1      32.667  33.996  27.890  1.00  0.00    -0.744 OA
ENDBRANCH  76  77
ENDBRANCH  44  69
BRANCH  56  81
ATOM     81  C   UNL A   1      41.056  33.341  36.048  1.00  0.00     0.058 A 
ATOM     82  C   UNL A   1      41.810  34.517  35.944  1.00  0.00     0.135 A 
ATOM     83  C   UNL A   1      40.210  33.196  37.161  1.00  0.00     0.135 A 
ATOM     84  F   UNL A   1      42.635  34.702  34.901  1.00  0.00    -0.206 F 
ATOM     85  C   UNL A   1      41.716  35.523  36.901  1.00  0.00     0.059 A 
ATOM     86  C   UNL A   1      40.082  34.198  38.116  1.00  0.00     0.059 A 
ATOM     87  F   UNL A   1      39.457  32.092  37.299  1.00  0.00    -0.206 F 
ATOM     88  C   UNL A   1      40.838  35.361  37.976  1.00  0.00     0.060 A 
BRANCH  88  89
ATOM     89  S   UNL A   1      40.643  36.719  39.150  1.00  0.00     0.124 S 
ATOM     90  O   UNL A   1      39.362  37.282  38.740  1.00  0.00    -0.237 OA
ATOM     91  O   UNL A   1      40.651  36.026  40.434  1.00  0.00    -0.237 OA
ATOM     92  O   UNL A   1      41.810  37.560  38.894  1.00  0.00    -0.744 OA
ENDBRANCH  88  89
ENDBRANCH  56  81
ENDBRANCH  30  31
ENDBRANCH  23  25
ENDBRANCH  22  23
ENDBRANCH   1  22
TORSDOF 15
ENDMDL
MODEL 3
REMARK VINA RESULT:     -12.5      6.183     11.605
REMARK SMILES O=C(OCCOC(=O)c1ccc(-c2c3nc(c(-c4c(F)cc(S(=O)(=O)[O-])cc4F)c4ccc([nH]4)c(-c4c(F)cc(S(=O)(=O)[O-])cc4F)c4nc(c(-c5c(F)cc(S(=O)(=O)[O-])cc5F)c5ccc2[nH]5)C=C4)C=C3)cc1)C1=Cc2ccc(Cl)c(Cl)c2O[C@@H]1C(F)(F)F
REMARK SMILES IDX 5 1 4 2 3 3 2 4 1 5 75 6 76 7 86 8 77 9 85 10 78 11 84 12
REMARK SMILES IDX 79 13 82 14 80 15 83 16 81 17 87 18 88 19 89 20 90 21 6 22
REMARK SMILES IDX 7 23 8 24 9 25 10 26 74 27 11 28 73 29 12 30 13 31 14 32
REMARK SMILES IDX 67 33 15 34 72 35 66 36 68 37 16 38 71 39 65 40 64 41 17 43
REMARK SMILES IDX 51 44 30 45 50 46 31 47 34 48 49 49 69 50 32 51 33 52 48 54
REMARK SMILES IDX 70 55 35 56 18 57 19 58 28 59 20 60 21 61 27 62 29 63 22 64
REMARK SMILES IDX 23 65 24 66 25 67 26 68 52 69 53 70 62 71 54 72 55 73 61 74
REMARK SMILES IDX 63 75 56 76 57 77 58 78 59 79 60 80 36 81 37 82 46 83 38 84
REMARK SMILES IDX 39 85 45 86 47 87 40 88 41 89 42 90 43 91 44 92
REMARK H PARENT 68 42 34 53
REMARK Flexibility Score: inf
ROOT
ATOM      1  C   UNL A   1      33.300  30.885  27.247  1.00  0.00     0.275 C 
ENDROOT
BRANCH   1   2
ATOM      2  C   UNL A   1      32.662  28.917  26.637  1.00  0.00     0.275 C 
BRANCH   2   3
ATOM      3  O   UNL A   1      33.576  27.778  26.076  1.00  0.00    -0.459 OA
BRANCH   3   4
ATOM      4  C   UNL A   1      32.923  26.629  25.866  1.00  0.00     0.338 C 
ATOM      5  O   UNL A   1      31.977  26.146  26.430  1.00  0.00    -0.246 OA
BRANCH   4   6
ATOM      6  C   UNL A   1      33.894  26.100  24.946  1.00  0.00     0.087 C 
ATOM      7  C   UNL A   1      34.687  25.033  25.609  1.00  0.00     0.027 C 
ATOM      8  C   UNL A   1      32.696  25.822  23.455  1.00  0.00     0.316 C 
ATOM      9  C   UNL A   1      34.531  23.276  25.190  1.00  0.00     0.019 A 
ATOM     10  O   UNL A   1      32.492  23.960  23.029  1.00  0.00    -0.474 OA
ATOM     11  C   UNL A   1      35.179  22.362  25.972  1.00  0.00     0.013 A 
ATOM     12  C   UNL A   1      33.405  22.707  23.988  1.00  0.00     0.148 A 
ATOM     13  C   UNL A   1      34.844  21.023  25.705  1.00  0.00     0.023 A 
ATOM     14  C   UNL A   1      33.148  21.373  23.794  1.00  0.00     0.102 A 
ATOM     15  C   UNL A   1      33.893  20.553  24.689  1.00  0.00     0.063 A 
ATOM     16  Cl  UNL A   1      32.023  20.781  22.662  1.00  0.00    -0.079 Cl
ATOM     17  Cl  UNL A   1      33.690  18.819  24.676  1.00  0.00    -0.083 Cl
BRANCH   8  18
ATOM     18  C   UNL A   1      33.059  27.049  22.558  1.00  0.00     0.430 C 
ATOM     19  F   UNL A   1      33.229  26.705  21.277  1.00  0.00    -0.167 F 
ATOM     20  F   UNL A   1      31.980  27.886  22.556  1.00  0.00    -0.167 F 
ATOM     21  F   UNL A   1      34.068  27.826  22.993  1.00  0.00    -0.167 F 
ENDBRANCH   8  18
ENDBRANCH   4   6
ENDBRANCH   3   4
ENDBRANCH   2   3
ENDBRANCH   1   2
BRANCH   1  22
ATOM     22  O   UNL A   1      34.733  31.275  28.056  1.00  0.00    -0.458 OA
BRANCH  22  23
ATOM     23  C   UNL A   1      35.294  31.373  29.300  1.00  0.00     0.338 C 
ATOM     24  O   UNL A   1      34.892  31.930  30.301  1.00  0.00    -0.246 OA
BRANCH  23  25
ATOM     25  C   UNL A   1      36.415  30.394  29.273  1.00  0.00     0.060 A 
ATOM     26  C   UNL A   1      37.010  30.061  28.047  1.00  0.00     0.016 A 
ATOM     27  C   UNL A   1      37.078  30.130  30.470  1.00  0.00     0.016 A 
ATOM     28  C   UNL A   1      38.372  29.721  28.015  1.00  0.00     0.010 A 
ATOM     29  C   UNL A   1      38.410  29.736  30.435  1.00  0.00     0.010 A 
ATOM     30  C   UNL A   1      39.091  29.612  29.212  1.00  0.00    -0.014 A 
BRANCH  30  31
ATOM     31  C   UNL A   1      40.497  29.143  29.262  1.00  0.00     0.031 A 
ATOM     32  C   UNL A   1      41.528  30.206  29.467  1.00  0.00     0.074 A 
ATOM     33  C   UNL A   1      40.856  27.884  28.939  1.00  0.00     0.049 A 
ATOM     34  N   UNL A   1      42.815  30.168  29.264  1.00  0.00    -0.248 NA
ATOM     35  C   UNL A   1      41.011  31.514  29.901  1.00  0.00     0.031 C 
ATOM     36  C   UNL A   1      39.940  26.767  28.704  1.00  0.00     0.029 A 
ATOM     37  N   UNL A   1      42.100  27.345  28.702  1.00  0.00    -0.354 N 
ATOM     38  C   UNL A   1      43.255  31.461  29.501  1.00  0.00     0.074 A 
ATOM     39  C   UNL A   1      42.096  32.261  29.826  1.00  0.00     0.031 C 
ATOM     40  C   UNL A   1      40.652  25.688  28.323  1.00  0.00     0.029 A 
ATOM     41  C   UNL A   1      42.070  26.041  28.255  1.00  0.00     0.049 A 
ATOM     42  H   UNL A   1      42.937  27.846  28.840  1.00  0.00     0.167 HD
ATOM     43  C   UNL A   1      44.514  31.948  29.447  1.00  0.00     0.037 A 
ATOM     44  C   UNL A   1      43.071  25.246  27.815  1.00  0.00     0.037 A 
ATOM     45  C   UNL A   1      45.654  31.156  29.095  1.00  0.00     0.049 A 
ATOM     46  C   UNL A   1      44.479  25.801  27.770  1.00  0.00     0.074 A 
ATOM     47  C   UNL A   1      46.979  31.536  29.023  1.00  0.00     0.029 A 
ATOM     48  N   UNL A   1      45.593  29.816  28.739  1.00  0.00    -0.354 N 
ATOM     49  N   UNL A   1      44.898  27.012  28.057  1.00  0.00    -0.248 NA
ATOM     50  C   UNL A   1      45.551  24.889  27.343  1.00  0.00     0.031 C 
ATOM     51  C   UNL A   1      47.719  30.430  28.589  1.00  0.00     0.029 A 
ATOM     52  C   UNL A   1      46.859  29.350  28.441  1.00  0.00     0.049 A 
ATOM     53  H   UNL A   1      44.770  29.276  28.703  1.00  0.00     0.167 HD
ATOM     54  C   UNL A   1      46.280  26.996  27.881  1.00  0.00     0.074 A 
ATOM     55  C   UNL A   1      46.628  25.655  27.458  1.00  0.00     0.031 C 
ATOM     56  C   UNL A   1      47.179  27.996  28.058  1.00  0.00     0.037 A 
BRANCH  43  57
ATOM     57  C   UNL A   1      44.663  33.413  29.735  1.00  0.00     0.058 A 
ATOM     58  C   UNL A   1      44.799  33.887  31.052  1.00  0.00     0.135 A 
ATOM     59  C   UNL A   1      44.525  34.354  28.706  1.00  0.00     0.135 A 
ATOM     60  F   UNL A   1      44.896  33.024  32.076  1.00  0.00    -0.206 F 
ATOM     61  C   UNL A   1      44.709  35.242  31.344  1.00  0.00     0.059 A 
ATOM     62  C   UNL A   1      44.471  35.718  28.973  1.00  0.00     0.059 A 
ATOM     63  F   UNL A   1      44.383  33.952  27.433  1.00  0.00    -0.206 F 
ATOM     64  C   UNL A   1      44.526  36.147  30.299  1.00  0.00     0.060 A 
BRANCH  64  65
ATOM     65  S   UNL A   1      44.320  37.894  30.698  1.00  0.00     0.124 S 
ATOM     66  O   UNL A   1      45.697  38.373  30.617  1.00  0.00    -0.237 OA
ATOM     67  O   UNL A   1      43.426  38.356  29.641  1.00  0.00    -0.237 OA
ATOM     68  O   UNL A   1      43.741  37.868  32.038  1.00  0.00    -0.744 OA
ENDBRANCH  64  65
ENDBRANCH  43  57
BRANCH  44  69
ATOM     69  C   UNL A   1      42.799  23.842  27.386  1.00  0.00     0.058 A 
ATOM     70  C   UNL A   1      42.704  22.805  28.330  1.00  0.00     0.135 A 
ATOM     71  C   UNL A   1      42.639  23.498  26.035  1.00  0.00     0.135 A 
ATOM     72  F   UNL A   1      42.874  23.070  29.634  1.00  0.00    -0.206 F 
ATOM     73  C   UNL A   1      42.468  21.484  27.951  1.00  0.00     0.059 A 
ATOM     74  C   UNL A   1      42.381  22.187  25.632  1.00  0.00     0.059 A 
ATOM     75  F   UNL A   1      42.722  24.445  25.087  1.00  0.00    -0.206 F 
ATOM     76  C   UNL A   1      42.301  21.185  26.599  1.00  0.00     0.060 A 
BRANCH  76  77
ATOM     77  S   UNL A   1      41.927  19.479  26.127  1.00  0.00     0.124 S 
ATOM     78  O   UNL A   1      42.337  18.745  27.318  1.00  0.00    -0.237 OA
ATOM     79  O   UNL A   1      40.490  19.538  25.877  1.00  0.00    -0.237 OA
ATOM     80  O   UNL A   1      42.753  19.269  24.941  1.00  0.00    -0.744 OA
ENDBRANCH  76  77
ENDBRANCH  44  69
BRANCH  56  81
ATOM     81  C   UNL A   1      48.639  27.689  27.866  1.00  0.00     0.058 A 
ATOM     82  C   UNL A   1      49.423  27.144  28.893  1.00  0.00     0.135 A 
ATOM     83  C   UNL A   1      49.209  27.795  26.587  1.00  0.00     0.135 A 
ATOM     84  F   UNL A   1      48.924  27.023  30.133  1.00  0.00    -0.206 F 
ATOM     85  C   UNL A   1      50.721  26.702  28.654  1.00  0.00     0.059 A 
ATOM     86  C   UNL A   1      50.495  27.339  26.321  1.00  0.00     0.059 A 
ATOM     87  F   UNL A   1      48.493  28.299  25.568  1.00  0.00    -0.206 F 
ATOM     88  C   UNL A   1      51.243  26.790  27.361  1.00  0.00     0.060 A 
BRANCH  88  89
ATOM     89  S   UNL A   1      52.887  26.114  27.041  1.00  0.00     0.124 S 
ATOM     90  O   UNL A   1      53.457  27.129  26.163  1.00  0.00    -0.237 OA
ATOM     91  O   UNL A   1      53.460  26.038  28.381  1.00  0.00    -0.237 OA
ATOM     92  O   UNL A   1      52.608  24.825  26.414  1.00  0.00    -0.744 OA
ENDBRANCH  88  89
ENDBRANCH  56  81
ENDBRANCH  30  31
ENDBRANCH  23  25
ENDBRANCH  22  23
ENDBRANCH   1  22
TORSDOF 15
ENDMDL
