MODEL 1
REMARK VINA RESULT:     -10.9      0.000      0.000
REMARK SMILES CC[NH2+][C@@]1(C(=O)OCCOC(=O)c2ccc(-c3c4nc(c(-c5c(F)cc(S(=O)(=O)[O-])cc5F)c5ccc([nH]5)c(-c5c(F)cc(S(=O)(=O)[O-])cc5F)c5nc(c(-c6c(F)cc(S(=O)(=O)[O-])cc6F)c6ccc3[nH]6)C=C5)C=C4)cc2)CC[C@@H]([NH+]2CCC(C)(CC)CC2)C1
REMARK SMILES IDX 9 1 8 2 7 3 5 4 6 5 4 6 79 7 91 8 80 9 81 10 3 11 2 14 1 15
REMARK SMILES IDX 82 16 83 17 90 18 84 20 89 21 85 22 86 23 87 24 88 25 10 26
REMARK SMILES IDX 11 27 12 28 13 29 14 30 78 31 15 32 77 33 16 34 17 35 18 36
REMARK SMILES IDX 71 37 19 38 76 39 70 40 72 41 20 42 75 43 69 44 68 45 21 47
REMARK SMILES IDX 55 48 34 49 54 50 35 51 38 52 53 53 73 54 36 55 37 56 52 58
REMARK SMILES IDX 74 59 39 60 22 61 23 62 32 63 24 64 25 65 31 66 33 67 26 68
REMARK SMILES IDX 27 69 28 70 29 71 30 72 56 73 57 74 66 75 58 76 59 77 65 78
REMARK SMILES IDX 67 79 60 80 61 81 62 82 63 83 64 84 40 85 41 86 50 87 42 88
REMARK SMILES IDX 43 89 49 90 51 91 44 92 45 93 46 94 47 95 48 96
REMARK H PARENT 3 12 3 13 82 19 72 46 38 57
REMARK Flexibility Score: inf
ROOT
ATOM      1  C   UNL A   1      40.337  22.475  26.145  1.00  0.00     0.275 C 
ENDROOT
BRANCH   1   2
ATOM      2  C   UNL A   1      39.162  21.496  26.176  1.00  0.00     0.274 C 
BRANCH   2   3
ATOM      3  O   UNL A   1      37.971  22.140  25.686  1.00  0.00    -0.457 OA
BRANCH   3   4
ATOM      4  C   UNL A   1      37.086  21.349  25.010  1.00  0.00     0.368 C 
ATOM      5  O   UNL A   1      37.433  20.423  24.286  1.00  0.00    -0.245 OA
BRANCH   4   6
ATOM      6  C   UNL A   1      35.605  21.816  25.214  1.00  0.00     0.200 C 
ATOM      7  C   UNL A   1      35.033  22.345  23.894  1.00  0.00     0.087 C 
ATOM      8  C   UNL A   1      35.497  23.033  26.164  1.00  0.00     0.146 C 
ATOM      9  C   UNL A   1      35.491  23.795  23.838  1.00  0.00     0.072 C 
ATOM     10  C   UNL A   1      35.448  24.299  25.292  1.00  0.00     0.191 C 
BRANCH   6  11
ATOM     11  N   UNL A   1      34.803  20.712  25.807  1.00  0.00    -0.332 N 
ATOM     12  H   UNL A   1      35.440  20.108  26.324  1.00  0.00     0.347 HD
ATOM     13  H   UNL A   1      34.095  21.169  26.382  1.00  0.00     0.347 HD
BRANCH  11  14
ATOM     14  C   UNL A   1      34.057  19.874  24.866  1.00  0.00     0.257 C 
ATOM     15  C   UNL A   1      32.577  19.954  25.216  1.00  0.00     0.071 C 
ENDBRANCH  11  14
ENDBRANCH   6  11
BRANCH  10  16
ATOM     16  N   UNL A   1      34.367  25.262  25.550  1.00  0.00    -0.332 N 
ATOM     17  C   UNL A   1      33.269  24.755  26.372  1.00  0.00     0.263 C 
ATOM     18  C   UNL A   1      33.868  26.088  24.456  1.00  0.00     0.263 C 
ATOM     19  H   UNL A   1      34.912  25.924  26.102  1.00  0.00     0.348 HD
ATOM     20  C   UNL A   1      32.173  24.011  25.608  1.00  0.00     0.068 C 
ATOM     21  C   UNL A   1      32.788  25.458  23.570  1.00  0.00     0.068 C 
ATOM     22  C   UNL A   1      31.659  24.704  24.319  1.00  0.00    -0.022 C 
ATOM     23  C   UNL A   1      31.129  23.588  23.376  1.00  0.00     0.012 C 
BRANCH  22  24
ATOM     24  C   UNL A   1      30.431  25.622  24.594  1.00  0.00     0.004 C 
ATOM     25  C   UNL A   1      30.112  26.709  23.582  1.00  0.00     0.004 C 
ENDBRANCH  22  24
ENDBRANCH  10  16
ENDBRANCH   4   6
ENDBRANCH   3   4
ENDBRANCH   2   3
ENDBRANCH   1   2
BRANCH   1  26
ATOM     26  O   UNL A   1      40.010  23.689  26.848  1.00  0.00    -0.458 OA
BRANCH  26  27
ATOM     27  C   UNL A   1      40.822  24.744  26.589  1.00  0.00     0.338 C 
ATOM     28  O   UNL A   1      41.409  24.980  25.547  1.00  0.00    -0.246 OA
BRANCH  27  29
ATOM     29  C   UNL A   1      40.806  25.680  27.729  1.00  0.00     0.060 A 
ATOM     30  C   UNL A   1      39.654  25.715  28.516  1.00  0.00     0.016 A 
ATOM     31  C   UNL A   1      41.865  26.553  27.989  1.00  0.00     0.016 A 
ATOM     32  C   UNL A   1      39.561  26.603  29.584  1.00  0.00     0.010 A 
ATOM     33  C   UNL A   1      41.759  27.466  29.048  1.00  0.00     0.010 A 
ATOM     34  C   UNL A   1      40.605  27.498  29.847  1.00  0.00    -0.014 A 
BRANCH  34  35
ATOM     35  C   UNL A   1      40.426  28.504  30.922  1.00  0.00     0.031 A 
ATOM     36  C   UNL A   1      41.329  28.474  32.121  1.00  0.00     0.074 A 
ATOM     37  C   UNL A   1      39.521  29.491  30.780  1.00  0.00     0.049 A 
ATOM     38  N   UNL A   1      41.364  29.282  33.149  1.00  0.00    -0.248 NA
ATOM     39  C   UNL A   1      42.331  27.398  32.164  1.00  0.00     0.031 C 
ATOM     40  C   UNL A   1      38.624  29.654  29.636  1.00  0.00     0.029 A 
ATOM     41  N   UNL A   1      39.220  30.552  31.596  1.00  0.00    -0.354 N 
ATOM     42  C   UNL A   1      42.401  28.826  33.954  1.00  0.00     0.074 A 
ATOM     43  C   UNL A   1      42.951  27.652  33.308  1.00  0.00     0.031 C 
ATOM     44  C   UNL A   1      37.879  30.758  29.819  1.00  0.00     0.029 A 
ATOM     45  C   UNL A   1      38.225  31.363  31.103  1.00  0.00     0.049 A 
ATOM     46  H   UNL A   1      39.674  30.717  32.453  1.00  0.00     0.167 HD
ATOM     47  C   UNL A   1      42.856  29.342  35.121  1.00  0.00     0.037 A 
ATOM     48  C   UNL A   1      37.652  32.460  31.635  1.00  0.00     0.037 A 
ATOM     49  C   UNL A   1      42.290  30.490  35.778  1.00  0.00     0.049 A 
ATOM     50  C   UNL A   1      38.128  32.966  32.973  1.00  0.00     0.074 A 
ATOM     51  C   UNL A   1      42.640  31.047  36.997  1.00  0.00     0.029 A 
ATOM     52  N   UNL A   1      41.255  31.260  35.272  1.00  0.00    -0.354 N 
ATOM     53  N   UNL A   1      39.092  32.507  33.734  1.00  0.00    -0.248 NA
ATOM     54  C   UNL A   1      37.433  34.138  33.526  1.00  0.00     0.031 C 
ATOM     55  C   UNL A   1      41.799  32.140  37.238  1.00  0.00     0.029 A 
ATOM     56  C   UNL A   1      40.949  32.284  36.154  1.00  0.00     0.049 A 
ATOM     57  H   UNL A   1      40.802  31.103  34.411  1.00  0.00     0.167 HD
ATOM     58  C   UNL A   1      39.130  33.344  34.846  1.00  0.00     0.074 A 
ATOM     59  C   UNL A   1      38.105  34.348  34.649  1.00  0.00     0.031 C 
ATOM     60  C   UNL A   1      39.934  33.282  35.936  1.00  0.00     0.037 A 
BRANCH  47  61
ATOM     61  C   UNL A   1      44.019  28.650  35.770  1.00  0.00     0.058 A 
ATOM     62  C   UNL A   1      45.339  29.048  35.511  1.00  0.00     0.135 A 
ATOM     63  C   UNL A   1      43.813  27.600  36.679  1.00  0.00     0.135 A 
ATOM     64  F   UNL A   1      45.589  30.034  34.635  1.00  0.00    -0.206 F 
ATOM     65  C   UNL A   1      46.419  28.417  36.119  1.00  0.00     0.059 A 
ATOM     66  C   UNL A   1      44.878  26.966  37.312  1.00  0.00     0.059 A 
ATOM     67  F   UNL A   1      42.569  27.180  36.954  1.00  0.00    -0.206 F 
ATOM     68  C   UNL A   1      46.178  27.374  37.016  1.00  0.00     0.060 A 
BRANCH  68  69
ATOM     69  S   UNL A   1      47.589  26.565  37.800  1.00  0.00     0.124 S 
ATOM     70  O   UNL A   1      48.616  27.596  37.685  1.00  0.00    -0.237 OA
ATOM     71  O   UNL A   1      47.096  26.310  39.150  1.00  0.00    -0.237 OA
ATOM     72  O   UNL A   1      47.797  25.376  36.979  1.00  0.00    -0.744 OA
ENDBRANCH  68  69
ENDBRANCH  47  61
BRANCH  48  73
ATOM     73  C   UNL A   1      36.542  33.150  30.928  1.00  0.00     0.058 A 
ATOM     74  C   UNL A   1      36.786  33.965  29.811  1.00  0.00     0.135 A 
ATOM     75  C   UNL A   1      35.220  33.052  31.390  1.00  0.00     0.135 A 
ATOM     76  F   UNL A   1      38.035  34.098  29.339  1.00  0.00    -0.206 F 
ATOM     77  C   UNL A   1      35.765  34.684  29.198  1.00  0.00     0.059 A 
ATOM     78  C   UNL A   1      34.179  33.742  30.778  1.00  0.00     0.059 A 
ATOM     79  F   UNL A   1      34.933  32.278  32.447  1.00  0.00    -0.206 F 
ATOM     80  C   UNL A   1      34.466  34.573  29.695  1.00  0.00     0.060 A 
BRANCH  80  81
ATOM     81  S   UNL A   1      33.141  35.508  28.900  1.00  0.00     0.124 S 
ATOM     82  O   UNL A   1      32.398  36.000  30.054  1.00  0.00    -0.237 OA
ATOM     83  O   UNL A   1      33.878  36.513  28.141  1.00  0.00    -0.237 OA
ATOM     84  O   UNL A   1      32.461  34.498  28.092  1.00  0.00    -0.744 OA
ENDBRANCH  80  81
ENDBRANCH  48  73
BRANCH  60  85
ATOM     85  C   UNL A   1      39.756  34.348  36.981  1.00  0.00     0.058 A 
ATOM     86  C   UNL A   1      38.979  34.127  38.129  1.00  0.00     0.135 A 
ATOM     87  C   UNL A   1      40.392  35.592  36.847  1.00  0.00     0.135 A 
ATOM     88  F   UNL A   1      38.345  32.956  38.301  1.00  0.00    -0.206 F 
ATOM     89  C   UNL A   1      38.814  35.116  39.095  1.00  0.00     0.059 A 
ATOM     90  C   UNL A   1      40.260  36.586  37.812  1.00  0.00     0.059 A 
ATOM     91  F   UNL A   1      41.156  35.847  35.773  1.00  0.00    -0.206 F 
ATOM     92  C   UNL A   1      39.455  36.343  38.925  1.00  0.00     0.060 A 
BRANCH  92  93
ATOM     93  S   UNL A   1      39.254  37.614  40.191  1.00  0.00     0.124 S 
ATOM     94  O   UNL A   1      40.579  38.223  40.208  1.00  0.00    -0.237 OA
ATOM     95  O   UNL A   1      38.184  38.442  39.643  1.00  0.00    -0.237 OA
ATOM     96  O   UNL A   1      38.897  36.851  41.384  1.00  0.00    -0.744 OA
ENDBRANCH  92  93
ENDBRANCH  60  85
ENDBRANCH  34  35
ENDBRANCH  27  29
ENDBRANCH  26  27
ENDBRANCH   1  26
TORSDOF 18
ENDMDL
MODEL 2
REMARK VINA RESULT:     -10.8      4.584     10.499
REMARK SMILES CC[NH2+][C@@]1(C(=O)OCCOC(=O)c2ccc(-c3c4nc(c(-c5c(F)cc(S(=O)(=O)[O-])cc5F)c5ccc([nH]5)c(-c5c(F)cc(S(=O)(=O)[O-])cc5F)c5nc(c(-c6c(F)cc(S(=O)(=O)[O-])cc6F)c6ccc3[nH]6)C=C5)C=C4)cc2)CC[C@@H]([NH+]2CCC(C)(CC)CC2)C1
REMARK SMILES IDX 9 1 8 2 7 3 5 4 6 5 4 6 79 7 91 8 80 9 81 10 3 11 2 14 1 15
REMARK SMILES IDX 82 16 83 17 90 18 84 20 89 21 85 22 86 23 87 24 88 25 10 26
REMARK SMILES IDX 11 27 12 28 13 29 14 30 78 31 15 32 77 33 16 34 17 35 18 36
REMARK SMILES IDX 71 37 19 38 76 39 70 40 72 41 20 42 75 43 69 44 68 45 21 47
REMARK SMILES IDX 55 48 34 49 54 50 35 51 38 52 53 53 73 54 36 55 37 56 52 58
REMARK SMILES IDX 74 59 39 60 22 61 23 62 32 63 24 64 25 65 31 66 33 67 26 68
REMARK SMILES IDX 27 69 28 70 29 71 30 72 56 73 57 74 66 75 58 76 59 77 65 78
REMARK SMILES IDX 67 79 60 80 61 81 62 82 63 83 64 84 40 85 41 86 50 87 42 88
REMARK SMILES IDX 43 89 49 90 51 91 44 92 45 93 46 94 47 95 48 96
REMARK H PARENT 3 12 3 13 82 19 72 46 38 57
REMARK Flexibility Score: inf
ROOT
ATOM      1  C   UNL A   1      32.454  29.790  27.307  1.00  0.00     0.275 C 
ENDROOT
BRANCH   1   2
ATOM      2  C   UNL A   1      31.974  30.542  26.065  1.00  0.00     0.274 C 
BRANCH   2   3
ATOM      3  O   UNL A   1      31.285  29.641  25.178  1.00  0.00    -0.457 OA
BRANCH   3   4
ATOM      4  C   UNL A   1      32.067  28.832  24.405  1.00  0.00     0.368 C 
ATOM      5  O   UNL A   1      33.054  29.234  23.799  1.00  0.00    -0.245 OA
BRANCH   4   6
ATOM      6  C   UNL A   1      31.510  27.370  24.330  1.00  0.00     0.200 C 
ATOM      7  C   UNL A   1      31.416  26.769  25.737  1.00  0.00     0.087 C 
ATOM      8  C   UNL A   1      32.476  26.409  23.594  1.00  0.00     0.146 C 
ATOM      9  C   UNL A   1      32.813  26.232  26.012  1.00  0.00     0.072 C 
ATOM     10  C   UNL A   1      33.324  25.699  24.662  1.00  0.00     0.191 C 
BRANCH   6  11
ATOM     11  N   UNL A   1      30.217  27.357  23.593  1.00  0.00    -0.332 N 
ATOM     12  H   UNL A   1      30.106  26.433  23.177  1.00  0.00     0.347 HD
ATOM     13  H   UNL A   1      29.507  27.598  24.285  1.00  0.00     0.347 HD
BRANCH  11  14
ATOM     14  C   UNL A   1      30.070  28.347  22.525  1.00  0.00     0.257 C 
ATOM     15  C   UNL A   1      28.681  28.962  22.623  1.00  0.00     0.071 C 
ENDBRANCH  11  14
ENDBRANCH   6  11
BRANCH  10  16
ATOM     16  N   UNL A   1      33.406  24.232  24.602  1.00  0.00    -0.332 N 
ATOM     17  C   UNL A   1      33.622  23.569  25.888  1.00  0.00     0.263 C 
ATOM     18  C   UNL A   1      34.192  23.602  23.546  1.00  0.00     0.263 C 
ATOM     19  H   UNL A   1      32.447  24.060  24.301  1.00  0.00     0.348 HD
ATOM     20  C   UNL A   1      35.084  23.449  26.320  1.00  0.00     0.068 C 
ATOM     21  C   UNL A   1      35.692  23.448  23.818  1.00  0.00     0.068 C 
ATOM     22  C   UNL A   1      36.069  22.942  25.235  1.00  0.00    -0.022 C 
ATOM     23  C   UNL A   1      37.472  23.512  25.582  1.00  0.00     0.012 C 
BRANCH  22  24
ATOM     24  C   UNL A   1      36.240  21.393  25.272  1.00  0.00     0.004 C 
ATOM     25  C   UNL A   1      35.017  20.534  24.998  1.00  0.00     0.004 C 
ENDBRANCH  22  24
ENDBRANCH  10  16
ENDBRANCH   4   6
ENDBRANCH   3   4
ENDBRANCH   2   3
ENDBRANCH   1   2
BRANCH   1  26
ATOM     26  O   UNL A   1      33.883  29.611  27.276  1.00  0.00    -0.458 OA
BRANCH  26  27
ATOM     27  C   UNL A   1      34.593  30.497  28.018  1.00  0.00     0.338 C 
ATOM     28  O   UNL A   1      34.169  31.494  28.575  1.00  0.00    -0.246 OA
BRANCH  27  29
ATOM     29  C   UNL A   1      35.978  30.016  28.182  1.00  0.00     0.060 A 
ATOM     30  C   UNL A   1      36.333  29.489  29.424  1.00  0.00     0.016 A 
ATOM     31  C   UNL A   1      36.931  30.133  27.167  1.00  0.00     0.016 A 
ATOM     32  C   UNL A   1      37.635  29.052  29.656  1.00  0.00     0.010 A 
ATOM     33  C   UNL A   1      38.248  29.719  27.409  1.00  0.00     0.010 A 
ATOM     34  C   UNL A   1      38.607  29.181  28.656  1.00  0.00    -0.014 A 
BRANCH  34  35
ATOM     35  C   UNL A   1      40.007  28.809  28.974  1.00  0.00     0.031 A 
ATOM     36  C   UNL A   1      40.857  29.748  29.781  1.00  0.00     0.074 A 
ATOM     37  C   UNL A   1      40.484  27.602  28.617  1.00  0.00     0.049 A 
ATOM     38  N   UNL A   1      42.087  29.598  30.198  1.00  0.00    -0.248 NA
ATOM     39  C   UNL A   1      40.234  31.020  30.182  1.00  0.00     0.031 C 
ATOM     40  C   UNL A   1      39.736  26.586  27.876  1.00  0.00     0.029 A 
ATOM     41  N   UNL A   1      41.704  27.019  28.847  1.00  0.00    -0.354 N 
ATOM     42  C   UNL A   1      42.383  30.745  30.924  1.00  0.00     0.074 A 
ATOM     43  C   UNL A   1      41.212  31.595  30.867  1.00  0.00     0.031 C 
ATOM     44  C   UNL A   1      40.513  25.499  27.721  1.00  0.00     0.029 A 
ATOM     45  C   UNL A   1      41.818  25.752  28.325  1.00  0.00     0.049 A 
ATOM     46  H   UNL A   1      42.430  27.466  29.340  1.00  0.00     0.167 HD
ATOM     47  C   UNL A   1      43.525  31.058  31.582  1.00  0.00     0.037 A 
ATOM     48  C   UNL A   1      42.863  24.901  28.326  1.00  0.00     0.037 A 
ATOM     49  C   UNL A   1      44.700  30.227  31.613  1.00  0.00     0.049 A 
ATOM     50  C   UNL A   1      44.148  25.309  29.000  1.00  0.00     0.074 A 
ATOM     51  C   UNL A   1      45.927  30.490  32.198  1.00  0.00     0.029 A 
ATOM     52  N   UNL A   1      44.795  28.970  31.037  1.00  0.00    -0.354 N 
ATOM     53  N   UNL A   1      44.421  26.410  29.660  1.00  0.00    -0.248 NA
ATOM     54  C   UNL A   1      45.268  24.360  28.926  1.00  0.00     0.031 C 
ATOM     55  C   UNL A   1      46.772  29.401  31.954  1.00  0.00     0.029 A 
ATOM     56  C   UNL A   1      46.060  28.446  31.247  1.00  0.00     0.049 A 
ATOM     57  H   UNL A   1      44.069  28.516  30.550  1.00  0.00     0.167 HD
ATOM     58  C   UNL A   1      45.737  26.276  30.093  1.00  0.00     0.074 A 
ATOM     59  C   UNL A   1      46.198  24.981  29.638  1.00  0.00     0.031 C 
ATOM     60  C   UNL A   1      46.498  27.150  30.797  1.00  0.00     0.037 A 
BRANCH  47  61
ATOM     61  C   UNL A   1      43.560  32.370  32.311  1.00  0.00     0.058 A 
ATOM     62  C   UNL A   1      43.973  33.548  31.669  1.00  0.00     0.135 A 
ATOM     63  C   UNL A   1      43.152  32.458  33.650  1.00  0.00     0.135 A 
ATOM     64  F   UNL A   1      44.391  33.513  30.395  1.00  0.00    -0.206 F 
ATOM     65  C   UNL A   1      43.996  34.768  32.338  1.00  0.00     0.059 A 
ATOM     66  C   UNL A   1      43.150  33.670  34.334  1.00  0.00     0.059 A 
ATOM     67  F   UNL A   1      42.754  31.358  34.308  1.00  0.00    -0.206 F 
ATOM     68  C   UNL A   1      43.585  34.818  33.671  1.00  0.00     0.060 A 
BRANCH  68  69
ATOM     69  S   UNL A   1      43.618  36.408  34.527  1.00  0.00     0.124 S 
ATOM     70  O   UNL A   1      45.034  36.530  34.857  1.00  0.00    -0.237 OA
ATOM     71  O   UNL A   1      43.124  37.325  33.504  1.00  0.00    -0.237 OA
ATOM     72  O   UNL A   1      42.724  36.201  35.661  1.00  0.00    -0.744 OA
ENDBRANCH  68  69
ENDBRANCH  47  61
BRANCH  48  73
ATOM     73  C   UNL A   1      42.764  23.585  27.642  1.00  0.00     0.058 A 
ATOM     74  C   UNL A   1      42.265  22.456  28.309  1.00  0.00     0.135 A 
ATOM     75  C   UNL A   1      43.220  23.419  26.325  1.00  0.00     0.135 A 
ATOM     76  F   UNL A   1      41.826  22.563  29.573  1.00  0.00    -0.206 F 
ATOM     77  C   UNL A   1      42.251  21.202  27.707  1.00  0.00     0.059 A 
ATOM     78  C   UNL A   1      43.194  22.180  25.694  1.00  0.00     0.059 A 
ATOM     79  F   UNL A   1      43.698  24.469  25.641  1.00  0.00    -0.206 F 
ATOM     80  C   UNL A   1      42.727  21.073  26.401  1.00  0.00     0.060 A 
BRANCH  80  81
ATOM     81  S   UNL A   1      42.711  19.444  25.620  1.00  0.00     0.124 S 
ATOM     82  O   UNL A   1      41.289  19.264  25.351  1.00  0.00    -0.237 OA
ATOM     83  O   UNL A   1      43.560  19.650  24.450  1.00  0.00    -0.237 OA
ATOM     84  O   UNL A   1      43.276  18.577  26.650  1.00  0.00    -0.744 OA
ENDBRANCH  80  81
ENDBRANCH  48  73
BRANCH  60  85
ATOM     85  C   UNL A   1      47.897  26.719  31.142  1.00  0.00     0.058 A 
ATOM     86  C   UNL A   1      48.169  25.963  32.292  1.00  0.00     0.135 A 
ATOM     87  C   UNL A   1      48.971  27.043  30.298  1.00  0.00     0.135 A 
ATOM     88  F   UNL A   1      47.177  25.632  33.134  1.00  0.00    -0.206 F 
ATOM     89  C   UNL A   1      49.465  25.567  32.610  1.00  0.00     0.059 A 
ATOM     90  C   UNL A   1      50.271  26.638  30.585  1.00  0.00     0.059 A 
ATOM     91  F   UNL A   1      48.760  27.755  29.179  1.00  0.00    -0.206 F 
ATOM     92  C   UNL A   1      50.510  25.914  31.752  1.00  0.00     0.060 A 
BRANCH  92  93
ATOM     93  S   UNL A   1      52.185  25.380  32.161  1.00  0.00     0.124 S 
ATOM     94  O   UNL A   1      52.923  25.795  30.972  1.00  0.00    -0.237 OA
ATOM     95  O   UNL A   1      52.472  26.134  33.378  1.00  0.00    -0.237 OA
ATOM     96  O   UNL A   1      52.047  23.938  32.344  1.00  0.00    -0.744 OA
ENDBRANCH  92  93
ENDBRANCH  60  85
ENDBRANCH  34  35
ENDBRANCH  27  29
ENDBRANCH  26  27
ENDBRANCH   1  26
TORSDOF 18
ENDMDL
MODEL 3
REMARK VINA RESULT:     -10.7      1.335      8.445
REMARK SMILES CC[NH2+][C@@]1(C(=O)OCCOC(=O)c2ccc(-c3c4nc(c(-c5c(F)cc(S(=O)(=O)[O-])cc5F)c5ccc([nH]5)c(-c5c(F)cc(S(=O)(=O)[O-])cc5F)c5nc(c(-c6c(F)cc(S(=O)(=O)[O-])cc6F)c6ccc3[nH]6)C=C5)C=C4)cc2)CC[C@@H]([NH+]2CCC(C)(CC)CC2)C1
REMARK SMILES IDX 9 1 8 2 7 3 5 4 6 5 4 6 79 7 91 8 80 9 81 10 3 11 2 14 1 15
REMARK SMILES IDX 82 16 83 17 90 18 84 20 89 21 85 22 86 23 87 24 88 25 10 26
REMARK SMILES IDX 11 27 12 28 13 29 14 30 78 31 15 32 77 33 16 34 17 35 18 36
REMARK SMILES IDX 71 37 19 38 76 39 70 40 72 41 20 42 75 43 69 44 68 45 21 47
REMARK SMILES IDX 55 48 34 49 54 50 35 51 38 52 53 53 73 54 36 55 37 56 52 58
REMARK SMILES IDX 74 59 39 60 22 61 23 62 32 63 24 64 25 65 31 66 33 67 26 68
REMARK SMILES IDX 27 69 28 70 29 71 30 72 56 73 57 74 66 75 58 76 59 77 65 78
REMARK SMILES IDX 67 79 60 80 61 81 62 82 63 83 64 84 40 85 41 86 50 87 42 88
REMARK SMILES IDX 43 89 49 90 51 91 44 92 45 93 46 94 47 95 48 96
REMARK H PARENT 3 12 3 13 82 19 72 46 38 57
REMARK Flexibility Score: inf
ROOT
ATOM      1  C   UNL A   1      39.149  22.917  26.103  1.00  0.00     0.275 C 
ENDROOT
BRANCH   1   2
ATOM      2  C   UNL A   1      37.741  22.514  25.664  1.00  0.00     0.274 C 
BRANCH   2   3
ATOM      3  O   UNL A   1      37.134  23.582  24.911  1.00  0.00    -0.457 OA
BRANCH   3   4
ATOM      4  C   UNL A   1      36.263  23.213  23.926  1.00  0.00     0.368 C 
ATOM      5  O   UNL A   1      36.626  22.873  22.805  1.00  0.00    -0.245 OA
BRANCH   4   6
ATOM      6  C   UNL A   1      34.770  23.351  24.377  1.00  0.00     0.200 C 
ATOM      7  C   UNL A   1      33.856  23.458  23.152  1.00  0.00     0.087 C 
ATOM      8  C   UNL A   1      34.506  24.673  25.139  1.00  0.00     0.146 C 
ATOM      9  C   UNL A   1      33.891  24.935  22.784  1.00  0.00     0.072 C 
ATOM     10  C   UNL A   1      33.967  25.692  24.122  1.00  0.00     0.191 C 
BRANCH   6  11
ATOM     11  N   UNL A   1      34.411  22.230  25.288  1.00  0.00    -0.332 N 
ATOM     12  H   UNL A   1      35.229  22.018  25.857  1.00  0.00     0.347 HD
ATOM     13  H   UNL A   1      33.602  22.557  25.816  1.00  0.00     0.347 HD
BRANCH  11  14
ATOM     14  C   UNL A   1      33.979  20.987  24.646  1.00  0.00     0.257 C 
ATOM     15  C   UNL A   1      35.056  19.932  24.861  1.00  0.00     0.071 C 
ENDBRANCH  11  14
ENDBRANCH   6  11
BRANCH  10  16
ATOM     16  N   UNL A   1      32.728  26.407  24.465  1.00  0.00    -0.332 N 
ATOM     17  C   UNL A   1      32.590  27.733  23.864  1.00  0.00     0.263 C 
ATOM     18  C   UNL A   1      32.258  26.402  25.846  1.00  0.00     0.263 C 
ATOM     19  H   UNL A   1      32.078  25.769  24.005  1.00  0.00     0.348 HD
ATOM     20  C   UNL A   1      33.244  28.873  24.646  1.00  0.00     0.068 C 
ATOM     21  C   UNL A   1      32.860  27.468  26.769  1.00  0.00     0.068 C 
ATOM     22  C   UNL A   1      32.961  28.895  26.171  1.00  0.00    -0.022 C 
ATOM     23  C   UNL A   1      34.162  29.609  26.853  1.00  0.00     0.012 C 
BRANCH  22  24
ATOM     24  C   UNL A   1      31.717  29.764  26.526  1.00  0.00     0.004 C 
ATOM     25  C   UNL A   1      31.923  31.255  26.730  1.00  0.00     0.004 C 
ENDBRANCH  22  24
ENDBRANCH  10  16
ENDBRANCH   4   6
ENDBRANCH   3   4
ENDBRANCH   2   3
ENDBRANCH   1   2
BRANCH   1  26
ATOM     26  O   UNL A   1      39.221  24.333  26.356  1.00  0.00    -0.458 OA
BRANCH  26  27
ATOM     27  C   UNL A   1      40.451  24.800  26.687  1.00  0.00     0.338 C 
ATOM     28  O   UNL A   1      41.509  24.529  26.146  1.00  0.00    -0.246 OA
BRANCH  27  29
ATOM     29  C   UNL A   1      40.331  25.820  27.745  1.00  0.00     0.060 A 
ATOM     30  C   UNL A   1      41.311  26.812  27.798  1.00  0.00     0.016 A 
ATOM     31  C   UNL A   1      39.320  25.776  28.710  1.00  0.00     0.016 A 
ATOM     32  C   UNL A   1      41.277  27.782  28.796  1.00  0.00     0.010 A 
ATOM     33  C   UNL A   1      39.302  26.736  29.731  1.00  0.00     0.010 A 
ATOM     34  C   UNL A   1      40.282  27.741  29.781  1.00  0.00    -0.014 A 
BRANCH  34  35
ATOM     35  C   UNL A   1      40.340  28.722  30.892  1.00  0.00     0.031 A 
ATOM     36  C   UNL A   1      39.401  29.894  30.893  1.00  0.00     0.074 A 
ATOM     37  C   UNL A   1      41.166  28.514  31.935  1.00  0.00     0.049 A 
ATOM     38  N   UNL A   1      39.264  30.841  31.785  1.00  0.00    -0.248 NA
ATOM     39  C   UNL A   1      38.490  30.009  29.744  1.00  0.00     0.031 C 
ATOM     40  C   UNL A   1      42.086  27.384  32.069  1.00  0.00     0.029 A 
ATOM     41  N   UNL A   1      41.350  29.236  33.087  1.00  0.00    -0.354 N 
ATOM     42  C   UNL A   1      38.241  31.655  31.316  1.00  0.00     0.074 A 
ATOM     43  C   UNL A   1      37.811  31.107  30.047  1.00  0.00     0.031 C 
ATOM     44  C   UNL A   1      42.731  27.484  33.245  1.00  0.00     0.029 A 
ATOM     45  C   UNL A   1      42.292  28.697  33.931  1.00  0.00     0.049 A 
ATOM     46  H   UNL A   1      40.854  30.061  33.289  1.00  0.00     0.167 HD
ATOM     47  C   UNL A   1      37.704  32.757  31.895  1.00  0.00     0.037 A 
ATOM     48  C   UNL A   1      42.753  29.141  35.117  1.00  0.00     0.037 A 
ATOM     49  C   UNL A   1      38.151  33.320  33.142  1.00  0.00     0.049 A 
ATOM     50  C   UNL A   1      42.191  30.412  35.699  1.00  0.00     0.074 A 
ATOM     51  C   UNL A   1      37.714  34.472  33.774  1.00  0.00     0.029 A 
ATOM     52  N   UNL A   1      39.136  32.773  33.948  1.00  0.00    -0.354 N 
ATOM     53  N   UNL A   1      41.242  31.186  35.230  1.00  0.00    -0.248 NA
ATOM     54  C   UNL A   1      42.768  30.873  36.971  1.00  0.00     0.031 C 
ATOM     55  C   UNL A   1      38.452  34.633  34.952  1.00  0.00     0.029 A 
ATOM     56  C   UNL A   1      39.326  33.564  35.070  1.00  0.00     0.049 A 
ATOM     57  H   UNL A   1      39.630  31.943  33.753  1.00  0.00     0.167 HD
ATOM     58  C   UNL A   1      41.096  32.214  36.158  1.00  0.00     0.074 A 
ATOM     59  C   UNL A   1      42.041  31.952  37.224  1.00  0.00     0.031 C 
ATOM     60  C   UNL A   1      40.263  33.282  36.127  1.00  0.00     0.037 A 
BRANCH  47  61
ATOM     61  C   UNL A   1      36.580  33.436  31.168  1.00  0.00     0.058 A 
ATOM     62  C   UNL A   1      36.807  34.157  29.986  1.00  0.00     0.135 A 
ATOM     63  C   UNL A   1      35.261  33.342  31.639  1.00  0.00     0.135 A 
ATOM     64  F   UNL A   1      38.053  34.292  29.505  1.00  0.00    -0.206 F 
ATOM     65  C   UNL A   1      35.766  34.778  29.304  1.00  0.00     0.059 A 
ATOM     66  C   UNL A   1      34.201  33.940  30.964  1.00  0.00     0.059 A 
ATOM     67  F   UNL A   1      34.994  32.667  32.769  1.00  0.00    -0.206 F 
ATOM     68  C   UNL A   1      34.466  34.666  29.803  1.00  0.00     0.060 A 
BRANCH  68  69
ATOM     69  S   UNL A   1      33.124  35.475  28.906  1.00  0.00     0.124 S 
ATOM     70  O   UNL A   1      33.855  36.462  28.118  1.00  0.00    -0.237 OA
ATOM     71  O   UNL A   1      32.539  34.370  28.152  1.00  0.00    -0.237 OA
ATOM     72  O   UNL A   1      32.284  36.017  29.970  1.00  0.00    -0.744 OA
ENDBRANCH  68  69
ENDBRANCH  47  61
BRANCH  48  73
ATOM     73  C   UNL A   1      43.827  28.403  35.832  1.00  0.00     0.058 A 
ATOM     74  C   UNL A   1      45.182  28.670  35.583  1.00  0.00     0.135 A 
ATOM     75  C   UNL A   1      43.519  27.376  36.738  1.00  0.00     0.135 A 
ATOM     76  F   UNL A   1      45.527  29.635  34.717  1.00  0.00    -0.206 F 
ATOM     77  C   UNL A   1      46.193  27.924  36.181  1.00  0.00     0.059 A 
ATOM     78  C   UNL A   1      44.512  26.634  37.367  1.00  0.00     0.059 A 
ATOM     79  F   UNL A   1      42.239  27.089  37.018  1.00  0.00    -0.206 F 
ATOM     80  C   UNL A   1      45.847  26.901  37.064  1.00  0.00     0.060 A 
BRANCH  80  81
ATOM     81  S   UNL A   1      47.159  25.932  37.840  1.00  0.00     0.124 S 
ATOM     82  O   UNL A   1      46.865  24.593  37.342  1.00  0.00    -0.237 OA
ATOM     83  O   UNL A   1      48.366  26.559  37.311  1.00  0.00    -0.237 OA
ATOM     84  O   UNL A   1      46.928  26.143  39.267  1.00  0.00    -0.744 OA
ENDBRANCH  80  81
ENDBRANCH  48  73
BRANCH  60  85
ATOM     85  C   UNL A   1      40.316  34.229  37.293  1.00  0.00     0.058 A 
ATOM     86  C   UNL A   1      41.234  35.289  37.337  1.00  0.00     0.135 A 
ATOM     87  C   UNL A   1      39.419  34.090  38.365  1.00  0.00     0.135 A 
ATOM     88  F   UNL A   1      42.115  35.461  36.339  1.00  0.00    -0.206 F 
ATOM     89  C   UNL A   1      41.282  36.164  38.419  1.00  0.00     0.059 A 
ATOM     90  C   UNL A   1      39.435  34.967  39.446  1.00  0.00     0.059 A 
ATOM     91  F   UNL A   1      38.514  33.099  38.365  1.00  0.00    -0.206 F 
ATOM     92  C   UNL A   1      40.382  35.991  39.471  1.00  0.00     0.060 A 
BRANCH  92  93
ATOM     93  S   UNL A   1      40.436  37.140  40.862  1.00  0.00     0.124 S 
ATOM     94  O   UNL A   1      40.566  38.422  40.177  1.00  0.00    -0.237 OA
ATOM     95  O   UNL A   1      39.156  36.902  41.522  1.00  0.00    -0.237 OA
ATOM     96  O   UNL A   1      41.610  36.707  41.614  1.00  0.00    -0.744 OA
ENDBRANCH  92  93
ENDBRANCH  60  85
ENDBRANCH  34  35
ENDBRANCH  27  29
ENDBRANCH  26  27
ENDBRANCH   1  26
TORSDOF 18
ENDMDL
