MODEL 1
REMARK VINA RESULT:     -10.7      0.000      0.000
REMARK SMILES CC(C)[C@H](NS(=O)(=O)N1C[C@@H](C)O[C@H](C)C1)C(=O)OCCOC(=O)c1ccc(-c2c3nc(c(-c4c(F)cc(S(=O)(=O)[O-])cc4F)c4ccc([nH]4)c(-c4c(F)cc(S(=O)(=O)[O-])cc4F)c4nc(c(-c5c(F)cc(S(=O)(=O)[O-])cc5F)c5ccc2[nH]5)C=C4)C=C3)cc1
REMARK SMILES IDX 20 1 19 2 17 3 18 4 4 5 2 6 1 7 3 8 5 9 6 11 7 12 8 13 9 14
REMARK SMILES IDX 10 15 16 16 11 17 14 18 12 19 13 20 15 21 21 22 22 23 23 24
REMARK SMILES IDX 24 25 25 26 26 27 90 28 27 29 89 30 28 31 29 32 30 33 83 34
REMARK SMILES IDX 31 35 88 36 82 37 84 38 32 39 87 40 81 41 80 42 33 44 67 45
REMARK SMILES IDX 46 46 66 47 47 48 50 49 65 50 85 51 48 52 49 53 64 55 86 56
REMARK SMILES IDX 51 57 34 58 35 59 44 60 36 61 37 62 43 63 45 64 38 65 39 66
REMARK SMILES IDX 40 67 41 68 42 69 68 70 69 71 78 72 70 73 71 74 77 75 79 76
REMARK SMILES IDX 72 77 73 78 74 79 75 80 76 81 52 82 53 83 62 84 54 85 55 86
REMARK SMILES IDX 61 87 63 88 56 89 57 90 58 91 59 92 60 93
REMARK H PARENT 5 10 84 43 50 54
REMARK Flexibility Score: inf
ROOT
ATOM      1  C   UNL A   1      40.153  21.085  26.166  1.00  0.00     0.274 C 
ENDROOT
BRANCH   1   2
ATOM      2  O   UNL A   1      38.865  21.672  25.877  1.00  0.00    -0.461 OA
BRANCH   2   3
ATOM      3  C   UNL A   1      37.942  20.836  25.319  1.00  0.00     0.324 C 
ATOM      4  O   UNL A   1      38.176  19.672  25.006  1.00  0.00    -0.250 OA
BRANCH   3   5
ATOM      5  C   UNL A   1      36.590  21.515  25.029  1.00  0.00     0.183 C 
BRANCH   5   6
ATOM      6  C   UNL A   1      36.845  22.854  24.291  1.00  0.00     0.012 C 
ATOM      7  C   UNL A   1      35.909  23.120  23.105  1.00  0.00     0.009 C 
ATOM      8  C   UNL A   1      36.759  24.029  25.275  1.00  0.00     0.009 C 
ENDBRANCH   5   6
BRANCH   5   9
ATOM      9  N   UNL A   1      35.758  21.669  26.246  1.00  0.00    -0.188 NA
ATOM     10  H   UNL A   1      35.853  22.645  26.528  1.00  0.00     0.143 HD
BRANCH   9  11
ATOM     11  S   UNL A   1      34.118  21.340  26.296  1.00  0.00     0.280 S 
ATOM     12  O   UNL A   1      33.926  20.309  25.307  1.00  0.00    -0.195 OA
ATOM     13  O   UNL A   1      33.694  21.154  27.663  1.00  0.00    -0.195 OA
BRANCH  11  14
ATOM     14  N   UNL A   1      33.443  22.776  25.710  1.00  0.00    -0.184 NA
ATOM     15  C   UNL A   1      33.037  23.769  26.770  1.00  0.00     0.135 C 
ATOM     16  C   UNL A   1      32.258  22.578  24.796  1.00  0.00     0.135 C 
ATOM     17  C   UNL A   1      32.576  25.091  26.128  1.00  0.00     0.130 C 
ATOM     18  C   UNL A   1      31.882  23.926  24.153  1.00  0.00     0.130 C 
ATOM     19  C   UNL A   1      33.739  25.855  25.521  1.00  0.00     0.040 C 
ATOM     20  O   UNL A   1      31.533  24.885  25.165  1.00  0.00    -0.373 OA
ATOM     21  C   UNL A   1      30.678  23.796  23.229  1.00  0.00     0.040 C 
ENDBRANCH  11  14
ENDBRANCH   9  11
ENDBRANCH   5   9
ENDBRANCH   3   5
ENDBRANCH   2   3
ENDBRANCH   1   2
BRANCH   1  22
ATOM     22  C   UNL A   1      41.168  22.094  26.716  1.00  0.00     0.275 C 
BRANCH  22  23
ATOM     23  O   UNL A   1      40.681  23.447  26.670  1.00  0.00    -0.458 OA
BRANCH  23  24
ATOM     24  C   UNL A   1      41.640  24.386  26.840  1.00  0.00     0.338 C 
ATOM     25  O   UNL A   1      42.720  24.445  26.274  1.00  0.00    -0.246 OA
BRANCH  24  26
ATOM     26  C   UNL A   1      41.136  25.484  27.676  1.00  0.00     0.060 A 
ATOM     27  C   UNL A   1      42.012  26.537  27.901  1.00  0.00     0.016 A 
ATOM     28  C   UNL A   1      39.916  25.430  28.350  1.00  0.00     0.016 A 
ATOM     29  C   UNL A   1      41.709  27.500  28.847  1.00  0.00     0.010 A 
ATOM     30  C   UNL A   1      39.608  26.423  29.298  1.00  0.00     0.010 A 
ATOM     31  C   UNL A   1      40.529  27.443  29.592  1.00  0.00    -0.014 A 
BRANCH  31  32
ATOM     32  C   UNL A   1      40.385  28.399  30.730  1.00  0.00     0.031 A 
ATOM     33  C   UNL A   1      41.351  28.356  31.889  1.00  0.00     0.074 A 
ATOM     34  C   UNL A   1      39.492  29.410  30.651  1.00  0.00     0.049 A 
ATOM     35  N   UNL A   1      41.384  29.097  32.968  1.00  0.00    -0.248 NA
ATOM     36  C   UNL A   1      42.420  27.347  31.829  1.00  0.00     0.031 C 
ATOM     37  C   UNL A   1      38.554  29.624  29.544  1.00  0.00     0.029 A 
ATOM     38  N   UNL A   1      39.255  30.471  31.489  1.00  0.00    -0.354 N 
ATOM     39  C   UNL A   1      42.441  28.615  33.734  1.00  0.00     0.074 A 
ATOM     40  C   UNL A   1      43.017  27.509  33.001  1.00  0.00     0.031 C 
ATOM     41  C   UNL A   1      37.892  30.773  29.743  1.00  0.00     0.029 A 
ATOM     42  C   UNL A   1      38.280  31.329  31.033  1.00  0.00     0.049 A 
ATOM     43  H   UNL A   1      39.738  30.606  32.338  1.00  0.00     0.167 HD
ATOM     44  C   UNL A   1      42.888  29.053  34.937  1.00  0.00     0.037 A 
ATOM     45  C   UNL A   1      37.729  32.419  31.601  1.00  0.00     0.037 A 
ATOM     46  C   UNL A   1      42.336  30.185  35.642  1.00  0.00     0.049 A 
ATOM     47  C   UNL A   1      38.209  32.855  32.957  1.00  0.00     0.074 A 
ATOM     48  C   UNL A   1      42.714  30.702  36.869  1.00  0.00     0.029 A 
ATOM     49  N   UNL A   1      41.300  30.983  35.177  1.00  0.00    -0.354 N 
ATOM     50  N   UNL A   1      39.160  32.343  33.700  1.00  0.00    -0.248 NA
ATOM     51  C   UNL A   1      37.532  34.012  33.557  1.00  0.00     0.031 C 
ATOM     52  C   UNL A   1      41.871  31.778  37.172  1.00  0.00     0.029 A 
ATOM     53  C   UNL A   1      41.013  31.976  36.103  1.00  0.00     0.049 A 
ATOM     54  H   UNL A   1      40.837  30.863  34.317  1.00  0.00     0.167 HD
ATOM     55  C   UNL A   1      39.211  33.127  34.847  1.00  0.00     0.074 A 
ATOM     56  C   UNL A   1      38.209  34.162  34.687  1.00  0.00     0.031 C 
ATOM     57  C   UNL A   1      40.011  33.001  35.935  1.00  0.00     0.037 A 
BRANCH  44  58
ATOM     58  C   UNL A   1      43.997  28.277  35.600  1.00  0.00     0.058 A 
ATOM     59  C   UNL A   1      45.354  28.584  35.405  1.00  0.00     0.135 A 
ATOM     60  C   UNL A   1      43.689  27.220  36.473  1.00  0.00     0.135 A 
ATOM     61  F   UNL A   1      45.711  29.570  34.568  1.00  0.00    -0.206 F 
ATOM     62  C   UNL A   1      46.363  27.853  36.029  1.00  0.00     0.059 A 
ATOM     63  C   UNL A   1      44.680  26.498  37.133  1.00  0.00     0.059 A 
ATOM     64  F   UNL A   1      42.410  26.880  36.698  1.00  0.00    -0.206 F 
ATOM     65  C   UNL A   1      46.015  26.812  36.892  1.00  0.00     0.060 A 
BRANCH  65  66
ATOM     66  S   UNL A   1      47.334  25.872  37.691  1.00  0.00     0.124 S 
ATOM     67  O   UNL A   1      48.012  25.285  36.538  1.00  0.00    -0.237 OA
ATOM     68  O   UNL A   1      48.072  26.913  38.399  1.00  0.00    -0.237 OA
ATOM     69  O   UNL A   1      46.614  24.928  38.541  1.00  0.00    -0.744 OA
ENDBRANCH  65  66
ENDBRANCH  44  58
BRANCH  45  70
ATOM     70  C   UNL A   1      36.628  33.143  30.907  1.00  0.00     0.058 A 
ATOM     71  C   UNL A   1      36.890  34.109  29.924  1.00  0.00     0.135 A 
ATOM     72  C   UNL A   1      35.282  32.872  31.211  1.00  0.00     0.135 A 
ATOM     73  F   UNL A   1      38.156  34.415  29.607  1.00  0.00    -0.206 F 
ATOM     74  C   UNL A   1      35.862  34.785  29.275  1.00  0.00     0.059 A 
ATOM     75  C   UNL A   1      34.238  33.508  30.550  1.00  0.00     0.059 A 
ATOM     76  F   UNL A   1      34.974  31.951  32.137  1.00  0.00    -0.206 F 
ATOM     77  C   UNL A   1      34.538  34.472  29.591  1.00  0.00     0.060 A 
BRANCH  77  78
ATOM     78  S   UNL A   1      33.210  35.312  28.700  1.00  0.00     0.124 S 
ATOM     79  O   UNL A   1      32.518  34.188  28.078  1.00  0.00    -0.237 OA
ATOM     80  O   UNL A   1      32.496  35.985  29.780  1.00  0.00    -0.237 OA
ATOM     81  O   UNL A   1      33.927  36.197  27.787  1.00  0.00    -0.744 OA
ENDBRANCH  77  78
ENDBRANCH  45  70
BRANCH  57  82
ATOM     82  C   UNL A   1      39.866  34.039  37.016  1.00  0.00     0.058 A 
ATOM     83  C   UNL A   1      39.045  33.837  38.137  1.00  0.00     0.135 A 
ATOM     84  C   UNL A   1      40.556  35.259  36.923  1.00  0.00     0.135 A 
ATOM     85  F   UNL A   1      38.360  32.691  38.276  1.00  0.00    -0.206 F 
ATOM     86  C   UNL A   1      38.872  34.827  39.101  1.00  0.00     0.059 A 
ATOM     87  C   UNL A   1      40.426  36.249  37.892  1.00  0.00     0.059 A 
ATOM     88  F   UNL A   1      41.367  35.500  35.881  1.00  0.00    -0.206 F 
ATOM     89  C   UNL A   1      39.562  36.033  38.964  1.00  0.00     0.060 A 
BRANCH  89  90
ATOM     90  S   UNL A   1      39.314  37.318  40.206  1.00  0.00     0.124 S 
ATOM     91  O   UNL A   1      38.662  36.569  41.277  1.00  0.00    -0.237 OA
ATOM     92  O   UNL A   1      40.679  37.757  40.479  1.00  0.00    -0.237 OA
ATOM     93  O   UNL A   1      38.474  38.296  39.522  1.00  0.00    -0.744 OA
ENDBRANCH  89  90
ENDBRANCH  57  82
ENDBRANCH  31  32
ENDBRANCH  24  26
ENDBRANCH  23  24
ENDBRANCH  22  23
ENDBRANCH   1  22
TORSDOF 18
ENDMDL
MODEL 2
REMARK VINA RESULT:     -10.3      2.501      3.990
REMARK SMILES CC(C)[C@H](NS(=O)(=O)N1C[C@@H](C)O[C@H](C)C1)C(=O)OCCOC(=O)c1ccc(-c2c3nc(c(-c4c(F)cc(S(=O)(=O)[O-])cc4F)c4ccc([nH]4)c(-c4c(F)cc(S(=O)(=O)[O-])cc4F)c4nc(c(-c5c(F)cc(S(=O)(=O)[O-])cc5F)c5ccc2[nH]5)C=C4)C=C3)cc1
REMARK SMILES IDX 20 1 19 2 17 3 18 4 4 5 2 6 1 7 3 8 5 9 6 11 7 12 8 13 9 14
REMARK SMILES IDX 10 15 16 16 11 17 14 18 12 19 13 20 15 21 21 22 22 23 23 24
REMARK SMILES IDX 24 25 25 26 26 27 90 28 27 29 89 30 28 31 29 32 30 33 83 34
REMARK SMILES IDX 31 35 88 36 82 37 84 38 32 39 87 40 81 41 80 42 33 44 67 45
REMARK SMILES IDX 46 46 66 47 47 48 50 49 65 50 85 51 48 52 49 53 64 55 86 56
REMARK SMILES IDX 51 57 34 58 35 59 44 60 36 61 37 62 43 63 45 64 38 65 39 66
REMARK SMILES IDX 40 67 41 68 42 69 68 70 69 71 78 72 70 73 71 74 77 75 79 76
REMARK SMILES IDX 72 77 73 78 74 79 75 80 76 81 52 82 53 83 62 84 54 85 55 86
REMARK SMILES IDX 61 87 63 88 56 89 57 90 58 91 59 92 60 93
REMARK H PARENT 5 10 84 43 50 54
REMARK Flexibility Score: inf
ROOT
ATOM      1  C   UNL A   1      46.067  23.193  26.016  1.00  0.00     0.274 C 
ENDROOT
BRANCH   1   2
ATOM      2  O   UNL A   1      46.067  22.575  24.711  1.00  0.00    -0.461 OA
BRANCH   2   3
ATOM      3  C   UNL A   1      44.885  22.018  24.316  1.00  0.00     0.324 C 
ATOM      4  O   UNL A   1      44.280  22.351  23.300  1.00  0.00    -0.250 OA
BRANCH   3   5
ATOM      5  C   UNL A   1      44.325  20.987  25.311  1.00  0.00     0.183 C 
BRANCH   5   6
ATOM      6  C   UNL A   1      44.750  19.565  24.860  1.00  0.00     0.012 C 
ATOM      7  C   UNL A   1      46.218  19.216  25.144  1.00  0.00     0.009 C 
ATOM      8  C   UNL A   1      43.845  18.508  25.506  1.00  0.00     0.009 C 
ENDBRANCH   5   6
BRANCH   5   9
ATOM      9  N   UNL A   1      42.861  21.122  25.509  1.00  0.00    -0.188 NA
ATOM     10  H   UNL A   1      42.453  20.249  25.174  1.00  0.00     0.143 HD
BRANCH   9  11
ATOM     11  S   UNL A   1      42.149  21.417  26.993  1.00  0.00     0.280 S 
ATOM     12  O   UNL A   1      41.764  20.114  27.475  1.00  0.00    -0.195 OA
ATOM     13  O   UNL A   1      42.989  22.288  27.780  1.00  0.00    -0.195 OA
BRANCH  11  14
ATOM     14  N   UNL A   1      40.749  22.262  26.561  1.00  0.00    -0.184 NA
ATOM     15  C   UNL A   1      40.172  23.140  27.644  1.00  0.00     0.135 C 
ATOM     16  C   UNL A   1      39.631  21.389  26.041  1.00  0.00     0.135 C 
ATOM     17  C   UNL A   1      38.996  23.971  27.100  1.00  0.00     0.130 C 
ATOM     18  C   UNL A   1      38.513  22.282  25.472  1.00  0.00     0.130 C 
ATOM     19  C   UNL A   1      39.467  25.053  26.145  1.00  0.00     0.040 C 
ATOM     20  O   UNL A   1      37.991  23.147  26.493  1.00  0.00    -0.373 OA
ATOM     21  C   UNL A   1      37.345  21.459  24.945  1.00  0.00     0.040 C 
ENDBRANCH  11  14
ENDBRANCH   9  11
ENDBRANCH   5   9
ENDBRANCH   3   5
ENDBRANCH   2   3
ENDBRANCH   1   2
BRANCH   1  22
ATOM     22  C   UNL A   1      45.667  24.673  25.984  1.00  0.00     0.275 C 
BRANCH  22  23
ATOM     23  O   UNL A   1      44.553  24.963  26.846  1.00  0.00    -0.458 OA
BRANCH  23  24
ATOM     24  C   UNL A   1      43.572  25.686  26.259  1.00  0.00     0.338 C 
ATOM     25  O   UNL A   1      43.229  25.645  25.088  1.00  0.00    -0.246 OA
BRANCH  24  26
ATOM     26  C   UNL A   1      42.802  26.419  27.273  1.00  0.00     0.060 A 
ATOM     27  C   UNL A   1      43.005  27.791  27.326  1.00  0.00     0.016 A 
ATOM     28  C   UNL A   1      42.025  25.786  28.244  1.00  0.00     0.016 A 
ATOM     29  C   UNL A   1      42.497  28.526  28.383  1.00  0.00     0.010 A 
ATOM     30  C   UNL A   1      41.498  26.544  29.305  1.00  0.00     0.010 A 
ATOM     31  C   UNL A   1      41.773  27.918  29.411  1.00  0.00    -0.014 A 
BRANCH  31  32
ATOM     32  C   UNL A   1      41.447  28.748  30.609  1.00  0.00     0.031 A 
ATOM     33  C   UNL A   1      42.359  28.742  31.811  1.00  0.00     0.074 A 
ATOM     34  C   UNL A   1      40.423  29.628  30.559  1.00  0.00     0.049 A 
ATOM     35  N   UNL A   1      42.241  29.389  32.943  1.00  0.00    -0.248 NA
ATOM     36  C   UNL A   1      43.563  27.899  31.732  1.00  0.00     0.031 C 
ATOM     37  C   UNL A   1      39.513  29.801  29.423  1.00  0.00     0.029 A 
ATOM     38  N   UNL A   1      40.003  30.574  31.462  1.00  0.00    -0.354 N 
ATOM     39  C   UNL A   1      43.322  28.997  33.727  1.00  0.00     0.074 A 
ATOM     40  C   UNL A   1      44.081  28.045  32.944  1.00  0.00     0.031 C 
ATOM     41  C   UNL A   1      38.686  30.827  29.673  1.00  0.00     0.029 A 
ATOM     42  C   UNL A   1      38.937  31.323  31.021  1.00  0.00     0.049 A 
ATOM     43  H   UNL A   1      40.426  30.704  32.343  1.00  0.00     0.167 HD
ATOM     44  C   UNL A   1      43.652  29.391  34.981  1.00  0.00     0.037 A 
ATOM     45  C   UNL A   1      38.213  32.276  31.640  1.00  0.00     0.037 A 
ATOM     46  C   UNL A   1      42.916  30.373  35.739  1.00  0.00     0.049 A 
ATOM     47  C   UNL A   1      38.569  32.661  33.048  1.00  0.00     0.074 A 
ATOM     48  C   UNL A   1      43.164  30.835  37.021  1.00  0.00     0.029 A 
ATOM     49  N   UNL A   1      41.797  31.057  35.282  1.00  0.00    -0.354 N 
ATOM     50  N   UNL A   1      39.551  32.225  33.800  1.00  0.00    -0.248 NA
ATOM     51  C   UNL A   1      37.710  33.660  33.698  1.00  0.00     0.031 C 
ATOM     52  C   UNL A   1      42.165  31.755  37.359  1.00  0.00     0.029 A 
ATOM     53  C   UNL A   1      41.333  31.921  36.264  1.00  0.00     0.049 A 
ATOM     54  H   UNL A   1      41.393  30.946  34.392  1.00  0.00     0.167 HD
ATOM     55  C   UNL A   1      39.441  32.912  35.004  1.00  0.00     0.074 A 
ATOM     56  C   UNL A   1      38.310  33.808  34.870  1.00  0.00     0.031 C 
ATOM     57  C   UNL A   1      40.204  32.808  36.121  1.00  0.00     0.037 A 
BRANCH  44  58
ATOM     58  C   UNL A   1      44.831  28.723  35.641  1.00  0.00     0.058 A 
ATOM     59  C   UNL A   1      46.133  29.242  35.564  1.00  0.00     0.135 A 
ATOM     60  C   UNL A   1      44.643  27.552  36.394  1.00  0.00     0.135 A 
ATOM     61  F   UNL A   1      46.379  30.348  34.844  1.00  0.00    -0.206 F 
ATOM     62  C   UNL A   1      47.209  28.609  36.183  1.00  0.00     0.059 A 
ATOM     63  C   UNL A   1      45.697  26.920  37.048  1.00  0.00     0.059 A 
ATOM     64  F   UNL A   1      43.421  27.008  36.504  1.00  0.00    -0.206 F 
ATOM     65  C   UNL A   1      46.980  27.448  36.923  1.00  0.00     0.060 A 
BRANCH  65  66
ATOM     66  S   UNL A   1      48.384  26.636  37.718  1.00  0.00     0.124 S 
ATOM     67  O   UNL A   1      48.422  27.318  39.008  1.00  0.00    -0.237 OA
ATOM     68  O   UNL A   1      47.959  25.240  37.751  1.00  0.00    -0.237 OA
ATOM     69  O   UNL A   1      49.499  26.929  36.822  1.00  0.00    -0.744 OA
ENDBRANCH  65  66
ENDBRANCH  44  58
BRANCH  45  70
ATOM     70  C   UNL A   1      37.050  32.896  30.945  1.00  0.00     0.058 A 
ATOM     71  C   UNL A   1      37.224  33.876  29.956  1.00  0.00     0.135 A 
ATOM     72  C   UNL A   1      35.735  32.509  31.253  1.00  0.00     0.135 A 
ATOM     73  F   UNL A   1      38.458  34.291  29.634  1.00  0.00    -0.206 F 
ATOM     74  C   UNL A   1      36.139  34.456  29.306  1.00  0.00     0.059 A 
ATOM     75  C   UNL A   1      34.637  33.046  30.592  1.00  0.00     0.059 A 
ATOM     76  F   UNL A   1      35.511  31.569  32.185  1.00  0.00    -0.206 F 
ATOM     77  C   UNL A   1      34.849  34.028  29.626  1.00  0.00     0.060 A 
BRANCH  77  78
ATOM     78  S   UNL A   1      33.449  34.742  28.735  1.00  0.00     0.124 S 
ATOM     79  O   UNL A   1      34.039  35.958  28.188  1.00  0.00    -0.237 OA
ATOM     80  O   UNL A   1      33.134  33.692  27.771  1.00  0.00    -0.237 OA
ATOM     81  O   UNL A   1      32.451  34.939  29.783  1.00  0.00    -0.744 OA
ENDBRANCH  77  78
ENDBRANCH  45  70
BRANCH  57  82
ATOM     82  C   UNL A   1      39.868  33.723  37.268  1.00  0.00     0.058 A 
ATOM     83  C   UNL A   1      40.443  34.997  37.398  1.00  0.00     0.135 A 
ATOM     84  C   UNL A   1      38.958  33.312  38.257  1.00  0.00     0.135 A 
ATOM     85  F   UNL A   1      41.321  35.439  36.484  1.00  0.00    -0.206 F 
ATOM     86  C   UNL A   1      40.168  35.811  38.494  1.00  0.00     0.059 A 
ATOM     87  C   UNL A   1      38.642  34.123  39.343  1.00  0.00     0.059 A 
ATOM     88  F   UNL A   1      38.366  32.110  38.175  1.00  0.00    -0.206 F 
ATOM     89  C   UNL A   1      39.272  35.360  39.465  1.00  0.00     0.060 A 
BRANCH  89  90
ATOM     90  S   UNL A   1      38.941  36.413  40.893  1.00  0.00     0.124 S 
ATOM     91  O   UNL A   1      40.244  36.437  41.549  1.00  0.00    -0.237 OA
ATOM     92  O   UNL A   1      38.522  37.665  40.268  1.00  0.00    -0.237 OA
ATOM     93  O   UNL A   1      37.890  35.696  41.609  1.00  0.00    -0.744 OA
ENDBRANCH  89  90
ENDBRANCH  57  82
ENDBRANCH  31  32
ENDBRANCH  24  26
ENDBRANCH  23  24
ENDBRANCH  22  23
ENDBRANCH   1  22
TORSDOF 18
ENDMDL
MODEL 3
REMARK VINA RESULT:     -10.3      6.746     12.212
REMARK SMILES CC(C)[C@H](NS(=O)(=O)N1C[C@@H](C)O[C@H](C)C1)C(=O)OCCOC(=O)c1ccc(-c2c3nc(c(-c4c(F)cc(S(=O)(=O)[O-])cc4F)c4ccc([nH]4)c(-c4c(F)cc(S(=O)(=O)[O-])cc4F)c4nc(c(-c5c(F)cc(S(=O)(=O)[O-])cc5F)c5ccc2[nH]5)C=C4)C=C3)cc1
REMARK SMILES IDX 20 1 19 2 17 3 18 4 4 5 2 6 1 7 3 8 5 9 6 11 7 12 8 13 9 14
REMARK SMILES IDX 10 15 16 16 11 17 14 18 12 19 13 20 15 21 21 22 22 23 23 24
REMARK SMILES IDX 24 25 25 26 26 27 90 28 27 29 89 30 28 31 29 32 30 33 83 34
REMARK SMILES IDX 31 35 88 36 82 37 84 38 32 39 87 40 81 41 80 42 33 44 67 45
REMARK SMILES IDX 46 46 66 47 47 48 50 49 65 50 85 51 48 52 49 53 64 55 86 56
REMARK SMILES IDX 51 57 34 58 35 59 44 60 36 61 37 62 43 63 45 64 38 65 39 66
REMARK SMILES IDX 40 67 41 68 42 69 68 70 69 71 78 72 70 73 71 74 77 75 79 76
REMARK SMILES IDX 72 77 73 78 74 79 75 80 76 81 52 82 53 83 62 84 54 85 55 86
REMARK SMILES IDX 61 87 63 88 56 89 57 90 58 91 59 92 60 93
REMARK H PARENT 5 10 84 43 50 54
REMARK Flexibility Score: inf
ROOT
ATOM      1  C   UNL A   1      33.462  29.948  27.190  1.00  0.00     0.274 C 
ENDROOT
BRANCH   1   2
ATOM      2  O   UNL A   1      33.824  29.280  25.962  1.00  0.00    -0.461 OA
BRANCH   2   3
ATOM      3  C   UNL A   1      33.462  27.968  25.869  1.00  0.00     0.324 C 
ATOM      4  O   UNL A   1      33.233  27.252  26.840  1.00  0.00    -0.250 OA
BRANCH   3   5
ATOM      5  C   UNL A   1      33.452  27.430  24.426  1.00  0.00     0.183 C 
BRANCH   5   6
ATOM      6  C   UNL A   1      33.188  28.607  23.451  1.00  0.00     0.012 C 
ATOM      7  C   UNL A   1      34.146  28.673  22.253  1.00  0.00     0.009 C 
ATOM      8  C   UNL A   1      31.743  28.561  22.939  1.00  0.00     0.009 C 
ENDBRANCH   5   6
BRANCH   5   9
ATOM      9  N   UNL A   1      32.509  26.301  24.245  1.00  0.00    -0.188 NA
ATOM     10  H   UNL A   1      31.604  26.724  24.037  1.00  0.00     0.143 HD
BRANCH   9  11
ATOM     11  S   UNL A   1      32.717  25.091  23.108  1.00  0.00     0.280 S 
ATOM     12  O   UNL A   1      31.384  24.800  22.642  1.00  0.00    -0.195 OA
ATOM     13  O   UNL A   1      33.769  25.454  22.189  1.00  0.00    -0.195 OA
BRANCH  11  14
ATOM     14  N   UNL A   1      33.248  23.794  24.055  1.00  0.00    -0.184 NA
ATOM     15  C   UNL A   1      34.744  23.596  24.085  1.00  0.00     0.135 C 
ATOM     16  C   UNL A   1      32.623  22.467  23.698  1.00  0.00     0.135 C 
ATOM     17  C   UNL A   1      35.125  22.491  25.087  1.00  0.00     0.130 C 
ATOM     18  C   UNL A   1      33.005  21.422  24.764  1.00  0.00     0.130 C 
ATOM     19  C   UNL A   1      34.916  22.937  26.522  1.00  0.00     0.040 C 
ATOM     20  O   UNL A   1      34.432  21.263  24.822  1.00  0.00    -0.373 OA
ATOM     21  C   UNL A   1      32.416  20.053  24.451  1.00  0.00     0.040 C 
ENDBRANCH  11  14
ENDBRANCH   9  11
ENDBRANCH   5   9
ENDBRANCH   3   5
ENDBRANCH   2   3
ENDBRANCH   1   2
BRANCH   1  22
ATOM     22  C   UNL A   1      34.670  30.490  27.963  1.00  0.00     0.275 C 
BRANCH  22  23
ATOM     23  O   UNL A   1      35.611  29.459  28.311  1.00  0.00    -0.458 OA
BRANCH  23  24
ATOM     24  C   UNL A   1      36.253  29.669  29.482  1.00  0.00     0.338 C 
ATOM     25  O   UNL A   1      35.764  29.662  30.601  1.00  0.00    -0.246 OA
BRANCH  24  26
ATOM     26  C   UNL A   1      37.706  29.717  29.266  1.00  0.00     0.060 A 
ATOM     27  C   UNL A   1      38.132  29.671  27.945  1.00  0.00     0.016 A 
ATOM     28  C   UNL A   1      38.633  29.650  30.305  1.00  0.00     0.016 A 
ATOM     29  C   UNL A   1      39.473  29.489  27.656  1.00  0.00     0.010 A 
ATOM     30  C   UNL A   1      39.997  29.482  30.002  1.00  0.00     0.010 A 
ATOM     31  C   UNL A   1      40.424  29.348  28.669  1.00  0.00    -0.014 A 
BRANCH  31  32
ATOM     32  C   UNL A   1      41.805  28.947  28.269  1.00  0.00     0.031 A 
ATOM     33  C   UNL A   1      42.945  29.931  28.372  1.00  0.00     0.074 A 
ATOM     34  C   UNL A   1      42.071  27.657  27.967  1.00  0.00     0.049 A 
ATOM     35  N   UNL A   1      44.208  29.771  28.067  1.00  0.00    -0.248 NA
ATOM     36  C   UNL A   1      42.624  31.273  28.885  1.00  0.00     0.031 C 
ATOM     37  C   UNL A   1      41.077  26.581  27.915  1.00  0.00     0.029 A 
ATOM     38  N   UNL A   1      43.256  27.022  27.692  1.00  0.00    -0.354 N 
ATOM     39  C   UNL A   1      44.820  30.998  28.303  1.00  0.00     0.074 A 
ATOM     40  C   UNL A   1      43.787  31.898  28.767  1.00  0.00     0.031 C 
ATOM     41  C   UNL A   1      41.701  25.415  27.688  1.00  0.00     0.029 A 
ATOM     42  C   UNL A   1      43.121  25.669  27.479  1.00  0.00     0.049 A 
ATOM     43  H   UNL A   1      44.122  27.490  27.652  1.00  0.00     0.167 HD
ATOM     44  C   UNL A   1      46.122  31.343  28.147  1.00  0.00     0.037 A 
ATOM     45  C   UNL A   1      44.026  24.738  27.118  1.00  0.00     0.037 A 
ATOM     46  C   UNL A   1      47.156  30.429  27.726  1.00  0.00     0.049 A 
ATOM     47  C   UNL A   1      45.454  25.156  26.904  1.00  0.00     0.074 A 
ATOM     48  C   UNL A   1      48.503  30.683  27.530  1.00  0.00     0.029 A 
ATOM     49  N   UNL A   1      46.963  29.082  27.450  1.00  0.00    -0.354 N 
ATOM     50  N   UNL A   1      46.001  26.338  27.062  1.00  0.00    -0.248 NA
ATOM     51  C   UNL A   1      46.387  24.116  26.452  1.00  0.00     0.031 C 
ATOM     52  C   UNL A   1      49.113  29.506  27.082  1.00  0.00     0.029 A 
ATOM     53  C   UNL A   1      48.162  28.499  27.066  1.00  0.00     0.049 A 
ATOM     54  H   UNL A   1      46.102  28.610  27.517  1.00  0.00     0.167 HD
ATOM     55  C   UNL A   1      47.346  26.179  26.747  1.00  0.00     0.074 A 
ATOM     56  C   UNL A   1      47.532  24.781  26.414  1.00  0.00     0.031 C 
ATOM     57  C   UNL A   1      48.337  27.106  26.733  1.00  0.00     0.037 A 
BRANCH  44  58
ATOM     58  C   UNL A   1      46.501  32.784  28.380  1.00  0.00     0.058 A 
ATOM     59  C   UNL A   1      46.435  33.754  27.368  1.00  0.00     0.135 A 
ATOM     60  C   UNL A   1      46.911  33.204  29.657  1.00  0.00     0.135 A 
ATOM     61  F   UNL A   1      46.069  33.410  26.123  1.00  0.00    -0.206 F 
ATOM     62  C   UNL A   1      46.789  35.081  27.605  1.00  0.00     0.059 A 
ATOM     63  C   UNL A   1      47.238  34.530  29.925  1.00  0.00     0.059 A 
ATOM     64  F   UNL A   1      46.994  32.321  30.664  1.00  0.00    -0.206 F 
ATOM     65  C   UNL A   1      47.189  35.458  28.888  1.00  0.00     0.060 A 
BRANCH  65  66
ATOM     66  S   UNL A   1      47.648  37.181  29.181  1.00  0.00     0.124 S 
ATOM     67  O   UNL A   1      46.406  37.724  29.723  1.00  0.00    -0.237 OA
ATOM     68  O   UNL A   1      48.751  37.052  30.127  1.00  0.00    -0.237 OA
ATOM     69  O   UNL A   1      48.016  37.666  27.854  1.00  0.00    -0.744 OA
ENDBRANCH  65  66
ENDBRANCH  44  58
BRANCH  45  70
ATOM     70  C   UNL A   1      43.596  23.331  26.891  1.00  0.00     0.058 A 
ATOM     71  C   UNL A   1      43.305  22.471  27.961  1.00  0.00     0.135 A 
ATOM     72  C   UNL A   1      43.458  22.820  25.589  1.00  0.00     0.135 A 
ATOM     73  F   UNL A   1      43.434  22.904  29.223  1.00  0.00    -0.206 F 
ATOM     74  C   UNL A   1      42.902  21.156  27.750  1.00  0.00     0.059 A 
ATOM     75  C   UNL A   1      43.022  21.522  25.352  1.00  0.00     0.059 A 
ATOM     76  F   UNL A   1      43.714  23.602  24.529  1.00  0.00    -0.206 F 
ATOM     77  C   UNL A   1      42.757  20.693  26.440  1.00  0.00     0.060 A 
BRANCH  77  78
ATOM     78  S   UNL A   1      42.176  19.004  26.174  1.00  0.00     0.124 S 
ATOM     79  O   UNL A   1      42.408  18.404  27.483  1.00  0.00    -0.237 OA
ATOM     80  O   UNL A   1      40.780  19.215  25.805  1.00  0.00    -0.237 OA
ATOM     81  O   UNL A   1      43.034  18.521  25.096  1.00  0.00    -0.744 OA
ENDBRANCH  77  78
ENDBRANCH  45  70
BRANCH  57  82
ATOM     82  C   UNL A   1      49.721  26.623  26.390  1.00  0.00     0.058 A 
ATOM     83  C   UNL A   1      50.257  26.754  25.099  1.00  0.00     0.135 A 
ATOM     84  C   UNL A   1      50.521  26.014  27.371  1.00  0.00     0.135 A 
ATOM     85  F   UNL A   1      49.535  27.326  24.122  1.00  0.00    -0.206 F 
ATOM     86  C   UNL A   1      51.515  26.251  24.779  1.00  0.00     0.059 A 
ATOM     87  C   UNL A   1      51.795  25.535  27.082  1.00  0.00     0.059 A 
ATOM     88  F   UNL A   1      50.066  25.876  28.626  1.00  0.00    -0.206 F 
ATOM     89  C   UNL A   1      52.273  25.637  25.777  1.00  0.00     0.060 A 
BRANCH  89  90
ATOM     90  S   UNL A   1      53.893  24.969  25.346  1.00  0.00     0.124 S 
ATOM     91  O   UNL A   1      54.123  25.577  24.039  1.00  0.00    -0.237 OA
ATOM     92  O   UNL A   1      54.734  25.462  26.432  1.00  0.00    -0.237 OA
ATOM     93  O   UNL A   1      53.675  23.526  25.337  1.00  0.00    -0.744 OA
ENDBRANCH  89  90
ENDBRANCH  57  82
ENDBRANCH  31  32
ENDBRANCH  24  26
ENDBRANCH  23  24
ENDBRANCH  22  23
ENDBRANCH   1  22
TORSDOF 18
ENDMDL
