MODEL 1
REMARK VINA RESULT:     -11.4      0.000      0.000
REMARK SMILES Cc1[nH]c2ccccc2c1[C@H]([NH3+])CC(=O)OCCOC(=O)c1ccc(-c2c3nc(c(-c4c(F)cc(S(=O)(=O)[O-])cc4F)c4ccc([nH]4)c(-c4c(F)cc(S(=O)(=O)[O-])cc4F)c4nc(c(-c5c(F)cc(S(=O)(=O)[O-])cc5F)c5ccc2[nH]5)C=C4)C=C3)cc1
REMARK SMILES IDX 18 1 17 2 16 3 14 4 15 5 13 6 11 7 10 8 1 9 2 10 3 11 4 12
REMARK SMILES IDX 9 14 5 15 8 16 6 17 7 18 12 19 19 23 20 24 21 25 22 26 23 27
REMARK SMILES IDX 87 28 24 29 86 30 25 31 26 32 27 33 80 34 28 35 85 36 79 37
REMARK SMILES IDX 81 38 29 39 84 40 78 41 77 42 30 44 64 45 43 46 63 47 44 48
REMARK SMILES IDX 47 49 62 50 82 51 45 52 46 53 61 55 83 56 48 57 31 58 32 59
REMARK SMILES IDX 41 60 33 61 34 62 40 63 42 64 35 65 36 66 37 67 38 68 39 69
REMARK SMILES IDX 65 70 66 71 75 72 67 73 68 74 74 75 76 76 69 77 70 78 71 79
REMARK SMILES IDX 72 80 73 81 49 82 50 83 59 84 51 85 52 86 58 87 60 88 53 89
REMARK SMILES IDX 54 90 55 91 56 92 57 93
REMARK H PARENT 3 13 12 20 12 21 12 22 81 43 47 54
REMARK Flexibility Score: inf
ROOT
ATOM      1  C   UNL A   1      39.969  22.205  26.383  1.00  0.00     0.275 C 
ENDROOT
BRANCH   1   2
ATOM      2  C   UNL A   1      38.648  21.770  25.752  1.00  0.00     0.274 C 
BRANCH   2   3
ATOM      3  O   UNL A   1      37.768  22.894  25.562  1.00  0.00    -0.462 OA
BRANCH   3   4
ATOM      4  C   UNL A   1      36.660  22.689  24.805  1.00  0.00     0.312 C 
ATOM      5  O   UNL A   1      36.666  22.528  23.590  1.00  0.00    -0.252 OA
BRANCH   4   6
ATOM      6  C   UNL A   1      35.389  22.752  25.617  1.00  0.00     0.192 C 
BRANCH   6   7
ATOM      7  C   UNL A   1      34.931  21.383  26.132  1.00  0.00     0.225 C 
BRANCH   7   8
ATOM      8  C   UNL A   1      33.824  20.791  25.264  1.00  0.00     0.038 A 
ATOM      9  C   UNL A   1      31.863  22.577  25.153  1.00  0.00     0.065 C 
ATOM     10  C   UNL A   1      32.586  21.307  24.875  1.00  0.00     0.022 A 
ATOM     11  N   UNL A   1      31.985  20.378  24.056  1.00  0.00    -0.358 N 
ATOM     12  C   UNL A   1      32.770  19.269  23.899  1.00  0.00     0.046 A 
ATOM     13  H   UNL A   1      31.102  20.496  23.638  1.00  0.00     0.166 HD
ATOM     14  C   UNL A   1      33.920  19.483  24.650  1.00  0.00     0.009 A 
ATOM     15  C   UNL A   1      32.543  18.103  23.155  1.00  0.00     0.027 A 
ATOM     16  C   UNL A   1      34.889  18.459  24.660  1.00  0.00     0.011 A 
ATOM     17  C   UNL A   1      33.526  17.111  23.184  1.00  0.00     0.002 A 
ATOM     18  C   UNL A   1      34.686  17.283  23.929  1.00  0.00     0.001 A 
ENDBRANCH   7   8
BRANCH   7  19
ATOM     19  N   UNL A   1      34.484  21.465  27.523  1.00  0.00    -0.351 N 
ATOM     20  H   UNL A   1      33.621  22.006  27.572  1.00  0.00     0.345 HD
ATOM     21  H   UNL A   1      35.202  21.920  28.086  1.00  0.00     0.345 HD
ATOM     22  H   UNL A   1      34.315  20.525  27.882  1.00  0.00     0.345 HD
ENDBRANCH   7  19
ENDBRANCH   6   7
ENDBRANCH   4   6
ENDBRANCH   3   4
ENDBRANCH   2   3
ENDBRANCH   1   2
BRANCH   1  23
ATOM     23  O   UNL A   1      39.848  23.537  26.911  1.00  0.00    -0.458 OA
BRANCH  23  24
ATOM     24  C   UNL A   1      40.965  24.296  26.866  1.00  0.00     0.338 C 
ATOM     25  O   UNL A   1      41.965  24.120  26.196  1.00  0.00    -0.246 OA
BRANCH  24  26
ATOM     26  C   UNL A   1      40.786  25.449  27.757  1.00  0.00     0.060 A 
ATOM     27  C   UNL A   1      41.812  26.389  27.851  1.00  0.00     0.016 A 
ATOM     28  C   UNL A   1      39.657  25.547  28.566  1.00  0.00     0.016 A 
ATOM     29  C   UNL A   1      41.738  27.407  28.800  1.00  0.00     0.010 A 
ATOM     30  C   UNL A   1      39.561  26.599  29.483  1.00  0.00     0.010 A 
ATOM     31  C   UNL A   1      40.613  27.521  29.627  1.00  0.00    -0.014 A 
BRANCH  31  32
ATOM     32  C   UNL A   1      40.550  28.586  30.662  1.00  0.00     0.031 A 
ATOM     33  C   UNL A   1      41.482  28.547  31.841  1.00  0.00     0.074 A 
ATOM     34  C   UNL A   1      39.658  29.588  30.540  1.00  0.00     0.049 A 
ATOM     35  N   UNL A   1      41.499  29.309  32.906  1.00  0.00    -0.248 NA
ATOM     36  C   UNL A   1      42.530  27.514  31.825  1.00  0.00     0.031 C 
ATOM     37  C   UNL A   1      38.723  29.759  29.426  1.00  0.00     0.029 A 
ATOM     38  N   UNL A   1      39.389  30.650  31.366  1.00  0.00    -0.354 N 
ATOM     39  C   UNL A   1      42.532  28.828  33.701  1.00  0.00     0.074 A 
ATOM     40  C   UNL A   1      43.116  27.703  32.999  1.00  0.00     0.031 C 
ATOM     41  C   UNL A   1      37.990  30.864  29.634  1.00  0.00     0.029 A 
ATOM     42  C   UNL A   1      38.363  31.449  30.919  1.00  0.00     0.049 A 
ATOM     43  H   UNL A   1      39.884  30.825  32.199  1.00  0.00     0.167 HD
ATOM     44  C   UNL A   1      42.956  29.284  34.904  1.00  0.00     0.037 A 
ATOM     45  C   UNL A   1      37.766  32.511  31.492  1.00  0.00     0.037 A 
ATOM     46  C   UNL A   1      42.395  30.422  35.585  1.00  0.00     0.049 A 
ATOM     47  C   UNL A   1      38.234  32.979  32.842  1.00  0.00     0.074 A 
ATOM     48  C   UNL A   1      42.768  30.970  36.800  1.00  0.00     0.029 A 
ATOM     49  N   UNL A   1      41.346  31.192  35.105  1.00  0.00    -0.354 N 
ATOM     50  N   UNL A   1      39.195  32.497  33.592  1.00  0.00    -0.248 NA
ATOM     51  C   UNL A   1      37.527  34.126  33.428  1.00  0.00     0.031 C 
ATOM     52  C   UNL A   1      41.926  32.056  37.067  1.00  0.00     0.029 A 
ATOM     53  C   UNL A   1      41.051  32.203  36.005  1.00  0.00     0.049 A 
ATOM     54  H   UNL A   1      40.880  31.043  34.251  1.00  0.00     0.167 HD
ATOM     55  C   UNL A   1      39.216  33.288  34.735  1.00  0.00     0.074 A 
ATOM     56  C   UNL A   1      38.181  34.288  34.571  1.00  0.00     0.031 C 
ATOM     57  C   UNL A   1      40.017  33.190  35.825  1.00  0.00     0.037 A 
BRANCH  44  58
ATOM     58  C   UNL A   1      44.071  28.533  35.577  1.00  0.00     0.058 A 
ATOM     59  C   UNL A   1      43.820  27.484  36.473  1.00  0.00     0.135 A 
ATOM     60  C   UNL A   1      45.410  28.850  35.293  1.00  0.00     0.135 A 
ATOM     61  F   UNL A   1      42.558  27.153  36.788  1.00  0.00    -0.206 F 
ATOM     62  C   UNL A   1      44.858  26.787  37.084  1.00  0.00     0.059 A 
ATOM     63  C   UNL A   1      46.464  28.153  35.878  1.00  0.00     0.059 A 
ATOM     64  F   UNL A   1      45.704  29.846  34.444  1.00  0.00    -0.206 F 
ATOM     65  C   UNL A   1      46.178  27.131  36.782  1.00  0.00     0.060 A 
BRANCH  65  66
ATOM     66  S   UNL A   1      47.518  26.219  37.578  1.00  0.00     0.124 S 
ATOM     67  O   UNL A   1      48.660  26.604  36.755  1.00  0.00    -0.237 OA
ATOM     68  O   UNL A   1      47.505  26.759  38.934  1.00  0.00    -0.237 OA
ATOM     69  O   UNL A   1      47.098  24.827  37.458  1.00  0.00    -0.744 OA
ENDBRANCH  65  66
ENDBRANCH  44  58
BRANCH  45  70
ATOM     70  C   UNL A   1      36.640  33.187  30.799  1.00  0.00     0.058 A 
ATOM     71  C   UNL A   1      35.320  33.025  31.242  1.00  0.00     0.135 A 
ATOM     72  C   UNL A   1      36.865  34.021  29.692  1.00  0.00     0.135 A 
ATOM     73  F   UNL A   1      35.055  32.230  32.289  1.00  0.00    -0.206 F 
ATOM     74  C   UNL A   1      34.258  33.661  30.607  1.00  0.00     0.059 A 
ATOM     75  C   UNL A   1      35.823  34.685  29.055  1.00  0.00     0.059 A 
ATOM     76  F   UNL A   1      38.113  34.214  29.239  1.00  0.00    -0.206 F 
ATOM     77  C   UNL A   1      34.521  34.492  29.515  1.00  0.00     0.060 A 
BRANCH  77  78
ATOM     78  S   UNL A   1      33.145  35.361  28.730  1.00  0.00     0.124 S 
ATOM     79  O   UNL A   1      32.507  34.285  27.983  1.00  0.00    -0.237 OA
ATOM     80  O   UNL A   1      32.402  35.871  29.879  1.00  0.00    -0.237 OA
ATOM     81  O   UNL A   1      33.814  36.381  27.926  1.00  0.00    -0.744 OA
ENDBRANCH  77  78
ENDBRANCH  45  70
BRANCH  57  82
ATOM     82  C   UNL A   1      39.817  34.204  36.915  1.00  0.00     0.058 A 
ATOM     83  C   UNL A   1      39.062  33.906  38.060  1.00  0.00     0.135 A 
ATOM     84  C   UNL A   1      40.418  35.469  36.831  1.00  0.00     0.135 A 
ATOM     85  F   UNL A   1      38.462  32.712  38.181  1.00  0.00    -0.206 F 
ATOM     86  C   UNL A   1      38.896  34.837  39.080  1.00  0.00     0.059 A 
ATOM     87  C   UNL A   1      40.281  36.408  37.848  1.00  0.00     0.059 A 
ATOM     88  F   UNL A   1      41.155  35.797  35.759  1.00  0.00    -0.206 F 
ATOM     89  C   UNL A   1      39.508  36.087  38.964  1.00  0.00     0.060 A 
BRANCH  89  90
ATOM     90  S   UNL A   1      39.313  37.279  40.306  1.00  0.00     0.124 S 
ATOM     91  O   UNL A   1      38.591  38.357  39.639  1.00  0.00    -0.237 OA
ATOM     92  O   UNL A   1      38.551  36.522  41.294  1.00  0.00    -0.237 OA
ATOM     93  O   UNL A   1      40.689  37.586  40.687  1.00  0.00    -0.744 OA
ENDBRANCH  89  90
ENDBRANCH  57  82
ENDBRANCH  31  32
ENDBRANCH  24  26
ENDBRANCH  23  24
ENDBRANCH   1  23
TORSDOF 17
ENDMDL
MODEL 2
REMARK VINA RESULT:     -11.1      5.699     11.212
REMARK SMILES Cc1[nH]c2ccccc2c1[C@H]([NH3+])CC(=O)OCCOC(=O)c1ccc(-c2c3nc(c(-c4c(F)cc(S(=O)(=O)[O-])cc4F)c4ccc([nH]4)c(-c4c(F)cc(S(=O)(=O)[O-])cc4F)c4nc(c(-c5c(F)cc(S(=O)(=O)[O-])cc5F)c5ccc2[nH]5)C=C4)C=C3)cc1
REMARK SMILES IDX 18 1 17 2 16 3 14 4 15 5 13 6 11 7 10 8 1 9 2 10 3 11 4 12
REMARK SMILES IDX 9 14 5 15 8 16 6 17 7 18 12 19 19 23 20 24 21 25 22 26 23 27
REMARK SMILES IDX 87 28 24 29 86 30 25 31 26 32 27 33 80 34 28 35 85 36 79 37
REMARK SMILES IDX 81 38 29 39 84 40 78 41 77 42 30 44 64 45 43 46 63 47 44 48
REMARK SMILES IDX 47 49 62 50 82 51 45 52 46 53 61 55 83 56 48 57 31 58 32 59
REMARK SMILES IDX 41 60 33 61 34 62 40 63 42 64 35 65 36 66 37 67 38 68 39 69
REMARK SMILES IDX 65 70 66 71 75 72 67 73 68 74 74 75 76 76 69 77 70 78 71 79
REMARK SMILES IDX 72 80 73 81 49 82 50 83 59 84 51 85 52 86 58 87 60 88 53 89
REMARK SMILES IDX 54 90 55 91 56 92 57 93
REMARK H PARENT 3 13 12 20 12 21 12 22 81 43 47 54
REMARK Flexibility Score: inf
ROOT
ATOM      1  C   UNL A   1      32.385  29.975  27.003  1.00  0.00     0.275 C 
ENDROOT
BRANCH   1   2
ATOM      2  C   UNL A   1      31.635  28.666  27.246  1.00  0.00     0.274 C 
BRANCH   2   3
ATOM      3  O   UNL A   1      32.271  27.568  26.566  1.00  0.00    -0.462 OA
BRANCH   3   4
ATOM      4  C   UNL A   1      31.467  26.564  26.132  1.00  0.00     0.312 C 
ATOM      5  O   UNL A   1      30.393  26.262  26.638  1.00  0.00    -0.252 OA
BRANCH   4   6
ATOM      6  C   UNL A   1      32.078  25.795  24.985  1.00  0.00     0.192 C 
BRANCH   6   7
ATOM      7  C   UNL A   1      31.258  25.881  23.693  1.00  0.00     0.225 C 
BRANCH   7   8
ATOM      8  C   UNL A   1      31.156  27.314  23.179  1.00  0.00     0.038 A 
ATOM      9  C   UNL A   1      33.618  28.127  22.608  1.00  0.00     0.065 C 
ATOM     10  C   UNL A   1      32.138  28.202  22.734  1.00  0.00     0.022 A 
ATOM     11  N   UNL A   1      31.506  29.361  22.343  1.00  0.00    -0.358 N 
ATOM     12  C   UNL A   1      30.153  29.276  22.521  1.00  0.00     0.046 A 
ATOM     13  H   UNL A   1      31.969  30.151  21.981  1.00  0.00     0.166 HD
ATOM     14  C   UNL A   1      29.898  28.018  23.056  1.00  0.00     0.009 A 
ATOM     15  C   UNL A   1      29.148  30.216  22.252  1.00  0.00     0.027 A 
ATOM     16  C   UNL A   1      28.556  27.695  23.345  1.00  0.00     0.011 A 
ATOM     17  C   UNL A   1      27.830  29.861  22.547  1.00  0.00     0.002 A 
ATOM     18  C   UNL A   1      27.534  28.617  23.090  1.00  0.00     0.001 A 
ENDBRANCH   7   8
BRANCH   7  19
ATOM     19  N   UNL A   1      29.918  25.321  23.879  1.00  0.00    -0.351 N 
ATOM     20  H   UNL A   1      29.995  24.353  24.192  1.00  0.00     0.345 HD
ATOM     21  H   UNL A   1      29.411  25.353  22.996  1.00  0.00     0.345 HD
ATOM     22  H   UNL A   1      29.417  25.865  24.580  1.00  0.00     0.345 HD
ENDBRANCH   7  19
ENDBRANCH   6   7
ENDBRANCH   4   6
ENDBRANCH   3   4
ENDBRANCH   2   3
ENDBRANCH   1   2
BRANCH   1  23
ATOM     23  O   UNL A   1      33.801  29.760  27.128  1.00  0.00    -0.458 OA
BRANCH  23  24
ATOM     24  C   UNL A   1      34.450  30.571  27.992  1.00  0.00     0.338 C 
ATOM     25  O   UNL A   1      34.017  31.551  28.570  1.00  0.00    -0.246 OA
BRANCH  24  26
ATOM     26  C   UNL A   1      35.813  30.064  28.182  1.00  0.00     0.060 A 
ATOM     27  C   UNL A   1      36.205  29.653  29.456  1.00  0.00     0.016 A 
ATOM     28  C   UNL A   1      36.728  30.087  27.131  1.00  0.00     0.016 A 
ATOM     29  C   UNL A   1      37.535  29.316  29.700  1.00  0.00     0.010 A 
ATOM     30  C   UNL A   1      38.050  29.698  27.366  1.00  0.00     0.010 A 
ATOM     31  C   UNL A   1      38.471  29.336  28.658  1.00  0.00    -0.014 A 
BRANCH  31  32
ATOM     32  C   UNL A   1      39.896  29.008  28.925  1.00  0.00     0.031 A 
ATOM     33  C   UNL A   1      40.811  30.046  29.515  1.00  0.00     0.074 A 
ATOM     34  C   UNL A   1      40.366  27.778  28.643  1.00  0.00     0.049 A 
ATOM     35  N   UNL A   1      42.105  29.994  29.704  1.00  0.00    -0.248 NA
ATOM     36  C   UNL A   1      40.191  31.311  29.942  1.00  0.00     0.031 C 
ATOM     37  C   UNL A   1      39.574  26.672  28.102  1.00  0.00     0.029 A 
ATOM     38  N   UNL A   1      41.628  27.253  28.766  1.00  0.00    -0.354 N 
ATOM     39  C   UNL A   1      42.461  31.227  30.239  1.00  0.00     0.074 A 
ATOM     40  C   UNL A   1      41.246  32.010  30.338  1.00  0.00     0.031 C 
ATOM     41  C   UNL A   1      40.364  25.598  27.948  1.00  0.00     0.029 A 
ATOM     42  C   UNL A   1      41.729  25.954  28.327  1.00  0.00     0.049 A 
ATOM     43  H   UNL A   1      42.389  27.758  29.135  1.00  0.00     0.167 HD
ATOM     44  C   UNL A   1      43.687  31.664  30.616  1.00  0.00     0.037 A 
ATOM     45  C   UNL A   1      42.804  25.150  28.209  1.00  0.00     0.037 A 
ATOM     46  C   UNL A   1      44.887  30.872  30.546  1.00  0.00     0.049 A 
ATOM     47  C   UNL A   1      44.158  25.669  28.604  1.00  0.00     0.074 A 
ATOM     48  C   UNL A   1      46.173  31.222  30.920  1.00  0.00     0.029 A 
ATOM     49  N   UNL A   1      44.949  29.568  30.079  1.00  0.00    -0.354 N 
ATOM     50  N   UNL A   1      44.481  26.845  29.084  1.00  0.00    -0.248 NA
ATOM     51  C   UNL A   1      45.296  24.755  28.429  1.00  0.00     0.031 C 
ATOM     52  C   UNL A   1      47.017  30.137  30.652  1.00  0.00     0.029 A 
ATOM     53  C   UNL A   1      46.251  29.102  30.144  1.00  0.00     0.049 A 
ATOM     54  H   UNL A   1      44.179  29.049  29.750  1.00  0.00     0.167 HD
ATOM     55  C   UNL A   1      45.857  26.811  29.277  1.00  0.00     0.074 A 
ATOM     56  C   UNL A   1      46.303  25.493  28.877  1.00  0.00     0.031 C 
ATOM     57  C   UNL A   1      46.677  27.786  29.740  1.00  0.00     0.037 A 
BRANCH  44  58
ATOM     58  C   UNL A   1      43.796  33.077  31.116  1.00  0.00     0.058 A 
ATOM     59  C   UNL A   1      44.023  34.153  30.246  1.00  0.00     0.135 A 
ATOM     60  C   UNL A   1      43.638  33.358  32.483  1.00  0.00     0.135 A 
ATOM     61  F   UNL A   1      44.195  33.935  28.933  1.00  0.00    -0.206 F 
ATOM     62  C   UNL A   1      44.113  35.460  30.716  1.00  0.00     0.059 A 
ATOM     63  C   UNL A   1      43.704  34.660  32.972  1.00  0.00     0.059 A 
ATOM     64  F   UNL A   1      43.420  32.364  33.357  1.00  0.00    -0.206 F 
ATOM     65  C   UNL A   1      43.955  35.703  32.082  1.00  0.00     0.060 A 
BRANCH  65  66
ATOM     66  S   UNL A   1      44.071  37.403  32.682  1.00  0.00     0.124 S 
ATOM     67  O   UNL A   1      43.023  37.424  33.697  1.00  0.00    -0.237 OA
ATOM     68  O   UNL A   1      45.440  37.468  33.184  1.00  0.00    -0.237 OA
ATOM     69  O   UNL A   1      43.807  38.201  31.490  1.00  0.00    -0.744 OA
ENDBRANCH  65  66
ENDBRANCH  44  58
BRANCH  45  70
ATOM     70  C   UNL A   1      42.641  23.777  27.667  1.00  0.00     0.058 A 
ATOM     71  C   UNL A   1      42.694  23.536  26.288  1.00  0.00     0.135 A 
ATOM     72  C   UNL A   1      42.447  22.680  28.521  1.00  0.00     0.135 A 
ATOM     73  F   UNL A   1      42.866  24.555  25.434  1.00  0.00    -0.206 F 
ATOM     74  C   UNL A   1      42.553  22.252  25.769  1.00  0.00     0.059 A 
ATOM     75  C   UNL A   1      42.326  21.385  28.028  1.00  0.00     0.059 A 
ATOM     76  F   UNL A   1      42.400  22.860  29.849  1.00  0.00    -0.206 F 
ATOM     77  C   UNL A   1      42.372  21.183  26.649  1.00  0.00     0.060 A 
BRANCH  77  78
ATOM     78  S   UNL A   1      42.248  19.511  25.974  1.00  0.00     0.124 S 
ATOM     79  O   UNL A   1      42.670  18.704  27.113  1.00  0.00    -0.237 OA
ATOM     80  O   UNL A   1      40.836  19.423  25.616  1.00  0.00    -0.237 OA
ATOM     81  O   UNL A   1      43.171  19.541  24.843  1.00  0.00    -0.744 OA
ENDBRANCH  77  78
ENDBRANCH  45  70
BRANCH  57  82
ATOM     82  C   UNL A   1      48.138  27.456  29.856  1.00  0.00     0.058 A 
ATOM     83  C   UNL A   1      49.045  27.790  28.839  1.00  0.00     0.135 A 
ATOM     84  C   UNL A   1      48.638  26.834  31.009  1.00  0.00     0.135 A 
ATOM     85  F   UNL A   1      48.612  28.378  27.714  1.00  0.00    -0.206 F 
ATOM     86  C   UNL A   1      50.402  27.504  28.956  1.00  0.00     0.059 A 
ATOM     87  C   UNL A   1      49.994  26.555  31.156  1.00  0.00     0.059 A 
ATOM     88  F   UNL A   1      47.811  26.501  32.012  1.00  0.00    -0.206 F 
ATOM     89  C   UNL A   1      50.866  26.884  30.118  1.00  0.00     0.060 A 
BRANCH  89  90
ATOM     90  S   UNL A   1      52.632  26.544  30.276  1.00  0.00     0.124 S 
ATOM     91  O   UNL A   1      52.960  26.066  28.937  1.00  0.00    -0.237 OA
ATOM     92  O   UNL A   1      53.176  27.850  30.634  1.00  0.00    -0.237 OA
ATOM     93  O   UNL A   1      52.689  25.538  31.334  1.00  0.00    -0.744 OA
ENDBRANCH  89  90
ENDBRANCH  57  82
ENDBRANCH  31  32
ENDBRANCH  24  26
ENDBRANCH  23  24
ENDBRANCH   1  23
TORSDOF 17
ENDMDL
MODEL 3
REMARK VINA RESULT:     -11.0      7.329     12.723
REMARK SMILES Cc1[nH]c2ccccc2c1[C@H]([NH3+])CC(=O)OCCOC(=O)c1ccc(-c2c3nc(c(-c4c(F)cc(S(=O)(=O)[O-])cc4F)c4ccc([nH]4)c(-c4c(F)cc(S(=O)(=O)[O-])cc4F)c4nc(c(-c5c(F)cc(S(=O)(=O)[O-])cc5F)c5ccc2[nH]5)C=C4)C=C3)cc1
REMARK SMILES IDX 18 1 17 2 16 3 14 4 15 5 13 6 11 7 10 8 1 9 2 10 3 11 4 12
REMARK SMILES IDX 9 14 5 15 8 16 6 17 7 18 12 19 19 23 20 24 21 25 22 26 23 27
REMARK SMILES IDX 87 28 24 29 86 30 25 31 26 32 27 33 80 34 28 35 85 36 79 37
REMARK SMILES IDX 81 38 29 39 84 40 78 41 77 42 30 44 64 45 43 46 63 47 44 48
REMARK SMILES IDX 47 49 62 50 82 51 45 52 46 53 61 55 83 56 48 57 31 58 32 59
REMARK SMILES IDX 41 60 33 61 34 62 40 63 42 64 35 65 36 66 37 67 38 68 39 69
REMARK SMILES IDX 65 70 66 71 75 72 67 73 68 74 74 75 76 76 69 77 70 78 71 79
REMARK SMILES IDX 72 80 73 81 49 82 50 83 59 84 51 85 52 86 58 87 60 88 53 89
REMARK SMILES IDX 54 90 55 91 56 92 57 93
REMARK H PARENT 3 13 12 20 12 21 12 22 81 43 47 54
REMARK Flexibility Score: inf
ROOT
ATOM      1  C   UNL A   1      34.886  31.544  28.228  1.00  0.00     0.275 C 
ENDROOT
BRANCH   1   2
ATOM      2  C   UNL A   1      33.760  30.752  27.566  1.00  0.00     0.274 C 
BRANCH   2   3
ATOM      3  O   UNL A   1      33.958  29.335  27.726  1.00  0.00    -0.462 OA
BRANCH   3   4
ATOM      4  C   UNL A   1      33.414  28.526  26.781  1.00  0.00     0.312 C 
ATOM      5  O   UNL A   1      33.986  27.573  26.266  1.00  0.00    -0.252 OA
BRANCH   4   6
ATOM      6  C   UNL A   1      32.032  28.973  26.370  1.00  0.00     0.192 C 
BRANCH   6   7
ATOM      7  C   UNL A   1      32.001  29.664  25.002  1.00  0.00     0.225 C 
BRANCH   7   8
ATOM      8  C   UNL A   1      30.911  29.093  24.101  1.00  0.00     0.038 A 
ATOM      9  C   UNL A   1      31.549  26.566  23.591  1.00  0.00     0.065 C 
ATOM     10  C   UNL A   1      30.749  27.820  23.548  1.00  0.00     0.022 A 
ATOM     11  N   UNL A   1      29.570  27.820  22.838  1.00  0.00    -0.358 N 
ATOM     12  C   UNL A   1      28.955  29.040  22.892  1.00  0.00     0.046 A 
ATOM     13  H   UNL A   1      29.214  27.041  22.352  1.00  0.00     0.166 HD
ATOM     14  C   UNL A   1      29.770  29.866  23.658  1.00  0.00     0.009 A 
ATOM     15  C   UNL A   1      27.749  29.468  22.318  1.00  0.00     0.027 A 
ATOM     16  C   UNL A   1      29.350  31.199  23.847  1.00  0.00     0.011 A 
ATOM     17  C   UNL A   1      27.362  30.792  22.530  1.00  0.00     0.002 A 
ATOM     18  C   UNL A   1      28.153  31.652  23.283  1.00  0.00     0.001 A 
ENDBRANCH   7   8
BRANCH   7  19
ATOM     19  N   UNL A   1      33.301  29.571  24.335  1.00  0.00    -0.351 N 
ATOM     20  H   UNL A   1      34.008  30.040  24.901  1.00  0.00     0.345 HD
ATOM     21  H   UNL A   1      33.246  30.019  23.420  1.00  0.00     0.345 HD
ATOM     22  H   UNL A   1      33.555  28.590  24.219  1.00  0.00     0.345 HD
ENDBRANCH   7  19
ENDBRANCH   6   7
ENDBRANCH   4   6
ENDBRANCH   3   4
ENDBRANCH   2   3
ENDBRANCH   1   2
BRANCH   1  23
ATOM     23  O   UNL A   1      35.636  30.690  29.109  1.00  0.00    -0.458 OA
BRANCH  23  24
ATOM     24  C   UNL A   1      36.600  31.293  29.839  1.00  0.00     0.338 C 
ATOM     25  O   UNL A   1      36.478  32.206  30.635  1.00  0.00    -0.246 OA
BRANCH  24  26
ATOM     26  C   UNL A   1      37.883  30.638  29.559  1.00  0.00     0.060 A 
ATOM     27  C   UNL A   1      38.824  30.537  30.583  1.00  0.00     0.016 A 
ATOM     28  C   UNL A   1      38.192  30.216  28.267  1.00  0.00     0.016 A 
ATOM     29  C   UNL A   1      40.105  30.064  30.308  1.00  0.00     0.010 A 
ATOM     30  C   UNL A   1      39.462  29.692  28.004  1.00  0.00     0.010 A 
ATOM     31  C   UNL A   1      40.437  29.637  29.016  1.00  0.00    -0.014 A 
BRANCH  31  32
ATOM     32  C   UNL A   1      41.813  29.164  28.715  1.00  0.00     0.031 A 
ATOM     33  C   UNL A   1      42.969  30.125  28.760  1.00  0.00     0.074 A 
ATOM     34  C   UNL A   1      42.025  27.870  28.405  1.00  0.00     0.049 A 
ATOM     35  N   UNL A   1      44.216  29.935  28.411  1.00  0.00    -0.248 NA
ATOM     36  C   UNL A   1      42.685  31.480  29.258  1.00  0.00     0.031 C 
ATOM     37  C   UNL A   1      40.995  26.831  28.361  1.00  0.00     0.029 A 
ATOM     38  N   UNL A   1      43.178  27.210  28.062  1.00  0.00    -0.354 N 
ATOM     39  C   UNL A   1      44.858  31.151  28.613  1.00  0.00     0.074 A 
ATOM     40  C   UNL A   1      43.860  32.076  29.110  1.00  0.00     0.031 C 
ATOM     41  C   UNL A   1      41.563  25.663  28.020  1.00  0.00     0.029 A 
ATOM     42  C   UNL A   1      42.985  25.881  27.768  1.00  0.00     0.049 A 
ATOM     43  H   UNL A   1      44.060  27.646  28.030  1.00  0.00     0.167 HD
ATOM     44  C   UNL A   1      46.159  31.466  28.407  1.00  0.00     0.037 A 
ATOM     45  C   UNL A   1      43.846  24.950  27.314  1.00  0.00     0.037 A 
ATOM     46  C   UNL A   1      47.155  30.535  27.944  1.00  0.00     0.049 A 
ATOM     47  C   UNL A   1      45.278  25.331  27.062  1.00  0.00     0.074 A 
ATOM     48  C   UNL A   1      48.503  30.756  27.719  1.00  0.00     0.029 A 
ATOM     49  N   UNL A   1      46.914  29.203  27.641  1.00  0.00    -0.354 N 
ATOM     50  N   UNL A   1      45.862  26.492  27.234  1.00  0.00    -0.248 NA
ATOM     51  C   UNL A   1      46.164  24.280  26.542  1.00  0.00     0.031 C 
ATOM     52  C   UNL A   1      49.072  29.564  27.255  1.00  0.00     0.029 A 
ATOM     53  C   UNL A   1      48.085  28.593  27.221  1.00  0.00     0.049 A 
ATOM     54  H   UNL A   1      46.040  28.757  27.715  1.00  0.00     0.167 HD
ATOM     55  C   UNL A   1      47.186  26.310  26.853  1.00  0.00     0.074 A 
ATOM     56  C   UNL A   1      47.321  24.923  26.456  1.00  0.00     0.031 C 
ATOM     57  C   UNL A   1      48.199  27.211  26.829  1.00  0.00     0.037 A 
BRANCH  44  58
ATOM     58  C   UNL A   1      46.577  32.887  28.658  1.00  0.00     0.058 A 
ATOM     59  C   UNL A   1      46.514  33.864  27.654  1.00  0.00     0.135 A 
ATOM     60  C   UNL A   1      47.017  33.281  29.932  1.00  0.00     0.135 A 
ATOM     61  F   UNL A   1      46.114  33.535  26.415  1.00  0.00    -0.206 F 
ATOM     62  C   UNL A   1      46.893  35.181  27.896  1.00  0.00     0.059 A 
ATOM     63  C   UNL A   1      47.382  34.597  30.202  1.00  0.00     0.059 A 
ATOM     64  F   UNL A   1      47.097  32.385  30.927  1.00  0.00    -0.206 F 
ATOM     65  C   UNL A   1      47.330  35.537  29.174  1.00  0.00     0.060 A 
BRANCH  65  66
ATOM     66  S   UNL A   1      47.817  37.249  29.481  1.00  0.00     0.124 S 
ATOM     67  O   UNL A   1      47.675  37.834  28.151  1.00  0.00    -0.237 OA
ATOM     68  O   UNL A   1      46.838  37.684  30.471  1.00  0.00    -0.237 OA
ATOM     69  O   UNL A   1      49.186  37.128  29.971  1.00  0.00    -0.744 OA
ENDBRANCH  65  66
ENDBRANCH  44  58
BRANCH  45  70
ATOM     70  C   UNL A   1      43.365  23.571  27.042  1.00  0.00     0.058 A 
ATOM     71  C   UNL A   1      43.130  23.135  25.731  1.00  0.00     0.135 A 
ATOM     72  C   UNL A   1      43.149  22.660  28.088  1.00  0.00     0.135 A 
ATOM     73  F   UNL A   1      43.313  23.974  24.701  1.00  0.00    -0.206 F 
ATOM     74  C   UNL A   1      42.690  21.842  25.464  1.00  0.00     0.059 A 
ATOM     75  C   UNL A   1      42.730  21.357  27.845  1.00  0.00     0.059 A 
ATOM     76  F   UNL A   1      43.370  23.030  29.359  1.00  0.00    -0.206 F 
ATOM     77  C   UNL A   1      42.495  20.960  26.529  1.00  0.00     0.060 A 
BRANCH  77  78
ATOM     78  S   UNL A   1      41.979  19.265  26.173  1.00  0.00     0.124 S 
ATOM     79  O   UNL A   1      42.356  18.580  27.404  1.00  0.00    -0.237 OA
ATOM     80  O   UNL A   1      40.546  19.418  25.939  1.00  0.00    -0.237 OA
ATOM     81  O   UNL A   1      42.764  18.921  24.991  1.00  0.00    -0.744 OA
ENDBRANCH  77  78
ENDBRANCH  45  70
BRANCH  57  82
ATOM     82  C   UNL A   1      49.544  26.720  26.377  1.00  0.00     0.058 A 
ATOM     83  C   UNL A   1      49.975  26.887  25.052  1.00  0.00     0.135 A 
ATOM     84  C   UNL A   1      50.423  26.111  27.285  1.00  0.00     0.135 A 
ATOM     85  F   UNL A   1      49.165  27.455  24.145  1.00  0.00    -0.206 F 
ATOM     86  C   UNL A   1      51.230  26.451  24.638  1.00  0.00     0.059 A 
ATOM     87  C   UNL A   1      51.690  25.686  26.898  1.00  0.00     0.059 A 
ATOM     88  F   UNL A   1      50.059  25.936  28.565  1.00  0.00    -0.206 F 
ATOM     89  C   UNL A   1      52.080  25.850  25.569  1.00  0.00     0.060 A 
BRANCH  89  90
ATOM     90  S   UNL A   1      53.719  25.316  25.032  1.00  0.00     0.124 S 
ATOM     91  O   UNL A   1      54.578  25.983  26.004  1.00  0.00    -0.237 OA
ATOM     92  O   UNL A   1      53.634  23.863  25.153  1.00  0.00    -0.237 OA
ATOM     93  O   UNL A   1      53.807  25.819  23.664  1.00  0.00    -0.744 OA
ENDBRANCH  89  90
ENDBRANCH  57  82
ENDBRANCH  31  32
ENDBRANCH  24  26
ENDBRANCH  23  24
ENDBRANCH   1  23
TORSDOF 17
ENDMDL
