MODEL 1
REMARK VINA RESULT:     -11.8      0.000      0.000
REMARK SMILES CC[C@@H](C)c1ccccc1NC(=O)[C@@H]1[C@@H](C(=O)OCCOC(=O)c2ccc(-c3c4nc(c(-c5c(F)cc(S(=O)(=O)[O-])cc5F)c5ccc([nH]5)c(-c5c(F)cc(S(=O)(=O)[O-])cc5F)c5nc(c(-c6c(F)cc(S(=O)(=O)[O-])cc6F)c6ccc3[nH]6)C=C5)C=C4)cc2)[C@@H]2C=C[C@H]1C2
REMARK SMILES IDX 19 1 18 2 16 3 17 4 15 5 14 6 93 7 90 8 92 9 94 10 91 11
REMARK SMILES IDX 12 12 11 13 13 15 10 16 5 17 6 18 7 19 9 20 8 21 3 22 4 23
REMARK SMILES IDX 2 24 1 25 20 26 21 27 22 28 23 29 24 30 25 31 89 32 26 33
REMARK SMILES IDX 88 34 27 35 28 36 29 37 82 38 30 39 87 40 81 41 83 42 31 43
REMARK SMILES IDX 86 44 80 45 79 46 32 48 66 49 45 50 65 51 46 52 49 53 64 54
REMARK SMILES IDX 84 55 47 56 48 57 63 59 85 60 50 61 33 62 34 63 43 64 35 65
REMARK SMILES IDX 36 66 42 67 44 68 37 69 38 70 39 71 40 72 41 73 67 74 68 75
REMARK SMILES IDX 77 76 69 77 70 78 76 79 78 80 71 81 72 82 73 83 74 84 75 85
REMARK SMILES IDX 51 86 52 87 61 88 53 89 54 90 60 91 62 92 55 93 56 94 57 95
REMARK SMILES IDX 58 96 59 97
REMARK H PARENT 11 14 83 47 49 58
REMARK Flexibility Score: inf
ROOT
ATOM      1  C   UNL A   1      33.132  29.530  27.001  1.00  0.00     0.274 C 
ENDROOT
BRANCH   1   2
ATOM      2  O   UNL A   1      33.200  29.374  25.568  1.00  0.00    -0.462 OA
BRANCH   2   3
ATOM      3  C   UNL A   1      32.029  29.061  24.954  1.00  0.00     0.310 C 
ATOM      4  O   UNL A   1      31.070  29.821  24.867  1.00  0.00    -0.252 OA
BRANCH   3   5
ATOM      5  C   UNL A   1      32.035  27.702  24.288  1.00  0.00     0.119 C 
ATOM      6  C   UNL A   1      33.258  26.748  24.602  1.00  0.00     0.100 C 
ATOM      7  C   UNL A   1      33.737  26.425  23.161  1.00  0.00     0.025 C 
ATOM      8  C   UNL A   1      32.092  27.856  22.751  1.00  0.00     0.027 C 
ATOM      9  C   UNL A   1      32.678  25.677  22.386  1.00  0.00    -0.027 C 
ATOM     10  C   UNL A   1      33.588  27.794  22.484  1.00  0.00     0.017 C 
ATOM     11  C   UNL A   1      31.689  26.542  22.135  1.00  0.00    -0.027 C 
BRANCH   6  12
ATOM     12  C   UNL A   1      32.781  25.695  25.616  1.00  0.00     0.228 C 
ATOM     13  N   UNL A   1      33.329  24.467  25.833  1.00  0.00    -0.326 N 
ATOM     14  H   UNL A   1      32.854  23.919  26.500  1.00  0.00     0.169 HD
ATOM     15  O   UNL A   1      31.808  25.975  26.335  1.00  0.00    -0.274 OA
BRANCH  13  16
ATOM     16  C   UNL A   1      34.449  23.852  25.269  1.00  0.00     0.044 A 
ATOM     17  C   UNL A   1      34.304  22.847  24.285  1.00  0.00    -0.022 A 
ATOM     18  C   UNL A   1      35.459  22.517  23.546  1.00  0.00     0.006 A 
ATOM     19  C   UNL A   1      36.718  23.023  23.882  1.00  0.00     0.000 A 
ATOM     20  C   UNL A   1      35.724  24.242  25.689  1.00  0.00     0.026 A 
ATOM     21  C   UNL A   1      36.859  23.836  24.995  1.00  0.00     0.002 A 
BRANCH  17  22
ATOM     22  C   UNL A   1      33.000  22.057  24.086  1.00  0.00     0.018 C 
ATOM     23  C   UNL A   1      33.127  20.560  24.446  1.00  0.00     0.013 C 
BRANCH  22  24
ATOM     24  C   UNL A   1      32.327  22.191  22.700  1.00  0.00     0.005 C 
ATOM     25  C   UNL A   1      31.904  20.831  22.138  1.00  0.00     0.004 C 
ENDBRANCH  22  24
ENDBRANCH  17  22
ENDBRANCH  13  16
ENDBRANCH   6  12
ENDBRANCH   3   5
ENDBRANCH   2   3
ENDBRANCH   1   2
BRANCH   1  26
ATOM     26  C   UNL A   1      34.274  30.412  27.502  1.00  0.00     0.275 C 
BRANCH  26  27
ATOM     27  O   UNL A   1      34.993  29.727  28.540  1.00  0.00    -0.458 OA
BRANCH  27  28
ATOM     28  C   UNL A   1      35.985  30.435  29.130  1.00  0.00     0.338 C 
ATOM     29  O   UNL A   1      35.857  31.447  29.798  1.00  0.00    -0.246 OA
BRANCH  28  30
ATOM     30  C   UNL A   1      37.298  29.798  28.877  1.00  0.00     0.060 A 
ATOM     31  C   UNL A   1      38.061  29.293  29.926  1.00  0.00     0.016 A 
ATOM     32  C   UNL A   1      37.833  29.821  27.588  1.00  0.00     0.016 A 
ATOM     33  C   UNL A   1      39.402  28.964  29.720  1.00  0.00     0.010 A 
ATOM     34  C   UNL A   1      39.133  29.351  27.360  1.00  0.00     0.010 A 
ATOM     35  C   UNL A   1      39.959  28.967  28.430  1.00  0.00    -0.014 A 
BRANCH  35  36
ATOM     36  C   UNL A   1      41.388  28.586  28.209  1.00  0.00     0.031 A 
ATOM     37  C   UNL A   1      42.493  29.610  28.340  1.00  0.00     0.074 A 
ATOM     38  C   UNL A   1      41.712  27.313  27.891  1.00  0.00     0.049 A 
ATOM     39  N   UNL A   1      43.761  29.508  28.021  1.00  0.00    -0.248 NA
ATOM     40  C   UNL A   1      42.125  30.929  28.878  1.00  0.00     0.031 C 
ATOM     41  C   UNL A   1      40.763  26.208  27.733  1.00  0.00     0.029 A 
ATOM     42  N   UNL A   1      42.934  26.729  27.654  1.00  0.00    -0.354 N 
ATOM     43  C   UNL A   1      44.320  30.762  28.249  1.00  0.00     0.074 A 
ATOM     44  C   UNL A   1      43.255  31.610  28.739  1.00  0.00     0.031 C 
ATOM     45  C   UNL A   1      41.437  25.075  27.493  1.00  0.00     0.029 A 
ATOM     46  C   UNL A   1      42.857  25.382  27.383  1.00  0.00     0.049 A 
ATOM     47  H   UNL A   1      43.782  27.227  27.677  1.00  0.00     0.167 HD
ATOM     48  C   UNL A   1      45.600  31.169  28.068  1.00  0.00     0.037 A 
ATOM     49  C   UNL A   1      43.811  24.493  27.049  1.00  0.00     0.037 A 
ATOM     50  C   UNL A   1      46.679  30.306  27.652  1.00  0.00     0.049 A 
ATOM     51  C   UNL A   1      45.229  24.956  26.900  1.00  0.00     0.074 A 
ATOM     52  C   UNL A   1      48.012  30.624  27.454  1.00  0.00     0.029 A 
ATOM     53  N   UNL A   1      46.553  28.948  27.400  1.00  0.00    -0.354 N 
ATOM     54  N   UNL A   1      45.720  26.163  27.049  1.00  0.00    -0.248 NA
ATOM     55  C   UNL A   1      46.221  23.941  26.520  1.00  0.00     0.031 C 
ATOM     56  C   UNL A   1      48.690  29.461  27.067  1.00  0.00     0.029 A 
ATOM     57  C   UNL A   1      47.785  28.413  27.054  1.00  0.00     0.049 A 
ATOM     58  H   UNL A   1      45.714  28.438  27.459  1.00  0.00     0.167 HD
ATOM     59  C   UNL A   1      47.077  26.054  26.776  1.00  0.00     0.074 A 
ATOM     60  C   UNL A   1      47.335  24.657  26.485  1.00  0.00     0.031 C 
ATOM     61  C   UNL A   1      48.024  27.024  26.758  1.00  0.00     0.037 A 
BRANCH  48  62
ATOM     62  C   UNL A   1      45.910  32.626  28.289  1.00  0.00     0.058 A 
ATOM     63  C   UNL A   1      45.807  33.575  27.261  1.00  0.00     0.135 A 
ATOM     64  C   UNL A   1      46.279  33.084  29.565  1.00  0.00     0.135 A 
ATOM     65  F   UNL A   1      45.473  33.193  26.018  1.00  0.00    -0.206 F 
ATOM     66  C   UNL A   1      46.083  34.923  27.483  1.00  0.00     0.059 A 
ATOM     67  C   UNL A   1      46.538  34.429  29.816  1.00  0.00     0.059 A 
ATOM     68  F   UNL A   1      46.390  32.220  30.587  1.00  0.00    -0.206 F 
ATOM     69  C   UNL A   1      46.451  35.339  28.764  1.00  0.00     0.060 A 
BRANCH  69  70
ATOM     70  S   UNL A   1      46.805  37.089  29.043  1.00  0.00     0.124 S 
ATOM     71  O   UNL A   1      47.576  37.035  30.282  1.00  0.00    -0.237 OA
ATOM     72  O   UNL A   1      47.555  37.454  27.846  1.00  0.00    -0.237 OA
ATOM     73  O   UNL A   1      45.479  37.690  29.154  1.00  0.00    -0.744 OA
ENDBRANCH  69  70
ENDBRANCH  48  62
BRANCH  49  74
ATOM     74  C   UNL A   1      43.439  23.073  26.807  1.00  0.00     0.058 A 
ATOM     75  C   UNL A   1      43.428  22.543  25.510  1.00  0.00     0.135 A 
ATOM     76  C   UNL A   1      43.132  22.212  27.872  1.00  0.00     0.135 A 
ATOM     77  F   UNL A   1      43.705  23.331  24.460  1.00  0.00    -0.206 F 
ATOM     78  C   UNL A   1      43.126  21.205  25.273  1.00  0.00     0.059 A 
ATOM     79  C   UNL A   1      42.852  20.866  27.664  1.00  0.00     0.059 A 
ATOM     80  F   UNL A   1      43.143  22.670  29.133  1.00  0.00    -0.206 F 
ATOM     81  C   UNL A   1      42.845  20.373  26.359  1.00  0.00     0.060 A 
BRANCH  81  82
ATOM     82  S   UNL A   1      42.534  18.620  26.059  1.00  0.00     0.124 S 
ATOM     83  O   UNL A   1      41.118  18.629  25.711  1.00  0.00    -0.237 OA
ATOM     84  O   UNL A   1      43.458  18.320  24.970  1.00  0.00    -0.237 OA
ATOM     85  O   UNL A   1      42.867  18.001  27.339  1.00  0.00    -0.744 OA
ENDBRANCH  81  82
ENDBRANCH  49  74
BRANCH  61  86
ATOM     86  C   UNL A   1      49.423  26.593  26.427  1.00  0.00     0.058 A 
ATOM     87  C   UNL A   1      49.954  26.757  25.139  1.00  0.00     0.135 A 
ATOM     88  C   UNL A   1      50.232  25.989  27.402  1.00  0.00     0.135 A 
ATOM     89  F   UNL A   1      49.216  27.322  24.171  1.00  0.00    -0.206 F 
ATOM     90  C   UNL A   1      51.227  26.297  24.815  1.00  0.00     0.059 A 
ATOM     91  C   UNL A   1      51.515  25.540  27.106  1.00  0.00     0.059 A 
ATOM     92  F   UNL A   1      49.772  25.819  28.652  1.00  0.00    -0.206 F 
ATOM     93  C   UNL A   1      51.994  25.679  25.803  1.00  0.00     0.060 A 
BRANCH  93  94
ATOM     94  S   UNL A   1      53.635  25.061  25.375  1.00  0.00     0.124 S 
ATOM     95  O   UNL A   1      53.430  23.617  25.440  1.00  0.00    -0.237 OA
ATOM     96  O   UNL A   1      53.844  25.610  24.039  1.00  0.00    -0.237 OA
ATOM     97  O   UNL A   1      54.490  25.623  26.417  1.00  0.00    -0.744 OA
ENDBRANCH  93  94
ENDBRANCH  61  86
ENDBRANCH  35  36
ENDBRANCH  28  30
ENDBRANCH  27  28
ENDBRANCH  26  27
ENDBRANCH   1  26
TORSDOF 18
ENDMDL
MODEL 2
REMARK VINA RESULT:     -11.7      6.668     11.975
REMARK SMILES CC[C@@H](C)c1ccccc1NC(=O)[C@@H]1[C@@H](C(=O)OCCOC(=O)c2ccc(-c3c4nc(c(-c5c(F)cc(S(=O)(=O)[O-])cc5F)c5ccc([nH]5)c(-c5c(F)cc(S(=O)(=O)[O-])cc5F)c5nc(c(-c6c(F)cc(S(=O)(=O)[O-])cc6F)c6ccc3[nH]6)C=C5)C=C4)cc2)[C@@H]2C=C[C@H]1C2
REMARK SMILES IDX 19 1 18 2 16 3 17 4 15 5 14 6 93 7 90 8 92 9 94 10 91 11
REMARK SMILES IDX 12 12 11 13 13 15 10 16 5 17 6 18 7 19 9 20 8 21 3 22 4 23
REMARK SMILES IDX 2 24 1 25 20 26 21 27 22 28 23 29 24 30 25 31 89 32 26 33
REMARK SMILES IDX 88 34 27 35 28 36 29 37 82 38 30 39 87 40 81 41 83 42 31 43
REMARK SMILES IDX 86 44 80 45 79 46 32 48 66 49 45 50 65 51 46 52 49 53 64 54
REMARK SMILES IDX 84 55 47 56 48 57 63 59 85 60 50 61 33 62 34 63 43 64 35 65
REMARK SMILES IDX 36 66 42 67 44 68 37 69 38 70 39 71 40 72 41 73 67 74 68 75
REMARK SMILES IDX 77 76 69 77 70 78 76 79 78 80 71 81 72 82 73 83 74 84 75 85
REMARK SMILES IDX 51 86 52 87 61 88 53 89 54 90 60 91 62 92 55 93 56 94 57 95
REMARK SMILES IDX 58 96 59 97
REMARK H PARENT 11 14 83 47 49 58
REMARK Flexibility Score: inf
ROOT
ATOM      1  C   UNL A   1      37.758  23.200  25.759  1.00  0.00     0.274 C 
ENDROOT
BRANCH   1   2
ATOM      2  O   UNL A   1      36.922  22.314  24.986  1.00  0.00    -0.462 OA
BRANCH   2   3
ATOM      3  C   UNL A   1      36.280  22.881  23.931  1.00  0.00     0.310 C 
ATOM      4  O   UNL A   1      36.809  23.125  22.851  1.00  0.00    -0.252 OA
BRANCH   3   5
ATOM      5  C   UNL A   1      34.803  23.106  24.166  1.00  0.00     0.119 C 
ATOM      6  C   UNL A   1      34.375  24.485  24.811  1.00  0.00     0.100 C 
ATOM      7  C   UNL A   1      33.542  23.982  26.021  1.00  0.00     0.025 C 
ATOM      8  C   UNL A   1      34.252  22.062  25.164  1.00  0.00     0.027 C 
ATOM      9  C   UNL A   1      32.321  23.218  25.566  1.00  0.00    -0.027 C 
ATOM     10  C   UNL A   1      34.391  22.793  26.491  1.00  0.00     0.017 C 
ATOM     11  C   UNL A   1      32.750  22.059  25.055  1.00  0.00    -0.027 C 
BRANCH   6  12
ATOM     12  C   UNL A   1      33.822  25.376  23.686  1.00  0.00     0.228 C 
ATOM     13  N   UNL A   1      33.130  26.540  23.834  1.00  0.00    -0.326 N 
ATOM     14  H   UNL A   1      32.824  26.945  22.990  1.00  0.00     0.169 HD
ATOM     15  O   UNL A   1      34.027  25.029  22.512  1.00  0.00    -0.274 OA
BRANCH  13  16
ATOM     16  C   UNL A   1      32.779  27.256  24.982  1.00  0.00     0.044 A 
ATOM     17  C   UNL A   1      31.437  27.299  25.425  1.00  0.00    -0.022 A 
ATOM     18  C   UNL A   1      31.224  27.759  26.741  1.00  0.00     0.006 A 
ATOM     19  C   UNL A   1      32.255  28.309  27.506  1.00  0.00     0.000 A 
ATOM     20  C   UNL A   1      33.773  27.935  25.692  1.00  0.00     0.026 A 
ATOM     21  C   UNL A   1      33.518  28.456  26.956  1.00  0.00     0.002 A 
BRANCH  17  22
ATOM     22  C   UNL A   1      30.245  26.978  24.509  1.00  0.00     0.018 C 
ATOM     23  C   UNL A   1      30.144  25.482  24.134  1.00  0.00     0.013 C 
BRANCH  22  24
ATOM     24  C   UNL A   1      30.120  27.833  23.228  1.00  0.00     0.005 C 
ATOM     25  C   UNL A   1      30.261  29.329  23.525  1.00  0.00     0.004 C 
ENDBRANCH  22  24
ENDBRANCH  17  22
ENDBRANCH  13  16
ENDBRANCH   6  12
ENDBRANCH   3   5
ENDBRANCH   2   3
ENDBRANCH   1   2
BRANCH   1  26
ATOM     26  C   UNL A   1      39.070  22.515  26.134  1.00  0.00     0.275 C 
BRANCH  26  27
ATOM     27  O   UNL A   1      39.668  23.195  27.249  1.00  0.00    -0.458 OA
BRANCH  27  28
ATOM     28  C   UNL A   1      40.623  24.103  26.938  1.00  0.00     0.338 C 
ATOM     29  O   UNL A   1      41.495  23.978  26.095  1.00  0.00    -0.246 OA
BRANCH  28  30
ATOM     30  C   UNL A   1      40.466  25.324  27.760  1.00  0.00     0.060 A 
ATOM     31  C   UNL A   1      41.457  26.303  27.783  1.00  0.00     0.016 A 
ATOM     32  C   UNL A   1      39.372  25.435  28.619  1.00  0.00     0.016 A 
ATOM     33  C   UNL A   1      41.437  27.294  28.766  1.00  0.00     0.010 A 
ATOM     34  C   UNL A   1      39.284  26.517  29.506  1.00  0.00     0.010 A 
ATOM     35  C   UNL A   1      40.341  27.433  29.633  1.00  0.00    -0.014 A 
BRANCH  35  36
ATOM     36  C   UNL A   1      40.310  28.515  30.665  1.00  0.00     0.031 A 
ATOM     37  C   UNL A   1      41.296  28.521  31.812  1.00  0.00     0.074 A 
ATOM     38  C   UNL A   1      39.397  29.508  30.584  1.00  0.00     0.049 A 
ATOM     39  N   UNL A   1      41.314  29.272  32.886  1.00  0.00    -0.248 NA
ATOM     40  C   UNL A   1      42.394  27.542  31.758  1.00  0.00     0.031 C 
ATOM     41  C   UNL A   1      38.382  29.646  29.536  1.00  0.00     0.029 A 
ATOM     42  N   UNL A   1      39.182  30.599  31.392  1.00  0.00    -0.354 N 
ATOM     43  C   UNL A   1      42.372  28.810  33.664  1.00  0.00     0.074 A 
ATOM     44  C   UNL A   1      42.977  27.716  32.936  1.00  0.00     0.031 C 
ATOM     45  C   UNL A   1      37.701  30.785  29.727  1.00  0.00     0.029 A 
ATOM     46  C   UNL A   1      38.159  31.412  30.960  1.00  0.00     0.049 A 
ATOM     47  H   UNL A   1      39.709  30.781  32.203  1.00  0.00     0.167 HD
ATOM     48  C   UNL A   1      42.799  29.255  34.871  1.00  0.00     0.037 A 
ATOM     49  C   UNL A   1      37.620  32.519  31.504  1.00  0.00     0.037 A 
ATOM     50  C   UNL A   1      42.246  30.394  35.562  1.00  0.00     0.049 A 
ATOM     51  C   UNL A   1      38.141  33.021  32.816  1.00  0.00     0.074 A 
ATOM     52  C   UNL A   1      42.621  30.930  36.783  1.00  0.00     0.029 A 
ATOM     53  N   UNL A   1      41.218  31.191  35.079  1.00  0.00    -0.354 N 
ATOM     54  N   UNL A   1      39.092  32.523  33.569  1.00  0.00    -0.248 NA
ATOM     55  C   UNL A   1      37.503  34.226  33.365  1.00  0.00     0.031 C 
ATOM     56  C   UNL A   1      41.810  32.041  37.045  1.00  0.00     0.029 A 
ATOM     57  C   UNL A   1      40.951  32.216  35.973  1.00  0.00     0.049 A 
ATOM     58  H   UNL A   1      40.749  31.050  34.226  1.00  0.00     0.167 HD
ATOM     59  C   UNL A   1      39.164  33.351  34.682  1.00  0.00     0.074 A 
ATOM     60  C   UNL A   1      38.183  34.399  34.489  1.00  0.00     0.031 C 
ATOM     61  C   UNL A   1      39.965  33.246  35.771  1.00  0.00     0.037 A 
BRANCH  48  62
ATOM     62  C   UNL A   1      43.908  28.492  35.547  1.00  0.00     0.058 A 
ATOM     63  C   UNL A   1      43.657  27.395  36.383  1.00  0.00     0.135 A 
ATOM     64  C   UNL A   1      45.249  28.846  35.320  1.00  0.00     0.135 A 
ATOM     65  F   UNL A   1      42.394  27.022  36.648  1.00  0.00    -0.206 F 
ATOM     66  C   UNL A   1      44.693  26.689  36.991  1.00  0.00     0.059 A 
ATOM     67  C   UNL A   1      46.302  28.142  35.898  1.00  0.00     0.059 A 
ATOM     68  F   UNL A   1      45.548  29.886  34.525  1.00  0.00    -0.206 F 
ATOM     69  C   UNL A   1      46.012  27.073  36.745  1.00  0.00     0.060 A 
BRANCH  69  70
ATOM     70  S   UNL A   1      47.350  26.150  37.535  1.00  0.00     0.124 S 
ATOM     71  O   UNL A   1      47.305  24.889  36.802  1.00  0.00    -0.237 OA
ATOM     72  O   UNL A   1      48.512  26.994  37.273  1.00  0.00    -0.237 OA
ATOM     73  O   UNL A   1      46.935  26.081  38.933  1.00  0.00    -0.744 OA
ENDBRANCH  69  70
ENDBRANCH  48  62
BRANCH  49  74
ATOM     74  C   UNL A   1      36.503  33.210  30.808  1.00  0.00     0.058 A 
ATOM     75  C   UNL A   1      35.190  33.121  31.290  1.00  0.00     0.135 A 
ATOM     76  C   UNL A   1      36.734  34.005  29.674  1.00  0.00     0.135 A 
ATOM     77  F   UNL A   1      34.919  32.364  32.364  1.00  0.00    -0.206 F 
ATOM     78  C   UNL A   1      34.141  33.799  30.675  1.00  0.00     0.059 A 
ATOM     79  C   UNL A   1      35.707  34.713  29.058  1.00  0.00     0.059 A 
ATOM     80  F   UNL A   1      37.976  34.133  29.183  1.00  0.00    -0.206 F 
ATOM     81  C   UNL A   1      34.413  34.597  29.562  1.00  0.00     0.060 A 
BRANCH  81  82
ATOM     82  S   UNL A   1      33.066  35.541  28.815  1.00  0.00     0.124 S 
ATOM     83  O   UNL A   1      32.395  34.517  28.023  1.00  0.00    -0.237 OA
ATOM     84  O   UNL A   1      32.337  36.025  29.983  1.00  0.00    -0.237 OA
ATOM     85  O   UNL A   1      33.767  36.571  28.053  1.00  0.00    -0.744 OA
ENDBRANCH  81  82
ENDBRANCH  49  74
BRANCH  61  86
ATOM     86  C   UNL A   1      39.813  34.307  36.822  1.00  0.00     0.058 A 
ATOM     87  C   UNL A   1      40.533  35.510  36.758  1.00  0.00     0.135 A 
ATOM     88  C   UNL A   1      38.955  34.110  37.915  1.00  0.00     0.135 A 
ATOM     89  F   UNL A   1      41.372  35.741  35.735  1.00  0.00    -0.206 F 
ATOM     90  C   UNL A   1      40.442  36.465  37.765  1.00  0.00     0.059 A 
ATOM     91  C   UNL A   1      38.833  35.060  38.924  1.00  0.00     0.059 A 
ATOM     92  F   UNL A   1      38.238  32.980  38.016  1.00  0.00    -0.206 F 
ATOM     93  C   UNL A   1      39.599  36.225  38.851  1.00  0.00     0.060 A 
BRANCH  93  94
ATOM     94  S   UNL A   1      39.500  37.454  40.169  1.00  0.00     0.124 S 
ATOM     95  O   UNL A   1      40.884  37.915  40.242  1.00  0.00    -0.237 OA
ATOM     96  O   UNL A   1      38.539  38.415  39.638  1.00  0.00    -0.237 OA
ATOM     97  O   UNL A   1      39.034  36.681  41.316  1.00  0.00    -0.744 OA
ENDBRANCH  93  94
ENDBRANCH  61  86
ENDBRANCH  35  36
ENDBRANCH  28  30
ENDBRANCH  27  28
ENDBRANCH  26  27
ENDBRANCH   1  26
TORSDOF 18
ENDMDL
MODEL 3
REMARK VINA RESULT:     -11.5      6.732     12.046
REMARK SMILES CC[C@@H](C)c1ccccc1NC(=O)[C@@H]1[C@@H](C(=O)OCCOC(=O)c2ccc(-c3c4nc(c(-c5c(F)cc(S(=O)(=O)[O-])cc5F)c5ccc([nH]5)c(-c5c(F)cc(S(=O)(=O)[O-])cc5F)c5nc(c(-c6c(F)cc(S(=O)(=O)[O-])cc6F)c6ccc3[nH]6)C=C5)C=C4)cc2)[C@@H]2C=C[C@H]1C2
REMARK SMILES IDX 19 1 18 2 16 3 17 4 15 5 14 6 93 7 90 8 92 9 94 10 91 11
REMARK SMILES IDX 12 12 11 13 13 15 10 16 5 17 6 18 7 19 9 20 8 21 3 22 4 23
REMARK SMILES IDX 2 24 1 25 20 26 21 27 22 28 23 29 24 30 25 31 89 32 26 33
REMARK SMILES IDX 88 34 27 35 28 36 29 37 82 38 30 39 87 40 81 41 83 42 31 43
REMARK SMILES IDX 86 44 80 45 79 46 32 48 66 49 45 50 65 51 46 52 49 53 64 54
REMARK SMILES IDX 84 55 47 56 48 57 63 59 85 60 50 61 33 62 34 63 43 64 35 65
REMARK SMILES IDX 36 66 42 67 44 68 37 69 38 70 39 71 40 72 41 73 67 74 68 75
REMARK SMILES IDX 77 76 69 77 70 78 76 79 78 80 71 81 72 82 73 83 74 84 75 85
REMARK SMILES IDX 51 86 52 87 61 88 53 89 54 90 60 91 62 92 55 93 56 94 57 95
REMARK SMILES IDX 58 96 59 97
REMARK H PARENT 11 14 83 47 49 58
REMARK Flexibility Score: inf
ROOT
ATOM      1  C   UNL A   1      38.137  22.176  25.386  1.00  0.00     0.274 C 
ENDROOT
BRANCH   1   2
ATOM      2  O   UNL A   1      36.764  21.891  25.046  1.00  0.00    -0.462 OA
BRANCH   2   3
ATOM      3  C   UNL A   1      36.221  22.677  24.079  1.00  0.00     0.310 C 
ATOM      4  O   UNL A   1      36.798  22.999  23.046  1.00  0.00    -0.252 OA
BRANCH   3   5
ATOM      5  C   UNL A   1      34.780  23.055  24.341  1.00  0.00     0.119 C 
ATOM      6  C   UNL A   1      34.504  24.505  24.910  1.00  0.00     0.100 C 
ATOM      7  C   UNL A   1      33.669  24.157  26.171  1.00  0.00     0.025 C 
ATOM      8  C   UNL A   1      34.168  22.130  25.418  1.00  0.00     0.027 C 
ATOM      9  C   UNL A   1      32.368  23.487  25.800  1.00  0.00    -0.027 C 
ATOM     10  C   UNL A   1      34.418  22.923  26.692  1.00  0.00     0.017 C 
ATOM     11  C   UNL A   1      32.669  22.263  25.350  1.00  0.00    -0.027 C 
BRANCH   6  12
ATOM     12  C   UNL A   1      33.999  25.376  23.747  1.00  0.00     0.228 C 
ATOM     13  N   UNL A   1      33.347  26.568  23.845  1.00  0.00    -0.326 N 
ATOM     14  H   UNL A   1      33.069  26.954  22.983  1.00  0.00     0.169 HD
ATOM     15  O   UNL A   1      34.209  24.981  22.588  1.00  0.00    -0.274 OA
BRANCH  13  16
ATOM     16  C   UNL A   1      33.006  27.335  24.962  1.00  0.00     0.044 A 
ATOM     17  C   UNL A   1      31.656  27.474  25.358  1.00  0.00    -0.022 A 
ATOM     18  C   UNL A   1      31.429  27.981  26.654  1.00  0.00     0.006 A 
ATOM     19  C   UNL A   1      32.468  28.485  27.441  1.00  0.00     0.000 A 
ATOM     20  C   UNL A   1      34.018  27.968  25.689  1.00  0.00     0.026 A 
ATOM     21  C   UNL A   1      33.755  28.536  26.931  1.00  0.00     0.002 A 
BRANCH  17  22
ATOM     22  C   UNL A   1      30.476  27.205  24.409  1.00  0.00     0.018 C 
ATOM     23  C   UNL A   1      30.008  25.732  24.412  1.00  0.00     0.013 C 
BRANCH  22  24
ATOM     24  C   UNL A   1      30.655  27.678  22.948  1.00  0.00     0.005 C 
ATOM     25  C   UNL A   1      30.374  29.176  22.796  1.00  0.00     0.004 C 
ENDBRANCH  22  24
ENDBRANCH  17  22
ENDBRANCH  13  16
ENDBRANCH   6  12
ENDBRANCH   3   5
ENDBRANCH   2   3
ENDBRANCH   1   2
BRANCH   1  26
ATOM     26  C   UNL A   1      38.253  23.537  26.070  1.00  0.00     0.275 C 
BRANCH  26  27
ATOM     27  O   UNL A   1      39.274  23.485  27.078  1.00  0.00    -0.458 OA
BRANCH  27  28
ATOM     28  C   UNL A   1      40.308  24.343  26.909  1.00  0.00     0.338 C 
ATOM     29  O   UNL A   1      41.247  24.207  26.144  1.00  0.00    -0.246 OA
BRANCH  28  30
ATOM     30  C   UNL A   1      40.147  25.528  27.783  1.00  0.00     0.060 A 
ATOM     31  C   UNL A   1      40.974  26.639  27.641  1.00  0.00     0.016 A 
ATOM     32  C   UNL A   1      39.240  25.479  28.843  1.00  0.00     0.016 A 
ATOM     33  C   UNL A   1      41.011  27.615  28.638  1.00  0.00     0.010 A 
ATOM     34  C   UNL A   1      39.178  26.535  29.762  1.00  0.00     0.010 A 
ATOM     35  C   UNL A   1      40.099  27.594  29.707  1.00  0.00    -0.014 A 
BRANCH  35  36
ATOM     36  C   UNL A   1      40.122  28.658  30.758  1.00  0.00     0.031 A 
ATOM     37  C   UNL A   1      41.127  28.612  31.886  1.00  0.00     0.074 A 
ATOM     38  C   UNL A   1      39.241  29.681  30.710  1.00  0.00     0.049 A 
ATOM     39  N   UNL A   1      41.188  29.343  32.973  1.00  0.00    -0.248 NA
ATOM     40  C   UNL A   1      42.191  27.599  31.796  1.00  0.00     0.031 C 
ATOM     41  C   UNL A   1      38.213  29.870  29.683  1.00  0.00     0.029 A 
ATOM     42  N   UNL A   1      39.075  30.764  31.540  1.00  0.00    -0.354 N 
ATOM     43  C   UNL A   1      42.244  28.834  33.724  1.00  0.00     0.074 A 
ATOM     44  C   UNL A   1      42.800  27.733  32.967  1.00  0.00     0.031 C 
ATOM     45  C   UNL A   1      37.572  31.027  29.904  1.00  0.00     0.029 A 
ATOM     46  C   UNL A   1      38.072  31.617  31.139  1.00  0.00     0.049 A 
ATOM     47  H   UNL A   1      39.622  30.915  32.343  1.00  0.00     0.167 HD
ATOM     48  C   UNL A   1      42.707  29.244  34.931  1.00  0.00     0.037 A 
ATOM     49  C   UNL A   1      37.580  32.732  31.711  1.00  0.00     0.037 A 
ATOM     50  C   UNL A   1      42.203  30.388  35.650  1.00  0.00     0.049 A 
ATOM     51  C   UNL A   1      38.139  33.194  33.023  1.00  0.00     0.074 A 
ATOM     52  C   UNL A   1      42.616  30.890  36.873  1.00  0.00     0.029 A 
ATOM     53  N   UNL A   1      41.194  31.226  35.199  1.00  0.00    -0.354 N 
ATOM     54  N   UNL A   1      39.086  32.653  33.749  1.00  0.00    -0.248 NA
ATOM     55  C   UNL A   1      37.550  34.409  33.602  1.00  0.00     0.031 C 
ATOM     56  C   UNL A   1      41.847  32.022  37.168  1.00  0.00     0.029 A 
ATOM     57  C   UNL A   1      40.976  32.244  36.114  1.00  0.00     0.049 A 
ATOM     58  H   UNL A   1      40.705  31.115  34.352  1.00  0.00     0.167 HD
ATOM     59  C   UNL A   1      39.205  33.458  34.875  1.00  0.00     0.074 A 
ATOM     60  C   UNL A   1      38.255  34.541  34.717  1.00  0.00     0.031 C 
ATOM     61  C   UNL A   1      40.020  33.308  35.948  1.00  0.00     0.037 A 
BRANCH  48  62
ATOM     62  C   UNL A   1      43.801  28.434  35.573  1.00  0.00     0.058 A 
ATOM     63  C   UNL A   1      45.159  28.689  35.329  1.00  0.00     0.135 A 
ATOM     64  C   UNL A   1      43.483  27.408  36.479  1.00  0.00     0.135 A 
ATOM     65  F   UNL A   1      45.522  29.647  34.461  1.00  0.00    -0.206 F 
ATOM     66  C   UNL A   1      46.163  27.941  35.941  1.00  0.00     0.059 A 
ATOM     67  C   UNL A   1      44.468  26.662  37.120  1.00  0.00     0.059 A 
ATOM     68  F   UNL A   1      42.199  27.123  36.753  1.00  0.00    -0.206 F 
ATOM     69  C   UNL A   1      45.807  26.927  36.832  1.00  0.00     0.060 A 
BRANCH  69  70
ATOM     70  S   UNL A   1      47.114  25.963  37.623  1.00  0.00     0.124 S 
ATOM     71  O   UNL A   1      47.627  26.917  38.602  1.00  0.00    -0.237 OA
ATOM     72  O   UNL A   1      46.380  24.827  38.172  1.00  0.00    -0.237 OA
ATOM     73  O   UNL A   1      48.017  25.647  36.521  1.00  0.00    -0.744 OA
ENDBRANCH  69  70
ENDBRANCH  48  62
BRANCH  49  74
ATOM     74  C   UNL A   1      36.473  33.470  31.047  1.00  0.00     0.058 A 
ATOM     75  C   UNL A   1      36.698  34.202  29.873  1.00  0.00     0.135 A 
ATOM     76  C   UNL A   1      35.163  33.423  31.549  1.00  0.00     0.135 A 
ATOM     77  F   UNL A   1      37.936  34.285  29.361  1.00  0.00    -0.206 F 
ATOM     78  C   UNL A   1      35.664  34.860  29.215  1.00  0.00     0.059 A 
ATOM     79  C   UNL A   1      34.108  34.050  30.897  1.00  0.00     0.059 A 
ATOM     80  F   UNL A   1      34.895  32.724  32.663  1.00  0.00    -0.206 F 
ATOM     81  C   UNL A   1      34.370  34.773  29.734  1.00  0.00     0.060 A 
BRANCH  81  82
ATOM     82  S   UNL A   1      33.014  35.559  28.835  1.00  0.00     0.124 S 
ATOM     83  O   UNL A   1      32.469  34.434  28.085  1.00  0.00    -0.237 OA
ATOM     84  O   UNL A   1      32.178  36.073  29.916  1.00  0.00    -0.237 OA
ATOM     85  O   UNL A   1      33.693  36.580  28.041  1.00  0.00    -0.744 OA
ENDBRANCH  81  82
ENDBRANCH  49  74
BRANCH  61  86
ATOM     86  C   UNL A   1      39.921  34.355  37.018  1.00  0.00     0.058 A 
ATOM     87  C   UNL A   1      39.064  34.199  38.119  1.00  0.00     0.135 A 
ATOM     88  C   UNL A   1      40.673  35.537  36.932  1.00  0.00     0.135 A 
ATOM     89  F   UNL A   1      38.319  33.089  38.241  1.00  0.00    -0.206 F 
ATOM     90  C   UNL A   1      38.923  35.198  39.076  1.00  0.00     0.059 A 
ATOM     91  C   UNL A   1      40.564  36.541  37.889  1.00  0.00     0.059 A 
ATOM     92  F   UNL A   1      41.514  35.729  35.903  1.00  0.00    -0.206 F 
ATOM     93  C   UNL A   1      39.668  36.371  38.945  1.00  0.00     0.060 A 
BRANCH  93  94
ATOM     94  S   UNL A   1      39.465  37.677  40.175  1.00  0.00     0.124 S 
ATOM     95  O   UNL A   1      38.323  38.410  39.636  1.00  0.00    -0.237 OA
ATOM     96  O   UNL A   1      39.214  36.924  41.400  1.00  0.00    -0.237 OA
ATOM     97  O   UNL A   1      40.743  38.382  40.131  1.00  0.00    -0.744 OA
ENDBRANCH  93  94
ENDBRANCH  61  86
ENDBRANCH  35  36
ENDBRANCH  28  30
ENDBRANCH  27  28
ENDBRANCH  26  27
ENDBRANCH   1  26
TORSDOF 18
ENDMDL
