MODEL 1
REMARK VINA RESULT:     -13.0      0.000      0.000
REMARK SMILES COc1ccc(-c2[nH]nc3nc(-c4ccc(C(F)(F)F)cc4)cc(C(=O)OCCOC(=O)c4ccc(-c5c6nc(c(-c7c(F)cc(S(=O)(=O)[O-])cc7F)c7ccc([nH]7)c(-c7c(F)cc(S(=O)(=O)[O-])cc7F)c7nc(c(-c8c(F)cc(S(=O)(=O)[O-])cc8F)c8ccc5[nH]8)C=C7)C=C6)cc4)c23)cc1
REMARK SMILES IDX 29 1 28 2 27 3 25 4 26 5 24 6 7 7 8 8 99 9 9 10 10 12 11 13
REMARK SMILES IDX 23 14 12 15 6 16 3 17 4 18 101 19 5 20 100 21 2 22 1 23
REMARK SMILES IDX 13 24 14 25 22 26 15 27 21 28 16 29 17 30 18 31 19 32 20 33
REMARK SMILES IDX 30 34 31 35 32 36 33 37 34 38 98 39 35 40 97 41 36 42 37 43
REMARK SMILES IDX 38 44 91 45 39 46 96 47 90 48 92 49 40 50 95 51 89 52 88 53
REMARK SMILES IDX 41 55 75 56 54 57 74 58 55 59 58 60 73 61 93 62 56 63 57 64
REMARK SMILES IDX 72 66 94 67 59 68 42 69 43 70 52 71 44 72 45 73 51 74 53 75
REMARK SMILES IDX 46 76 47 77 48 78 49 79 50 80 76 81 77 82 86 83 78 84 79 85
REMARK SMILES IDX 85 86 87 87 80 88 81 89 82 90 83 91 84 92 60 93 61 94 70 95
REMARK SMILES IDX 62 96 63 97 69 98 71 99 64 100 65 101 66 102 67 103 68 104
REMARK H PARENT 8 11 92 54 58 65
REMARK Flexibility Score: inf
ROOT
ATOM      1  C   UNL A   1      37.241  22.289  25.652  1.00  0.00     0.275 C 
ENDROOT
BRANCH   1   2
ATOM      2  C   UNL A   1      35.769  22.648  25.724  1.00  0.00     0.275 C 
BRANCH   2   3
ATOM      3  O   UNL A   1      35.619  24.052  25.475  1.00  0.00    -0.458 OA
BRANCH   3   4
ATOM      4  C   UNL A   1      34.614  24.397  24.626  1.00  0.00     0.339 C 
ATOM      5  O   UNL A   1      34.574  24.146  23.435  1.00  0.00    -0.246 OA
BRANCH   4   6
ATOM      6  C   UNL A   1      33.583  25.119  25.386  1.00  0.00     0.075 A 
ATOM      7  C   UNL A   1      31.604  23.536  25.361  1.00  0.00     0.075 A 
ATOM      8  N   UNL A   1      30.336  23.725  25.864  1.00  0.00    -0.275 N 
ATOM      9  C   UNL A   1      32.259  24.730  25.631  1.00  0.00     0.061 A 
ATOM     10  N   UNL A   1      30.115  24.927  26.421  1.00  0.00    -0.154 NA
ATOM     11  H   UNL A   1      29.640  23.030  25.818  1.00  0.00     0.190 HD
ATOM     12  C   UNL A   1      31.293  25.543  26.326  1.00  0.00     0.182 A 
ATOM     13  N   UNL A   1      31.576  26.783  26.808  1.00  0.00    -0.226 NA
ATOM     14  C   UNL A   1      33.846  26.388  25.932  1.00  0.00     0.045 A 
ATOM     15  C   UNL A   1      32.863  27.169  26.585  1.00  0.00     0.074 A 
BRANCH   7  16
ATOM     16  C   UNL A   1      32.015  22.209  24.907  1.00  0.00     0.001 A 
ATOM     17  C   UNL A   1      32.791  19.693  23.871  1.00  0.00     0.118 A 
ATOM     18  C   UNL A   1      32.883  19.969  25.240  1.00  0.00     0.047 A 
ATOM     19  C   UNL A   1      32.331  20.688  23.023  1.00  0.00     0.047 A 
ATOM     20  C   UNL A   1      32.505  21.220  25.760  1.00  0.00     0.014 A 
ATOM     21  C   UNL A   1      31.969  21.932  23.542  1.00  0.00     0.014 A 
BRANCH  17  22
ATOM     22  O   UNL A   1      33.150  18.429  23.488  1.00  0.00    -0.497 OA
ATOM     23  C   UNL A   1      34.227  17.828  24.206  1.00  0.00     0.278 C 
ENDBRANCH  17  22
ENDBRANCH   7  16
BRANCH  15  24
ATOM     24  C   UNL A   1      33.202  28.557  26.968  1.00  0.00     0.000 A 
ATOM     25  C   UNL A   1      34.494  28.941  27.356  1.00  0.00     0.011 A 
ATOM     26  C   UNL A   1      32.209  29.554  26.931  1.00  0.00     0.011 A 
ATOM     27  C   UNL A   1      34.784  30.278  27.676  1.00  0.00     0.014 A 
ATOM     28  C   UNL A   1      32.491  30.885  27.251  1.00  0.00     0.014 A 
ATOM     29  C   UNL A   1      33.784  31.264  27.624  1.00  0.00     0.056 A 
BRANCH  29  30
ATOM     30  C   UNL A   1      34.091  32.699  27.974  1.00  0.00     0.416 C 
ATOM     31  F   UNL A   1      35.344  33.078  27.596  1.00  0.00    -0.166 F 
ATOM     32  F   UNL A   1      33.238  33.582  27.387  1.00  0.00    -0.166 F 
ATOM     33  F   UNL A   1      34.020  32.957  29.313  1.00  0.00    -0.166 F 
ENDBRANCH  29  30
ENDBRANCH  15  24
ENDBRANCH   4   6
ENDBRANCH   3   4
ENDBRANCH   2   3
ENDBRANCH   1   2
BRANCH   1  34
ATOM     34  O   UNL A   1      38.045  23.425  25.950  1.00  0.00    -0.458 OA
BRANCH  34  35
ATOM     35  C   UNL A   1      39.292  23.166  26.418  1.00  0.00     0.338 C 
ATOM     36  O   UNL A   1      39.953  22.161  26.283  1.00  0.00    -0.246 OA
BRANCH  35  37
ATOM     37  C   UNL A   1      39.655  24.347  27.208  1.00  0.00     0.060 A 
ATOM     38  C   UNL A   1      38.827  25.477  27.253  1.00  0.00     0.016 A 
ATOM     39  C   UNL A   1      40.850  24.270  27.938  1.00  0.00     0.016 A 
ATOM     40  C   UNL A   1      39.222  26.553  28.033  1.00  0.00     0.010 A 
ATOM     41  C   UNL A   1      41.223  25.316  28.725  1.00  0.00     0.010 A 
ATOM     42  C   UNL A   1      40.435  26.466  28.721  1.00  0.00    -0.014 A 
BRANCH  42  43
ATOM     43  C   UNL A   1      40.983  27.600  29.431  1.00  0.00     0.031 A 
ATOM     44  C   UNL A   1      42.015  28.386  28.701  1.00  0.00     0.074 A 
ATOM     45  C   UNL A   1      40.308  28.013  30.526  1.00  0.00     0.049 A 
ATOM     46  N   UNL A   1      43.210  28.677  29.093  1.00  0.00    -0.248 NA
ATOM     47  C   UNL A   1      41.748  28.797  27.310  1.00  0.00     0.031 C 
ATOM     48  C   UNL A   1      39.083  27.434  31.101  1.00  0.00     0.029 A 
ATOM     49  N   UNL A   1      40.468  29.150  31.248  1.00  0.00    -0.354 N 
ATOM     50  C   UNL A   1      43.749  29.521  28.121  1.00  0.00     0.074 A 
ATOM     51  C   UNL A   1      42.889  29.403  26.976  1.00  0.00     0.031 C 
ATOM     52  C   UNL A   1      38.484  28.345  31.895  1.00  0.00     0.029 A 
ATOM     53  C   UNL A   1      39.343  29.506  31.996  1.00  0.00     0.049 A 
ATOM     54  H   UNL A   1      41.300  29.678  31.244  1.00  0.00     0.167 HD
ATOM     55  C   UNL A   1      44.717  30.426  28.441  1.00  0.00     0.037 A 
ATOM     56  C   UNL A   1      39.128  30.731  32.540  1.00  0.00     0.037 A 
ATOM     57  C   UNL A   1      45.333  30.084  29.701  1.00  0.00     0.049 A 
ATOM     58  C   UNL A   1      40.478  31.366  32.660  1.00  0.00     0.074 A 
ATOM     59  C   UNL A   1      45.976  28.956  30.177  1.00  0.00     0.029 A 
ATOM     60  N   UNL A   1      44.956  30.795  30.818  1.00  0.00    -0.354 N 
ATOM     61  N   UNL A   1      41.431  30.874  33.414  1.00  0.00    -0.248 NA
ATOM     62  C   UNL A   1      40.932  32.190  31.547  1.00  0.00     0.031 C 
ATOM     63  C   UNL A   1      45.468  28.785  31.499  1.00  0.00     0.029 A 
ATOM     64  C   UNL A   1      44.644  29.874  31.787  1.00  0.00     0.049 A 
ATOM     65  H   UNL A   1      44.920  31.774  30.904  1.00  0.00     0.167 HD
ATOM     66  C   UNL A   1      42.584  30.963  32.643  1.00  0.00     0.074 A 
ATOM     67  C   UNL A   1      42.219  31.828  31.518  1.00  0.00     0.031 C 
ATOM     68  C   UNL A   1      43.630  30.093  32.795  1.00  0.00     0.037 A 
BRANCH  55  69
ATOM     69  C   UNL A   1      44.849  31.812  27.841  1.00  0.00     0.058 A 
ATOM     70  C   UNL A   1      46.056  32.159  27.194  1.00  0.00     0.135 A 
ATOM     71  C   UNL A   1      43.992  32.896  28.137  1.00  0.00     0.135 A 
ATOM     72  F   UNL A   1      46.940  31.212  26.839  1.00  0.00    -0.206 F 
ATOM     73  C   UNL A   1      46.437  33.481  26.972  1.00  0.00     0.059 A 
ATOM     74  C   UNL A   1      44.332  34.221  27.879  1.00  0.00     0.059 A 
ATOM     75  F   UNL A   1      42.825  32.740  28.770  1.00  0.00    -0.206 F 
ATOM     76  C   UNL A   1      45.577  34.508  27.342  1.00  0.00     0.060 A 
BRANCH  76  77
ATOM     77  S   UNL A   1      46.119  36.216  27.169  1.00  0.00     0.124 S 
ATOM     78  O   UNL A   1      46.686  36.206  25.826  1.00  0.00    -0.237 OA
ATOM     79  O   UNL A   1      44.867  36.946  27.332  1.00  0.00    -0.237 OA
ATOM     80  O   UNL A   1      47.077  36.375  28.260  1.00  0.00    -0.744 OA
ENDBRANCH  76  77
ENDBRANCH  55  69
BRANCH  56  81
ATOM     81  C   UNL A   1      37.842  31.491  32.480  1.00  0.00     0.058 A 
ATOM     82  C   UNL A   1      37.169  31.898  33.646  1.00  0.00     0.135 A 
ATOM     83  C   UNL A   1      37.368  32.055  31.274  1.00  0.00     0.135 A 
ATOM     84  F   UNL A   1      37.555  31.429  34.843  1.00  0.00    -0.206 F 
ATOM     85  C   UNL A   1      36.127  32.840  33.623  1.00  0.00     0.059 A 
ATOM     86  C   UNL A   1      36.325  32.977  31.223  1.00  0.00     0.059 A 
ATOM     87  F   UNL A   1      37.962  31.799  30.100  1.00  0.00    -0.206 F 
ATOM     88  C   UNL A   1      35.727  33.390  32.405  1.00  0.00     0.060 A 
BRANCH  88  89
ATOM     89  S   UNL A   1      34.523  34.741  32.367  1.00  0.00     0.124 S 
ATOM     90  O   UNL A   1      33.319  34.087  32.868  1.00  0.00    -0.237 OA
ATOM     91  O   UNL A   1      35.135  35.724  33.254  1.00  0.00    -0.237 OA
ATOM     92  O   UNL A   1      34.484  35.120  30.956  1.00  0.00    -0.744 OA
ENDBRANCH  88  89
ENDBRANCH  56  81
BRANCH  68  93
ATOM     93  C   UNL A   1      43.639  29.132  33.961  1.00  0.00     0.058 A 
ATOM     94  C   UNL A   1      43.992  29.473  35.280  1.00  0.00     0.135 A 
ATOM     95  C   UNL A   1      43.067  27.865  33.771  1.00  0.00     0.135 A 
ATOM     96  F   UNL A   1      44.432  30.700  35.580  1.00  0.00    -0.206 F 
ATOM     97  C   UNL A   1      43.829  28.585  36.346  1.00  0.00     0.059 A 
ATOM     98  C   UNL A   1      42.864  26.975  34.821  1.00  0.00     0.059 A 
ATOM     99  F   UNL A   1      42.636  27.500  32.551  1.00  0.00    -0.206 F 
ATOM    100  C   UNL A   1      43.264  27.335  36.105  1.00  0.00     0.060 A 
BRANCH 100 101
ATOM    101  S   UNL A   1      43.011  26.199  37.487  1.00  0.00     0.124 S 
ATOM    102  O   UNL A   1      43.898  26.755  38.503  1.00  0.00    -0.237 OA
ATOM    103  O   UNL A   1      41.582  26.334  37.750  1.00  0.00    -0.237 OA
ATOM    104  O   UNL A   1      43.417  24.906  36.945  1.00  0.00    -0.744 OA
ENDBRANCH 100 101
ENDBRANCH  68  93
ENDBRANCH  42  43
ENDBRANCH  35  37
ENDBRANCH  34  35
ENDBRANCH   1  34
TORSDOF 18
ENDMDL
MODEL 2
REMARK VINA RESULT:     -13.0      1.791      2.675
REMARK SMILES COc1ccc(-c2[nH]nc3nc(-c4ccc(C(F)(F)F)cc4)cc(C(=O)OCCOC(=O)c4ccc(-c5c6nc(c(-c7c(F)cc(S(=O)(=O)[O-])cc7F)c7ccc([nH]7)c(-c7c(F)cc(S(=O)(=O)[O-])cc7F)c7nc(c(-c8c(F)cc(S(=O)(=O)[O-])cc8F)c8ccc5[nH]8)C=C7)C=C6)cc4)c23)cc1
REMARK SMILES IDX 29 1 28 2 27 3 25 4 26 5 24 6 7 7 8 8 99 9 9 10 10 12 11 13
REMARK SMILES IDX 23 14 12 15 6 16 3 17 4 18 101 19 5 20 100 21 2 22 1 23
REMARK SMILES IDX 13 24 14 25 22 26 15 27 21 28 16 29 17 30 18 31 19 32 20 33
REMARK SMILES IDX 30 34 31 35 32 36 33 37 34 38 98 39 35 40 97 41 36 42 37 43
REMARK SMILES IDX 38 44 91 45 39 46 96 47 90 48 92 49 40 50 95 51 89 52 88 53
REMARK SMILES IDX 41 55 75 56 54 57 74 58 55 59 58 60 73 61 93 62 56 63 57 64
REMARK SMILES IDX 72 66 94 67 59 68 42 69 43 70 52 71 44 72 45 73 51 74 53 75
REMARK SMILES IDX 46 76 47 77 48 78 49 79 50 80 76 81 77 82 86 83 78 84 79 85
REMARK SMILES IDX 85 86 87 87 80 88 81 89 82 90 83 91 84 92 60 93 61 94 70 95
REMARK SMILES IDX 62 96 63 97 69 98 71 99 64 100 65 101 66 102 67 103 68 104
REMARK H PARENT 8 11 92 54 58 65
REMARK Flexibility Score: inf
ROOT
ATOM      1  C   UNL A   1      37.513  21.588  25.211  1.00  0.00     0.275 C 
ENDROOT
BRANCH   1   2
ATOM      2  C   UNL A   1      36.293  22.070  25.973  1.00  0.00     0.275 C 
BRANCH   2   3
ATOM      3  O   UNL A   1      35.323  21.015  26.016  1.00  0.00    -0.458 OA
BRANCH   3   4
ATOM      4  C   UNL A   1      34.129  21.333  26.585  1.00  0.00     0.339 C 
ATOM      5  O   UNL A   1      33.777  21.031  27.711  1.00  0.00    -0.246 OA
BRANCH   4   6
ATOM      6  C   UNL A   1      33.338  22.106  25.616  1.00  0.00     0.075 A 
ATOM      7  C   UNL A   1      32.799  20.420  23.802  1.00  0.00     0.075 A 
ATOM      8  N   UNL A   1      32.137  20.611  22.610  1.00  0.00    -0.275 N 
ATOM      9  C   UNL A   1      32.828  21.682  24.382  1.00  0.00     0.061 A 
ATOM     10  N   UNL A   1      31.749  21.874  22.367  1.00  0.00    -0.154 NA
ATOM     11  H   UNL A   1      31.962  19.876  21.979  1.00  0.00     0.190 HD
ATOM     12  C   UNL A   1      32.126  22.538  23.459  1.00  0.00     0.182 A 
ATOM     13  N   UNL A   1      31.897  23.857  23.698  1.00  0.00    -0.226 NA
ATOM     14  C   UNL A   1      33.049  23.464  25.842  1.00  0.00     0.045 A 
ATOM     15  C   UNL A   1      32.380  24.281  24.899  1.00  0.00     0.074 A 
BRANCH   7  16
ATOM     16  C   UNL A   1      33.097  19.064  24.259  1.00  0.00     0.001 A 
ATOM     17  C   UNL A   1      33.832  16.462  25.093  1.00  0.00     0.118 A 
ATOM     18  C   UNL A   1      32.560  16.977  25.371  1.00  0.00     0.047 A 
ATOM     19  C   UNL A   1      34.739  17.264  24.418  1.00  0.00     0.047 A 
ATOM     20  C   UNL A   1      32.191  18.272  24.964  1.00  0.00     0.014 A 
ATOM     21  C   UNL A   1      34.372  18.553  24.027  1.00  0.00     0.014 A 
BRANCH  17  22
ATOM     22  O   UNL A   1      34.062  15.177  25.504  1.00  0.00    -0.497 OA
ATOM     23  C   UNL A   1      32.915  14.347  25.673  1.00  0.00     0.278 C 
ENDBRANCH  17  22
ENDBRANCH   7  16
BRANCH  15  24
ATOM     24  C   UNL A   1      32.279  25.732  25.167  1.00  0.00     0.000 A 
ATOM     25  C   UNL A   1      31.281  26.539  24.602  1.00  0.00     0.011 A 
ATOM     26  C   UNL A   1      33.201  26.347  26.036  1.00  0.00     0.011 A 
ATOM     27  C   UNL A   1      31.197  27.907  24.913  1.00  0.00     0.014 A 
ATOM     28  C   UNL A   1      33.123  27.707  26.346  1.00  0.00     0.014 A 
ATOM     29  C   UNL A   1      32.117  28.504  25.790  1.00  0.00     0.056 A 
BRANCH  29  30
ATOM     30  C   UNL A   1      32.033  29.973  26.119  1.00  0.00     0.416 C 
ATOM     31  F   UNL A   1      31.175  30.649  25.305  1.00  0.00    -0.166 F 
ATOM     32  F   UNL A   1      31.609  30.209  27.391  1.00  0.00    -0.166 F 
ATOM     33  F   UNL A   1      33.230  30.623  26.008  1.00  0.00    -0.166 F 
ENDBRANCH  29  30
ENDBRANCH  15  24
ENDBRANCH   4   6
ENDBRANCH   3   4
ENDBRANCH   2   3
ENDBRANCH   1   2
BRANCH   1  34
ATOM     34  O   UNL A   1      38.618  22.451  25.445  1.00  0.00    -0.458 OA
BRANCH  34  35
ATOM     35  C   UNL A   1      39.578  21.978  26.280  1.00  0.00     0.338 C 
ATOM     36  O   UNL A   1      39.866  20.828  26.521  1.00  0.00    -0.246 OA
BRANCH  35  37
ATOM     37  C   UNL A   1      40.156  23.171  26.910  1.00  0.00     0.060 A 
ATOM     38  C   UNL A   1      41.288  23.085  27.731  1.00  0.00     0.016 A 
ATOM     39  C   UNL A   1      39.538  24.395  26.619  1.00  0.00     0.016 A 
ATOM     40  C   UNL A   1      41.793  24.253  28.282  1.00  0.00     0.010 A 
ATOM     41  C   UNL A   1      40.050  25.545  27.138  1.00  0.00     0.010 A 
ATOM     42  C   UNL A   1      41.137  25.456  28.007  1.00  0.00    -0.014 A 
BRANCH  42  43
ATOM     43  C   UNL A   1      41.513  26.688  28.663  1.00  0.00     0.031 A 
ATOM     44  C   UNL A   1      42.659  27.421  28.060  1.00  0.00     0.074 A 
ATOM     45  C   UNL A   1      40.624  27.201  29.542  1.00  0.00     0.049 A 
ATOM     46  N   UNL A   1      43.745  27.805  28.643  1.00  0.00    -0.248 NA
ATOM     47  C   UNL A   1      42.673  27.651  26.604  1.00  0.00     0.031 C 
ATOM     48  C   UNL A   1      39.317  26.647  29.929  1.00  0.00     0.029 A 
ATOM     49  N   UNL A   1      40.617  28.423  30.132  1.00  0.00    -0.354 N 
ATOM     50  C   UNL A   1      44.456  28.547  27.699  1.00  0.00     0.074 A 
ATOM     51  C   UNL A   1      43.848  28.258  26.430  1.00  0.00     0.031 C 
ATOM     52  C   UNL A   1      38.555  27.621  30.467  1.00  0.00     0.029 A 
ATOM     53  C   UNL A   1      39.358  28.819  30.591  1.00  0.00     0.049 A 
ATOM     54  H   UNL A   1      41.424  28.979  30.228  1.00  0.00     0.167 HD
ATOM     55  C   UNL A   1      45.326  29.523  28.089  1.00  0.00     0.037 A 
ATOM     56  C   UNL A   1      39.019  30.092  30.923  1.00  0.00     0.037 A 
ATOM     57  C   UNL A   1      45.679  29.359  29.479  1.00  0.00     0.049 A 
ATOM     58  C   UNL A   1      40.306  30.790  31.228  1.00  0.00     0.074 A 
ATOM     59  C   UNL A   1      46.230  28.324  30.211  1.00  0.00     0.029 A 
ATOM     60  N   UNL A   1      45.074  30.183  30.400  1.00  0.00    -0.354 N 
ATOM     61  N   UNL A   1      41.095  30.431  32.213  1.00  0.00    -0.248 NA
ATOM     62  C   UNL A   1      40.964  31.492  30.133  1.00  0.00     0.031 C 
ATOM     63  C   UNL A   1      45.468  28.292  31.416  1.00  0.00     0.029 A 
ATOM     64  C   UNL A   1      44.586  29.373  31.395  1.00  0.00     0.049 A 
ATOM     65  H   UNL A   1      45.005  31.164  30.354  1.00  0.00     0.167 HD
ATOM     66  C   UNL A   1      42.378  30.474  31.681  1.00  0.00     0.074 A 
ATOM     67  C   UNL A   1      42.236  31.182  30.406  1.00  0.00     0.031 C 
ATOM     68  C   UNL A   1      43.385  29.671  32.146  1.00  0.00     0.037 A 
BRANCH  55  69
ATOM     69  C   UNL A   1      45.555  30.831  27.358  1.00  0.00     0.058 A 
ATOM     70  C   UNL A   1      46.881  31.215  27.054  1.00  0.00     0.135 A 
ATOM     71  C   UNL A   1      44.587  31.851  27.223  1.00  0.00     0.135 A 
ATOM     72  F   UNL A   1      47.884  30.325  27.121  1.00  0.00    -0.206 F 
ATOM     73  C   UNL A   1      47.234  32.532  26.762  1.00  0.00     0.059 A 
ATOM     74  C   UNL A   1      44.913  33.163  26.886  1.00  0.00     0.059 A 
ATOM     75  F   UNL A   1      43.294  31.659  27.497  1.00  0.00    -0.206 F 
ATOM     76  C   UNL A   1      46.243  33.505  26.706  1.00  0.00     0.060 A 
BRANCH  76  77
ATOM     77  S   UNL A   1      46.713  35.224  26.453  1.00  0.00     0.124 S 
ATOM     78  O   UNL A   1      45.414  35.852  26.241  1.00  0.00    -0.237 OA
ATOM     79  O   UNL A   1      47.380  35.541  27.711  1.00  0.00    -0.237 OA
ATOM     80  O   UNL A   1      47.586  35.164  25.285  1.00  0.00    -0.744 OA
ENDBRANCH  76  77
ENDBRANCH  55  69
BRANCH  56  81
ATOM     81  C   UNL A   1      37.760  30.786  30.513  1.00  0.00     0.058 A 
ATOM     82  C   UNL A   1      36.915  31.400  31.455  1.00  0.00     0.135 A 
ATOM     83  C   UNL A   1      37.482  31.082  29.160  1.00  0.00     0.135 A 
ATOM     84  F   UNL A   1      37.108  31.193  32.767  1.00  0.00    -0.206 F 
ATOM     85  C   UNL A   1      35.892  32.287  31.081  1.00  0.00     0.059 A 
ATOM     86  C   UNL A   1      36.462  31.944  28.763  1.00  0.00     0.059 A 
ATOM     87  F   UNL A   1      38.250  30.612  28.167  1.00  0.00    -0.206 F 
ATOM     88  C   UNL A   1      35.688  32.569  29.730  1.00  0.00     0.060 A 
BRANCH  88  89
ATOM     89  S   UNL A   1      34.509  33.849  29.235  1.00  0.00     0.124 S 
ATOM     90  O   UNL A   1      33.831  34.140  30.493  1.00  0.00    -0.237 OA
ATOM     91  O   UNL A   1      35.386  34.896  28.723  1.00  0.00    -0.237 OA
ATOM     92  O   UNL A   1      33.688  33.181  28.226  1.00  0.00    -0.744 OA
ENDBRANCH  88  89
ENDBRANCH  56  81
BRANCH  68  93
ATOM     93  C   UNL A   1      43.173  28.858  33.402  1.00  0.00     0.058 A 
ATOM     94  C   UNL A   1      43.165  29.384  34.708  1.00  0.00     0.135 A 
ATOM     95  C   UNL A   1      42.755  27.527  33.258  1.00  0.00     0.135 A 
ATOM     96  F   UNL A   1      43.432  30.675  34.932  1.00  0.00    -0.206 F 
ATOM     97  C   UNL A   1      42.807  28.614  35.816  1.00  0.00     0.059 A 
ATOM     98  C   UNL A   1      42.361  26.749  34.343  1.00  0.00     0.059 A 
ATOM     99  F   UNL A   1      42.665  26.981  32.033  1.00  0.00    -0.206 F 
ATOM    100  C   UNL A   1      42.406  27.294  35.623  1.00  0.00     0.060 A 
BRANCH 100 101
ATOM    101  S   UNL A   1      41.899  26.307  37.048  1.00  0.00     0.124 S 
ATOM    102  O   UNL A   1      40.616  26.910  37.394  1.00  0.00    -0.237 OA
ATOM    103  O   UNL A   1      41.837  24.958  36.494  1.00  0.00    -0.237 OA
ATOM    104  O   UNL A   1      42.972  26.527  38.015  1.00  0.00    -0.744 OA
ENDBRANCH 100 101
ENDBRANCH  68  93
ENDBRANCH  42  43
ENDBRANCH  35  37
ENDBRANCH  34  35
ENDBRANCH   1  34
TORSDOF 18
ENDMDL
MODEL 3
REMARK VINA RESULT:     -12.9      4.632      8.732
REMARK SMILES COc1ccc(-c2[nH]nc3nc(-c4ccc(C(F)(F)F)cc4)cc(C(=O)OCCOC(=O)c4ccc(-c5c6nc(c(-c7c(F)cc(S(=O)(=O)[O-])cc7F)c7ccc([nH]7)c(-c7c(F)cc(S(=O)(=O)[O-])cc7F)c7nc(c(-c8c(F)cc(S(=O)(=O)[O-])cc8F)c8ccc5[nH]8)C=C7)C=C6)cc4)c23)cc1
REMARK SMILES IDX 29 1 28 2 27 3 25 4 26 5 24 6 7 7 8 8 99 9 9 10 10 12 11 13
REMARK SMILES IDX 23 14 12 15 6 16 3 17 4 18 101 19 5 20 100 21 2 22 1 23
REMARK SMILES IDX 13 24 14 25 22 26 15 27 21 28 16 29 17 30 18 31 19 32 20 33
REMARK SMILES IDX 30 34 31 35 32 36 33 37 34 38 98 39 35 40 97 41 36 42 37 43
REMARK SMILES IDX 38 44 91 45 39 46 96 47 90 48 92 49 40 50 95 51 89 52 88 53
REMARK SMILES IDX 41 55 75 56 54 57 74 58 55 59 58 60 73 61 93 62 56 63 57 64
REMARK SMILES IDX 72 66 94 67 59 68 42 69 43 70 52 71 44 72 45 73 51 74 53 75
REMARK SMILES IDX 46 76 47 77 48 78 49 79 50 80 76 81 77 82 86 83 78 84 79 85
REMARK SMILES IDX 85 86 87 87 80 88 81 89 82 90 83 91 84 92 60 93 61 94 70 95
REMARK SMILES IDX 62 96 63 97 69 98 71 99 64 100 65 101 66 102 67 103 68 104
REMARK H PARENT 8 11 92 54 58 65
REMARK Flexibility Score: inf
ROOT
ATOM      1  C   UNL A   1      44.599  21.763  25.332  1.00  0.00     0.275 C 
ENDROOT
BRANCH   1   2
ATOM      2  C   UNL A   1      45.677  22.748  24.922  1.00  0.00     0.275 C 
BRANCH   2   3
ATOM      3  O   UNL A   1      46.127  23.457  26.084  1.00  0.00    -0.458 OA
BRANCH   3   4
ATOM      4  C   UNL A   1      45.750  24.762  26.163  1.00  0.00     0.339 C 
ATOM      5  O   UNL A   1      45.096  25.364  25.331  1.00  0.00    -0.246 OA
BRANCH   4   6
ATOM      6  C   UNL A   1      46.258  25.322  27.425  1.00  0.00     0.075 A 
ATOM      7  C   UNL A   1      48.169  26.815  26.689  1.00  0.00     0.075 A 
ATOM      8  N   UNL A   1      49.052  27.538  27.461  1.00  0.00    -0.275 N 
ATOM      9  C   UNL A   1      47.358  26.169  27.613  1.00  0.00     0.061 A 
ATOM     10  N   UNL A   1      48.889  27.408  28.788  1.00  0.00    -0.154 NA
ATOM     11  H   UNL A   1      49.752  28.107  27.070  1.00  0.00     0.190 HD
ATOM     12  C   UNL A   1      47.831  26.607  28.902  1.00  0.00     0.182 A 
ATOM     13  N   UNL A   1      47.251  26.228  30.073  1.00  0.00    -0.226 NA
ATOM     14  C   UNL A   1      45.665  24.983  28.654  1.00  0.00     0.045 A 
ATOM     15  C   UNL A   1      46.174  25.411  29.904  1.00  0.00     0.074 A 
BRANCH   7  16
ATOM     16  C   UNL A   1      48.128  27.026  25.243  1.00  0.00     0.001 A 
ATOM     17  C   UNL A   1      47.930  27.551  22.470  1.00  0.00     0.118 A 
ATOM     18  C   UNL A   1      48.915  26.693  22.974  1.00  0.00     0.047 A 
ATOM     19  C   UNL A   1      47.063  28.162  23.362  1.00  0.00     0.047 A 
ATOM     20  C   UNL A   1      49.022  26.433  24.352  1.00  0.00     0.014 A 
ATOM     21  C   UNL A   1      47.181  27.911  24.731  1.00  0.00     0.014 A 
BRANCH  17  22
ATOM     22  O   UNL A   1      47.899  27.697  21.110  1.00  0.00    -0.497 OA
ATOM     23  C   UNL A   1      48.992  27.135  20.384  1.00  0.00     0.278 C 
ENDBRANCH  17  22
ENDBRANCH   7  16
BRANCH  15  24
ATOM     24  C   UNL A   1      45.576  24.858  31.138  1.00  0.00     0.000 A 
ATOM     25  C   UNL A   1      45.920  25.316  32.418  1.00  0.00     0.011 A 
ATOM     26  C   UNL A   1      44.604  23.842  31.048  1.00  0.00     0.011 A 
ATOM     27  C   UNL A   1      45.299  24.791  33.564  1.00  0.00     0.014 A 
ATOM     28  C   UNL A   1      43.986  23.315  32.185  1.00  0.00     0.014 A 
ATOM     29  C   UNL A   1      44.324  23.785  33.457  1.00  0.00     0.056 A 
BRANCH  29  30
ATOM     30  C   UNL A   1      43.662  23.214  34.686  1.00  0.00     0.416 C 
ATOM     31  F   UNL A   1      43.999  21.914  34.912  1.00  0.00    -0.166 F 
ATOM     32  F   UNL A   1      43.983  23.889  35.824  1.00  0.00    -0.166 F 
ATOM     33  F   UNL A   1      42.297  23.232  34.624  1.00  0.00    -0.166 F 
ENDBRANCH  29  30
ENDBRANCH  15  24
ENDBRANCH   4   6
ENDBRANCH   3   4
ENDBRANCH   2   3
ENDBRANCH   1   2
BRANCH   1  34
ATOM     34  O   UNL A   1      43.316  22.241  24.947  1.00  0.00    -0.458 OA
BRANCH  34  35
ATOM     35  C   UNL A   1      42.323  22.082  25.857  1.00  0.00     0.338 C 
ATOM     36  O   UNL A   1      41.603  21.125  26.026  1.00  0.00    -0.246 OA
BRANCH  35  37
ATOM     37  C   UNL A   1      42.241  23.368  26.559  1.00  0.00     0.060 A 
ATOM     38  C   UNL A   1      41.847  24.537  25.896  1.00  0.00     0.016 A 
ATOM     39  C   UNL A   1      42.543  23.354  27.929  1.00  0.00     0.016 A 
ATOM     40  C   UNL A   1      41.775  25.716  26.622  1.00  0.00     0.010 A 
ATOM     41  C   UNL A   1      42.446  24.506  28.648  1.00  0.00     0.010 A 
ATOM     42  C   UNL A   1      42.116  25.683  27.977  1.00  0.00    -0.014 A 
BRANCH  42  43
ATOM     43  C   UNL A   1      42.210  26.895  28.761  1.00  0.00     0.031 A 
ATOM     44  C   UNL A   1      43.341  27.801  28.422  1.00  0.00     0.074 A 
ATOM     45  C   UNL A   1      41.122  27.230  29.489  1.00  0.00     0.049 A 
ATOM     46  N   UNL A   1      44.250  28.261  29.216  1.00  0.00    -0.248 NA
ATOM     47  C   UNL A   1      43.580  28.147  27.009  1.00  0.00     0.031 C 
ATOM     48  C   UNL A   1      39.850  26.498  29.597  1.00  0.00     0.029 A 
ATOM     49  N   UNL A   1      40.855  28.391  30.137  1.00  0.00    -0.354 N 
ATOM     50  C   UNL A   1      45.014  29.153  28.463  1.00  0.00     0.074 A 
ATOM     51  C   UNL A   1      44.680  28.898  27.089  1.00  0.00     0.031 C 
ATOM     52  C   UNL A   1      38.887  27.332  30.042  1.00  0.00     0.029 A 
ATOM     53  C   UNL A   1      39.496  28.602  30.379  1.00  0.00     0.049 A 
ATOM     54  H   UNL A   1      41.555  29.028  30.412  1.00  0.00     0.167 HD
ATOM     55  C   UNL A   1      45.670  30.189  29.062  1.00  0.00     0.037 A 
ATOM     56  C   UNL A   1      38.943  29.796  30.716  1.00  0.00     0.037 A 
ATOM     57  C   UNL A   1      45.792  29.956  30.481  1.00  0.00     0.049 A 
ATOM     58  C   UNL A   1      40.057  30.612  31.293  1.00  0.00     0.074 A 
ATOM     59  C   UNL A   1      46.334  28.937  31.242  1.00  0.00     0.029 A 
ATOM     60  N   UNL A   1      44.933  30.629  31.321  1.00  0.00    -0.354 N 
ATOM     61  N   UNL A   1      40.700  30.269  32.383  1.00  0.00    -0.248 NA
ATOM     62  C   UNL A   1      40.801  31.471  30.379  1.00  0.00     0.031 C 
ATOM     63  C   UNL A   1      45.383  28.721  32.282  1.00  0.00     0.029 A 
ATOM     64  C   UNL A   1      44.386  29.691  32.161  1.00  0.00     0.049 A 
ATOM     65  H   UNL A   1      44.749  31.595  31.320  1.00  0.00     0.167 HD
ATOM     66  C   UNL A   1      42.041  30.502  32.099  1.00  0.00     0.074 A 
ATOM     67  C   UNL A   1      42.034  31.289  30.863  1.00  0.00     0.031 C 
ATOM     68  C   UNL A   1      43.044  29.787  32.695  1.00  0.00     0.037 A 
BRANCH  55  69
ATOM     69  C   UNL A   1      45.854  31.569  28.462  1.00  0.00     0.058 A 
ATOM     70  C   UNL A   1      44.737  32.208  27.878  1.00  0.00     0.135 A 
ATOM     71  C   UNL A   1      47.106  32.148  28.159  1.00  0.00     0.135 A 
ATOM     72  F   UNL A   1      43.491  31.763  28.114  1.00  0.00    -0.206 F 
ATOM     73  C   UNL A   1      44.862  33.257  26.969  1.00  0.00     0.059 A 
ATOM     74  C   UNL A   1      47.248  33.228  27.291  1.00  0.00     0.059 A 
ATOM     75  F   UNL A   1      48.260  31.649  28.611  1.00  0.00    -0.206 F 
ATOM     76  C   UNL A   1      46.127  33.744  26.662  1.00  0.00     0.060 A 
BRANCH  76  77
ATOM     77  S   UNL A   1      46.299  35.013  25.397  1.00  0.00     0.124 S 
ATOM     78  O   UNL A   1      47.697  34.856  25.015  1.00  0.00    -0.237 OA
ATOM     79  O   UNL A   1      45.313  34.587  24.409  1.00  0.00    -0.237 OA
ATOM     80  O   UNL A   1      45.971  36.244  26.111  1.00  0.00    -0.744 OA
ENDBRANCH  76  77
ENDBRANCH  55  69
BRANCH  56  81
ATOM     81  C   UNL A   1      37.697  30.371  30.123  1.00  0.00     0.058 A 
ATOM     82  C   UNL A   1      36.658  30.869  30.928  1.00  0.00     0.135 A 
ATOM     83  C   UNL A   1      37.602  30.673  28.746  1.00  0.00     0.135 A 
ATOM     84  F   UNL A   1      36.667  30.648  32.251  1.00  0.00    -0.206 F 
ATOM     85  C   UNL A   1      35.618  31.659  30.409  1.00  0.00     0.059 A 
ATOM     86  C   UNL A   1      36.571  31.439  28.205  1.00  0.00     0.059 A 
ATOM     87  F   UNL A   1      38.559  30.311  27.880  1.00  0.00    -0.206 F 
ATOM     88  C   UNL A   1      35.596  31.955  29.046  1.00  0.00     0.060 A 
BRANCH  88  89
ATOM     89  S   UNL A   1      34.381  33.123  28.387  1.00  0.00     0.124 S 
ATOM     90  O   UNL A   1      33.464  32.237  27.677  1.00  0.00    -0.237 OA
ATOM     91  O   UNL A   1      33.861  33.744  29.600  1.00  0.00    -0.237 OA
ATOM     92  O   UNL A   1      35.182  34.001  27.535  1.00  0.00    -0.744 OA
ENDBRANCH  88  89
ENDBRANCH  56  81
BRANCH  68  93
ATOM     93  C   UNL A   1      42.722  28.857  33.841  1.00  0.00     0.058 A 
ATOM     94  C   UNL A   1      42.375  29.274  35.140  1.00  0.00     0.135 A 
ATOM     95  C   UNL A   1      42.556  27.494  33.553  1.00  0.00     0.135 A 
ATOM     96  F   UNL A   1      42.384  30.569  35.473  1.00  0.00    -0.206 F 
ATOM     97  C   UNL A   1      41.932  28.377  36.115  1.00  0.00     0.059 A 
ATOM     98  C   UNL A   1      42.085  26.586  34.497  1.00  0.00     0.059 A 
ATOM     99  F   UNL A   1      42.796  27.037  32.312  1.00  0.00    -0.206 F 
ATOM    100  C   UNL A   1      41.791  27.031  35.783  1.00  0.00     0.060 A 
BRANCH 100 101
ATOM    101  S   UNL A   1      41.177  25.875  37.026  1.00  0.00     0.124 S 
ATOM    102  O   UNL A   1      40.543  24.851  36.202  1.00  0.00    -0.237 OA
ATOM    103  O   UNL A   1      42.400  25.469  37.713  1.00  0.00    -0.237 OA
ATOM    104  O   UNL A   1      40.263  26.686  37.826  1.00  0.00    -0.744 OA
ENDBRANCH 100 101
ENDBRANCH  68  93
ENDBRANCH  42  43
ENDBRANCH  35  37
ENDBRANCH  34  35
ENDBRANCH   1  34
TORSDOF 18
ENDMDL
