MODEL 1
REMARK VINA RESULT:     -11.0      0.000      0.000
REMARK SMILES C[C@@H](C(=O)OCCOC(=O)c1ccc(-c2c3nc(c(-c4c(F)cc(S(=O)(=O)[O-])cc4F)c4ccc([nH]4)c(-c4c(F)cc(S(=O)(=O)[O-])cc4F)c4nc(c(-c5c(F)cc(S(=O)(=O)[O-])cc5F)c5ccc2[nH]5)C=C4)C=C3)cc1)c1ccc(=O)n(C(F)F)c1
REMARK SMILES IDX 7 1 6 2 5 3 3 4 4 5 2 6 1 7 77 8 78 9 86 10 79 11 82 12
REMARK SMILES IDX 80 13 81 14 83 15 84 16 85 17 8 18 9 19 10 20 11 21 12 22
REMARK SMILES IDX 76 23 13 24 75 25 14 26 15 27 16 28 69 29 17 30 74 31 68 32
REMARK SMILES IDX 70 33 18 34 73 35 67 36 66 37 19 39 53 40 32 41 52 42 33 43
REMARK SMILES IDX 36 44 51 45 71 46 34 47 35 48 50 50 72 51 37 52 20 53 21 54
REMARK SMILES IDX 30 55 22 56 23 57 29 58 31 59 24 60 25 61 26 62 27 63 28 64
REMARK SMILES IDX 54 65 55 66 64 67 56 68 57 69 63 70 65 71 58 72 59 73 60 74
REMARK SMILES IDX 61 75 62 76 38 77 39 78 48 79 40 80 41 81 47 82 49 83 42 84
REMARK SMILES IDX 43 85 44 86 45 87 46 88
REMARK H PARENT 70 38 36 49
REMARK Flexibility Score: inf
ROOT
ATOM      1  C   UNL A   1      34.599  31.325  27.930  1.00  0.00     0.275 C 
ENDROOT
BRANCH   1   2
ATOM      2  C   UNL A   1      33.327  30.753  27.315  1.00  0.00     0.274 C 
BRANCH   2   3
ATOM      3  O   UNL A   1      33.524  29.372  26.949  1.00  0.00    -0.462 OA
BRANCH   3   4
ATOM      4  C   UNL A   1      32.410  28.592  26.872  1.00  0.00     0.313 C 
ATOM      5  O   UNL A   1      31.540  28.558  27.733  1.00  0.00    -0.252 OA
BRANCH   4   6
ATOM      6  C   UNL A   1      32.402  27.702  25.616  1.00  0.00     0.127 C 
ATOM      7  C   UNL A   1      33.809  27.418  25.073  1.00  0.00     0.025 C 
BRANCH   6   8
ATOM      8  C   UNL A   1      31.443  28.261  24.566  1.00  0.00    -0.017 A 
ATOM      9  C   UNL A   1      31.200  27.443  23.387  1.00  0.00     0.012 A 
ATOM     10  C   UNL A   1      30.822  29.455  24.637  1.00  0.00     0.099 A 
ATOM     11  C   UNL A   1      30.402  27.861  22.396  1.00  0.00     0.072 A 
ATOM     12  N   UNL A   1      29.989  29.910  23.628  1.00  0.00    -0.258 N 
ATOM     13  C   UNL A   1      29.754  29.196  22.465  1.00  0.00     0.254 A 
ATOM     14  O   UNL A   1      29.069  29.562  21.519  1.00  0.00    -0.269 OA
BRANCH  12  15
ATOM     15  C   UNL A   1      29.335  31.191  23.734  1.00  0.00     0.451 C 
ATOM     16  F   UNL A   1      28.009  31.038  23.966  1.00  0.00    -0.185 F 
ATOM     17  F   UNL A   1      29.865  31.930  24.735  1.00  0.00    -0.185 F 
ENDBRANCH  12  15
ENDBRANCH   6   8
ENDBRANCH   4   6
ENDBRANCH   3   4
ENDBRANCH   2   3
ENDBRANCH   1   2
BRANCH   1  18
ATOM     18  O   UNL A   1      35.553  30.269  28.135  1.00  0.00    -0.458 OA
BRANCH  18  19
ATOM     19  C   UNL A   1      36.215  30.291  29.314  1.00  0.00     0.338 C 
ATOM     20  O   UNL A   1      35.743  30.408  30.432  1.00  0.00    -0.246 OA
BRANCH  19  21
ATOM     21  C   UNL A   1      37.651  30.101  29.065  1.00  0.00     0.060 A 
ATOM     22  C   UNL A   1      38.084  29.842  27.766  1.00  0.00     0.016 A 
ATOM     23  C   UNL A   1      38.549  30.057  30.131  1.00  0.00     0.016 A 
ATOM     24  C   UNL A   1      39.399  29.446  27.542  1.00  0.00     0.010 A 
ATOM     25  C   UNL A   1      39.892  29.745  29.887  1.00  0.00     0.010 A 
ATOM     26  C   UNL A   1      40.324  29.395  28.596  1.00  0.00    -0.014 A 
BRANCH  26  27
ATOM     27  C   UNL A   1      41.716  28.922  28.346  1.00  0.00     0.031 A 
ATOM     28  C   UNL A   1      42.882  29.864  28.518  1.00  0.00     0.074 A 
ATOM     29  C   UNL A   1      41.953  27.638  28.005  1.00  0.00     0.049 A 
ATOM     30  N   UNL A   1      44.142  29.690  28.206  1.00  0.00    -0.248 NA
ATOM     31  C   UNL A   1      42.589  31.184  29.100  1.00  0.00     0.031 C 
ATOM     32  C   UNL A   1      40.932  26.601  27.843  1.00  0.00     0.029 A 
ATOM     33  N   UNL A   1      43.132  26.980  27.756  1.00  0.00    -0.354 N 
ATOM     34  C   UNL A   1      44.779  30.889  28.506  1.00  0.00     0.074 A 
ATOM     35  C   UNL A   1      43.768  31.787  29.022  1.00  0.00     0.031 C 
ATOM     36  C   UNL A   1      41.532  25.428  27.587  1.00  0.00     0.029 A 
ATOM     37  C   UNL A   1      42.972  25.642  27.486  1.00  0.00     0.049 A 
ATOM     38  H   UNL A   1      44.010  27.425  27.771  1.00  0.00     0.167 HD
ATOM     39  C   UNL A   1      46.086  31.214  28.363  1.00  0.00     0.037 A 
ATOM     40  C   UNL A   1      43.876  24.696  27.166  1.00  0.00     0.037 A 
ATOM     41  C   UNL A   1      47.106  30.302  27.917  1.00  0.00     0.049 A 
ATOM     42  C   UNL A   1      45.322  25.074  27.022  1.00  0.00     0.074 A 
ATOM     43  C   UNL A   1      48.454  30.545  27.719  1.00  0.00     0.029 A 
ATOM     44  N   UNL A   1      46.895  28.962  27.630  1.00  0.00    -0.354 N 
ATOM     45  N   UNL A   1      45.889  26.243  27.204  1.00  0.00    -0.248 NA
ATOM     46  C   UNL A   1      46.247  24.016  26.595  1.00  0.00     0.031 C 
ATOM     47  C   UNL A   1      49.057  29.352  27.297  1.00  0.00     0.029 A 
ATOM     48  C   UNL A   1      48.086  28.365  27.255  1.00  0.00     0.049 A 
ATOM     49  H   UNL A   1      46.025  28.503  27.685  1.00  0.00     0.167 HD
ATOM     50  C   UNL A   1      47.233  26.063  26.903  1.00  0.00     0.074 A 
ATOM     51  C   UNL A   1      47.401  24.667  26.553  1.00  0.00     0.031 C 
ATOM     52  C   UNL A   1      48.234  26.977  26.900  1.00  0.00     0.037 A 
BRANCH  39  53
ATOM     53  C   UNL A   1      46.481  32.632  28.661  1.00  0.00     0.058 A 
ATOM     54  C   UNL A   1      46.439  33.636  27.683  1.00  0.00     0.135 A 
ATOM     55  C   UNL A   1      46.895  32.989  29.954  1.00  0.00     0.135 A 
ATOM     56  F   UNL A   1      46.071  33.343  26.427  1.00  0.00    -0.206 F 
ATOM     57  C   UNL A   1      46.819  34.945  27.970  1.00  0.00     0.059 A 
ATOM     58  C   UNL A   1      47.263  34.295  30.269  1.00  0.00     0.059 A 
ATOM     59  F   UNL A   1      46.955  32.064  30.925  1.00  0.00    -0.206 F 
ATOM     60  C   UNL A   1      47.236  35.262  29.265  1.00  0.00     0.060 A 
BRANCH  60  61
ATOM     61  S   UNL A   1      47.743  36.956  29.629  1.00  0.00     0.124 S 
ATOM     62  O   UNL A   1      48.572  37.267  28.468  1.00  0.00    -0.237 OA
ATOM     63  O   UNL A   1      46.467  37.663  29.701  1.00  0.00    -0.237 OA
ATOM     64  O   UNL A   1      48.457  36.831  30.896  1.00  0.00    -0.744 OA
ENDBRANCH  60  61
ENDBRANCH  39  53
BRANCH  40  65
ATOM     65  C   UNL A   1      43.426  23.300  26.922  1.00  0.00     0.058 A 
ATOM     66  C   UNL A   1      43.368  22.779  25.623  1.00  0.00     0.135 A 
ATOM     67  C   UNL A   1      43.081  22.453  27.986  1.00  0.00     0.135 A 
ATOM     68  F   UNL A   1      43.675  23.555  24.573  1.00  0.00    -0.206 F 
ATOM     69  C   UNL A   1      42.986  21.462  25.385  1.00  0.00     0.059 A 
ATOM     70  C   UNL A   1      42.717  21.128  27.775  1.00  0.00     0.059 A 
ATOM     71  F   UNL A   1      43.131  22.904  29.250  1.00  0.00    -0.206 F 
ATOM     72  C   UNL A   1      42.666  20.642  26.469  1.00  0.00     0.060 A 
BRANCH  72  73
ATOM     73  S   UNL A   1      42.251  18.910  26.173  1.00  0.00     0.124 S 
ATOM     74  O   UNL A   1      43.199  18.556  25.123  1.00  0.00    -0.237 OA
ATOM     75  O   UNL A   1      42.487  18.298  27.478  1.00  0.00    -0.237 OA
ATOM     76  O   UNL A   1      40.850  18.972  25.767  1.00  0.00    -0.744 OA
ENDBRANCH  72  73
ENDBRANCH  40  65
BRANCH  52  77
ATOM     77  C   UNL A   1      49.595  26.496  26.494  1.00  0.00     0.058 A 
ATOM     78  C   UNL A   1      50.492  25.978  27.441  1.00  0.00     0.135 A 
ATOM     79  C   UNL A   1      49.994  26.518  25.150  1.00  0.00     0.135 A 
ATOM     80  F   UNL A   1      50.157  25.943  28.740  1.00  0.00    -0.206 F 
ATOM     81  C   UNL A   1      51.747  25.510  27.069  1.00  0.00     0.059 A 
ATOM     82  C   UNL A   1      51.239  26.042  24.753  1.00  0.00     0.059 A 
ATOM     83  F   UNL A   1      49.168  26.998  24.207  1.00  0.00    -0.206 F 
ATOM     84  C   UNL A   1      52.114  25.549  25.723  1.00  0.00     0.060 A 
BRANCH  84  85
ATOM     85  S   UNL A   1      53.734  24.913  25.243  1.00  0.00     0.124 S 
ATOM     86  O   UNL A   1      54.006  25.685  24.035  1.00  0.00    -0.237 OA
ATOM     87  O   UNL A   1      54.561  25.239  26.402  1.00  0.00    -0.237 OA
ATOM     88  O   UNL A   1      53.491  23.488  25.038  1.00  0.00    -0.744 OA
ENDBRANCH  84  85
ENDBRANCH  52  77
ENDBRANCH  26  27
ENDBRANCH  19  21
ENDBRANCH  18  19
ENDBRANCH   1  18
TORSDOF 16
ENDMDL
MODEL 2
REMARK VINA RESULT:     -10.9      3.552      5.137
REMARK SMILES C[C@@H](C(=O)OCCOC(=O)c1ccc(-c2c3nc(c(-c4c(F)cc(S(=O)(=O)[O-])cc4F)c4ccc([nH]4)c(-c4c(F)cc(S(=O)(=O)[O-])cc4F)c4nc(c(-c5c(F)cc(S(=O)(=O)[O-])cc5F)c5ccc2[nH]5)C=C4)C=C3)cc1)c1ccc(=O)n(C(F)F)c1
REMARK SMILES IDX 7 1 6 2 5 3 3 4 4 5 2 6 1 7 77 8 78 9 86 10 79 11 82 12
REMARK SMILES IDX 80 13 81 14 83 15 84 16 85 17 8 18 9 19 10 20 11 21 12 22
REMARK SMILES IDX 76 23 13 24 75 25 14 26 15 27 16 28 69 29 17 30 74 31 68 32
REMARK SMILES IDX 70 33 18 34 73 35 67 36 66 37 19 39 53 40 32 41 52 42 33 43
REMARK SMILES IDX 36 44 51 45 71 46 34 47 35 48 50 50 72 51 37 52 20 53 21 54
REMARK SMILES IDX 30 55 22 56 23 57 29 58 31 59 24 60 25 61 26 62 27 63 28 64
REMARK SMILES IDX 54 65 55 66 64 67 56 68 57 69 63 70 65 71 58 72 59 73 60 74
REMARK SMILES IDX 61 75 62 76 38 77 39 78 48 79 40 80 41 81 47 82 49 83 42 84
REMARK SMILES IDX 43 85 44 86 45 87 46 88
REMARK H PARENT 70 38 36 49
REMARK Flexibility Score: inf
ROOT
ATOM      1  C   UNL A   1      34.677  32.083  29.058  1.00  0.00     0.275 C 
ENDROOT
BRANCH   1   2
ATOM      2  C   UNL A   1      34.386  33.428  29.716  1.00  0.00     0.274 C 
BRANCH   2   3
ATOM      3  O   UNL A   1      34.027  33.241  31.100  1.00  0.00    -0.462 OA
BRANCH   3   4
ATOM      4  C   UNL A   1      34.382  34.231  31.965  1.00  0.00     0.313 C 
ATOM      5  O   UNL A   1      34.237  35.426  31.733  1.00  0.00    -0.252 OA
BRANCH   4   6
ATOM      6  C   UNL A   1      35.054  33.686  33.238  1.00  0.00     0.127 C 
ATOM      7  C   UNL A   1      34.989  34.666  34.417  1.00  0.00     0.025 C 
BRANCH   6   8
ATOM      8  C   UNL A   1      36.468  33.193  32.931  1.00  0.00    -0.017 A 
ATOM      9  C   UNL A   1      37.007  32.150  33.791  1.00  0.00     0.012 A 
ATOM     10  C   UNL A   1      37.256  33.659  31.942  1.00  0.00     0.099 A 
ATOM     11  C   UNL A   1      38.248  31.677  33.623  1.00  0.00     0.072 A 
ATOM     12  N   UNL A   1      38.543  33.184  31.745  1.00  0.00    -0.258 N 
ATOM     13  C   UNL A   1      39.125  32.224  32.556  1.00  0.00     0.254 A 
ATOM     14  O   UNL A   1      40.269  31.799  32.463  1.00  0.00    -0.269 OA
BRANCH  12  15
ATOM     15  C   UNL A   1      39.362  33.699  30.675  1.00  0.00     0.451 C 
ATOM     16  F   UNL A   1      39.618  32.736  29.757  1.00  0.00    -0.185 F 
ATOM     17  F   UNL A   1      38.759  34.738  30.054  1.00  0.00    -0.185 F 
ENDBRANCH  12  15
ENDBRANCH   6   8
ENDBRANCH   4   6
ENDBRANCH   3   4
ENDBRANCH   2   3
ENDBRANCH   1   2
BRANCH   1  18
ATOM     18  O   UNL A   1      36.073  31.769  29.199  1.00  0.00    -0.458 OA
BRANCH  18  19
ATOM     19  C   UNL A   1      36.368  30.750  30.038  1.00  0.00     0.338 C 
ATOM     20  O   UNL A   1      35.722  30.363  30.996  1.00  0.00    -0.246 OA
BRANCH  19  21
ATOM     21  C   UNL A   1      37.614  30.107  29.597  1.00  0.00     0.060 A 
ATOM     22  C   UNL A   1      38.445  29.518  30.546  1.00  0.00     0.016 A 
ATOM     23  C   UNL A   1      38.017  30.198  28.264  1.00  0.00     0.016 A 
ATOM     24  C   UNL A   1      39.722  29.100  30.184  1.00  0.00     0.010 A 
ATOM     25  C   UNL A   1      39.268  29.695  27.888  1.00  0.00     0.010 A 
ATOM     26  C   UNL A   1      40.153  29.177  28.851  1.00  0.00    -0.014 A 
BRANCH  26  27
ATOM     27  C   UNL A   1      41.541  28.771  28.489  1.00  0.00     0.031 A 
ATOM     28  C   UNL A   1      42.674  29.761  28.589  1.00  0.00     0.074 A 
ATOM     29  C   UNL A   1      41.806  27.504  28.108  1.00  0.00     0.049 A 
ATOM     30  N   UNL A   1      43.913  29.649  28.180  1.00  0.00    -0.248 NA
ATOM     31  C   UNL A   1      42.370  31.058  29.215  1.00  0.00     0.031 C 
ATOM     32  C   UNL A   1      40.822  26.425  28.005  1.00  0.00     0.029 A 
ATOM     33  N   UNL A   1      42.990  26.903  27.759  1.00  0.00    -0.354 N 
ATOM     34  C   UNL A   1      44.519  30.870  28.452  1.00  0.00     0.074 A 
ATOM     35  C   UNL A   1      43.512  31.714  29.059  1.00  0.00     0.031 C 
ATOM     36  C   UNL A   1      41.451  25.284  27.683  1.00  0.00     0.029 A 
ATOM     37  C   UNL A   1      42.868  25.563  27.477  1.00  0.00     0.049 A 
ATOM     38  H   UNL A   1      43.847  27.386  27.715  1.00  0.00     0.167 HD
ATOM     39  C   UNL A   1      45.796  31.255  28.217  1.00  0.00     0.037 A 
ATOM     40  C   UNL A   1      43.785  24.663  27.073  1.00  0.00     0.037 A 
ATOM     41  C   UNL A   1      46.817  30.396  27.678  1.00  0.00     0.049 A 
ATOM     42  C   UNL A   1      45.199  25.108  26.827  1.00  0.00     0.074 A 
ATOM     43  C   UNL A   1      48.135  30.702  27.384  1.00  0.00     0.029 A 
ATOM     44  N   UNL A   1      46.643  29.052  27.385  1.00  0.00    -0.354 N 
ATOM     45  N   UNL A   1      45.726  26.298  26.987  1.00  0.00    -0.248 NA
ATOM     46  C   UNL A   1      46.133  24.098  26.312  1.00  0.00     0.031 C 
ATOM     47  C   UNL A   1      48.755  29.543  26.896  1.00  0.00     0.029 A 
ATOM     48  C   UNL A   1      47.827  28.515  26.909  1.00  0.00     0.049 A 
ATOM     49  H   UNL A   1      45.801  28.554  27.497  1.00  0.00     0.167 HD
ATOM     50  C   UNL A   1      47.050  26.183  26.582  1.00  0.00     0.074 A 
ATOM     51  C   UNL A   1      47.252  24.801  26.195  1.00  0.00     0.031 C 
ATOM     52  C   UNL A   1      48.007  27.140  26.520  1.00  0.00     0.037 A 
BRANCH  39  53
ATOM     53  C   UNL A   1      46.150  32.685  28.509  1.00  0.00     0.058 A 
ATOM     54  C   UNL A   1      46.627  33.092  29.763  1.00  0.00     0.135 A 
ATOM     55  C   UNL A   1      46.019  33.660  27.507  1.00  0.00     0.135 A 
ATOM     56  F   UNL A   1      46.750  32.203  30.761  1.00  0.00    -0.206 F 
ATOM     57  C   UNL A   1      46.940  34.423  30.024  1.00  0.00     0.059 A 
ATOM     58  C   UNL A   1      46.343  34.994  27.739  1.00  0.00     0.059 A 
ATOM     59  F   UNL A   1      45.564  33.322  26.290  1.00  0.00    -0.206 F 
ATOM     60  C   UNL A   1      46.788  35.368  29.006  1.00  0.00     0.060 A 
BRANCH  60  61
ATOM     61  S   UNL A   1      47.180  37.096  29.353  1.00  0.00     0.124 S 
ATOM     62  O   UNL A   1      45.953  37.763  28.930  1.00  0.00    -0.237 OA
ATOM     63  O   UNL A   1      47.428  37.084  30.792  1.00  0.00    -0.237 OA
ATOM     64  O   UNL A   1      48.353  37.350  28.523  1.00  0.00    -0.744 OA
ENDBRANCH  60  61
ENDBRANCH  39  53
BRANCH  40  65
ATOM     65  C   UNL A   1      43.379  23.253  26.839  1.00  0.00     0.058 A 
ATOM     66  C   UNL A   1      43.291  22.734  25.539  1.00  0.00     0.135 A 
ATOM     67  C   UNL A   1      43.107  22.389  27.910  1.00  0.00     0.135 A 
ATOM     68  F   UNL A   1      43.528  23.526  24.483  1.00  0.00    -0.206 F 
ATOM     69  C   UNL A   1      42.950  21.405  25.309  1.00  0.00     0.059 A 
ATOM     70  C   UNL A   1      42.785  21.051  27.706  1.00  0.00     0.059 A 
ATOM     71  F   UNL A   1      43.189  22.836  29.173  1.00  0.00    -0.206 F 
ATOM     72  C   UNL A   1      42.703  20.569  26.400  1.00  0.00     0.060 A 
BRANCH  72  73
ATOM     73  S   UNL A   1      42.342  18.824  26.110  1.00  0.00     0.124 S 
ATOM     74  O   UNL A   1      43.267  18.509  25.027  1.00  0.00    -0.237 OA
ATOM     75  O   UNL A   1      42.645  18.217  27.403  1.00  0.00    -0.237 OA
ATOM     76  O   UNL A   1      40.927  18.836  25.752  1.00  0.00    -0.744 OA
ENDBRANCH  72  73
ENDBRANCH  40  65
BRANCH  52  77
ATOM     77  C   UNL A   1      49.353  26.727  26.004  1.00  0.00     0.058 A 
ATOM     78  C   UNL A   1      49.708  26.931  24.661  1.00  0.00     0.135 A 
ATOM     79  C   UNL A   1      50.308  26.158  26.860  1.00  0.00     0.135 A 
ATOM     80  F   UNL A   1      48.825  27.466  23.803  1.00  0.00    -0.206 F 
ATOM     81  C   UNL A   1      50.961  26.571  24.181  1.00  0.00     0.059 A 
ATOM     82  C   UNL A   1      51.573  25.803  26.404  1.00  0.00     0.059 A 
ATOM     83  F   UNL A   1      50.017  25.949  28.154  1.00  0.00    -0.206 F 
ATOM     84  C   UNL A   1      51.887  26.004  25.058  1.00  0.00     0.060 A 
BRANCH  84  85
ATOM     85  S   UNL A   1      53.524  25.565  24.435  1.00  0.00     0.124 S 
ATOM     86  O   UNL A   1      54.390  26.357  25.301  1.00  0.00    -0.237 OA
ATOM     87  O   UNL A   1      53.568  24.120  24.645  1.00  0.00    -0.237 OA
ATOM     88  O   UNL A   1      53.476  25.984  23.037  1.00  0.00    -0.744 OA
ENDBRANCH  84  85
ENDBRANCH  52  77
ENDBRANCH  26  27
ENDBRANCH  19  21
ENDBRANCH  18  19
ENDBRANCH   1  18
TORSDOF 16
ENDMDL
MODEL 3
REMARK VINA RESULT:     -10.9      7.574     12.875
REMARK SMILES C[C@@H](C(=O)OCCOC(=O)c1ccc(-c2c3nc(c(-c4c(F)cc(S(=O)(=O)[O-])cc4F)c4ccc([nH]4)c(-c4c(F)cc(S(=O)(=O)[O-])cc4F)c4nc(c(-c5c(F)cc(S(=O)(=O)[O-])cc5F)c5ccc2[nH]5)C=C4)C=C3)cc1)c1ccc(=O)n(C(F)F)c1
REMARK SMILES IDX 7 1 6 2 5 3 3 4 4 5 2 6 1 7 77 8 78 9 86 10 79 11 82 12
REMARK SMILES IDX 80 13 81 14 83 15 84 16 85 17 8 18 9 19 10 20 11 21 12 22
REMARK SMILES IDX 76 23 13 24 75 25 14 26 15 27 16 28 69 29 17 30 74 31 68 32
REMARK SMILES IDX 70 33 18 34 73 35 67 36 66 37 19 39 53 40 32 41 52 42 33 43
REMARK SMILES IDX 36 44 51 45 71 46 34 47 35 48 50 50 72 51 37 52 20 53 21 54
REMARK SMILES IDX 30 55 22 56 23 57 29 58 31 59 24 60 25 61 26 62 27 63 28 64
REMARK SMILES IDX 54 65 55 66 64 67 56 68 57 69 63 70 65 71 58 72 59 73 60 74
REMARK SMILES IDX 61 75 62 76 38 77 39 78 48 79 40 80 41 81 47 82 49 83 42 84
REMARK SMILES IDX 43 85 44 86 45 87 46 88
REMARK H PARENT 70 38 36 49
REMARK Flexibility Score: inf
ROOT
ATOM      1  C   UNL A   1      39.534  22.617  26.480  1.00  0.00     0.275 C 
ENDROOT
BRANCH   1   2
ATOM      2  C   UNL A   1      38.268  22.092  25.811  1.00  0.00     0.274 C 
BRANCH   2   3
ATOM      3  O   UNL A   1      37.187  23.032  25.978  1.00  0.00    -0.462 OA
BRANCH   3   4
ATOM      4  C   UNL A   1      35.922  22.538  25.870  1.00  0.00     0.313 C 
ATOM      5  O   UNL A   1      35.128  22.485  26.801  1.00  0.00    -0.252 OA
BRANCH   4   6
ATOM      6  C   UNL A   1      35.625  21.984  24.464  1.00  0.00     0.127 C 
ATOM      7  C   UNL A   1      35.181  23.069  23.474  1.00  0.00     0.025 C 
BRANCH   6   8
ATOM      8  C   UNL A   1      34.663  20.799  24.545  1.00  0.00    -0.017 A 
ATOM      9  C   UNL A   1      33.244  21.104  24.654  1.00  0.00     0.012 A 
ATOM     10  C   UNL A   1      35.026  19.502  24.540  1.00  0.00     0.099 A 
ATOM     11  C   UNL A   1      32.327  20.135  24.764  1.00  0.00     0.072 A 
ATOM     12  N   UNL A   1      34.097  18.480  24.649  1.00  0.00    -0.258 N 
ATOM     13  C   UNL A   1      32.739  18.709  24.799  1.00  0.00     0.254 A 
ATOM     14  O   UNL A   1      31.875  17.853  24.947  1.00  0.00    -0.269 OA
BRANCH  12  15
ATOM     15  C   UNL A   1      34.515  17.099  24.637  1.00  0.00     0.451 C 
ATOM     16  F   UNL A   1      34.477  16.594  23.381  1.00  0.00    -0.185 F 
ATOM     17  F   UNL A   1      35.771  16.964  25.118  1.00  0.00    -0.185 F 
ENDBRANCH  12  15
ENDBRANCH   6   8
ENDBRANCH   4   6
ENDBRANCH   3   4
ENDBRANCH   2   3
ENDBRANCH   1   2
BRANCH   1  18
ATOM     18  O   UNL A   1      39.450  24.046  26.618  1.00  0.00    -0.458 OA
BRANCH  18  19
ATOM     19  C   UNL A   1      40.627  24.710  26.619  1.00  0.00     0.338 C 
ATOM     20  O   UNL A   1      41.513  24.658  25.784  1.00  0.00    -0.246 OA
BRANCH  19  21
ATOM     21  C   UNL A   1      40.687  25.584  27.800  1.00  0.00     0.060 A 
ATOM     22  C   UNL A   1      39.588  25.643  28.654  1.00  0.00     0.016 A 
ATOM     23  C   UNL A   1      41.776  26.435  27.989  1.00  0.00     0.016 A 
ATOM     24  C   UNL A   1      39.536  26.617  29.647  1.00  0.00     0.010 A 
ATOM     25  C   UNL A   1      41.756  27.354  29.045  1.00  0.00     0.010 A 
ATOM     26  C   UNL A   1      40.618  27.484  29.861  1.00  0.00    -0.014 A 
BRANCH  26  27
ATOM     27  C   UNL A   1      40.526  28.554  30.897  1.00  0.00     0.031 A 
ATOM     28  C   UNL A   1      41.523  28.606  32.027  1.00  0.00     0.074 A 
ATOM     29  C   UNL A   1      39.577  29.509  30.812  1.00  0.00     0.049 A 
ATOM     30  N   UNL A   1      41.522  29.357  33.100  1.00  0.00    -0.248 NA
ATOM     31  C   UNL A   1      42.662  27.677  31.952  1.00  0.00     0.031 C 
ATOM     32  C   UNL A   1      38.570  29.614  29.754  1.00  0.00     0.029 A 
ATOM     33  N   UNL A   1      39.319  30.589  31.619  1.00  0.00    -0.354 N 
ATOM     34  C   UNL A   1      42.626  28.959  33.846  1.00  0.00     0.074 A 
ATOM     35  C   UNL A   1      43.273  27.896  33.108  1.00  0.00     0.031 C 
ATOM     36  C   UNL A   1      37.849  30.730  29.940  1.00  0.00     0.029 A 
ATOM     37  C   UNL A   1      38.285  31.378  31.173  1.00  0.00     0.049 A 
ATOM     38  H   UNL A   1      39.827  30.782  32.440  1.00  0.00     0.167 HD
ATOM     39  C   UNL A   1      43.059  29.434  35.038  1.00  0.00     0.037 A 
ATOM     40  C   UNL A   1      37.730  32.483  31.707  1.00  0.00     0.037 A 
ATOM     41  C   UNL A   1      42.459  30.537  35.740  1.00  0.00     0.049 A 
ATOM     42  C   UNL A   1      38.231  32.999  33.025  1.00  0.00     0.074 A 
ATOM     43  C   UNL A   1      42.814  31.076  36.965  1.00  0.00     0.029 A 
ATOM     44  N   UNL A   1      41.398  31.291  35.264  1.00  0.00    -0.354 N 
ATOM     45  N   UNL A   1      39.208  32.540  33.770  1.00  0.00    -0.248 NA
ATOM     46  C   UNL A   1      37.534  34.161  33.592  1.00  0.00     0.031 C 
ATOM     47  C   UNL A   1      41.955  32.150  37.236  1.00  0.00     0.029 A 
ATOM     48  C   UNL A   1      41.082  32.290  36.170  1.00  0.00     0.049 A 
ATOM     49  H   UNL A   1      40.937  31.139  34.407  1.00  0.00     0.167 HD
ATOM     50  C   UNL A   1      39.235  33.349  34.899  1.00  0.00     0.074 A 
ATOM     51  C   UNL A   1      38.195  34.344  34.728  1.00  0.00     0.031 C 
ATOM     52  C   UNL A   1      40.038  33.265  35.988  1.00  0.00     0.037 A 
BRANCH  39  53
ATOM     53  C   UNL A   1      44.224  28.733  35.677  1.00  0.00     0.058 A 
ATOM     54  C   UNL A   1      45.549  29.119  35.433  1.00  0.00     0.135 A 
ATOM     55  C   UNL A   1      44.002  27.663  36.560  1.00  0.00     0.135 A 
ATOM     56  F   UNL A   1      45.816  30.121  34.581  1.00  0.00    -0.206 F 
ATOM     57  C   UNL A   1      46.620  28.452  36.023  1.00  0.00     0.059 A 
ATOM     58  C   UNL A   1      45.056  26.994  37.175  1.00  0.00     0.059 A 
ATOM     59  F   UNL A   1      42.752  27.254  36.825  1.00  0.00    -0.206 F 
ATOM     60  C   UNL A   1      46.363  27.386  36.887  1.00  0.00     0.060 A 
BRANCH  60  61
ATOM     61  S   UNL A   1      47.754  26.514  37.638  1.00  0.00     0.124 S 
ATOM     62  O   UNL A   1      48.346  25.857  36.476  1.00  0.00    -0.237 OA
ATOM     63  O   UNL A   1      48.538  27.602  38.216  1.00  0.00    -0.237 OA
ATOM     64  O   UNL A   1      47.116  25.626  38.604  1.00  0.00    -0.744 OA
ENDBRANCH  60  61
ENDBRANCH  39  53
BRANCH  40  65
ATOM     65  C   UNL A   1      36.605  33.154  31.005  1.00  0.00     0.058 A 
ATOM     66  C   UNL A   1      35.297  33.077  31.501  1.00  0.00     0.135 A 
ATOM     67  C   UNL A   1      36.823  33.914  29.845  1.00  0.00     0.135 A 
ATOM     68  F   UNL A   1      35.037  32.349  32.598  1.00  0.00    -0.206 F 
ATOM     69  C   UNL A   1      34.241  33.732  30.875  1.00  0.00     0.059 A 
ATOM     70  C   UNL A   1      35.789  34.596  29.214  1.00  0.00     0.059 A 
ATOM     71  F   UNL A   1      38.061  34.028  29.337  1.00  0.00    -0.206 F 
ATOM     72  C   UNL A   1      34.498  34.494  29.733  1.00  0.00     0.060 A 
BRANCH  72  73
ATOM     73  S   UNL A   1      33.148  35.415  28.965  1.00  0.00     0.124 S 
ATOM     74  O   UNL A   1      32.356  35.800  30.127  1.00  0.00    -0.237 OA
ATOM     75  O   UNL A   1      33.849  36.500  28.284  1.00  0.00    -0.237 OA
ATOM     76  O   UNL A   1      32.538  34.427  28.080  1.00  0.00    -0.744 OA
ENDBRANCH  72  73
ENDBRANCH  40  65
BRANCH  52  77
ATOM     77  C   UNL A   1      39.813  34.266  37.081  1.00  0.00     0.058 A 
ATOM     78  C   UNL A   1      39.051  33.943  38.214  1.00  0.00     0.135 A 
ATOM     79  C   UNL A   1      40.391  35.543  37.017  1.00  0.00     0.135 A 
ATOM     80  F   UNL A   1      38.472  32.735  38.316  1.00  0.00    -0.206 F 
ATOM     81  C   UNL A   1      38.856  34.858  39.241  1.00  0.00     0.059 A 
ATOM     82  C   UNL A   1      40.222  36.469  38.040  1.00  0.00     0.059 A 
ATOM     83  F   UNL A   1      41.135  35.896  35.956  1.00  0.00    -0.206 F 
ATOM     84  C   UNL A   1      39.443  36.120  39.145  1.00  0.00     0.060 A 
BRANCH  84  85
ATOM     85  S   UNL A   1      39.211  37.295  40.497  1.00  0.00     0.124 S 
ATOM     86  O   UNL A   1      40.565  37.806  40.677  1.00  0.00    -0.237 OA
ATOM     87  O   UNL A   1      38.247  38.239  39.936  1.00  0.00    -0.237 OA
ATOM     88  O   UNL A   1      38.701  36.464  41.583  1.00  0.00    -0.744 OA
ENDBRANCH  84  85
ENDBRANCH  52  77
ENDBRANCH  26  27
ENDBRANCH  19  21
ENDBRANCH  18  19
ENDBRANCH   1  18
TORSDOF 16
ENDMDL
