MODEL 1
REMARK VINA RESULT:     -11.0      0.000      0.000
REMARK SMILES C[C@@H](CNc1cccc(F)c1C(=O)OCCOC(=O)c1ccc(-c2c3nc(c(-c4c(F)cc(S(=O)(=O)[O-])cc4F)c4ccc([nH]4)c(-c4c(F)cc(S(=O)(=O)[O-])cc4F)c4nc(c(-c5c(F)cc(S(=O)(=O)[O-])cc5F)c5ccc2[nH]5)C=C4)C=C3)cc1)[NH+]1CCCCC1
REMARK SMILES IDX 15 1 14 2 12 3 13 4 11 5 5 6 6 7 7 8 9 9 8 10 10 11 4 12
REMARK SMILES IDX 3 14 2 15 1 16 86 17 87 18 91 19 88 21 90 22 89 23 16 24
REMARK SMILES IDX 17 25 18 26 19 27 20 28 21 29 85 30 22 31 84 32 23 33 24 34
REMARK SMILES IDX 25 35 78 36 26 37 83 38 77 39 79 40 27 41 82 42 76 43 75 44
REMARK SMILES IDX 28 46 62 47 41 48 61 49 42 50 45 51 60 52 80 53 43 54 44 55
REMARK SMILES IDX 59 57 81 58 46 59 29 60 30 61 39 62 31 63 32 64 38 65 40 66
REMARK SMILES IDX 33 67 34 68 35 69 36 70 37 71 63 72 64 73 73 74 65 75 66 76
REMARK SMILES IDX 72 77 74 78 67 79 68 80 69 81 70 82 71 83 47 84 48 85 57 86
REMARK SMILES IDX 49 87 50 88 56 89 58 90 51 91 52 92 53 93 54 94 55 95
REMARK H PARENT 4 13 86 20 79 45 45 56
REMARK Flexibility Score: inf
ROOT
ATOM      1  C   UNL A   1      46.383  24.430  25.500  1.00  0.00     0.275 C 
ENDROOT
BRANCH   1   2
ATOM      2  O   UNL A   1      46.463  22.988  25.431  1.00  0.00    -0.458 OA
BRANCH   2   3
ATOM      3  C   UNL A   1      45.619  22.448  24.512  1.00  0.00     0.343 C 
ATOM      4  O   UNL A   1      45.327  23.029  23.491  1.00  0.00    -0.246 OA
BRANCH   3   5
ATOM      5  C   UNL A   1      45.071  21.110  24.867  1.00  0.00     0.118 A 
ATOM      6  C   UNL A   1      43.713  20.971  25.276  1.00  0.00     0.052 A 
ATOM      7  C   UNL A   1      43.235  19.684  25.579  1.00  0.00     0.027 A 
ATOM      8  C   UNL A   1      44.071  18.568  25.537  1.00  0.00     0.005 A 
ATOM      9  C   UNL A   1      45.905  19.988  24.882  1.00  0.00     0.139 A 
ATOM     10  C   UNL A   1      45.412  18.724  25.206  1.00  0.00     0.040 A 
ATOM     11  F   UNL A   1      47.217  20.080  24.614  1.00  0.00    -0.206 F 
BRANCH   6  12
ATOM     12  N   UNL A   1      42.789  22.013  25.230  1.00  0.00    -0.378 N 
ATOM     13  H   UNL A   1      42.447  22.265  24.342  1.00  0.00     0.160 HD
BRANCH  12  14
ATOM     14  C   UNL A   1      42.271  22.774  26.381  1.00  0.00     0.177 C 
BRANCH  14  15
ATOM     15  C   UNL A   1      40.819  22.422  26.929  1.00  0.00     0.200 C 
ATOM     16  C   UNL A   1      40.764  21.133  27.784  1.00  0.00     0.077 C 
BRANCH  15  17
ATOM     17  N   UNL A   1      39.620  22.643  26.052  1.00  0.00    -0.331 N 
ATOM     18  C   UNL A   1      38.928  21.403  25.723  1.00  0.00     0.262 C 
ATOM     19  C   UNL A   1      38.750  23.736  26.510  1.00  0.00     0.262 C 
ATOM     20  H   UNL A   1      39.976  22.982  25.159  1.00  0.00     0.348 HD
ATOM     21  C   UNL A   1      37.590  21.541  25.014  1.00  0.00     0.062 C 
ATOM     22  C   UNL A   1      37.428  23.875  25.766  1.00  0.00     0.062 C 
ATOM     23  C   UNL A   1      36.706  22.540  25.740  1.00  0.00     0.012 C 
ENDBRANCH  15  17
ENDBRANCH  14  15
ENDBRANCH  12  14
ENDBRANCH   6  12
ENDBRANCH   3   5
ENDBRANCH   2   3
ENDBRANCH   1   2
BRANCH   1  24
ATOM     24  C   UNL A   1      45.190  24.937  26.325  1.00  0.00     0.275 C 
BRANCH  24  25
ATOM     25  O   UNL A   1      44.698  26.224  25.886  1.00  0.00    -0.458 OA
BRANCH  25  26
ATOM     26  C   UNL A   1      43.350  26.355  25.811  1.00  0.00     0.338 C 
ATOM     27  O   UNL A   1      42.623  25.900  24.942  1.00  0.00    -0.246 OA
BRANCH  26  28
ATOM     28  C   UNL A   1      42.808  26.988  27.036  1.00  0.00     0.060 A 
ATOM     29  C   UNL A   1      43.386  28.196  27.411  1.00  0.00     0.016 A 
ATOM     30  C   UNL A   1      41.868  26.400  27.881  1.00  0.00     0.016 A 
ATOM     31  C   UNL A   1      42.976  28.873  28.566  1.00  0.00     0.010 A 
ATOM     32  C   UNL A   1      41.463  27.077  29.057  1.00  0.00     0.010 A 
ATOM     33  C   UNL A   1      41.988  28.341  29.392  1.00  0.00    -0.014 A 
BRANCH  33  34
ATOM     34  C   UNL A   1      41.678  29.043  30.676  1.00  0.00     0.031 A 
ATOM     35  C   UNL A   1      40.525  30.001  30.684  1.00  0.00     0.074 A 
ATOM     36  C   UNL A   1      42.267  28.749  31.858  1.00  0.00     0.049 A 
ATOM     37  N   UNL A   1      40.122  30.793  31.639  1.00  0.00    -0.248 NA
ATOM     38  C   UNL A   1      39.680  30.024  29.477  1.00  0.00     0.031 C 
ATOM     39  C   UNL A   1      43.179  27.644  32.091  1.00  0.00     0.029 A 
ATOM     40  N   UNL A   1      42.186  29.337  33.102  1.00  0.00    -0.354 N 
ATOM     41  C   UNL A   1      38.981  31.413  31.152  1.00  0.00     0.074 A 
ATOM     42  C   UNL A   1      38.755  30.910  29.815  1.00  0.00     0.031 C 
ATOM     43  C   UNL A   1      43.642  27.662  33.347  1.00  0.00     0.029 A 
ATOM     44  C   UNL A   1      43.074  28.813  34.022  1.00  0.00     0.049 A 
ATOM     45  H   UNL A   1      41.555  30.062  33.314  1.00  0.00     0.167 HD
ATOM     46  C   UNL A   1      38.199  32.321  31.775  1.00  0.00     0.037 A 
ATOM     47  C   UNL A   1      43.425  29.210  35.262  1.00  0.00     0.037 A 
ATOM     48  C   UNL A   1      38.435  32.806  33.109  1.00  0.00     0.049 A 
ATOM     49  C   UNL A   1      42.678  30.362  35.859  1.00  0.00     0.074 A 
ATOM     50  C   UNL A   1      37.741  33.783  33.797  1.00  0.00     0.029 A 
ATOM     51  N   UNL A   1      39.437  32.353  33.955  1.00  0.00    -0.354 N 
ATOM     52  N   UNL A   1      41.666  31.021  35.349  1.00  0.00    -0.248 NA
ATOM     53  C   UNL A   1      43.087  30.817  37.193  1.00  0.00     0.031 C 
ATOM     54  C   UNL A   1      38.361  33.965  35.036  1.00  0.00     0.029 A 
ATOM     55  C   UNL A   1      39.402  33.057  35.147  1.00  0.00     0.049 A 
ATOM     56  H   UNL A   1      40.077  31.636  33.740  1.00  0.00     0.167 HD
ATOM     57  C   UNL A   1      41.292  31.944  36.312  1.00  0.00     0.074 A 
ATOM     58  C   UNL A   1      42.183  31.755  37.440  1.00  0.00     0.031 C 
ATOM     59  C   UNL A   1      40.294  32.858  36.263  1.00  0.00     0.037 A 
BRANCH  46  60
ATOM     60  C   UNL A   1      37.062  32.906  30.993  1.00  0.00     0.058 A 
ATOM     61  C   UNL A   1      35.750  32.480  31.252  1.00  0.00     0.135 A 
ATOM     62  C   UNL A   1      37.262  33.839  29.964  1.00  0.00     0.135 A 
ATOM     63  F   UNL A   1      35.506  31.608  32.244  1.00  0.00    -0.206 F 
ATOM     64  C   UNL A   1      34.678  32.931  30.495  1.00  0.00     0.059 A 
ATOM     65  C   UNL A   1      36.197  34.323  29.209  1.00  0.00     0.059 A 
ATOM     66  F   UNL A   1      38.493  34.308  29.706  1.00  0.00    -0.206 F 
ATOM     67  C   UNL A   1      34.912  33.847  29.470  1.00  0.00     0.060 A 
BRANCH  67  68
ATOM     68  S   UNL A   1      33.504  34.413  28.495  1.00  0.00     0.124 S 
ATOM     69  O   UNL A   1      32.550  34.783  29.535  1.00  0.00    -0.237 OA
ATOM     70  O   UNL A   1      34.082  35.519  27.738  1.00  0.00    -0.237 OA
ATOM     71  O   UNL A   1      33.146  33.240  27.702  1.00  0.00    -0.744 OA
ENDBRANCH  67  68
ENDBRANCH  46  60
BRANCH  47  72
ATOM     72  C   UNL A   1      44.540  28.538  35.991  1.00  0.00     0.058 A 
ATOM     73  C   UNL A   1      45.874  28.946  35.809  1.00  0.00     0.135 A 
ATOM     74  C   UNL A   1      44.309  27.483  36.887  1.00  0.00     0.135 A 
ATOM     75  F   UNL A   1      46.162  29.947  34.962  1.00  0.00    -0.206 F 
ATOM     76  C   UNL A   1      46.930  28.332  36.475  1.00  0.00     0.059 A 
ATOM     77  C   UNL A   1      45.347  26.868  37.586  1.00  0.00     0.059 A 
ATOM     78  F   UNL A   1      43.056  27.056  37.106  1.00  0.00    -0.206 F 
ATOM     79  C   UNL A   1      46.656  27.295  37.367  1.00  0.00     0.060 A 
BRANCH  79  80
ATOM     80  S   UNL A   1      48.040  26.534  38.247  1.00  0.00     0.124 S 
ATOM     81  O   UNL A   1      47.413  26.153  39.508  1.00  0.00    -0.237 OA
ATOM     82  O   UNL A   1      48.397  25.433  37.358  1.00  0.00    -0.237 OA
ATOM     83  O   UNL A   1      49.021  27.611  38.333  1.00  0.00    -0.744 OA
ENDBRANCH  79  80
ENDBRANCH  47  72
BRANCH  59  84
ATOM     84  C   UNL A   1      40.094  33.725  37.469  1.00  0.00     0.058 A 
ATOM     85  C   UNL A   1      39.146  33.376  38.443  1.00  0.00     0.135 A 
ATOM     86  C   UNL A   1      40.775  34.943  37.616  1.00  0.00     0.135 A 
ATOM     87  F   UNL A   1      38.467  32.221  38.345  1.00  0.00    -0.206 F 
ATOM     88  C   UNL A   1      38.857  34.219  39.507  1.00  0.00     0.059 A 
ATOM     89  C   UNL A   1      40.526  35.787  38.691  1.00  0.00     0.059 A 
ATOM     90  F   UNL A   1      41.703  35.311  36.718  1.00  0.00    -0.206 F 
ATOM     91  C   UNL A   1      39.548  35.426  39.619  1.00  0.00     0.060 A 
BRANCH  91  92
ATOM     92  S   UNL A   1      39.155  36.513  41.003  1.00  0.00     0.124 S 
ATOM     93  O   UNL A   1      40.471  36.729  41.595  1.00  0.00    -0.237 OA
ATOM     94  O   UNL A   1      38.563  37.664  40.331  1.00  0.00    -0.237 OA
ATOM     95  O   UNL A   1      38.229  35.718  41.806  1.00  0.00    -0.744 OA
ENDBRANCH  91  92
ENDBRANCH  59  84
ENDBRANCH  33  34
ENDBRANCH  26  28
ENDBRANCH  25  26
ENDBRANCH  24  25
ENDBRANCH   1  24
TORSDOF 18
ENDMDL
MODEL 2
REMARK VINA RESULT:     -10.9      2.821      9.153
REMARK SMILES C[C@@H](CNc1cccc(F)c1C(=O)OCCOC(=O)c1ccc(-c2c3nc(c(-c4c(F)cc(S(=O)(=O)[O-])cc4F)c4ccc([nH]4)c(-c4c(F)cc(S(=O)(=O)[O-])cc4F)c4nc(c(-c5c(F)cc(S(=O)(=O)[O-])cc5F)c5ccc2[nH]5)C=C4)C=C3)cc1)[NH+]1CCCCC1
REMARK SMILES IDX 15 1 14 2 12 3 13 4 11 5 5 6 6 7 7 8 9 9 8 10 10 11 4 12
REMARK SMILES IDX 3 14 2 15 1 16 86 17 87 18 91 19 88 21 90 22 89 23 16 24
REMARK SMILES IDX 17 25 18 26 19 27 20 28 21 29 85 30 22 31 84 32 23 33 24 34
REMARK SMILES IDX 25 35 78 36 26 37 83 38 77 39 79 40 27 41 82 42 76 43 75 44
REMARK SMILES IDX 28 46 62 47 41 48 61 49 42 50 45 51 60 52 80 53 43 54 44 55
REMARK SMILES IDX 59 57 81 58 46 59 29 60 30 61 39 62 31 63 32 64 38 65 40 66
REMARK SMILES IDX 33 67 34 68 35 69 36 70 37 71 63 72 64 73 73 74 65 75 66 76
REMARK SMILES IDX 72 77 74 78 67 79 68 80 69 81 70 82 71 83 47 84 48 85 57 86
REMARK SMILES IDX 49 87 50 88 56 89 58 90 51 91 52 92 53 93 54 94 55 95
REMARK H PARENT 4 13 86 20 79 45 45 56
REMARK Flexibility Score: inf
ROOT
ATOM      1  C   UNL A   1      40.915  20.672  27.056  1.00  0.00     0.275 C 
ENDROOT
BRANCH   1   2
ATOM      2  O   UNL A   1      42.345  20.488  26.958  1.00  0.00    -0.458 OA
BRANCH   2   3
ATOM      3  C   UNL A   1      42.720  19.791  25.852  1.00  0.00     0.343 C 
ATOM      4  O   UNL A   1      41.978  19.007  25.306  1.00  0.00    -0.246 OA
BRANCH   3   5
ATOM      5  C   UNL A   1      44.110  20.049  25.383  1.00  0.00     0.118 A 
ATOM      6  C   UNL A   1      44.441  21.281  24.748  1.00  0.00     0.052 A 
ATOM      7  C   UNL A   1      45.772  21.488  24.342  1.00  0.00     0.027 A 
ATOM      8  C   UNL A   1      46.743  20.499  24.502  1.00  0.00     0.005 A 
ATOM      9  C   UNL A   1      45.085  19.052  25.486  1.00  0.00     0.139 A 
ATOM     10  C   UNL A   1      46.394  19.274  25.058  1.00  0.00     0.040 A 
ATOM     11  F   UNL A   1      44.801  17.834  25.973  1.00  0.00    -0.206 F 
BRANCH   6  12
ATOM     12  N   UNL A   1      43.560  22.357  24.658  1.00  0.00    -0.378 N 
ATOM     13  H   UNL A   1      42.607  22.142  24.540  1.00  0.00     0.160 HD
BRANCH  12  14
ATOM     14  C   UNL A   1      43.915  23.786  24.725  1.00  0.00     0.177 C 
BRANCH  14  15
ATOM     15  C   UNL A   1      44.304  24.405  26.138  1.00  0.00     0.200 C 
ATOM     16  C   UNL A   1      43.262  24.137  27.252  1.00  0.00     0.077 C 
BRANCH  15  17
ATOM     17  N   UNL A   1      44.956  25.757  26.203  1.00  0.00    -0.331 N 
ATOM     18  C   UNL A   1      43.992  26.849  26.141  1.00  0.00     0.262 C 
ATOM     19  C   UNL A   1      45.960  25.875  27.270  1.00  0.00     0.262 C 
ATOM     20  H   UNL A   1      45.505  25.851  25.349  1.00  0.00     0.348 HD
ATOM     21  C   UNL A   1      44.533  28.245  26.406  1.00  0.00     0.062 C 
ATOM     22  C   UNL A   1      46.509  27.277  27.499  1.00  0.00     0.062 C 
ATOM     23  C   UNL A   1      45.366  28.259  27.675  1.00  0.00     0.012 C 
ENDBRANCH  15  17
ENDBRANCH  14  15
ENDBRANCH  12  14
ENDBRANCH   6  12
ENDBRANCH   3   5
ENDBRANCH   2   3
ENDBRANCH   1   2
BRANCH   1  24
ATOM     24  C   UNL A   1      40.399  21.881  26.258  1.00  0.00     0.275 C 
BRANCH  24  25
ATOM     25  O   UNL A   1      38.990  22.138  26.462  1.00  0.00    -0.458 OA
BRANCH  25  26
ATOM     26  C   UNL A   1      38.523  23.319  25.985  1.00  0.00     0.338 C 
ATOM     27  O   UNL A   1      37.640  23.470  25.155  1.00  0.00    -0.246 OA
BRANCH  26  28
ATOM     28  C   UNL A   1      39.101  24.461  26.733  1.00  0.00     0.060 A 
ATOM     29  C   UNL A   1      38.666  24.619  28.044  1.00  0.00     0.016 A 
ATOM     30  C   UNL A   1      39.932  25.432  26.177  1.00  0.00     0.016 A 
ATOM     31  C   UNL A   1      39.119  25.678  28.840  1.00  0.00     0.010 A 
ATOM     32  C   UNL A   1      40.380  26.511  26.976  1.00  0.00     0.010 A 
ATOM     33  C   UNL A   1      40.006  26.625  28.331  1.00  0.00    -0.014 A 
BRANCH  33  34
ATOM     34  C   UNL A   1      40.360  27.802  29.183  1.00  0.00     0.031 A 
ATOM     35  C   UNL A   1      41.669  27.764  29.912  1.00  0.00     0.074 A 
ATOM     36  C   UNL A   1      39.651  28.954  29.209  1.00  0.00     0.049 A 
ATOM     37  N   UNL A   1      42.151  28.613  30.777  1.00  0.00    -0.248 NA
ATOM     38  C   UNL A   1      42.579  26.656  29.574  1.00  0.00     0.031 C 
ATOM     39  C   UNL A   1      38.535  29.275  28.338  1.00  0.00     0.029 A 
ATOM     40  N   UNL A   1      39.762  30.089  29.983  1.00  0.00    -0.354 N 
ATOM     41  C   UNL A   1      43.417  28.144  31.094  1.00  0.00     0.074 A 
ATOM     42  C   UNL A   1      43.630  26.933  30.331  1.00  0.00     0.031 C 
ATOM     43  C   UNL A   1      38.005  30.461  28.657  1.00  0.00     0.029 A 
ATOM     44  C   UNL A   1      38.734  30.993  29.792  1.00  0.00     0.049 A 
ATOM     45  H   UNL A   1      40.503  30.241  30.614  1.00  0.00     0.167 HD
ATOM     46  C   UNL A   1      44.314  28.683  31.947  1.00  0.00     0.037 A 
ATOM     47  C   UNL A   1      38.385  32.113  30.457  1.00  0.00     0.037 A 
ATOM     48  C   UNL A   1      44.088  29.892  32.692  1.00  0.00     0.049 A 
ATOM     49  C   UNL A   1      39.295  32.585  31.548  1.00  0.00     0.074 A 
ATOM     50  C   UNL A   1      44.908  30.478  33.639  1.00  0.00     0.029 A 
ATOM     51  N   UNL A   1      42.967  30.702  32.576  1.00  0.00    -0.354 N 
ATOM     52  N   UNL A   1      40.443  32.074  31.920  1.00  0.00    -0.248 NA
ATOM     53  C   UNL A   1      38.894  33.783  32.294  1.00  0.00     0.031 C 
ATOM     54  C   UNL A   1      44.256  31.606  34.142  1.00  0.00     0.029 A 
ATOM     55  C   UNL A   1      43.058  31.763  33.463  1.00  0.00     0.049 A 
ATOM     56  H   UNL A   1      42.219  30.546  31.956  1.00  0.00     0.167 HD
ATOM     57  C   UNL A   1      40.922  32.906  32.918  1.00  0.00     0.074 A 
ATOM     58  C   UNL A   1      39.941  33.960  33.089  1.00  0.00     0.031 C 
ATOM     59  C   UNL A   1      42.074  32.805  33.622  1.00  0.00     0.037 A 
BRANCH  46  60
ATOM     60  C   UNL A   1      45.589  27.929  32.178  1.00  0.00     0.058 A 
ATOM     61  C   UNL A   1      46.737  28.266  31.444  1.00  0.00     0.135 A 
ATOM     62  C   UNL A   1      45.671  26.853  33.074  1.00  0.00     0.135 A 
ATOM     63  F   UNL A   1      46.715  29.304  30.593  1.00  0.00    -0.206 F 
ATOM     64  C   UNL A   1      47.914  27.539  31.563  1.00  0.00     0.059 A 
ATOM     65  C   UNL A   1      46.848  26.126  33.228  1.00  0.00     0.059 A 
ATOM     66  F   UNL A   1      44.611  26.519  33.829  1.00  0.00    -0.206 F 
ATOM     67  C   UNL A   1      47.957  26.465  32.453  1.00  0.00     0.060 A 
BRANCH  67  68
ATOM     68  S   UNL A   1      49.495  25.532  32.586  1.00  0.00     0.124 S 
ATOM     69  O   UNL A   1      50.425  26.553  33.055  1.00  0.00    -0.237 OA
ATOM     70  O   UNL A   1      49.141  24.499  33.555  1.00  0.00    -0.237 OA
ATOM     71  O   UNL A   1      49.720  25.052  31.225  1.00  0.00    -0.744 OA
ENDBRANCH  67  68
ENDBRANCH  46  60
BRANCH  47  72
ATOM     72  C   UNL A   1      37.118  32.832  30.127  1.00  0.00     0.058 A 
ATOM     73  C   UNL A   1      35.939  32.589  30.855  1.00  0.00     0.135 A 
ATOM     74  C   UNL A   1      37.052  33.777  29.093  1.00  0.00     0.135 A 
ATOM     75  F   UNL A   1      35.937  31.693  31.854  1.00  0.00    -0.206 F 
ATOM     76  C   UNL A   1      34.746  33.244  30.563  1.00  0.00     0.059 A 
ATOM     77  C   UNL A   1      35.875  34.466  28.798  1.00  0.00     0.059 A 
ATOM     78  F   UNL A   1      38.148  34.055  28.370  1.00  0.00    -0.206 F 
ATOM     79  C   UNL A   1      34.725  34.186  29.535  1.00  0.00     0.060 A 
BRANCH  79  80
ATOM     80  S   UNL A   1      33.173  35.051  29.196  1.00  0.00     0.124 S 
ATOM     81  O   UNL A   1      32.523  35.011  30.501  1.00  0.00    -0.237 OA
ATOM     82  O   UNL A   1      33.645  36.361  28.760  1.00  0.00    -0.237 OA
ATOM     83  O   UNL A   1      32.551  34.234  28.159  1.00  0.00    -0.744 OA
ENDBRANCH  79  80
ENDBRANCH  47  72
BRANCH  59  84
ATOM     84  C   UNL A   1      42.356  33.870  34.639  1.00  0.00     0.058 A 
ATOM     85  C   UNL A   1      43.025  35.046  34.267  1.00  0.00     0.135 A 
ATOM     86  C   UNL A   1      42.044  33.687  35.995  1.00  0.00     0.135 A 
ATOM     87  F   UNL A   1      43.346  35.266  32.982  1.00  0.00    -0.206 F 
ATOM     88  C   UNL A   1      43.402  35.992  35.210  1.00  0.00     0.059 A 
ATOM     89  C   UNL A   1      42.384  34.636  36.951  1.00  0.00     0.059 A 
ATOM     90  F   UNL A   1      41.390  32.584  36.395  1.00  0.00    -0.206 F 
ATOM     91  C   UNL A   1      43.083  35.775  36.551  1.00  0.00     0.060 A 
BRANCH  91  92
ATOM     92  S   UNL A   1      43.587  37.012  37.762  1.00  0.00     0.124 S 
ATOM     93  O   UNL A   1      44.502  36.248  38.604  1.00  0.00    -0.237 OA
ATOM     94  O   UNL A   1      44.202  38.033  36.921  1.00  0.00    -0.237 OA
ATOM     95  O   UNL A   1      42.330  37.402  38.394  1.00  0.00    -0.744 OA
ENDBRANCH  91  92
ENDBRANCH  59  84
ENDBRANCH  33  34
ENDBRANCH  26  28
ENDBRANCH  25  26
ENDBRANCH  24  25
ENDBRANCH   1  24
TORSDOF 18
ENDMDL
MODEL 3
REMARK VINA RESULT:     -10.7      5.792     11.385
REMARK SMILES C[C@@H](CNc1cccc(F)c1C(=O)OCCOC(=O)c1ccc(-c2c3nc(c(-c4c(F)cc(S(=O)(=O)[O-])cc4F)c4ccc([nH]4)c(-c4c(F)cc(S(=O)(=O)[O-])cc4F)c4nc(c(-c5c(F)cc(S(=O)(=O)[O-])cc5F)c5ccc2[nH]5)C=C4)C=C3)cc1)[NH+]1CCCCC1
REMARK SMILES IDX 15 1 14 2 12 3 13 4 11 5 5 6 6 7 7 8 9 9 8 10 10 11 4 12
REMARK SMILES IDX 3 14 2 15 1 16 86 17 87 18 91 19 88 21 90 22 89 23 16 24
REMARK SMILES IDX 17 25 18 26 19 27 20 28 21 29 85 30 22 31 84 32 23 33 24 34
REMARK SMILES IDX 25 35 78 36 26 37 83 38 77 39 79 40 27 41 82 42 76 43 75 44
REMARK SMILES IDX 28 46 62 47 41 48 61 49 42 50 45 51 60 52 80 53 43 54 44 55
REMARK SMILES IDX 59 57 81 58 46 59 29 60 30 61 39 62 31 63 32 64 38 65 40 66
REMARK SMILES IDX 33 67 34 68 35 69 36 70 37 71 63 72 64 73 73 74 65 75 66 76
REMARK SMILES IDX 72 77 74 78 67 79 68 80 69 81 70 82 71 83 47 84 48 85 57 86
REMARK SMILES IDX 49 87 50 88 56 89 58 90 51 91 52 92 53 93 54 94 55 95
REMARK H PARENT 4 13 86 20 79 45 45 56
REMARK Flexibility Score: inf
ROOT
ATOM      1  C   UNL A   1      31.683  27.607  27.016  1.00  0.00     0.275 C 
ENDROOT
BRANCH   1   2
ATOM      2  O   UNL A   1      32.493  26.707  26.227  1.00  0.00    -0.458 OA
BRANCH   2   3
ATOM      3  C   UNL A   1      32.132  25.403  26.361  1.00  0.00     0.343 C 
ATOM      4  O   UNL A   1      31.016  25.080  26.701  1.00  0.00    -0.246 OA
BRANCH   3   5
ATOM      5  C   UNL A   1      33.211  24.415  26.082  1.00  0.00     0.118 A 
ATOM      6  C   UNL A   1      34.097  24.606  24.983  1.00  0.00     0.052 A 
ATOM      7  C   UNL A   1      35.114  23.657  24.773  1.00  0.00     0.027 A 
ATOM      8  C   UNL A   1      35.231  22.524  25.579  1.00  0.00     0.005 A 
ATOM      9  C   UNL A   1      33.312  23.248  26.845  1.00  0.00     0.139 A 
ATOM     10  C   UNL A   1      34.317  22.312  26.605  1.00  0.00     0.040 A 
ATOM     11  F   UNL A   1      32.435  22.963  27.821  1.00  0.00    -0.206 F 
BRANCH   6  12
ATOM     12  N   UNL A   1      34.119  25.763  24.208  1.00  0.00    -0.378 N 
ATOM     13  H   UNL A   1      34.725  26.482  24.500  1.00  0.00     0.160 HD
BRANCH  12  14
ATOM     14  C   UNL A   1      33.326  26.018  22.992  1.00  0.00     0.177 C 
BRANCH  14  15
ATOM     15  C   UNL A   1      32.737  27.478  22.764  1.00  0.00     0.200 C 
ATOM     16  C   UNL A   1      33.797  28.604  22.841  1.00  0.00     0.077 C 
BRANCH  15  17
ATOM     17  N   UNL A   1      31.398  27.839  23.342  1.00  0.00    -0.331 N 
ATOM     18  C   UNL A   1      30.834  29.042  22.744  1.00  0.00     0.262 C 
ATOM     19  C   UNL A   1      30.473  26.700  23.437  1.00  0.00     0.262 C 
ATOM     20  H   UNL A   1      31.565  28.091  24.316  1.00  0.00     0.348 HD
ATOM     21  C   UNL A   1      29.396  29.372  23.113  1.00  0.00     0.062 C 
ATOM     22  C   UNL A   1      29.045  27.049  23.837  1.00  0.00     0.062 C 
ATOM     23  C   UNL A   1      28.511  28.150  22.939  1.00  0.00     0.012 C 
ENDBRANCH  15  17
ENDBRANCH  14  15
ENDBRANCH  12  14
ENDBRANCH   6  12
ENDBRANCH   3   5
ENDBRANCH   2   3
ENDBRANCH   1   2
BRANCH   1  24
ATOM     24  C   UNL A   1      32.340  28.977  27.246  1.00  0.00     0.275 C 
BRANCH  24  25
ATOM     25  O   UNL A   1      33.726  28.883  27.650  1.00  0.00    -0.458 OA
BRANCH  25  26
ATOM     26  C   UNL A   1      34.350  30.057  27.923  1.00  0.00     0.338 C 
ATOM     27  O   UNL A   1      33.824  31.156  28.010  1.00  0.00    -0.246 OA
BRANCH  26  28
ATOM     28  C   UNL A   1      35.767  29.834  28.289  1.00  0.00     0.060 A 
ATOM     29  C   UNL A   1      36.694  29.944  27.258  1.00  0.00     0.016 A 
ATOM     30  C   UNL A   1      36.204  29.409  29.543  1.00  0.00     0.016 A 
ATOM     31  C   UNL A   1      38.059  29.727  27.477  1.00  0.00     0.010 A 
ATOM     32  C   UNL A   1      37.583  29.175  29.763  1.00  0.00     0.010 A 
ATOM     33  C   UNL A   1      38.531  29.369  28.738  1.00  0.00    -0.014 A 
BRANCH  33  34
ATOM     34  C   UNL A   1      39.980  29.029  28.888  1.00  0.00     0.031 A 
ATOM     35  C   UNL A   1      40.895  30.096  29.409  1.00  0.00     0.074 A 
ATOM     36  C   UNL A   1      40.481  27.782  28.733  1.00  0.00     0.049 A 
ATOM     37  N   UNL A   1      42.193  30.074  29.536  1.00  0.00    -0.248 NA
ATOM     38  C   UNL A   1      40.255  31.324  29.909  1.00  0.00     0.031 C 
ATOM     39  C   UNL A   1      39.695  26.578  28.532  1.00  0.00     0.029 A 
ATOM     40  N   UNL A   1      41.773  27.299  28.735  1.00  0.00    -0.354 N 
ATOM     41  C   UNL A   1      42.530  31.283  30.125  1.00  0.00     0.074 A 
ATOM     42  C   UNL A   1      41.302  32.019  30.329  1.00  0.00     0.031 C 
ATOM     43  C   UNL A   1      40.487  25.515  28.347  1.00  0.00     0.029 A 
ATOM     44  C   UNL A   1      41.865  25.963  28.392  1.00  0.00     0.049 A 
ATOM     45  H   UNL A   1      42.555  27.853  28.959  1.00  0.00     0.167 HD
ATOM     46  C   UNL A   1      43.759  31.730  30.461  1.00  0.00     0.037 A 
ATOM     47  C   UNL A   1      42.925  25.177  28.116  1.00  0.00     0.037 A 
ATOM     48  C   UNL A   1      44.970  30.981  30.257  1.00  0.00     0.049 A 
ATOM     49  C   UNL A   1      44.291  25.761  28.299  1.00  0.00     0.074 A 
ATOM     50  C   UNL A   1      46.272  31.380  30.497  1.00  0.00     0.029 A 
ATOM     51  N   UNL A   1      45.032  29.683  29.770  1.00  0.00    -0.354 N 
ATOM     52  N   UNL A   1      44.606  26.949  28.755  1.00  0.00    -0.248 NA
ATOM     53  C   UNL A   1      45.441  24.916  27.962  1.00  0.00     0.031 C 
ATOM     54  C   UNL A   1      47.124  30.349  30.096  1.00  0.00     0.029 A 
ATOM     55  C   UNL A   1      46.353  29.280  29.666  1.00  0.00     0.049 A 
ATOM     56  H   UNL A   1      44.252  29.131  29.533  1.00  0.00     0.167 HD
ATOM     57  C   UNL A   1      45.991  26.983  28.795  1.00  0.00     0.074 A 
ATOM     58  C   UNL A   1      46.454  25.693  28.323  1.00  0.00     0.031 C 
ATOM     59  C   UNL A   1      46.800  27.992  29.195  1.00  0.00     0.037 A 
BRANCH  46  60
ATOM     60  C   UNL A   1      43.863  33.119  31.013  1.00  0.00     0.058 A 
ATOM     61  C   UNL A   1      44.001  34.206  30.135  1.00  0.00     0.135 A 
ATOM     62  C   UNL A   1      43.878  33.379  32.391  1.00  0.00     0.135 A 
ATOM     63  F   UNL A   1      43.968  34.010  28.807  1.00  0.00    -0.206 F 
ATOM     64  C   UNL A   1      44.187  35.499  30.604  1.00  0.00     0.059 A 
ATOM     65  C   UNL A   1      44.037  34.672  32.884  1.00  0.00     0.059 A 
ATOM     66  F   UNL A   1      43.707  32.378  33.270  1.00  0.00    -0.206 F 
ATOM     67  C   UNL A   1      44.212  35.721  31.981  1.00  0.00     0.060 A 
BRANCH  67  68
ATOM     68  S   UNL A   1      44.460  37.409  32.566  1.00  0.00     0.124 S 
ATOM     69  O   UNL A   1      44.142  38.189  31.375  1.00  0.00    -0.237 OA
ATOM     70  O   UNL A   1      43.499  37.496  33.661  1.00  0.00    -0.237 OA
ATOM     71  O   UNL A   1      45.863  37.424  32.972  1.00  0.00    -0.744 OA
ENDBRANCH  67  68
ENDBRANCH  46  60
BRANCH  47  72
ATOM     72  C   UNL A   1      42.730  23.783  27.616  1.00  0.00     0.058 A 
ATOM     73  C   UNL A   1      42.751  23.499  26.239  1.00  0.00     0.135 A 
ATOM     74  C   UNL A   1      42.528  22.705  28.491  1.00  0.00     0.135 A 
ATOM     75  F   UNL A   1      42.935  24.487  25.350  1.00  0.00    -0.206 F 
ATOM     76  C   UNL A   1      42.568  22.208  25.750  1.00  0.00     0.059 A 
ATOM     77  C   UNL A   1      42.369  21.399  28.028  1.00  0.00     0.059 A 
ATOM     78  F   UNL A   1      42.507  22.916  29.816  1.00  0.00    -0.206 F 
ATOM     79  C   UNL A   1      42.382  21.163  26.654  1.00  0.00     0.060 A 
BRANCH  79  80
ATOM     80  S   UNL A   1      42.181  19.489  25.999  1.00  0.00     0.124 S 
ATOM     81  O   UNL A   1      40.732  19.402  25.855  1.00  0.00    -0.237 OA
ATOM     82  O   UNL A   1      42.940  19.556  24.755  1.00  0.00    -0.237 OA
ATOM     83  O   UNL A   1      42.761  18.647  27.041  1.00  0.00    -0.744 OA
ENDBRANCH  79  80
ENDBRANCH  47  72
BRANCH  59  84
ATOM     84  C   UNL A   1      48.278  27.747  29.156  1.00  0.00     0.058 A 
ATOM     85  C   UNL A   1      49.026  28.100  28.022  1.00  0.00     0.135 A 
ATOM     86  C   UNL A   1      48.937  27.085  30.203  1.00  0.00     0.135 A 
ATOM     87  F   UNL A   1      48.439  28.733  26.994  1.00  0.00    -0.206 F 
ATOM     88  C   UNL A   1      50.371  27.776  27.913  1.00  0.00     0.059 A 
ATOM     89  C   UNL A   1      50.291  26.781  30.130  1.00  0.00     0.059 A 
ATOM     90  F   UNL A   1      48.267  26.743  31.315  1.00  0.00    -0.206 F 
ATOM     91  C   UNL A   1      50.994  27.111  28.970  1.00  0.00     0.060 A 
BRANCH  91  92
ATOM     92  S   UNL A   1      52.741  26.693  28.809  1.00  0.00     0.124 S 
ATOM     93  O   UNL A   1      53.020  26.077  30.102  1.00  0.00    -0.237 OA
ATOM     94  O   UNL A   1      52.735  25.791  27.662  1.00  0.00    -0.237 OA
ATOM     95  O   UNL A   1      53.379  27.986  28.578  1.00  0.00    -0.744 OA
ENDBRANCH  91  92
ENDBRANCH  59  84
ENDBRANCH  33  34
ENDBRANCH  26  28
ENDBRANCH  25  26
ENDBRANCH  24  25
ENDBRANCH   1  24
TORSDOF 18
ENDMDL
