MODEL 1
REMARK VINA RESULT:     -11.4      0.000      0.000
REMARK SMILES O=C(OCCOC(=O)[C@]12COc3ccccc3[C@H]1C[N@H+](CCO)C2)c1ccc(-c2c3nc(c(-c4c(F)cc(S(=O)(=O)[O-])cc4F)c4ccc([nH]4)c(-c4c(F)cc(S(=O)(=O)[O-])cc4F)c4nc(c(-c5c(F)cc(S(=O)(=O)[O-])cc5F)c5ccc2[nH]5)C=C4)C=C3)cc1
REMARK SMILES IDX 4 1 3 2 2 3 1 4 25 5 26 6 90 7 27 8 89 9 28 10 29 11 30 12
REMARK SMILES IDX 83 13 31 14 88 15 82 16 84 17 32 18 87 19 81 20 80 21 33 23
REMARK SMILES IDX 67 24 46 25 66 26 47 27 50 28 65 29 85 30 48 31 49 32 64 34
REMARK SMILES IDX 86 35 51 36 34 37 35 38 44 39 36 40 37 41 43 42 45 43 38 44
REMARK SMILES IDX 39 45 40 46 41 47 42 48 68 49 69 50 78 51 70 52 71 53 77 54
REMARK SMILES IDX 79 55 72 56 73 57 74 58 75 59 76 60 52 61 53 62 62 63 54 64
REMARK SMILES IDX 55 65 61 66 63 67 56 68 57 69 58 70 59 71 60 72 5 73 6 74
REMARK SMILES IDX 7 75 8 76 9 77 10 78 18 79 24 80 11 81 17 82 19 83 20 84
REMARK SMILES IDX 12 85 16 86 13 88 15 89 14 90 21 91 22 92 23 93
REMARK H PARENT 84 22 50 33 20 87 23 94
REMARK Flexibility Score: inf
ROOT
ATOM      1  C   UNL A   1      33.323  30.088  26.110  1.00  0.00     0.275 C 
ENDROOT
BRANCH   1   2
ATOM      2  O   UNL A   1      33.575  30.112  27.521  1.00  0.00    -0.458 OA
BRANCH   2   3
ATOM      3  C   UNL A   1      34.271  31.083  28.177  1.00  0.00     0.338 C 
ATOM      4  O   UNL A   1      33.923  32.255  28.145  1.00  0.00    -0.246 OA
BRANCH   3   5
ATOM      5  C   UNL A   1      35.619  30.730  28.658  1.00  0.00     0.060 A 
ATOM      6  C   UNL A   1      36.789  30.537  27.395  1.00  0.00     0.016 A 
ATOM      7  C   UNL A   1      36.059  30.182  30.234  1.00  0.00     0.016 A 
ATOM      8  C   UNL A   1      38.516  29.699  27.828  1.00  0.00     0.010 A 
ATOM      9  C   UNL A   1      37.600  29.442  30.607  1.00  0.00     0.010 A 
ATOM     10  C   UNL A   1      38.856  29.199  29.455  1.00  0.00    -0.014 A 
BRANCH  10  11
ATOM     11  C   UNL A   1      40.253  28.754  29.635  1.00  0.00     0.031 A 
ATOM     12  C   UNL A   1      40.772  27.438  29.093  1.00  0.00     0.074 A 
ATOM     13  C   UNL A   1      41.117  29.752  29.871  1.00  0.00     0.049 A 
ATOM     14  N   UNL A   1      42.009  27.062  28.873  1.00  0.00    -0.248 NA
ATOM     15  C   UNL A   1      39.786  26.417  28.711  1.00  0.00     0.031 C 
ATOM     16  C   UNL A   1      40.720  31.123  30.176  1.00  0.00     0.029 A 
ATOM     17  N   UNL A   1      42.481  29.805  29.807  1.00  0.00    -0.354 N 
ATOM     18  C   UNL A   1      41.942  25.787  28.310  1.00  0.00     0.074 A 
ATOM     19  C   UNL A   1      40.543  25.459  28.187  1.00  0.00     0.031 C 
ATOM     20  C   UNL A   1      41.806  31.901  30.204  1.00  0.00     0.029 A 
ATOM     21  C   UNL A   1      42.981  31.055  30.069  1.00  0.00     0.049 A 
ATOM     22  H   UNL A   1      43.045  29.026  29.594  1.00  0.00     0.167 HD
ATOM     23  C   UNL A   1      42.960  24.952  27.984  1.00  0.00     0.037 A 
ATOM     24  C   UNL A   1      44.246  31.464  30.269  1.00  0.00     0.037 A 
ATOM     25  C   UNL A   1      44.346  25.260  28.235  1.00  0.00     0.049 A 
ATOM     26  C   UNL A   1      45.337  30.447  30.143  1.00  0.00     0.074 A 
ATOM     27  C   UNL A   1      45.451  24.440  28.085  1.00  0.00     0.029 A 
ATOM     28  N   UNL A   1      44.812  26.470  28.727  1.00  0.00    -0.354 N 
ATOM     29  N   UNL A   1      45.266  29.220  29.684  1.00  0.00    -0.248 NA
ATOM     30  C   UNL A   1      46.673  30.848  30.596  1.00  0.00     0.031 C 
ATOM     31  C   UNL A   1      46.565  25.116  28.586  1.00  0.00     0.029 A 
ATOM     32  C   UNL A   1      46.175  26.394  28.954  1.00  0.00     0.049 A 
ATOM     33  H   UNL A   1      44.255  27.265  28.891  1.00  0.00     0.167 HD
ATOM     34  C   UNL A   1      46.549  28.701  29.792  1.00  0.00     0.074 A 
ATOM     35  C   UNL A   1      47.381  29.759  30.329  1.00  0.00     0.031 C 
ATOM     36  C   UNL A   1      46.990  27.457  29.488  1.00  0.00     0.037 A 
BRANCH  23  37
ATOM     37  C   UNL A   1      42.645  23.571  27.458  1.00  0.00     0.058 A 
ATOM     38  C   UNL A   1      42.674  23.259  26.091  1.00  0.00     0.135 A 
ATOM     39  C   UNL A   1      42.445  22.511  28.361  1.00  0.00     0.135 A 
ATOM     40  F   UNL A   1      42.850  24.227  25.178  1.00  0.00    -0.206 F 
ATOM     41  C   UNL A   1      42.527  21.945  25.640  1.00  0.00     0.059 A 
ATOM     42  C   UNL A   1      42.316  21.191  27.936  1.00  0.00     0.059 A 
ATOM     43  F   UNL A   1      42.408  22.749  29.681  1.00  0.00    -0.206 F 
ATOM     44  C   UNL A   1      42.358  20.917  26.571  1.00  0.00     0.060 A 
BRANCH  44  45
ATOM     45  S   UNL A   1      42.198  19.218  25.973  1.00  0.00     0.124 S 
ATOM     46  O   UNL A   1      40.759  19.123  25.743  1.00  0.00    -0.237 OA
ATOM     47  O   UNL A   1      43.031  19.231  24.776  1.00  0.00    -0.237 OA
ATOM     48  O   UNL A   1      42.704  18.414  27.081  1.00  0.00    -0.744 OA
ENDBRANCH  44  45
ENDBRANCH  23  37
BRANCH  24  49
ATOM     49  C   UNL A   1      44.498  32.844  30.758  1.00  0.00     0.058 A 
ATOM     50  C   UNL A   1      44.610  33.136  32.122  1.00  0.00     0.135 A 
ATOM     51  C   UNL A   1      44.637  33.912  29.849  1.00  0.00     0.135 A 
ATOM     52  F   UNL A   1      44.473  32.160  33.032  1.00  0.00    -0.206 F 
ATOM     53  C   UNL A   1      44.835  34.436  32.568  1.00  0.00     0.059 A 
ATOM     54  C   UNL A   1      44.914  35.204  30.266  1.00  0.00     0.059 A 
ATOM     55  F   UNL A   1      44.536  33.695  28.527  1.00  0.00    -0.206 F 
ATOM     56  C   UNL A   1      44.991  35.460  31.631  1.00  0.00     0.060 A 
BRANCH  56  57
ATOM     57  S   UNL A   1      45.293  37.139  32.218  1.00  0.00     0.124 S 
ATOM     58  O   UNL A   1      43.949  37.556  32.604  1.00  0.00    -0.237 OA
ATOM     59  O   UNL A   1      46.233  36.913  33.310  1.00  0.00    -0.237 OA
ATOM     60  O   UNL A   1      45.850  37.810  31.047  1.00  0.00    -0.744 OA
ENDBRANCH  56  57
ENDBRANCH  24  49
BRANCH  36  61
ATOM     61  C   UNL A   1      48.447  27.165  29.709  1.00  0.00     0.058 A 
ATOM     62  C   UNL A   1      49.402  27.388  28.706  1.00  0.00     0.135 A 
ATOM     63  C   UNL A   1      48.900  26.742  30.969  1.00  0.00     0.135 A 
ATOM     64  F   UNL A   1      49.019  27.784  27.482  1.00  0.00    -0.206 F 
ATOM     65  C   UNL A   1      50.758  27.189  28.941  1.00  0.00     0.059 A 
ATOM     66  C   UNL A   1      50.253  26.573  31.237  1.00  0.00     0.059 A 
ATOM     67  F   UNL A   1      48.027  26.523  31.965  1.00  0.00    -0.206 F 
ATOM     68  C   UNL A   1      51.174  26.793  30.213  1.00  0.00     0.060 A 
BRANCH  68  69
ATOM     69  S   UNL A   1      52.941  26.595  30.514  1.00  0.00     0.124 S 
ATOM     70  O   UNL A   1      52.959  25.464  31.437  1.00  0.00    -0.237 OA
ATOM     71  O   UNL A   1      53.452  26.329  29.173  1.00  0.00    -0.237 OA
ATOM     72  O   UNL A   1      53.336  27.878  31.089  1.00  0.00    -0.744 OA
ENDBRANCH  68  69
ENDBRANCH  36  61
ENDBRANCH  10  11
ENDBRANCH   3   5
ENDBRANCH   2   3
ENDBRANCH   1   2
BRANCH   1  73
ATOM     73  C   UNL A   1      31.839  29.976  25.685  1.00  0.00     0.274 C 
BRANCH  73  74
ATOM     74  O   UNL A   1      31.206  28.673  25.538  1.00  0.00    -0.461 OA
BRANCH  74  75
ATOM     75  C   UNL A   1      31.307  27.598  26.397  1.00  0.00     0.322 C 
ATOM     76  O   UNL A   1      31.034  27.614  27.581  1.00  0.00    -0.251 OA
BRANCH  75  77
ATOM     77  C   UNL A   1      31.739  26.370  25.515  1.00  0.00     0.162 C 
ATOM     78  C   UNL A   1      30.380  25.191  26.236  1.00  0.00     0.255 C 
ATOM     79  C   UNL A   1      33.477  25.632  25.479  1.00  0.00     0.105 C 
ATOM     80  C   UNL A   1      31.716  26.964  24.101  1.00  0.00     0.285 C 
ATOM     81  O   UNL A   1      31.166  23.553  27.198  1.00  0.00    -0.492 OA
ATOM     82  C   UNL A   1      33.930  24.051  26.311  1.00  0.00     0.004 A 
ATOM     83  C   UNL A   1      33.673  25.465  23.944  1.00  0.00     0.272 C 
ATOM     84  N   UNL A   1      32.727  26.326  23.256  1.00  0.00    -0.331 N 
ATOM     85  C   UNL A   1      32.896  23.166  27.212  1.00  0.00     0.123 A 
ATOM     86  C   UNL A   1      35.052  23.356  25.888  1.00  0.00     0.008 A 
ATOM     87  H   UNL A   1      32.133  25.683  22.733  1.00  0.00     0.348 HD
ATOM     88  C   UNL A   1      33.132  21.910  27.717  1.00  0.00     0.047 A 
ATOM     89  C   UNL A   1      35.191  22.009  26.322  1.00  0.00     0.001 A 
ATOM     90  C   UNL A   1      34.303  21.335  27.231  1.00  0.00     0.004 A 
BRANCH  84  91
ATOM     91  C   UNL A   1      33.319  27.135  22.186  1.00  0.00     0.290 C 
BRANCH  91  92
ATOM     92  C   UNL A   1      33.508  28.641  22.482  1.00  0.00     0.217 C 
BRANCH  92  93
ATOM     93  O   UNL A   1      34.699  28.947  23.206  1.00  0.00    -0.391 OA
ATOM     94  H   UNL A   1      35.468  28.610  22.720  1.00  0.00     0.210 HD
ENDBRANCH  92  93
ENDBRANCH  91  92
ENDBRANCH  84  91
ENDBRANCH  75  77
ENDBRANCH  74  75
ENDBRANCH  73  74
ENDBRANCH   1  73
TORSDOF 17
ENDMDL
MODEL 2
REMARK VINA RESULT:     -11.1      1.614      2.827
REMARK SMILES O=C(OCCOC(=O)[C@]12COc3ccccc3[C@H]1C[N@H+](CCO)C2)c1ccc(-c2c3nc(c(-c4c(F)cc(S(=O)(=O)[O-])cc4F)c4ccc([nH]4)c(-c4c(F)cc(S(=O)(=O)[O-])cc4F)c4nc(c(-c5c(F)cc(S(=O)(=O)[O-])cc5F)c5ccc2[nH]5)C=C4)C=C3)cc1
REMARK SMILES IDX 4 1 3 2 2 3 1 4 25 5 26 6 90 7 27 8 89 9 28 10 29 11 30 12
REMARK SMILES IDX 83 13 31 14 88 15 82 16 84 17 32 18 87 19 81 20 80 21 33 23
REMARK SMILES IDX 67 24 46 25 66 26 47 27 50 28 65 29 85 30 48 31 49 32 64 34
REMARK SMILES IDX 86 35 51 36 34 37 35 38 44 39 36 40 37 41 43 42 45 43 38 44
REMARK SMILES IDX 39 45 40 46 41 47 42 48 68 49 69 50 78 51 70 52 71 53 77 54
REMARK SMILES IDX 79 55 72 56 73 57 74 58 75 59 76 60 52 61 53 62 62 63 54 64
REMARK SMILES IDX 55 65 61 66 63 67 56 68 57 69 58 70 59 71 60 72 5 73 6 74
REMARK SMILES IDX 7 75 8 76 9 77 10 78 18 79 24 80 11 81 17 82 19 83 20 84
REMARK SMILES IDX 12 85 16 86 13 88 15 89 14 90 21 91 22 92 23 93
REMARK H PARENT 84 22 50 33 20 87 23 94
REMARK Flexibility Score: inf
ROOT
ATOM      1  C   UNL A   1      34.034  28.392  26.394  1.00  0.00     0.275 C 
ENDROOT
BRANCH   1   2
ATOM      2  O   UNL A   1      33.712  29.263  27.487  1.00  0.00    -0.458 OA
BRANCH   2   3
ATOM      3  C   UNL A   1      34.437  30.355  27.861  1.00  0.00     0.338 C 
ATOM      4  O   UNL A   1      34.104  31.487  27.538  1.00  0.00    -0.246 OA
BRANCH   3   5
ATOM      5  C   UNL A   1      35.793  30.110  28.387  1.00  0.00     0.060 A 
ATOM      6  C   UNL A   1      37.017  30.014  27.165  1.00  0.00     0.016 A 
ATOM      7  C   UNL A   1      36.221  29.595  29.978  1.00  0.00     0.016 A 
ATOM      8  C   UNL A   1      38.789  29.315  27.657  1.00  0.00     0.010 A 
ATOM      9  C   UNL A   1      37.803  28.980  30.403  1.00  0.00     0.010 A 
ATOM     10  C   UNL A   1      39.112  28.840  29.295  1.00  0.00    -0.014 A 
BRANCH  10  11
ATOM     11  C   UNL A   1      40.533  28.508  29.523  1.00  0.00     0.031 A 
ATOM     12  C   UNL A   1      41.162  27.216  29.041  1.00  0.00     0.074 A 
ATOM     13  C   UNL A   1      41.314  29.576  29.742  1.00  0.00     0.049 A 
ATOM     14  N   UNL A   1      42.428  26.927  28.864  1.00  0.00    -0.248 NA
ATOM     15  C   UNL A   1      40.265  26.112  28.675  1.00  0.00     0.031 C 
ATOM     16  C   UNL A   1      40.809  30.922  29.987  1.00  0.00     0.029 A 
ATOM     17  N   UNL A   1      42.672  29.728  29.707  1.00  0.00    -0.354 N 
ATOM     18  C   UNL A   1      42.471  25.632  28.346  1.00  0.00     0.074 A 
ATOM     19  C   UNL A   1      41.103  25.196  28.203  1.00  0.00     0.031 C 
ATOM     20  C   UNL A   1      41.833  31.781  30.012  1.00  0.00     0.029 A 
ATOM     21  C   UNL A   1      43.071  31.021  29.935  1.00  0.00     0.049 A 
ATOM     22  H   UNL A   1      43.298  28.987  29.536  1.00  0.00     0.167 HD
ATOM     23  C   UNL A   1      43.555  24.864  28.074  1.00  0.00     0.037 A 
ATOM     24  C   UNL A   1      44.297  31.531  30.148  1.00  0.00     0.037 A 
ATOM     25  C   UNL A   1      44.908  25.284  28.344  1.00  0.00     0.049 A 
ATOM     26  C   UNL A   1      45.464  30.594  30.084  1.00  0.00     0.074 A 
ATOM     27  C   UNL A   1      46.075  24.544  28.250  1.00  0.00     0.029 A 
ATOM     28  N   UNL A   1      45.271  26.543  28.803  1.00  0.00    -0.354 N 
ATOM     29  N   UNL A   1      45.495  29.350  29.669  1.00  0.00    -0.248 NA
ATOM     30  C   UNL A   1      46.754  31.109  30.553  1.00  0.00     0.031 C 
ATOM     31  C   UNL A   1      47.122  25.320  28.751  1.00  0.00     0.029 A 
ATOM     32  C   UNL A   1      46.629  26.577  29.064  1.00  0.00     0.049 A 
ATOM     33  H   UNL A   1      44.652  27.299  28.925  1.00  0.00     0.167 HD
ATOM     34  C   UNL A   1      46.809  28.933  29.825  1.00  0.00     0.074 A 
ATOM     35  C   UNL A   1      47.547  30.068  30.341  1.00  0.00     0.031 C 
ATOM     36  C   UNL A   1      47.350  27.716  29.576  1.00  0.00     0.037 A 
BRANCH  23  37
ATOM     37  C   UNL A   1      43.358  23.447  27.591  1.00  0.00     0.058 A 
ATOM     38  C   UNL A   1      42.875  22.426  28.423  1.00  0.00     0.135 A 
ATOM     39  C   UNL A   1      43.529  23.146  26.227  1.00  0.00     0.135 A 
ATOM     40  F   UNL A   1      42.701  22.647  29.735  1.00  0.00    -0.206 F 
ATOM     41  C   UNL A   1      42.560  21.162  27.918  1.00  0.00     0.059 A 
ATOM     42  C   UNL A   1      43.202  21.900  25.698  1.00  0.00     0.059 A 
ATOM     43  F   UNL A   1      43.988  24.083  25.383  1.00  0.00    -0.206 F 
ATOM     44  C   UNL A   1      42.717  20.912  26.552  1.00  0.00     0.060 A 
BRANCH  44  45
ATOM     45  S   UNL A   1      42.277  19.280  25.909  1.00  0.00     0.124 S 
ATOM     46  O   UNL A   1      43.070  19.225  24.684  1.00  0.00    -0.237 OA
ATOM     47  O   UNL A   1      42.711  18.396  26.985  1.00  0.00    -0.237 OA
ATOM     48  O   UNL A   1      40.834  19.366  25.711  1.00  0.00    -0.744 OA
ENDBRANCH  44  45
ENDBRANCH  23  37
BRANCH  24  49
ATOM     49  C   UNL A   1      44.433  32.942  30.592  1.00  0.00     0.058 A 
ATOM     50  C   UNL A   1      44.363  33.302  31.942  1.00  0.00     0.135 A 
ATOM     51  C   UNL A   1      44.643  33.971  29.652  1.00  0.00     0.135 A 
ATOM     52  F   UNL A   1      44.153  32.364  32.878  1.00  0.00    -0.206 F 
ATOM     53  C   UNL A   1      44.482  34.629  32.345  1.00  0.00     0.059 A 
ATOM     54  C   UNL A   1      44.817  35.292  30.033  1.00  0.00     0.059 A 
ATOM     55  F   UNL A   1      44.716  33.688  28.342  1.00  0.00    -0.206 F 
ATOM     56  C   UNL A   1      44.714  35.615  31.382  1.00  0.00     0.060 A 
BRANCH  56  57
ATOM     57  S   UNL A   1      44.876  37.331  31.913  1.00  0.00     0.124 S 
ATOM     58  O   UNL A   1      44.865  38.032  30.634  1.00  0.00    -0.237 OA
ATOM     59  O   UNL A   1      43.693  37.502  32.748  1.00  0.00    -0.237 OA
ATOM     60  O   UNL A   1      46.149  37.343  32.628  1.00  0.00    -0.744 OA
ENDBRANCH  56  57
ENDBRANCH  24  49
BRANCH  36  61
ATOM     61  C   UNL A   1      48.818  27.542  29.841  1.00  0.00     0.058 A 
ATOM     62  C   UNL A   1      49.290  27.062  31.073  1.00  0.00     0.135 A 
ATOM     63  C   UNL A   1      49.754  27.774  28.821  1.00  0.00     0.135 A 
ATOM     64  F   UNL A   1      48.437  26.834  32.084  1.00  0.00    -0.206 F 
ATOM     65  C   UNL A   1      50.644  26.831  31.288  1.00  0.00     0.059 A 
ATOM     66  C   UNL A   1      51.107  27.514  29.002  1.00  0.00     0.059 A 
ATOM     67  F   UNL A   1      49.352  28.225  27.623  1.00  0.00    -0.206 F 
ATOM     68  C   UNL A   1      51.543  27.048  30.242  1.00  0.00     0.060 A 
BRANCH  68  69
ATOM     69  S   UNL A   1      53.287  26.686  30.522  1.00  0.00     0.124 S 
ATOM     70  O   UNL A   1      53.731  26.314  29.183  1.00  0.00    -0.237 OA
ATOM     71  O   UNL A   1      53.787  27.962  31.025  1.00  0.00    -0.237 OA
ATOM     72  O   UNL A   1      53.259  25.600  31.497  1.00  0.00    -0.744 OA
ENDBRANCH  68  69
ENDBRANCH  36  61
ENDBRANCH  10  11
ENDBRANCH   3   5
ENDBRANCH   2   3
ENDBRANCH   1   2
BRANCH   1  73
ATOM     73  C   UNL A   1      33.165  27.119  26.259  1.00  0.00     0.274 C 
BRANCH  73  74
ATOM     74  O   UNL A   1      33.773  25.836  25.936  1.00  0.00    -0.461 OA
BRANCH  74  75
ATOM     75  C   UNL A   1      33.162  24.599  25.953  1.00  0.00     0.322 C 
ATOM     76  O   UNL A   1      32.107  24.342  26.498  1.00  0.00    -0.251 OA
BRANCH  75  77
ATOM     77  C   UNL A   1      34.049  23.659  25.058  1.00  0.00     0.162 C 
ATOM     78  C   UNL A   1      32.844  23.727  23.541  1.00  0.00     0.255 C 
ATOM     79  C   UNL A   1      34.599  21.919  25.544  1.00  0.00     0.105 C 
ATOM     80  C   UNL A   1      35.416  24.353  25.115  1.00  0.00     0.285 C 
ATOM     81  O   UNL A   1      32.080  21.885  23.040  1.00  0.00    -0.492 OA
ATOM     82  C   UNL A   1      33.853  20.384  24.850  1.00  0.00     0.004 A 
ATOM     83  C   UNL A   1      36.099  21.980  25.130  1.00  0.00     0.272 C 
ATOM     84  N   UNL A   1      36.498  23.372  25.024  1.00  0.00    -0.331 N 
ATOM     85  C   UNL A   1      32.605  20.371  23.798  1.00  0.00     0.123 A 
ATOM     86  C   UNL A   1      34.570  19.198  24.892  1.00  0.00     0.008 A 
ATOM     87  H   UNL A   1      36.753  23.488  24.042  1.00  0.00     0.348 HD
ATOM     88  C   UNL A   1      32.118  19.273  23.130  1.00  0.00     0.047 A 
ATOM     89  C   UNL A   1      34.112  18.125  24.079  1.00  0.00     0.001 A 
ATOM     90  C   UNL A   1      32.919  18.144  23.278  1.00  0.00     0.004 A 
BRANCH  84  91
ATOM     91  C   UNL A   1      37.756  23.690  25.707  1.00  0.00     0.290 C 
BRANCH  91  92
ATOM     92  C   UNL A   1      38.542  22.498  26.300  1.00  0.00     0.217 C 
BRANCH  92  93
ATOM     93  O   UNL A   1      39.778  22.230  25.641  1.00  0.00    -0.391 OA
ATOM     94  H   UNL A   1      40.512  22.555  26.186  1.00  0.00     0.210 HD
ENDBRANCH  92  93
ENDBRANCH  91  92
ENDBRANCH  84  91
ENDBRANCH  75  77
ENDBRANCH  74  75
ENDBRANCH  73  74
ENDBRANCH   1  73
TORSDOF 17
ENDMDL
MODEL 3
REMARK VINA RESULT:     -10.9      3.933      9.911
REMARK SMILES O=C(OCCOC(=O)[C@]12COc3ccccc3[C@H]1C[N@H+](CCO)C2)c1ccc(-c2c3nc(c(-c4c(F)cc(S(=O)(=O)[O-])cc4F)c4ccc([nH]4)c(-c4c(F)cc(S(=O)(=O)[O-])cc4F)c4nc(c(-c5c(F)cc(S(=O)(=O)[O-])cc5F)c5ccc2[nH]5)C=C4)C=C3)cc1
REMARK SMILES IDX 4 1 3 2 2 3 1 4 25 5 26 6 90 7 27 8 89 9 28 10 29 11 30 12
REMARK SMILES IDX 83 13 31 14 88 15 82 16 84 17 32 18 87 19 81 20 80 21 33 23
REMARK SMILES IDX 67 24 46 25 66 26 47 27 50 28 65 29 85 30 48 31 49 32 64 34
REMARK SMILES IDX 86 35 51 36 34 37 35 38 44 39 36 40 37 41 43 42 45 43 38 44
REMARK SMILES IDX 39 45 40 46 41 47 42 48 68 49 69 50 78 51 70 52 71 53 77 54
REMARK SMILES IDX 79 55 72 56 73 57 74 58 75 59 76 60 52 61 53 62 62 63 54 64
REMARK SMILES IDX 55 65 61 66 63 67 56 68 57 69 58 70 59 71 60 72 5 73 6 74
REMARK SMILES IDX 7 75 8 76 9 77 10 78 18 79 24 80 11 81 17 82 19 83 20 84
REMARK SMILES IDX 12 85 16 86 13 88 15 89 14 90 21 91 22 92 23 93
REMARK H PARENT 84 22 50 33 20 87 23 94
REMARK Flexibility Score: inf
ROOT
ATOM      1  C   UNL A   1      36.255  23.703  25.683  1.00  0.00     0.275 C 
ENDROOT
BRANCH   1   2
ATOM      2  O   UNL A   1      37.614  23.579  25.242  1.00  0.00    -0.458 OA
BRANCH   2   3
ATOM      3  C   UNL A   1      38.677  23.289  26.044  1.00  0.00     0.338 C 
ATOM      4  O   UNL A   1      38.929  22.141  26.384  1.00  0.00    -0.246 OA
BRANCH   3   5
ATOM      5  C   UNL A   1      39.316  24.419  26.743  1.00  0.00     0.060 A 
ATOM      6  C   UNL A   1      38.612  24.785  28.282  1.00  0.00     0.016 A 
ATOM      7  C   UNL A   1      40.412  25.575  26.079  1.00  0.00     0.016 A 
ATOM      8  C   UNL A   1      39.085  26.482  29.158  1.00  0.00     0.010 A 
ATOM      9  C   UNL A   1      40.828  27.080  26.869  1.00  0.00     0.010 A 
ATOM     10  C   UNL A   1      40.213  27.565  28.402  1.00  0.00    -0.014 A 
BRANCH  10  11
ATOM     11  C   UNL A   1      40.584  28.699  29.272  1.00  0.00     0.031 A 
ATOM     12  C   UNL A   1      39.643  29.849  29.568  1.00  0.00     0.074 A 
ATOM     13  C   UNL A   1      41.576  28.424  30.133  1.00  0.00     0.049 A 
ATOM     14  N   UNL A   1      39.683  30.722  30.546  1.00  0.00    -0.248 NA
ATOM     15  C   UNL A   1      38.486  30.033  28.682  1.00  0.00     0.031 C 
ATOM     16  C   UNL A   1      42.398  27.221  30.076  1.00  0.00     0.029 A 
ATOM     17  N   UNL A   1      42.003  29.070  31.259  1.00  0.00    -0.354 N 
ATOM     18  C   UNL A   1      38.554  31.529  30.404  1.00  0.00     0.074 A 
ATOM     19  C   UNL A   1      37.824  31.027  29.265  1.00  0.00     0.031 C 
ATOM     20  C   UNL A   1      43.185  27.173  31.155  1.00  0.00     0.029 A 
ATOM     21  C   UNL A   1      43.026  28.415  31.895  1.00  0.00     0.049 A 
ATOM     22  H   UNL A   1      41.617  29.917  31.579  1.00  0.00     0.167 HD
ATOM     23  C   UNL A   1      38.199  32.622  31.125  1.00  0.00     0.037 A 
ATOM     24  C   UNL A   1      43.814  28.806  32.912  1.00  0.00     0.037 A 
ATOM     25  C   UNL A   1      39.014  33.172  32.179  1.00  0.00     0.049 A 
ATOM     26  C   UNL A   1      43.546  30.143  33.529  1.00  0.00     0.074 A 
ATOM     27  C   UNL A   1      38.834  34.353  32.880  1.00  0.00     0.029 A 
ATOM     28  N   UNL A   1      40.186  32.602  32.654  1.00  0.00    -0.354 N 
ATOM     29  N   UNL A   1      42.522  30.942  33.342  1.00  0.00    -0.248 NA
ATOM     30  C   UNL A   1      44.553  30.657  34.463  1.00  0.00     0.031 C 
ATOM     31  C   UNL A   1      39.949  34.546  33.697  1.00  0.00     0.029 A 
ATOM     32  C   UNL A   1      40.776  33.440  33.584  1.00  0.00     0.049 A 
ATOM     33  H   UNL A   1      40.546  31.730  32.370  1.00  0.00     0.167 HD
ATOM     34  C   UNL A   1      42.761  32.054  34.137  1.00  0.00     0.074 A 
ATOM     35  C   UNL A   1      44.009  31.809  34.831  1.00  0.00     0.031 C 
ATOM     36  C   UNL A   1      42.019  33.180  34.268  1.00  0.00     0.037 A 
BRANCH  23  37
ATOM     37  C   UNL A   1      36.961  33.396  30.735  1.00  0.00     0.058 A 
ATOM     38  C   UNL A   1      36.867  34.115  29.536  1.00  0.00     0.135 A 
ATOM     39  C   UNL A   1      35.801  33.296  31.525  1.00  0.00     0.135 A 
ATOM     40  F   UNL A   1      37.941  34.256  28.743  1.00  0.00    -0.206 F 
ATOM     41  C   UNL A   1      35.665  34.698  29.128  1.00  0.00     0.059 A 
ATOM     42  C   UNL A   1      34.587  33.851  31.129  1.00  0.00     0.059 A 
ATOM     43  F   UNL A   1      35.831  32.620  32.684  1.00  0.00    -0.206 F 
ATOM     44  C   UNL A   1      34.527  34.552  29.927  1.00  0.00     0.060 A 
BRANCH  44  45
ATOM     45  S   UNL A   1      32.972  35.288  29.372  1.00  0.00     0.124 S 
ATOM     46  O   UNL A   1      32.527  34.316  28.377  1.00  0.00    -0.237 OA
ATOM     47  O   UNL A   1      32.194  35.335  30.605  1.00  0.00    -0.237 OA
ATOM     48  O   UNL A   1      33.377  36.584  28.836  1.00  0.00    -0.744 OA
ENDBRANCH  44  45
ENDBRANCH  23  37
BRANCH  24  49
ATOM     49  C   UNL A   1      45.001  27.988  33.272  1.00  0.00     0.058 A 
ATOM     50  C   UNL A   1      46.241  28.171  32.649  1.00  0.00     0.135 A 
ATOM     51  C   UNL A   1      44.911  26.994  34.267  1.00  0.00     0.135 A 
ATOM     52  F   UNL A   1      46.380  29.095  31.686  1.00  0.00    -0.206 F 
ATOM     53  C   UNL A   1      47.343  27.391  32.987  1.00  0.00     0.059 A 
ATOM     54  C   UNL A   1      46.007  26.241  34.658  1.00  0.00     0.059 A 
ATOM     55  F   UNL A   1      43.747  26.769  34.897  1.00  0.00    -0.206 F 
ATOM     56  C   UNL A   1      47.216  26.433  33.997  1.00  0.00     0.060 A 
BRANCH  56  57
ATOM     57  S   UNL A   1      48.652  25.434  34.436  1.00  0.00     0.124 S 
ATOM     58  O   UNL A   1      49.639  25.905  33.471  1.00  0.00    -0.237 OA
ATOM     59  O   UNL A   1      48.877  25.821  35.824  1.00  0.00    -0.237 OA
ATOM     60  O   UNL A   1      48.182  24.065  34.240  1.00  0.00    -0.744 OA
ENDBRANCH  56  57
ENDBRANCH  24  49
BRANCH  36  61
ATOM     61  C   UNL A   1      42.523  34.237  35.209  1.00  0.00     0.058 A 
ATOM     62  C   UNL A   1      43.320  35.301  34.760  1.00  0.00     0.135 A 
ATOM     63  C   UNL A   1      42.129  34.231  36.557  1.00  0.00     0.135 A 
ATOM     64  F   UNL A   1      43.731  35.348  33.483  1.00  0.00    -0.206 F 
ATOM     65  C   UNL A   1      43.720  36.317  35.619  1.00  0.00     0.059 A 
ATOM     66  C   UNL A   1      42.486  35.256  37.424  1.00  0.00     0.059 A 
ATOM     67  F   UNL A   1      41.359  33.240  37.033  1.00  0.00    -0.206 F 
ATOM     68  C   UNL A   1      43.287  36.292  36.947  1.00  0.00     0.060 A 
BRANCH  68  69
ATOM     69  S   UNL A   1      43.770  37.650  38.032  1.00  0.00     0.124 S 
ATOM     70  O   UNL A   1      44.128  38.685  37.067  1.00  0.00    -0.237 OA
ATOM     71  O   UNL A   1      42.546  37.885  38.791  1.00  0.00    -0.237 OA
ATOM     72  O   UNL A   1      44.882  37.097  38.798  1.00  0.00    -0.744 OA
ENDBRANCH  68  69
ENDBRANCH  36  61
ENDBRANCH  10  11
ENDBRANCH   3   5
ENDBRANCH   2   3
ENDBRANCH   1   2
BRANCH   1  73
ATOM     73  C   UNL A   1      35.233  24.164  24.616  1.00  0.00     0.274 C 
BRANCH  73  74
ATOM     74  O   UNL A   1      34.370  25.310  24.863  1.00  0.00    -0.461 OA
BRANCH  74  75
ATOM     75  C   UNL A   1      33.516  25.916  23.965  1.00  0.00     0.322 C 
ATOM     76  O   UNL A   1      33.466  25.683  22.772  1.00  0.00    -0.251 OA
BRANCH  75  77
ATOM     77  C   UNL A   1      32.588  26.862  24.810  1.00  0.00     0.162 C 
ATOM     78  C   UNL A   1      31.114  25.603  24.866  1.00  0.00     0.255 C 
ATOM     79  C   UNL A   1      32.100  28.616  24.309  1.00  0.00     0.105 C 
ATOM     80  C   UNL A   1      33.483  27.208  26.006  1.00  0.00     0.285 C 
ATOM     81  O   UNL A   1      29.410  26.322  23.967  1.00  0.00    -0.492 OA
ATOM     82  C   UNL A   1      30.440  29.062  23.646  1.00  0.00     0.004 A 
ATOM     83  C   UNL A   1      32.316  29.358  25.661  1.00  0.00     0.272 C 
ATOM     84  N   UNL A   1      33.188  28.554  26.500  1.00  0.00    -0.331 N 
ATOM     85  C   UNL A   1      29.249  27.982  23.366  1.00  0.00     0.123 A 
ATOM     86  C   UNL A   1      30.006  30.377  23.724  1.00  0.00     0.008 A 
ATOM     87  H   UNL A   1      32.613  28.318  27.310  1.00  0.00     0.348 HD
ATOM     88  C   UNL A   1      27.950  28.276  23.027  1.00  0.00     0.047 A 
ATOM     89  C   UNL A   1      28.623  30.625  23.502  1.00  0.00     0.001 A 
ATOM     90  C   UNL A   1      27.654  29.633  23.123  1.00  0.00     0.004 A 
BRANCH  84  91
ATOM     91  C   UNL A   1      34.289  29.303  27.114  1.00  0.00     0.290 C 
BRANCH  91  92
ATOM     92  C   UNL A   1      34.035  30.803  27.392  1.00  0.00     0.217 C 
BRANCH  92  93
ATOM     93  O   UNL A   1      34.398  31.221  28.707  1.00  0.00    -0.391 OA
ATOM     94  H   UNL A   1      35.344  31.058  28.847  1.00  0.00     0.210 HD
ENDBRANCH  92  93
ENDBRANCH  91  92
ENDBRANCH  84  91
ENDBRANCH  75  77
ENDBRANCH  74  75
ENDBRANCH  73  74
ENDBRANCH   1  73
TORSDOF 17
ENDMDL
