MODEL 1
REMARK VINA RESULT:     -11.3      0.000      0.000
REMARK SMILES COc1cc(OC)cc(-c2ccc([C@@H](C)C(=O)OCCOC(=O)c3ccc(-c4c5nc(c(-c6c(F)cc(S(=O)(=O)[O-])cc6F)c6ccc([nH]6)c(-c6c(F)cc(S(=O)(=O)[O-])cc6F)c6nc(c(-c7c(F)cc(S(=O)(=O)[O-])cc7F)c7ccc4[nH]7)C=C6)C=C5)cc3)cc2F)c1
REMARK SMILES IDX 19 1 18 2 16 3 17 4 14 5 15 6 13 7 10 8 11 9 91 10 12 11
REMARK SMILES IDX 90 12 92 13 9 14 3 15 4 16 93 17 5 18 8 19 2 20 1 21 6 22
REMARK SMILES IDX 7 23 20 24 21 25 22 26 23 27 24 28 25 29 89 30 26 31 88 32
REMARK SMILES IDX 27 33 28 34 29 35 82 36 30 37 87 38 81 39 83 40 31 41 86 42
REMARK SMILES IDX 80 43 79 44 32 46 66 47 45 48 65 49 46 50 49 51 64 52 84 53
REMARK SMILES IDX 47 54 48 55 63 57 85 58 50 59 33 60 34 61 43 62 35 63 36 64
REMARK SMILES IDX 42 65 44 66 37 67 38 68 39 69 40 70 41 71 67 72 68 73 77 74
REMARK SMILES IDX 69 75 70 76 76 77 78 78 71 79 72 80 73 81 74 82 75 83 51 84
REMARK SMILES IDX 52 85 61 86 53 87 54 88 60 89 62 90 55 91 56 92 57 93 58 94
REMARK SMILES IDX 59 95
REMARK H PARENT 83 45 49 56
REMARK Flexibility Score: inf
ROOT
ATOM      1  C   UNL A   1      44.184  22.386  25.383  1.00  0.00     0.274 C 
ENDROOT
BRANCH   1   2
ATOM      2  O   UNL A   1      42.831  22.150  24.947  1.00  0.00    -0.462 OA
BRANCH   2   3
ATOM      3  C   UNL A   1      42.031  21.443  25.786  1.00  0.00     0.313 C 
ATOM      4  O   UNL A   1      42.037  20.219  25.875  1.00  0.00    -0.252 OA
BRANCH   3   5
ATOM      5  C   UNL A   1      41.060  22.310  26.582  1.00  0.00     0.126 C 
ATOM      6  C   UNL A   1      41.216  22.019  28.075  1.00  0.00     0.025 C 
BRANCH   5   7
ATOM      7  C   UNL A   1      39.608  22.267  26.130  1.00  0.00    -0.031 A 
ATOM      8  C   UNL A   1      36.917  22.157  25.207  1.00  0.00     0.018 A 
ATOM      9  C   UNL A   1      37.445  23.328  25.772  1.00  0.00     0.012 A 
ATOM     10  C   UNL A   1      37.751  21.037  25.145  1.00  0.00     0.131 A 
ATOM     11  C   UNL A   1      38.768  23.385  26.223  1.00  0.00     0.005 A 
ATOM     12  C   UNL A   1      39.075  21.088  25.584  1.00  0.00     0.044 A 
ATOM     13  F   UNL A   1      37.307  19.891  24.607  1.00  0.00    -0.206 F 
BRANCH   8  14
ATOM     14  C   UNL A   1      35.570  22.152  24.620  1.00  0.00    -0.008 A 
ATOM     15  C   UNL A   1      33.298  21.296  24.462  1.00  0.00     0.123 A 
ATOM     16  C   UNL A   1      33.046  22.182  23.410  1.00  0.00     0.092 A 
ATOM     17  C   UNL A   1      34.563  21.273  25.055  1.00  0.00     0.055 A 
ATOM     18  C   UNL A   1      34.031  23.056  22.955  1.00  0.00     0.123 A 
ATOM     19  C   UNL A   1      35.281  23.043  23.569  1.00  0.00     0.055 A 
BRANCH  15  20
ATOM     20  O   UNL A   1      32.238  20.499  24.796  1.00  0.00    -0.497 OA
ATOM     21  C   UNL A   1      32.516  19.119  25.000  1.00  0.00     0.278 C 
ENDBRANCH  15  20
BRANCH  18  22
ATOM     22  O   UNL A   1      33.660  23.873  21.923  1.00  0.00    -0.497 OA
ATOM     23  C   UNL A   1      32.937  25.047  22.273  1.00  0.00     0.278 C 
ENDBRANCH  18  22
ENDBRANCH   8  14
ENDBRANCH   5   7
ENDBRANCH   3   5
ENDBRANCH   2   3
ENDBRANCH   1   2
BRANCH   1  24
ATOM     24  C   UNL A   1      44.488  23.883  25.445  1.00  0.00     0.275 C 
BRANCH  24  25
ATOM     25  O   UNL A   1      43.718  24.525  26.477  1.00  0.00    -0.458 OA
BRANCH  25  26
ATOM     26  C   UNL A   1      42.780  25.397  26.035  1.00  0.00     0.338 C 
ATOM     27  O   UNL A   1      42.283  25.447  24.924  1.00  0.00    -0.246 OA
BRANCH  26  28
ATOM     28  C   UNL A   1      42.318  26.226  27.158  1.00  0.00     0.060 A 
ATOM     29  C   UNL A   1      42.952  27.451  27.360  1.00  0.00     0.016 A 
ATOM     30  C   UNL A   1      41.340  25.780  28.047  1.00  0.00     0.016 A 
ATOM     31  C   UNL A   1      42.637  28.231  28.467  1.00  0.00     0.010 A 
ATOM     32  C   UNL A   1      41.006  26.575  29.153  1.00  0.00     0.010 A 
ATOM     33  C   UNL A   1      41.664  27.798  29.376  1.00  0.00    -0.014 A 
BRANCH  33  34
ATOM     34  C   UNL A   1      41.375  28.634  30.567  1.00  0.00     0.031 A 
ATOM     35  C   UNL A   1      42.242  28.537  31.789  1.00  0.00     0.074 A 
ATOM     36  C   UNL A   1      40.369  29.529  30.518  1.00  0.00     0.049 A 
ATOM     37  N   UNL A   1      42.161  29.201  32.914  1.00  0.00    -0.248 NA
ATOM     38  C   UNL A   1      43.347  27.566  31.741  1.00  0.00     0.031 C 
ATOM     39  C   UNL A   1      39.476  29.732  29.376  1.00  0.00     0.029 A 
ATOM     40  N   UNL A   1      39.940  30.443  31.445  1.00  0.00    -0.354 N 
ATOM     41  C   UNL A   1      43.191  28.723  33.714  1.00  0.00     0.074 A 
ATOM     42  C   UNL A   1      43.873  27.696  32.952  1.00  0.00     0.031 C 
ATOM     43  C   UNL A   1      38.617  30.723  29.663  1.00  0.00     0.029 A 
ATOM     44  C   UNL A   1      38.877  31.202  31.017  1.00  0.00     0.049 A 
ATOM     45  H   UNL A   1      40.354  30.548  32.331  1.00  0.00     0.167 HD
ATOM     46  C   UNL A   1      43.539  29.108  34.965  1.00  0.00     0.037 A 
ATOM     47  C   UNL A   1      38.184  32.168  31.649  1.00  0.00     0.037 A 
ATOM     48  C   UNL A   1      42.868  30.140  35.714  1.00  0.00     0.049 A 
ATOM     49  C   UNL A   1      38.579  32.564  33.044  1.00  0.00     0.074 A 
ATOM     50  C   UNL A   1      43.157  30.610  36.984  1.00  0.00     0.029 A 
ATOM     51  N   UNL A   1      41.775  30.864  35.260  1.00  0.00    -0.354 N 
ATOM     52  N   UNL A   1      39.556  32.100  33.787  1.00  0.00    -0.248 NA
ATOM     53  C   UNL A   1      37.778  33.614  33.687  1.00  0.00     0.031 C 
ATOM     54  C   UNL A   1      42.218  31.597  37.309  1.00  0.00     0.029 A 
ATOM     55  C   UNL A   1      41.367  31.766  36.230  1.00  0.00     0.049 A 
ATOM     56  H   UNL A   1      41.352  30.754  34.379  1.00  0.00     0.167 HD
ATOM     57  C   UNL A   1      39.490  32.804  34.983  1.00  0.00     0.074 A 
ATOM     58  C   UNL A   1      38.393  33.743  34.855  1.00  0.00     0.031 C 
ATOM     59  C   UNL A   1      40.264  32.682  36.091  1.00  0.00     0.037 A 
BRANCH  46  60
ATOM     60  C   UNL A   1      44.689  28.389  35.613  1.00  0.00     0.058 A 
ATOM     61  C   UNL A   1      46.021  28.760  35.373  1.00  0.00     0.135 A 
ATOM     62  C   UNL A   1      44.452  27.328  36.501  1.00  0.00     0.135 A 
ATOM     63  F   UNL A   1      46.302  29.756  34.520  1.00  0.00    -0.206 F 
ATOM     64  C   UNL A   1      47.081  28.087  35.974  1.00  0.00     0.059 A 
ATOM     65  C   UNL A   1      45.496  26.655  37.128  1.00  0.00     0.059 A 
ATOM     66  F   UNL A   1      43.197  26.933  36.763  1.00  0.00    -0.206 F 
ATOM     67  C   UNL A   1      46.809  27.031  36.846  1.00  0.00     0.060 A 
BRANCH  67  68
ATOM     68  S   UNL A   1      48.191  26.159  37.614  1.00  0.00     0.124 S 
ATOM     69  O   UNL A   1      47.661  25.892  38.946  1.00  0.00    -0.237 OA
ATOM     70  O   UNL A   1      48.349  24.994  36.749  1.00  0.00    -0.237 OA
ATOM     71  O   UNL A   1      49.280  27.130  37.554  1.00  0.00    -0.744 OA
ENDBRANCH  67  68
ENDBRANCH  46  60
BRANCH  47  72
ATOM     72  C   UNL A   1      37.039  32.824  30.965  1.00  0.00     0.058 A 
ATOM     73  C   UNL A   1      37.246  33.779  29.960  1.00  0.00     0.135 A 
ATOM     74  C   UNL A   1      35.716  32.493  31.295  1.00  0.00     0.135 A 
ATOM     75  F   UNL A   1      38.494  34.133  29.618  1.00  0.00    -0.206 F 
ATOM     76  C   UNL A   1      36.180  34.391  29.309  1.00  0.00     0.059 A 
ATOM     77  C   UNL A   1      34.634  33.076  30.642  1.00  0.00     0.059 A 
ATOM     78  F   UNL A   1      35.467  31.577  32.243  1.00  0.00    -0.206 F 
ATOM     79  C   UNL A   1      34.877  34.031  29.656  1.00  0.00     0.060 A 
BRANCH  79  80
ATOM     80  S   UNL A   1      33.497  34.783  28.765  1.00  0.00     0.124 S 
ATOM     81  O   UNL A   1      32.517  34.954  29.832  1.00  0.00    -0.237 OA
ATOM     82  O   UNL A   1      34.095  36.009  28.245  1.00  0.00    -0.237 OA
ATOM     83  O   UNL A   1      33.167  33.781  27.756  1.00  0.00    -0.744 OA
ENDBRANCH  79  80
ENDBRANCH  47  72
BRANCH  59  84
ATOM     84  C   UNL A   1      39.945  33.592  37.243  1.00  0.00     0.058 A 
ATOM     85  C   UNL A   1      38.965  33.255  38.190  1.00  0.00     0.135 A 
ATOM     86  C   UNL A   1      40.627  34.807  37.406  1.00  0.00     0.135 A 
ATOM     87  F   UNL A   1      38.281  32.106  38.075  1.00  0.00    -0.206 F 
ATOM     88  C   UNL A   1      38.646  34.110  39.240  1.00  0.00     0.059 A 
ATOM     89  C   UNL A   1      40.339  35.668  38.461  1.00  0.00     0.059 A 
ATOM     90  F   UNL A   1      41.580  35.170  36.533  1.00  0.00    -0.206 F 
ATOM     91  C   UNL A   1      39.333  35.319  39.362  1.00  0.00     0.060 A 
BRANCH  91  92
ATOM     92  S   UNL A   1      38.913  36.427  40.724  1.00  0.00     0.124 S 
ATOM     93  O   UNL A   1      37.866  35.671  41.404  1.00  0.00    -0.237 OA
ATOM     94  O   UNL A   1      40.178  36.544  41.441  1.00  0.00    -0.237 OA
ATOM     95  O   UNL A   1      38.470  37.642  40.045  1.00  0.00    -0.744 OA
ENDBRANCH  91  92
ENDBRANCH  59  84
ENDBRANCH  33  34
ENDBRANCH  26  28
ENDBRANCH  25  26
ENDBRANCH  24  25
ENDBRANCH   1  24
TORSDOF 18
ENDMDL
MODEL 2
REMARK VINA RESULT:     -11.2      2.276      3.857
REMARK SMILES COc1cc(OC)cc(-c2ccc([C@@H](C)C(=O)OCCOC(=O)c3ccc(-c4c5nc(c(-c6c(F)cc(S(=O)(=O)[O-])cc6F)c6ccc([nH]6)c(-c6c(F)cc(S(=O)(=O)[O-])cc6F)c6nc(c(-c7c(F)cc(S(=O)(=O)[O-])cc7F)c7ccc4[nH]7)C=C6)C=C5)cc3)cc2F)c1
REMARK SMILES IDX 19 1 18 2 16 3 17 4 14 5 15 6 13 7 10 8 11 9 91 10 12 11
REMARK SMILES IDX 90 12 92 13 9 14 3 15 4 16 93 17 5 18 8 19 2 20 1 21 6 22
REMARK SMILES IDX 7 23 20 24 21 25 22 26 23 27 24 28 25 29 89 30 26 31 88 32
REMARK SMILES IDX 27 33 28 34 29 35 82 36 30 37 87 38 81 39 83 40 31 41 86 42
REMARK SMILES IDX 80 43 79 44 32 46 66 47 45 48 65 49 46 50 49 51 64 52 84 53
REMARK SMILES IDX 47 54 48 55 63 57 85 58 50 59 33 60 34 61 43 62 35 63 36 64
REMARK SMILES IDX 42 65 44 66 37 67 38 68 39 69 40 70 41 71 67 72 68 73 77 74
REMARK SMILES IDX 69 75 70 76 76 77 78 78 71 79 72 80 73 81 74 82 75 83 51 84
REMARK SMILES IDX 52 85 61 86 53 87 54 88 60 89 62 90 55 91 56 92 57 93 58 94
REMARK SMILES IDX 59 95
REMARK H PARENT 83 45 49 56
REMARK Flexibility Score: inf
ROOT
ATOM      1  C   UNL A   1      38.661  21.873  25.807  1.00  0.00     0.274 C 
ENDROOT
BRANCH   1   2
ATOM      2  O   UNL A   1      37.542  22.763  25.630  1.00  0.00    -0.462 OA
BRANCH   2   3
ATOM      3  C   UNL A   1      36.340  22.192  25.362  1.00  0.00     0.313 C 
ATOM      4  O   UNL A   1      35.868  21.253  25.995  1.00  0.00    -0.252 OA
BRANCH   3   5
ATOM      5  C   UNL A   1      35.636  22.787  24.147  1.00  0.00     0.126 C 
ATOM      6  C   UNL A   1      36.640  22.971  23.010  1.00  0.00     0.025 C 
BRANCH   5   7
ATOM      7  C   UNL A   1      34.813  24.041  24.404  1.00  0.00    -0.031 A 
ATOM      8  C   UNL A   1      33.317  26.427  24.822  1.00  0.00     0.018 A 
ATOM      9  C   UNL A   1      33.988  25.794  25.880  1.00  0.00     0.012 A 
ATOM     10  C   UNL A   1      33.384  25.824  23.562  1.00  0.00     0.131 A 
ATOM     11  C   UNL A   1      34.726  24.623  25.676  1.00  0.00     0.005 A 
ATOM     12  C   UNL A   1      34.126  24.663  23.348  1.00  0.00     0.044 A 
ATOM     13  F   UNL A   1      32.772  26.387  22.510  1.00  0.00    -0.206 F 
BRANCH   8  14
ATOM     14  C   UNL A   1      32.656  27.724  25.025  1.00  0.00    -0.008 A 
ATOM     15  C   UNL A   1      30.988  29.399  24.449  1.00  0.00     0.123 A 
ATOM     16  C   UNL A   1      31.488  30.231  25.454  1.00  0.00     0.092 A 
ATOM     17  C   UNL A   1      31.582  28.153  24.227  1.00  0.00     0.055 A 
ATOM     18  C   UNL A   1      32.558  29.831  26.253  1.00  0.00     0.123 A 
ATOM     19  C   UNL A   1      33.127  28.578  26.041  1.00  0.00     0.055 A 
BRANCH  15  20
ATOM     20  O   UNL A   1      29.940  29.927  23.747  1.00  0.00    -0.497 OA
ATOM     21  C   UNL A   1      29.910  29.665  22.349  1.00  0.00     0.278 C 
ENDBRANCH  15  20
BRANCH  18  22
ATOM     22  O   UNL A   1      32.952  30.733  27.203  1.00  0.00    -0.497 OA
ATOM     23  C   UNL A   1      34.352  30.837  27.434  1.00  0.00     0.278 C 
ENDBRANCH  18  22
ENDBRANCH   8  14
ENDBRANCH   5   7
ENDBRANCH   3   5
ENDBRANCH   2   3
ENDBRANCH   1   2
BRANCH   1  24
ATOM     24  C   UNL A   1      39.718  22.493  26.720  1.00  0.00     0.275 C 
BRANCH  24  25
ATOM     25  O   UNL A   1      39.728  23.927  26.601  1.00  0.00    -0.458 OA
BRANCH  25  26
ATOM     26  C   UNL A   1      40.902  24.522  26.919  1.00  0.00     0.338 C 
ATOM     27  O   UNL A   1      41.991  24.327  26.410  1.00  0.00    -0.246 OA
BRANCH  26  28
ATOM     28  C   UNL A   1      40.659  25.579  27.912  1.00  0.00     0.060 A 
ATOM     29  C   UNL A   1      41.693  26.480  28.163  1.00  0.00     0.016 A 
ATOM     30  C   UNL A   1      39.473  25.642  28.644  1.00  0.00     0.016 A 
ATOM     31  C   UNL A   1      41.565  27.434  29.166  1.00  0.00     0.010 A 
ATOM     32  C   UNL A   1      39.334  26.616  29.641  1.00  0.00     0.010 A 
ATOM     33  C   UNL A   1      40.386  27.508  29.918  1.00  0.00    -0.014 A 
BRANCH  33  34
ATOM     34  C   UNL A   1      40.293  28.512  31.006  1.00  0.00     0.031 A 
ATOM     35  C   UNL A   1      41.223  28.442  32.183  1.00  0.00     0.074 A 
ATOM     36  C   UNL A   1      39.413  29.526  30.896  1.00  0.00     0.049 A 
ATOM     37  N   UNL A   1      41.307  29.240  33.216  1.00  0.00    -0.248 NA
ATOM     38  C   UNL A   1      42.184  27.329  32.202  1.00  0.00     0.031 C 
ATOM     39  C   UNL A   1      38.477  29.714  29.785  1.00  0.00     0.029 A 
ATOM     40  N   UNL A   1      39.173  30.596  31.719  1.00  0.00    -0.354 N 
ATOM     41  C   UNL A   1      42.318  28.723  34.016  1.00  0.00     0.074 A 
ATOM     42  C   UNL A   1      42.806  27.528  33.356  1.00  0.00     0.031 C 
ATOM     43  C   UNL A   1      37.778  30.842  29.988  1.00  0.00     0.029 A 
ATOM     44  C   UNL A   1      38.192  31.439  31.255  1.00  0.00     0.049 A 
ATOM     45  H   UNL A   1      39.658  30.746  32.562  1.00  0.00     0.167 HD
ATOM     46  C   UNL A   1      42.801  29.203  35.188  1.00  0.00     0.037 A 
ATOM     47  C   UNL A   1      37.677  32.560  31.793  1.00  0.00     0.037 A 
ATOM     48  C   UNL A   1      42.325  30.400  35.832  1.00  0.00     0.049 A 
ATOM     49  C   UNL A   1      38.218  33.061  33.103  1.00  0.00     0.074 A 
ATOM     50  C   UNL A   1      42.760  30.974  37.015  1.00  0.00     0.029 A 
ATOM     51  N   UNL A   1      41.308  31.210  35.348  1.00  0.00    -0.354 N 
ATOM     52  N   UNL A   1      39.173  32.557  33.847  1.00  0.00    -0.248 NA
ATOM     53  C   UNL A   1      37.608  34.281  33.649  1.00  0.00     0.031 C 
ATOM     54  C   UNL A   1      41.985  32.113  37.260  1.00  0.00     0.029 A 
ATOM     55  C   UNL A   1      41.090  32.269  36.214  1.00  0.00     0.049 A 
ATOM     56  H   UNL A   1      40.814  31.055  34.511  1.00  0.00     0.167 HD
ATOM     57  C   UNL A   1      39.284  33.402  34.945  1.00  0.00     0.074 A 
ATOM     58  C   UNL A   1      38.315  34.462  34.756  1.00  0.00     0.031 C 
ATOM     59  C   UNL A   1      40.110  33.307  36.017  1.00  0.00     0.037 A 
BRANCH  46  60
ATOM     60  C   UNL A   1      43.888  28.413  35.861  1.00  0.00     0.058 A 
ATOM     61  C   UNL A   1      43.598  27.351  36.731  1.00  0.00     0.135 A 
ATOM     62  C   UNL A   1      45.238  28.710  35.615  1.00  0.00     0.135 A 
ATOM     63  F   UNL A   1      42.324  27.037  37.014  1.00  0.00    -0.206 F 
ATOM     64  C   UNL A   1      44.610  26.626  37.355  1.00  0.00     0.059 A 
ATOM     65  C   UNL A   1      46.265  27.985  36.211  1.00  0.00     0.059 A 
ATOM     66  F   UNL A   1      45.569  29.717  34.791  1.00  0.00    -0.206 F 
ATOM     67  C   UNL A   1      45.941  26.955  37.092  1.00  0.00     0.060 A 
BRANCH  67  68
ATOM     68  S   UNL A   1      47.246  26.014  37.911  1.00  0.00     0.124 S 
ATOM     69  O   UNL A   1      46.469  25.033  38.663  1.00  0.00    -0.237 OA
ATOM     70  O   UNL A   1      48.010  25.488  36.784  1.00  0.00    -0.237 OA
ATOM     71  O   UNL A   1      47.936  27.018  38.715  1.00  0.00    -0.744 OA
ENDBRANCH  67  68
ENDBRANCH  46  60
BRANCH  47  72
ATOM     72  C   UNL A   1      36.584  33.282  31.092  1.00  0.00     0.058 A 
ATOM     73  C   UNL A   1      36.850  34.105  29.989  1.00  0.00     0.135 A 
ATOM     74  C   UNL A   1      35.250  33.148  31.505  1.00  0.00     0.135 A 
ATOM     75  F   UNL A   1      38.112  34.270  29.565  1.00  0.00    -0.206 F 
ATOM     76  C   UNL A   1      35.832  34.778  29.321  1.00  0.00     0.059 A 
ATOM     77  C   UNL A   1      34.213  33.794  30.840  1.00  0.00     0.059 A 
ATOM     78  F   UNL A   1      34.944  32.364  32.549  1.00  0.00    -0.206 F 
ATOM     79  C   UNL A   1      34.515  34.613  29.754  1.00  0.00     0.060 A 
BRANCH  79  80
ATOM     80  S   UNL A   1      33.189  35.441  28.847  1.00  0.00     0.124 S 
ATOM     81  O   UNL A   1      33.943  36.343  27.985  1.00  0.00    -0.237 OA
ATOM     82  O   UNL A   1      32.526  34.325  28.180  1.00  0.00    -0.237 OA
ATOM     83  O   UNL A   1      32.411  36.078  29.905  1.00  0.00    -0.744 OA
ENDBRANCH  79  80
ENDBRANCH  47  72
BRANCH  59  84
ATOM     84  C   UNL A   1      39.995  34.383  37.059  1.00  0.00     0.058 A 
ATOM     85  C   UNL A   1      39.118  34.254  38.147  1.00  0.00     0.135 A 
ATOM     86  C   UNL A   1      40.770  35.549  36.973  1.00  0.00     0.135 A 
ATOM     87  F   UNL A   1      38.351  33.160  38.272  1.00  0.00    -0.206 F 
ATOM     88  C   UNL A   1      38.985  35.264  39.096  1.00  0.00     0.059 A 
ATOM     89  C   UNL A   1      40.670  36.562  37.922  1.00  0.00     0.059 A 
ATOM     90  F   UNL A   1      41.632  35.715  35.956  1.00  0.00    -0.206 F 
ATOM     91  C   UNL A   1      39.761  36.418  38.970  1.00  0.00     0.060 A 
BRANCH  91  92
ATOM     92  S   UNL A   1      39.583  37.726  40.201  1.00  0.00     0.124 S 
ATOM     93  O   UNL A   1      38.210  38.162  39.968  1.00  0.00    -0.237 OA
ATOM     94  O   UNL A   1      39.818  37.017  41.455  1.00  0.00    -0.237 OA
ATOM     95  O   UNL A   1      40.619  38.685  39.827  1.00  0.00    -0.744 OA
ENDBRANCH  91  92
ENDBRANCH  59  84
ENDBRANCH  33  34
ENDBRANCH  26  28
ENDBRANCH  25  26
ENDBRANCH  24  25
ENDBRANCH   1  24
TORSDOF 18
ENDMDL
MODEL 3
REMARK VINA RESULT:     -11.1      4.042     11.760
REMARK SMILES COc1cc(OC)cc(-c2ccc([C@@H](C)C(=O)OCCOC(=O)c3ccc(-c4c5nc(c(-c6c(F)cc(S(=O)(=O)[O-])cc6F)c6ccc([nH]6)c(-c6c(F)cc(S(=O)(=O)[O-])cc6F)c6nc(c(-c7c(F)cc(S(=O)(=O)[O-])cc7F)c7ccc4[nH]7)C=C6)C=C5)cc3)cc2F)c1
REMARK SMILES IDX 19 1 18 2 16 3 17 4 14 5 15 6 13 7 10 8 11 9 91 10 12 11
REMARK SMILES IDX 90 12 92 13 9 14 3 15 4 16 93 17 5 18 8 19 2 20 1 21 6 22
REMARK SMILES IDX 7 23 20 24 21 25 22 26 23 27 24 28 25 29 89 30 26 31 88 32
REMARK SMILES IDX 27 33 28 34 29 35 82 36 30 37 87 38 81 39 83 40 31 41 86 42
REMARK SMILES IDX 80 43 79 44 32 46 66 47 45 48 65 49 46 50 49 51 64 52 84 53
REMARK SMILES IDX 47 54 48 55 63 57 85 58 50 59 33 60 34 61 43 62 35 63 36 64
REMARK SMILES IDX 42 65 44 66 37 67 38 68 39 69 40 70 41 71 67 72 68 73 77 74
REMARK SMILES IDX 69 75 70 76 76 77 78 78 71 79 72 80 73 81 74 82 75 83 51 84
REMARK SMILES IDX 52 85 61 86 53 87 54 88 60 89 62 90 55 91 56 92 57 93 58 94
REMARK SMILES IDX 59 95
REMARK H PARENT 83 45 49 56
REMARK Flexibility Score: inf
ROOT
ATOM      1  C   UNL A   1      33.599  34.085  28.199  1.00  0.00     0.274 C 
ENDROOT
BRANCH   1   2
ATOM      2  O   UNL A   1      33.049  34.451  29.479  1.00  0.00    -0.462 OA
BRANCH   2   3
ATOM      3  C   UNL A   1      33.934  34.708  30.477  1.00  0.00     0.313 C 
ATOM      4  O   UNL A   1      34.080  35.808  31.001  1.00  0.00    -0.252 OA
BRANCH   3   5
ATOM      5  C   UNL A   1      34.793  33.507  30.857  1.00  0.00     0.126 C 
ATOM      6  C   UNL A   1      34.459  33.066  32.282  1.00  0.00     0.025 C 
BRANCH   5   7
ATOM      7  C   UNL A   1      36.291  33.664  30.634  1.00  0.00    -0.031 A 
ATOM      8  C   UNL A   1      39.084  34.042  30.239  1.00  0.00     0.018 A 
ATOM      9  C   UNL A   1      38.275  33.491  29.233  1.00  0.00     0.012 A 
ATOM     10  C   UNL A   1      38.473  34.366  31.454  1.00  0.00     0.131 A 
ATOM     11  C   UNL A   1      36.901  33.308  29.424  1.00  0.00     0.005 A 
ATOM     12  C   UNL A   1      37.102  34.197  31.649  1.00  0.00     0.044 A 
ATOM     13  F   UNL A   1      39.192  34.905  32.450  1.00  0.00    -0.206 F 
BRANCH   8  14
ATOM     14  C   UNL A   1      40.498  34.349  29.978  1.00  0.00    -0.008 A 
ATOM     15  C   UNL A   1      42.874  34.065  30.414  1.00  0.00     0.123 A 
ATOM     16  C   UNL A   1      43.159  35.030  29.443  1.00  0.00     0.092 A 
ATOM     17  C   UNL A   1      41.544  33.737  30.689  1.00  0.00     0.055 A 
ATOM     18  C   UNL A   1      42.139  35.657  28.731  1.00  0.00     0.123 A 
ATOM     19  C   UNL A   1      40.817  35.305  28.994  1.00  0.00     0.055 A 
BRANCH  15  20
ATOM     20  O   UNL A   1      43.977  33.541  31.031  1.00  0.00    -0.497 OA
ATOM     21  C   UNL A   1      44.109  32.125  31.007  1.00  0.00     0.278 C 
ENDBRANCH  15  20
BRANCH  18  22
ATOM     22  O   UNL A   1      42.547  36.580  27.807  1.00  0.00    -0.497 OA
ATOM     23  C   UNL A   1      42.549  36.157  26.449  1.00  0.00     0.278 C 
ENDBRANCH  18  22
ENDBRANCH   8  14
ENDBRANCH   5   7
ENDBRANCH   3   5
ENDBRANCH   2   3
ENDBRANCH   1   2
BRANCH   1  24
ATOM     24  C   UNL A   1      33.257  32.637  27.847  1.00  0.00     0.275 C 
BRANCH  24  25
ATOM     25  O   UNL A   1      34.416  31.933  27.367  1.00  0.00    -0.458 OA
BRANCH  25  26
ATOM     26  C   UNL A   1      34.392  30.592  27.554  1.00  0.00     0.338 C 
ATOM     27  O   UNL A   1      33.502  29.820  27.249  1.00  0.00    -0.246 OA
BRANCH  26  28
ATOM     28  C   UNL A   1      35.695  30.150  28.073  1.00  0.00     0.060 A 
ATOM     29  C   UNL A   1      35.744  29.687  29.387  1.00  0.00     0.016 A 
ATOM     30  C   UNL A   1      36.863  30.261  27.318  1.00  0.00     0.016 A 
ATOM     31  C   UNL A   1      36.961  29.357  29.971  1.00  0.00     0.010 A 
ATOM     32  C   UNL A   1      38.089  29.909  27.899  1.00  0.00     0.010 A 
ATOM     33  C   UNL A   1      38.147  29.469  29.233  1.00  0.00    -0.014 A 
BRANCH  33  34
ATOM     34  C   UNL A   1      39.435  29.145  29.894  1.00  0.00     0.031 A 
ATOM     35  C   UNL A   1      39.841  29.857  31.153  1.00  0.00     0.074 A 
ATOM     36  C   UNL A   1      40.204  28.159  29.395  1.00  0.00     0.049 A 
ATOM     37  N   UNL A   1      40.913  29.695  31.884  1.00  0.00    -0.248 NA
ATOM     38  C   UNL A   1      38.919  30.888  31.656  1.00  0.00     0.031 C 
ATOM     39  C   UNL A   1      39.900  27.379  28.194  1.00  0.00     0.029 A 
ATOM     40  N   UNL A   1      41.390  27.636  29.842  1.00  0.00    -0.354 N 
ATOM     41  C   UNL A   1      40.807  30.608  32.925  1.00  0.00     0.074 A 
ATOM     42  C   UNL A   1      39.572  31.337  32.720  1.00  0.00     0.031 C 
ATOM     43  C   UNL A   1      40.865  26.463  28.011  1.00  0.00     0.029 A 
ATOM     44  C   UNL A   1      41.870  26.613  29.060  1.00  0.00     0.049 A 
ATOM     45  H   UNL A   1      41.853  27.962  30.647  1.00  0.00     0.167 HD
ATOM     46  C   UNL A   1      41.657  30.815  33.960  1.00  0.00     0.037 A 
ATOM     47  C   UNL A   1      42.996  25.885  29.170  1.00  0.00     0.037 A 
ATOM     48  C   UNL A   1      42.876  30.077  34.169  1.00  0.00     0.049 A 
ATOM     49  C   UNL A   1      43.932  26.146  30.317  1.00  0.00     0.074 A 
ATOM     50  C   UNL A   1      43.797  30.205  35.195  1.00  0.00     0.029 A 
ATOM     51  N   UNL A   1      43.346  29.070  33.338  1.00  0.00    -0.354 N 
ATOM     52  N   UNL A   1      43.816  27.016  31.292  1.00  0.00    -0.248 NA
ATOM     53  C   UNL A   1      45.152  25.330  30.377  1.00  0.00     0.031 C 
ATOM     54  C   UNL A   1      44.838  29.297  34.967  1.00  0.00     0.029 A 
ATOM     55  C   UNL A   1      44.549  28.579  33.818  1.00  0.00     0.049 A 
ATOM     56  H   UNL A   1      42.890  28.751  32.526  1.00  0.00     0.167 HD
ATOM     57  C   UNL A   1      44.945  26.848  32.086  1.00  0.00     0.074 A 
ATOM     58  C   UNL A   1      45.718  25.777  31.490  1.00  0.00     0.031 C 
ATOM     59  C   UNL A   1      45.312  27.523  33.204  1.00  0.00     0.037 A 
BRANCH  46  60
ATOM     60  C   UNL A   1      41.306  31.904  34.933  1.00  0.00     0.058 A 
ATOM     61  C   UNL A   1      41.836  33.198  34.817  1.00  0.00     0.135 A 
ATOM     62  C   UNL A   1      40.410  31.654  35.985  1.00  0.00     0.135 A 
ATOM     63  F   UNL A   1      42.711  33.485  33.840  1.00  0.00    -0.206 F 
ATOM     64  C   UNL A   1      41.510  34.202  35.725  1.00  0.00     0.059 A 
ATOM     65  C   UNL A   1      40.053  32.648  36.891  1.00  0.00     0.059 A 
ATOM     66  F   UNL A   1      39.875  30.433  36.142  1.00  0.00    -0.206 F 
ATOM     67  C   UNL A   1      40.621  33.915  36.762  1.00  0.00     0.060 A 
BRANCH  67  68
ATOM     68  S   UNL A   1      40.208  35.221  37.939  1.00  0.00     0.124 S 
ATOM     69  O   UNL A   1      39.886  36.327  37.044  1.00  0.00    -0.237 OA
ATOM     70  O   UNL A   1      39.082  34.646  38.668  1.00  0.00    -0.237 OA
ATOM     71  O   UNL A   1      41.435  35.378  38.715  1.00  0.00    -0.744 OA
ENDBRANCH  67  68
ENDBRANCH  46  60
BRANCH  47  72
ATOM     72  C   UNL A   1      43.302  24.839  28.159  1.00  0.00     0.058 A 
ATOM     73  C   UNL A   1      43.991  25.152  26.979  1.00  0.00     0.135 A 
ATOM     74  C   UNL A   1      42.925  23.504  28.365  1.00  0.00     0.135 A 
ATOM     75  F   UNL A   1      44.363  26.418  26.735  1.00  0.00    -0.206 F 
ATOM     76  C   UNL A   1      44.289  24.178  26.032  1.00  0.00     0.059 A 
ATOM     77  C   UNL A   1      43.231  22.509  27.443  1.00  0.00     0.059 A 
ATOM     78  F   UNL A   1      42.273  23.153  29.484  1.00  0.00    -0.206 F 
ATOM     79  C   UNL A   1      43.907  22.857  26.274  1.00  0.00     0.060 A 
BRANCH  79  80
ATOM     80  S   UNL A   1      44.350  21.585  25.070  1.00  0.00     0.124 S 
ATOM     81  O   UNL A   1      45.723  21.283  25.456  1.00  0.00    -0.237 OA
ATOM     82  O   UNL A   1      43.366  20.543  25.342  1.00  0.00    -0.237 OA
ATOM     83  O   UNL A   1      44.187  22.269  23.790  1.00  0.00    -0.744 OA
ENDBRANCH  79  80
ENDBRANCH  47  72
BRANCH  59  84
ATOM     84  C   UNL A   1      46.605  27.112  33.849  1.00  0.00     0.058 A 
ATOM     85  C   UNL A   1      47.820  27.722  33.501  1.00  0.00     0.135 A 
ATOM     86  C   UNL A   1      46.630  26.105  34.826  1.00  0.00     0.135 A 
ATOM     87  F   UNL A   1      47.850  28.686  32.569  1.00  0.00    -0.206 F 
ATOM     88  C   UNL A   1      49.024  27.321  34.074  1.00  0.00     0.059 A 
ATOM     89  C   UNL A   1      47.819  25.703  35.427  1.00  0.00     0.059 A 
ATOM     90  F   UNL A   1      45.492  25.498  35.201  1.00  0.00    -0.206 F 
ATOM     91  C   UNL A   1      49.013  26.304  35.031  1.00  0.00     0.060 A 
BRANCH  91  92
ATOM     92  S   UNL A   1      50.577  25.785  35.768  1.00  0.00     0.124 S 
ATOM     93  O   UNL A   1      51.383  26.994  35.626  1.00  0.00    -0.237 OA
ATOM     94  O   UNL A   1      50.187  25.440  37.131  1.00  0.00    -0.237 OA
ATOM     95  O   UNL A   1      50.985  24.657  34.935  1.00  0.00    -0.744 OA
ENDBRANCH  91  92
ENDBRANCH  59  84
ENDBRANCH  33  34
ENDBRANCH  26  28
ENDBRANCH  25  26
ENDBRANCH  24  25
ENDBRANCH   1  24
TORSDOF 18
ENDMDL
