MODEL 1
REMARK VINA RESULT:     -11.0      0.000      0.000
REMARK SMILES COc1c(Cl)cc(C[NH2+][C@@H](Cc2c[nH]c3ccccc23)C(=O)OCCOC(=O)c2ccc(-c3c4nc(c(-c5c(F)cc(S(=O)(=O)[O-])cc5F)c5ccc([nH]5)c(-c5c(F)cc(S(=O)(=O)[O-])cc5F)c5nc(c(-c6c(F)cc(S(=O)(=O)[O-])cc6F)c6ccc3[nH]6)C=C5)C=C4)cc2)cc1Cl
REMARK SMILES IDX 24 1 23 2 21 3 22 4 10 5 9 6 8 9 7 10 3 11 4 12 96 13 5 14
REMARK SMILES IDX 6 15 95 16 97 17 2 18 1 19 11 20 12 21 13 22 20 23 14 24
REMARK SMILES IDX 15 25 19 26 16 28 18 29 17 30 25 31 26 32 27 33 28 34 29 35
REMARK SMILES IDX 30 36 94 37 31 38 93 39 32 40 33 41 34 42 87 43 35 44 92 45
REMARK SMILES IDX 86 46 88 47 36 48 91 49 85 50 84 51 37 53 71 54 50 55 70 56
REMARK SMILES IDX 51 57 54 58 69 59 89 60 52 61 53 62 68 64 90 65 55 66 38 67
REMARK SMILES IDX 39 68 48 69 40 70 41 71 47 72 49 73 42 74 43 75 44 76 45 77
REMARK SMILES IDX 46 78 72 79 73 80 82 81 74 82 75 83 81 84 83 85 76 86 77 87
REMARK SMILES IDX 78 88 79 89 80 90 56 91 57 92 66 93 58 94 59 95 65 96 67 97
REMARK SMILES IDX 60 98 61 99 62 100 63 101 64 102
REMARK H PARENT 9 7 9 8 14 27 88 52 54 63
REMARK Flexibility Score: inf
ROOT
ATOM      1  C   UNL A   1      36.921  21.025  24.888  1.00  0.00     0.274 C 
ENDROOT
BRANCH   1   2
ATOM      2  O   UNL A   1      36.422  22.371  24.991  1.00  0.00    -0.458 OA
BRANCH   2   3
ATOM      3  C   UNL A   1      35.829  22.886  23.876  1.00  0.00     0.365 C 
ATOM      4  O   UNL A   1      36.360  22.928  22.770  1.00  0.00    -0.245 OA
BRANCH   3   5
ATOM      5  C   UNL A   1      34.448  23.508  24.146  1.00  0.00     0.298 C 
BRANCH   5   6
ATOM      6  N   UNL A   1      33.399  22.928  23.268  1.00  0.00    -0.331 N 
ATOM      7  H   UNL A   1      33.701  21.999  22.970  1.00  0.00     0.347 HD
ATOM      8  H   UNL A   1      32.534  22.891  23.807  1.00  0.00     0.347 HD
BRANCH   6   9
ATOM      9  C   UNL A   1      33.140  23.734  22.084  1.00  0.00     0.298 C 
BRANCH   9  10
ATOM     10  C   UNL A   1      32.549  25.079  22.444  1.00  0.00     0.009 A 
ATOM     11  C   UNL A   1      31.419  27.573  23.145  1.00  0.00     0.156 A 
ATOM     12  C   UNL A   1      30.660  26.404  23.236  1.00  0.00     0.085 A 
ATOM     13  C   UNL A   1      32.732  27.497  22.660  1.00  0.00     0.085 A 
ATOM     14  Cl  UNL A   1      29.005  26.420  23.735  1.00  0.00    -0.080 Cl
ATOM     15  C   UNL A   1      31.226  25.170  22.902  1.00  0.00     0.034 A 
ATOM     16  C   UNL A   1      33.292  26.261  22.311  1.00  0.00     0.034 A 
ATOM     17  Cl  UNL A   1      33.702  28.916  22.487  1.00  0.00    -0.080 Cl
BRANCH  11  18
ATOM     18  O   UNL A   1      30.873  28.797  23.448  1.00  0.00    -0.494 OA
ATOM     19  C   UNL A   1      30.196  29.348  22.316  1.00  0.00     0.278 C 
ENDBRANCH  11  18
ENDBRANCH   9  10
ENDBRANCH   6   9
ENDBRANCH   5   6
BRANCH   5  20
ATOM     20  C   UNL A   1      34.175  23.435  25.667  1.00  0.00     0.115 C 
BRANCH  20  21
ATOM     21  C   UNL A   1      33.054  24.321  26.131  1.00  0.00    -0.016 A 
ATOM     22  C   UNL A   1      31.789  23.909  26.507  1.00  0.00     0.087 A 
ATOM     23  C   UNL A   1      33.072  25.748  26.250  1.00  0.00     0.003 A 
ATOM     24  N   UNL A   1      31.023  25.019  26.730  1.00  0.00    -0.361 N 
ATOM     25  C   UNL A   1      31.778  26.155  26.573  1.00  0.00     0.046 A 
ATOM     26  C   UNL A   1      34.063  26.735  26.088  1.00  0.00     0.010 A 
ATOM     27  H   UNL A   1      30.067  25.004  26.970  1.00  0.00     0.166 HD
ATOM     28  C   UNL A   1      31.413  27.501  26.688  1.00  0.00     0.026 A 
ATOM     29  C   UNL A   1      33.718  28.086  26.207  1.00  0.00     0.001 A 
ATOM     30  C   UNL A   1      32.409  28.462  26.490  1.00  0.00     0.002 A 
ENDBRANCH  20  21
ENDBRANCH   5  20
ENDBRANCH   3   5
ENDBRANCH   2   3
ENDBRANCH   1   2
BRANCH   1  31
ATOM     31  C   UNL A   1      38.375  20.922  25.349  1.00  0.00     0.275 C 
BRANCH  31  32
ATOM     32  O   UNL A   1      38.814  22.149  25.949  1.00  0.00    -0.458 OA
BRANCH  32  33
ATOM     33  C   UNL A   1      39.892  22.018  26.761  1.00  0.00     0.338 C 
ATOM     34  O   UNL A   1      40.567  21.021  26.940  1.00  0.00    -0.246 OA
BRANCH  33  35
ATOM     35  C   UNL A   1      40.229  23.327  27.339  1.00  0.00     0.060 A 
ATOM     36  C   UNL A   1      39.613  24.457  26.794  1.00  0.00     0.016 A 
ATOM     37  C   UNL A   1      41.211  23.449  28.323  1.00  0.00     0.016 A 
ATOM     38  C   UNL A   1      39.996  25.726  27.215  1.00  0.00     0.010 A 
ATOM     39  C   UNL A   1      41.607  24.724  28.734  1.00  0.00     0.010 A 
ATOM     40  C   UNL A   1      41.023  25.867  28.159  1.00  0.00    -0.014 A 
BRANCH  40  41
ATOM     41  C   UNL A   1      41.587  27.211  28.419  1.00  0.00     0.031 A 
ATOM     42  C   UNL A   1      43.017  27.480  28.039  1.00  0.00     0.074 A 
ATOM     43  C   UNL A   1      40.823  28.182  28.948  1.00  0.00     0.049 A 
ATOM     44  N   UNL A   1      43.731  28.561  28.215  1.00  0.00    -0.248 NA
ATOM     45  C   UNL A   1      43.737  26.383  27.370  1.00  0.00     0.031 C 
ATOM     46  C   UNL A   1      39.414  28.043  29.313  1.00  0.00     0.029 A 
ATOM     47  N   UNL A   1      41.129  29.479  29.270  1.00  0.00    -0.354 N 
ATOM     48  C   UNL A   1      44.988  28.269  27.697  1.00  0.00     0.074 A 
ATOM     49  C   UNL A   1      44.945  26.906  27.214  1.00  0.00     0.031 C 
ATOM     50  C   UNL A   1      38.977  29.211  29.816  1.00  0.00     0.029 A 
ATOM     51  C   UNL A   1      40.083  30.167  29.835  1.00  0.00     0.049 A 
ATOM     52  H   UNL A   1      42.015  29.880  29.111  1.00  0.00     0.167 HD
ATOM     53  C   UNL A   1      46.079  29.069  27.630  1.00  0.00     0.037 A 
ATOM     54  C   UNL A   1      40.032  31.420  30.327  1.00  0.00     0.037 A 
ATOM     55  C   UNL A   1      46.110  30.427  28.103  1.00  0.00     0.049 A 
ATOM     56  C   UNL A   1      41.265  32.284  30.261  1.00  0.00     0.074 A 
ATOM     57  C   UNL A   1      47.167  31.322  28.093  1.00  0.00     0.029 A 
ATOM     58  N   UNL A   1      45.030  31.090  28.668  1.00  0.00    -0.354 N 
ATOM     59  N   UNL A   1      42.451  31.991  29.783  1.00  0.00    -0.248 NA
ATOM     60  C   UNL A   1      41.150  33.647  30.795  1.00  0.00     0.031 C 
ATOM     61  C   UNL A   1      46.730  32.519  28.675  1.00  0.00     0.029 A 
ATOM     62  C   UNL A   1      45.393  32.381  29.011  1.00  0.00     0.049 A 
ATOM     63  H   UNL A   1      44.136  30.701  28.804  1.00  0.00     0.167 HD
ATOM     64  C   UNL A   1      43.217  33.143  29.934  1.00  0.00     0.074 A 
ATOM     65  C   UNL A   1      42.356  34.138  30.540  1.00  0.00     0.031 C 
ATOM     66  C   UNL A   1      44.513  33.359  29.599  1.00  0.00     0.037 A 
BRANCH  53  67
ATOM     67  C   UNL A   1      47.332  28.481  27.047  1.00  0.00     0.058 A 
ATOM     68  C   UNL A   1      47.525  28.378  25.661  1.00  0.00     0.135 A 
ATOM     69  C   UNL A   1      48.362  28.027  27.888  1.00  0.00     0.135 A 
ATOM     70  F   UNL A   1      46.564  28.777  24.813  1.00  0.00    -0.206 F 
ATOM     71  C   UNL A   1      48.685  27.824  25.127  1.00  0.00     0.059 A 
ATOM     72  C   UNL A   1      49.539  27.491  27.377  1.00  0.00     0.059 A 
ATOM     73  F   UNL A   1      48.225  28.098  29.221  1.00  0.00    -0.206 F 
ATOM     74  C   UNL A   1      49.686  27.379  25.994  1.00  0.00     0.060 A 
BRANCH  74  75
ATOM     75  S   UNL A   1      51.189  26.666  25.293  1.00  0.00     0.124 S 
ATOM     76  O   UNL A   1      52.213  27.545  25.848  1.00  0.00    -0.237 OA
ATOM     77  O   UNL A   1      51.168  25.306  25.822  1.00  0.00    -0.237 OA
ATOM     78  O   UNL A   1      50.977  26.777  23.854  1.00  0.00    -0.744 OA
ENDBRANCH  74  75
ENDBRANCH  53  67
BRANCH  54  79
ATOM     79  C   UNL A   1      38.773  31.932  30.928  1.00  0.00     0.058 A 
ATOM     80  C   UNL A   1      37.832  32.628  30.156  1.00  0.00     0.135 A 
ATOM     81  C   UNL A   1      38.485  31.730  32.286  1.00  0.00     0.135 A 
ATOM     82  F   UNL A   1      38.067  32.854  28.854  1.00  0.00    -0.206 F 
ATOM     83  C   UNL A   1      36.655  33.120  30.711  1.00  0.00     0.059 A 
ATOM     84  C   UNL A   1      37.303  32.191  32.859  1.00  0.00     0.059 A 
ATOM     85  F   UNL A   1      39.348  31.059  33.064  1.00  0.00    -0.206 F 
ATOM     86  C   UNL A   1      36.399  32.895  32.065  1.00  0.00     0.060 A 
BRANCH  86  87
ATOM     87  S   UNL A   1      34.847  33.493  32.769  1.00  0.00     0.124 S 
ATOM     88  O   UNL A   1      33.871  32.663  32.073  1.00  0.00    -0.237 OA
ATOM     89  O   UNL A   1      35.024  33.215  34.191  1.00  0.00    -0.237 OA
ATOM     90  O   UNL A   1      34.842  34.909  32.412  1.00  0.00    -0.744 OA
ENDBRANCH  86  87
ENDBRANCH  54  79
BRANCH  66  91
ATOM     91  C   UNL A   1      45.062  34.738  29.833  1.00  0.00     0.058 A 
ATOM     92  C   UNL A   1      45.015  35.730  28.842  1.00  0.00     0.135 A 
ATOM     93  C   UNL A   1      45.606  35.079  31.081  1.00  0.00     0.135 A 
ATOM     94  F   UNL A   1      44.508  35.451  27.631  1.00  0.00    -0.206 F 
ATOM     95  C   UNL A   1      45.512  37.008  29.072  1.00  0.00     0.059 A 
ATOM     96  C   UNL A   1      46.088  36.358  31.341  1.00  0.00     0.059 A 
ATOM     97  F   UNL A   1      45.662  34.169  32.067  1.00  0.00    -0.206 F 
ATOM     98  C   UNL A   1      46.052  37.311  30.325  1.00  0.00     0.060 A 
BRANCH  98  99
ATOM     99  S   UNL A   1      46.679  38.978  30.622  1.00  0.00     0.124 S 
ATOM    100  O   UNL A   1      45.472  39.780  30.452  1.00  0.00    -0.237 OA
ATOM    101  O   UNL A   1      47.191  38.885  31.985  1.00  0.00    -0.237 OA
ATOM    102  O   UNL A   1      47.697  39.145  29.588  1.00  0.00    -0.744 OA
ENDBRANCH  98  99
ENDBRANCH  66  91
ENDBRANCH  40  41
ENDBRANCH  33  35
ENDBRANCH  32  33
ENDBRANCH  31  32
ENDBRANCH   1  31
TORSDOF 20
ENDMDL
MODEL 2
REMARK VINA RESULT:     -10.9      3.141      3.785
REMARK SMILES COc1c(Cl)cc(C[NH2+][C@@H](Cc2c[nH]c3ccccc23)C(=O)OCCOC(=O)c2ccc(-c3c4nc(c(-c5c(F)cc(S(=O)(=O)[O-])cc5F)c5ccc([nH]5)c(-c5c(F)cc(S(=O)(=O)[O-])cc5F)c5nc(c(-c6c(F)cc(S(=O)(=O)[O-])cc6F)c6ccc3[nH]6)C=C5)C=C4)cc2)cc1Cl
REMARK SMILES IDX 24 1 23 2 21 3 22 4 10 5 9 6 8 9 7 10 3 11 4 12 96 13 5 14
REMARK SMILES IDX 6 15 95 16 97 17 2 18 1 19 11 20 12 21 13 22 20 23 14 24
REMARK SMILES IDX 15 25 19 26 16 28 18 29 17 30 25 31 26 32 27 33 28 34 29 35
REMARK SMILES IDX 30 36 94 37 31 38 93 39 32 40 33 41 34 42 87 43 35 44 92 45
REMARK SMILES IDX 86 46 88 47 36 48 91 49 85 50 84 51 37 53 71 54 50 55 70 56
REMARK SMILES IDX 51 57 54 58 69 59 89 60 52 61 53 62 68 64 90 65 55 66 38 67
REMARK SMILES IDX 39 68 48 69 40 70 41 71 47 72 49 73 42 74 43 75 44 76 45 77
REMARK SMILES IDX 46 78 72 79 73 80 82 81 74 82 75 83 81 84 83 85 76 86 77 87
REMARK SMILES IDX 78 88 79 89 80 90 56 91 57 92 66 93 58 94 59 95 65 96 67 97
REMARK SMILES IDX 60 98 61 99 62 100 63 101 64 102
REMARK H PARENT 9 7 9 8 14 27 88 52 54 63
REMARK Flexibility Score: inf
ROOT
ATOM      1  C   UNL A   1      35.430  22.564  24.399  1.00  0.00     0.274 C 
ENDROOT
BRANCH   1   2
ATOM      2  O   UNL A   1      34.830  21.258  24.478  1.00  0.00    -0.458 OA
BRANCH   2   3
ATOM      3  C   UNL A   1      33.487  21.193  24.256  1.00  0.00     0.365 C 
ATOM      4  O   UNL A   1      32.898  20.182  23.882  1.00  0.00    -0.245 OA
BRANCH   3   5
ATOM      5  C   UNL A   1      32.769  22.544  24.424  1.00  0.00     0.298 C 
BRANCH   5   6
ATOM      6  N   UNL A   1      31.922  22.870  23.247  1.00  0.00    -0.331 N 
ATOM      7  H   UNL A   1      31.717  22.006  22.744  1.00  0.00     0.347 HD
ATOM      8  H   UNL A   1      31.074  23.317  23.594  1.00  0.00     0.347 HD
BRANCH   6   9
ATOM      9  C   UNL A   1      32.562  23.802  22.329  1.00  0.00     0.298 C 
BRANCH   9  10
ATOM     10  C   UNL A   1      32.099  25.223  22.564  1.00  0.00     0.009 A 
ATOM     11  C   UNL A   1      31.205  27.863  23.030  1.00  0.00     0.156 A 
ATOM     12  C   UNL A   1      30.316  26.789  23.131  1.00  0.00     0.085 A 
ATOM     13  C   UNL A   1      32.532  27.616  22.652  1.00  0.00     0.085 A 
ATOM     14  Cl  UNL A   1      28.643  27.013  23.501  1.00  0.00    -0.080 Cl
ATOM     15  C   UNL A   1      30.765  25.483  22.914  1.00  0.00     0.034 A 
ATOM     16  C   UNL A   1      32.975  26.307  22.419  1.00  0.00     0.034 A 
ATOM     17  Cl  UNL A   1      33.661  28.911  22.470  1.00  0.00    -0.080 Cl
BRANCH  11  18
ATOM     18  O   UNL A   1      30.776  29.154  23.218  1.00  0.00    -0.494 OA
ATOM     19  C   UNL A   1      30.272  29.708  22.001  1.00  0.00     0.278 C 
ENDBRANCH  11  18
ENDBRANCH   9  10
ENDBRANCH   6   9
ENDBRANCH   5   6
BRANCH   5  20
ATOM     20  C   UNL A   1      32.052  22.541  25.794  1.00  0.00     0.115 C 
BRANCH  20  21
ATOM     21  C   UNL A   1      31.442  23.861  26.169  1.00  0.00    -0.016 A 
ATOM     22  C   UNL A   1      30.118  24.085  26.501  1.00  0.00     0.087 A 
ATOM     23  C   UNL A   1      32.100  25.131  26.232  1.00  0.00     0.003 A 
ATOM     24  N   UNL A   1      29.931  25.432  26.643  1.00  0.00    -0.361 N 
ATOM     25  C   UNL A   1      31.122  26.095  26.476  1.00  0.00     0.046 A 
ATOM     26  C   UNL A   1      33.434  25.556  26.077  1.00  0.00     0.010 A 
ATOM     27  H   UNL A   1      29.067  25.863  26.837  1.00  0.00     0.166 HD
ATOM     28  C   UNL A   1      31.403  27.466  26.519  1.00  0.00     0.026 A 
ATOM     29  C   UNL A   1      33.735  26.922  26.126  1.00  0.00     0.001 A 
ATOM     30  C   UNL A   1      32.730  27.862  26.331  1.00  0.00     0.002 A 
ENDBRANCH  20  21
ENDBRANCH   5  20
ENDBRANCH   3   5
ENDBRANCH   2   3
ENDBRANCH   1   2
BRANCH   1  31
ATOM     31  C   UNL A   1      35.992  23.014  25.748  1.00  0.00     0.275 C 
BRANCH  31  32
ATOM     32  O   UNL A   1      37.075  23.940  25.572  1.00  0.00    -0.458 OA
BRANCH  32  33
ATOM     33  C   UNL A   1      38.294  23.436  25.881  1.00  0.00     0.338 C 
ATOM     34  O   UNL A   1      38.790  22.399  25.480  1.00  0.00    -0.246 OA
BRANCH  33  35
ATOM     35  C   UNL A   1      39.025  24.403  26.712  1.00  0.00     0.060 A 
ATOM     36  C   UNL A   1      38.719  24.453  28.076  1.00  0.00     0.016 A 
ATOM     37  C   UNL A   1      39.916  25.315  26.144  1.00  0.00     0.016 A 
ATOM     38  C   UNL A   1      39.286  25.438  28.878  1.00  0.00     0.010 A 
ATOM     39  C   UNL A   1      40.473  26.313  26.947  1.00  0.00     0.010 A 
ATOM     40  C   UNL A   1      40.135  26.397  28.309  1.00  0.00    -0.014 A 
BRANCH  40  41
ATOM     41  C   UNL A   1      40.537  27.574  29.112  1.00  0.00     0.031 A 
ATOM     42  C   UNL A   1      41.888  27.569  29.774  1.00  0.00     0.074 A 
ATOM     43  C   UNL A   1      39.727  28.641  29.213  1.00  0.00     0.049 A 
ATOM     44  N   UNL A   1      42.429  28.464  30.558  1.00  0.00    -0.248 NA
ATOM     45  C   UNL A   1      42.742  26.397  29.516  1.00  0.00     0.031 C 
ATOM     46  C   UNL A   1      38.417  28.770  28.577  1.00  0.00     0.029 A 
ATOM     47  N   UNL A   1      39.891  29.821  29.891  1.00  0.00    -0.354 N 
ATOM     48  C   UNL A   1      43.677  27.958  30.903  1.00  0.00     0.074 A 
ATOM     49  C   UNL A   1      43.808  26.670  30.255  1.00  0.00     0.031 C 
ATOM     50  C   UNL A   1      37.891  29.965  28.901  1.00  0.00     0.029 A 
ATOM     51  C   UNL A   1      38.814  30.669  29.789  1.00  0.00     0.049 A 
ATOM     52  H   UNL A   1      40.703  30.041  30.404  1.00  0.00     0.167 HD
ATOM     53  C   UNL A   1      44.628  28.519  31.687  1.00  0.00     0.037 A 
ATOM     54  C   UNL A   1      38.595  31.867  30.363  1.00  0.00     0.037 A 
ATOM     55  C   UNL A   1      44.493  29.805  32.318  1.00  0.00     0.049 A 
ATOM     56  C   UNL A   1      39.658  32.461  31.250  1.00  0.00     0.074 A 
ATOM     57  C   UNL A   1      45.392  30.461  33.142  1.00  0.00     0.029 A 
ATOM     58  N   UNL A   1      43.389  30.634  32.190  1.00  0.00    -0.354 N 
ATOM     59  N   UNL A   1      40.827  31.965  31.580  1.00  0.00    -0.248 NA
ATOM     60  C   UNL A   1      39.375  33.778  31.836  1.00  0.00     0.031 C 
ATOM     61  C   UNL A   1      44.818  31.677  33.531  1.00  0.00     0.029 A 
ATOM     62  C   UNL A   1      43.580  31.795  32.919  1.00  0.00     0.049 A 
ATOM     63  H   UNL A   1      42.586  30.428  31.658  1.00  0.00     0.167 HD
ATOM     64  C   UNL A   1      41.431  32.921  32.390  1.00  0.00     0.074 A 
ATOM     65  C   UNL A   1      40.500  34.027  32.494  1.00  0.00     0.031 C 
ATOM     66  C   UNL A   1      42.645  32.889  32.993  1.00  0.00     0.037 A 
BRANCH  53  67
ATOM     67  C   UNL A   1      45.882  27.728  31.925  1.00  0.00     0.058 A 
ATOM     68  C   UNL A   1      46.000  26.836  33.002  1.00  0.00     0.135 A 
ATOM     69  C   UNL A   1      46.977  27.852  31.054  1.00  0.00     0.135 A 
ATOM     70  F   UNL A   1      44.992  26.696  33.877  1.00  0.00    -0.206 F 
ATOM     71  C   UNL A   1      47.169  26.112  33.223  1.00  0.00     0.059 A 
ATOM     72  C   UNL A   1      48.146  27.122  31.241  1.00  0.00     0.059 A 
ATOM     73  F   UNL A   1      46.917  28.695  30.011  1.00  0.00    -0.206 F 
ATOM     74  C   UNL A   1      48.238  26.265  32.338  1.00  0.00     0.060 A 
BRANCH  74  75
ATOM     75  S   UNL A   1      49.748  25.319  32.629  1.00  0.00     0.124 S 
ATOM     76  O   UNL A   1      50.630  26.343  33.182  1.00  0.00    -0.237 OA
ATOM     77  O   UNL A   1      49.302  24.294  33.567  1.00  0.00    -0.237 OA
ATOM     78  O   UNL A   1      50.105  24.834  31.300  1.00  0.00    -0.744 OA
ENDBRANCH  74  75
ENDBRANCH  53  67
BRANCH  54  79
ATOM     79  C   UNL A   1      37.315  32.584  30.122  1.00  0.00     0.058 A 
ATOM     80  C   UNL A   1      37.210  33.563  29.124  1.00  0.00     0.135 A 
ATOM     81  C   UNL A   1      36.170  32.298  30.882  1.00  0.00     0.135 A 
ATOM     82  F   UNL A   1      38.280  33.877  28.376  1.00  0.00    -0.206 F 
ATOM     83  C   UNL A   1      36.019  34.246  28.896  1.00  0.00     0.059 A 
ATOM     84  C   UNL A   1      34.963  32.951  30.657  1.00  0.00     0.059 A 
ATOM     85  F   UNL A   1      36.217  31.361  31.841  1.00  0.00    -0.206 F 
ATOM     86  C   UNL A   1      34.900  33.932  29.669  1.00  0.00     0.060 A 
BRANCH  86  87
ATOM     87  S   UNL A   1      33.344  34.787  29.335  1.00  0.00     0.124 S 
ATOM     88  O   UNL A   1      32.662  33.828  28.474  1.00  0.00    -0.237 OA
ATOM     89  O   UNL A   1      32.788  34.952  30.675  1.00  0.00    -0.237 OA
ATOM     90  O   UNL A   1      33.775  36.023  28.689  1.00  0.00    -0.744 OA
ENDBRANCH  86  87
ENDBRANCH  54  79
BRANCH  66  91
ATOM     91  C   UNL A   1      43.058  34.105  33.773  1.00  0.00     0.058 A 
ATOM     92  C   UNL A   1      43.663  35.209  33.154  1.00  0.00     0.135 A 
ATOM     93  C   UNL A   1      42.805  34.180  35.151  1.00  0.00     0.135 A 
ATOM     94  F   UNL A   1      43.930  35.184  31.838  1.00  0.00    -0.206 F 
ATOM     95  C   UNL A   1      44.029  36.337  33.881  1.00  0.00     0.059 A 
ATOM     96  C   UNL A   1      43.141  35.307  35.894  1.00  0.00     0.059 A 
ATOM     97  F   UNL A   1      42.215  33.155  35.788  1.00  0.00    -0.206 F 
ATOM     98  C   UNL A   1      43.767  36.374  35.253  1.00  0.00     0.060 A 
BRANCH  98  99
ATOM     99  S   UNL A   1      44.228  37.849  36.187  1.00  0.00     0.124 S 
ATOM    100  O   UNL A   1      43.854  38.912  35.259  1.00  0.00    -0.237 OA
ATOM    101  O   UNL A   1      43.403  37.735  37.385  1.00  0.00    -0.237 OA
ATOM    102  O   UNL A   1      45.662  37.677  36.404  1.00  0.00    -0.744 OA
ENDBRANCH  98  99
ENDBRANCH  66  91
ENDBRANCH  40  41
ENDBRANCH  33  35
ENDBRANCH  32  33
ENDBRANCH  31  32
ENDBRANCH   1  31
TORSDOF 20
ENDMDL
MODEL 3
REMARK VINA RESULT:     -10.9      0.908      1.640
REMARK SMILES COc1c(Cl)cc(C[NH2+][C@@H](Cc2c[nH]c3ccccc23)C(=O)OCCOC(=O)c2ccc(-c3c4nc(c(-c5c(F)cc(S(=O)(=O)[O-])cc5F)c5ccc([nH]5)c(-c5c(F)cc(S(=O)(=O)[O-])cc5F)c5nc(c(-c6c(F)cc(S(=O)(=O)[O-])cc6F)c6ccc3[nH]6)C=C5)C=C4)cc2)cc1Cl
REMARK SMILES IDX 24 1 23 2 21 3 22 4 10 5 9 6 8 9 7 10 3 11 4 12 96 13 5 14
REMARK SMILES IDX 6 15 95 16 97 17 2 18 1 19 11 20 12 21 13 22 20 23 14 24
REMARK SMILES IDX 15 25 19 26 16 28 18 29 17 30 25 31 26 32 27 33 28 34 29 35
REMARK SMILES IDX 30 36 94 37 31 38 93 39 32 40 33 41 34 42 87 43 35 44 92 45
REMARK SMILES IDX 86 46 88 47 36 48 91 49 85 50 84 51 37 53 71 54 50 55 70 56
REMARK SMILES IDX 51 57 54 58 69 59 89 60 52 61 53 62 68 64 90 65 55 66 38 67
REMARK SMILES IDX 39 68 48 69 40 70 41 71 47 72 49 73 42 74 43 75 44 76 45 77
REMARK SMILES IDX 46 78 72 79 73 80 82 81 74 82 75 83 81 84 83 85 76 86 77 87
REMARK SMILES IDX 78 88 79 89 80 90 56 91 57 92 66 93 58 94 59 95 65 96 67 97
REMARK SMILES IDX 60 98 61 99 62 100 63 101 64 102
REMARK H PARENT 9 7 9 8 14 27 88 52 54 63
REMARK Flexibility Score: inf
ROOT
ATOM      1  C   UNL A   1      36.203  21.560  24.462  1.00  0.00     0.274 C 
ENDROOT
BRANCH   1   2
ATOM      2  O   UNL A   1      35.200  20.693  25.021  1.00  0.00    -0.458 OA
BRANCH   2   3
ATOM      3  C   UNL A   1      33.946  20.797  24.497  1.00  0.00     0.365 C 
ATOM      4  O   UNL A   1      33.377  19.896  23.887  1.00  0.00    -0.245 OA
BRANCH   3   5
ATOM      5  C   UNL A   1      33.327  22.197  24.653  1.00  0.00     0.298 C 
BRANCH   5   6
ATOM      6  N   UNL A   1      32.291  22.462  23.622  1.00  0.00    -0.331 N 
ATOM      7  H   UNL A   1      32.016  21.574  23.201  1.00  0.00     0.347 HD
ATOM      8  H   UNL A   1      31.507  22.921  24.086  1.00  0.00     0.347 HD
BRANCH   6   9
ATOM      9  C   UNL A   1      32.755  23.353  22.568  1.00  0.00     0.298 C 
BRANCH   9  10
ATOM     10  C   UNL A   1      32.210  24.753  22.741  1.00  0.00     0.009 A 
ATOM     11  C   UNL A   1      31.217  27.383  23.034  1.00  0.00     0.156 A 
ATOM     12  C   UNL A   1      32.550  27.168  22.673  1.00  0.00     0.085 A 
ATOM     13  C   UNL A   1      30.394  26.278  23.293  1.00  0.00     0.085 A 
ATOM     14  Cl  UNL A   1      33.657  28.473  22.427  1.00  0.00    -0.080 Cl
ATOM     15  C   UNL A   1      33.033  25.866  22.514  1.00  0.00     0.034 A 
ATOM     16  C   UNL A   1      30.887  24.974  23.148  1.00  0.00     0.034 A 
ATOM     17  Cl  UNL A   1      28.752  26.487  23.785  1.00  0.00    -0.080 Cl
BRANCH  11  18
ATOM     18  O   UNL A   1      30.731  28.655  23.217  1.00  0.00    -0.494 OA
ATOM     19  C   UNL A   1      30.203  29.180  21.997  1.00  0.00     0.278 C 
ENDBRANCH  11  18
ENDBRANCH   9  10
ENDBRANCH   6   9
ENDBRANCH   5   6
BRANCH   5  20
ATOM     20  C   UNL A   1      32.878  22.364  26.124  1.00  0.00     0.115 C 
BRANCH  20  21
ATOM     21  C   UNL A   1      32.116  23.630  26.392  1.00  0.00    -0.016 A 
ATOM     22  C   UNL A   1      30.777  23.723  26.722  1.00  0.00     0.087 A 
ATOM     23  C   UNL A   1      32.617  24.970  26.335  1.00  0.00     0.003 A 
ATOM     24  N   UNL A   1      30.430  25.045  26.749  1.00  0.00    -0.361 N 
ATOM     25  C   UNL A   1      31.532  25.829  26.509  1.00  0.00     0.046 A 
ATOM     26  C   UNL A   1      33.890  25.535  26.125  1.00  0.00     0.010 A 
ATOM     27  H   UNL A   1      29.521  25.386  26.918  1.00  0.00     0.166 HD
ATOM     28  C   UNL A   1      31.647  27.221  26.429  1.00  0.00     0.026 A 
ATOM     29  C   UNL A   1      34.026  26.926  26.051  1.00  0.00     0.001 A 
ATOM     30  C   UNL A   1      32.916  27.755  26.189  1.00  0.00     0.002 A 
ENDBRANCH  20  21
ENDBRANCH   5  20
ENDBRANCH   3   5
ENDBRANCH   2   3
ENDBRANCH   1   2
BRANCH   1  31
ATOM     31  C   UNL A   1      37.594  21.251  25.013  1.00  0.00     0.275 C 
BRANCH  31  32
ATOM     32  O   UNL A   1      37.975  22.203  26.018  1.00  0.00    -0.458 OA
BRANCH  32  33
ATOM     33  C   UNL A   1      39.287  22.165  26.354  1.00  0.00     0.338 C 
ATOM     34  O   UNL A   1      40.093  21.289  26.094  1.00  0.00    -0.246 OA
BRANCH  33  35
ATOM     35  C   UNL A   1      39.661  23.429  27.004  1.00  0.00     0.060 A 
ATOM     36  C   UNL A   1      39.082  24.606  26.520  1.00  0.00     0.016 A 
ATOM     37  C   UNL A   1      40.641  23.467  27.997  1.00  0.00     0.016 A 
ATOM     38  C   UNL A   1      39.502  25.838  27.012  1.00  0.00     0.010 A 
ATOM     39  C   UNL A   1      41.074  24.705  28.478  1.00  0.00     0.010 A 
ATOM     40  C   UNL A   1      40.527  25.894  27.965  1.00  0.00    -0.014 A 
BRANCH  40  41
ATOM     41  C   UNL A   1      41.131  27.204  28.300  1.00  0.00     0.031 A 
ATOM     42  C   UNL A   1      42.608  27.394  28.090  1.00  0.00     0.074 A 
ATOM     43  C   UNL A   1      40.365  28.215  28.746  1.00  0.00     0.049 A 
ATOM     44  N   UNL A   1      43.356  28.433  28.356  1.00  0.00    -0.248 NA
ATOM     45  C   UNL A   1      43.339  26.260  27.498  1.00  0.00     0.031 C 
ATOM     46  C   UNL A   1      38.918  28.154  28.945  1.00  0.00     0.029 A 
ATOM     47  N   UNL A   1      40.703  29.492  29.113  1.00  0.00    -0.354 N 
ATOM     48  C   UNL A   1      44.646  28.073  27.985  1.00  0.00     0.074 A 
ATOM     49  C   UNL A   1      44.583  26.716  27.487  1.00  0.00     0.031 C 
ATOM     50  C   UNL A   1      38.491  29.344  29.405  1.00  0.00     0.029 A 
ATOM     51  C   UNL A   1      39.638  30.236  29.560  1.00  0.00     0.049 A 
ATOM     52  H   UNL A   1      41.623  29.843  29.061  1.00  0.00     0.167 HD
ATOM     53  C   UNL A   1      45.779  28.812  28.050  1.00  0.00     0.037 A 
ATOM     54  C   UNL A   1      39.600  31.489  30.054  1.00  0.00     0.037 A 
ATOM     55  C   UNL A   1      45.830  30.165  28.537  1.00  0.00     0.049 A 
ATOM     56  C   UNL A   1      40.878  32.282  30.139  1.00  0.00     0.074 A 
ATOM     57  C   UNL A   1      46.929  30.998  28.656  1.00  0.00     0.029 A 
ATOM     58  N   UNL A   1      44.730  30.885  28.979  1.00  0.00    -0.354 N 
ATOM     59  N   UNL A   1      42.094  31.926  29.798  1.00  0.00    -0.248 NA
ATOM     60  C   UNL A   1      40.778  33.649  30.668  1.00  0.00     0.031 C 
ATOM     61  C   UNL A   1      46.495  32.216  29.195  1.00  0.00     0.029 A 
ATOM     62  C   UNL A   1      45.122  32.153  29.374  1.00  0.00     0.049 A 
ATOM     63  H   UNL A   1      43.807  30.546  29.007  1.00  0.00     0.167 HD
ATOM     64  C   UNL A   1      42.899  33.032  30.046  1.00  0.00     0.074 A 
ATOM     65  C   UNL A   1      42.030  34.072  30.559  1.00  0.00     0.031 C 
ATOM     66  C   UNL A   1      44.235  33.177  29.865  1.00  0.00     0.037 A 
BRANCH  53  67
ATOM     67  C   UNL A   1      47.057  28.156  27.611  1.00  0.00     0.058 A 
ATOM     68  C   UNL A   1      47.871  27.448  28.509  1.00  0.00     0.135 A 
ATOM     69  C   UNL A   1      47.467  28.224  26.269  1.00  0.00     0.135 A 
ATOM     70  F   UNL A   1      47.538  27.370  29.807  1.00  0.00    -0.206 F 
ATOM     71  C   UNL A   1      49.059  26.849  28.098  1.00  0.00     0.059 A 
ATOM     72  C   UNL A   1      48.637  27.615  25.831  1.00  0.00     0.059 A 
ATOM     73  F   UNL A   1      46.727  28.894  25.371  1.00  0.00    -0.206 F 
ATOM     74  C   UNL A   1      49.435  26.942  26.756  1.00  0.00     0.060 A 
BRANCH  74  75
ATOM     75  S   UNL A   1      50.975  26.159  26.231  1.00  0.00     0.124 S 
ATOM     76  O   UNL A   1      50.844  26.207  24.777  1.00  0.00    -0.237 OA
ATOM     77  O   UNL A   1      51.988  27.040  26.804  1.00  0.00    -0.237 OA
ATOM     78  O   UNL A   1      50.899  24.828  26.824  1.00  0.00    -0.744 OA
ENDBRANCH  74  75
ENDBRANCH  53  67
BRANCH  54  79
ATOM     79  C   UNL A   1      38.310  32.069  30.511  1.00  0.00     0.058 A 
ATOM     80  C   UNL A   1      37.507  32.821  29.643  1.00  0.00     0.135 A 
ATOM     81  C   UNL A   1      37.854  31.876  31.824  1.00  0.00     0.135 A 
ATOM     82  F   UNL A   1      37.905  33.041  28.380  1.00  0.00    -0.206 F 
ATOM     83  C   UNL A   1      36.302  33.377  30.064  1.00  0.00     0.059 A 
ATOM     84  C   UNL A   1      36.642  32.400  32.261  1.00  0.00     0.059 A 
ATOM     85  F   UNL A   1      38.581  31.152  32.689  1.00  0.00    -0.206 F 
ATOM     86  C   UNL A   1      35.878  33.160  31.376  1.00  0.00     0.060 A 
BRANCH  86  87
ATOM     87  S   UNL A   1      34.290  33.841  31.902  1.00  0.00     0.124 S 
ATOM     88  O   UNL A   1      33.701  32.705  32.602  1.00  0.00    -0.237 OA
ATOM     89  O   UNL A   1      34.696  34.967  32.737  1.00  0.00    -0.237 OA
ATOM     90  O   UNL A   1      33.651  34.207  30.641  1.00  0.00    -0.744 OA
ENDBRANCH  86  87
ENDBRANCH  54  79
BRANCH  66  91
ATOM     91  C   UNL A   1      44.829  34.522  30.173  1.00  0.00     0.058 A 
ATOM     92  C   UNL A   1      44.899  35.537  29.207  1.00  0.00     0.135 A 
ATOM     93  C   UNL A   1      45.295  34.809  31.465  1.00  0.00     0.135 A 
ATOM     94  F   UNL A   1      44.469  35.310  27.956  1.00  0.00    -0.206 F 
ATOM     95  C   UNL A   1      45.437  36.785  29.505  1.00  0.00     0.059 A 
ATOM     96  C   UNL A   1      45.816  36.057  31.792  1.00  0.00     0.059 A 
ATOM     97  F   UNL A   1      45.238  33.876  32.429  1.00  0.00    -0.206 F 
ATOM     98  C   UNL A   1      45.897  37.034  30.800  1.00  0.00     0.060 A 
BRANCH  98  99
ATOM     99  S   UNL A   1      46.577  38.661  31.184  1.00  0.00     0.124 S 
ATOM    100  O   UNL A   1      45.421  39.522  30.960  1.00  0.00    -0.237 OA
ATOM    101  O   UNL A   1      46.995  38.510  32.575  1.00  0.00    -0.237 OA
ATOM    102  O   UNL A   1      47.667  38.807  30.223  1.00  0.00    -0.744 OA
ENDBRANCH  98  99
ENDBRANCH  66  91
ENDBRANCH  40  41
ENDBRANCH  33  35
ENDBRANCH  32  33
ENDBRANCH  31  32
ENDBRANCH   1  31
TORSDOF 20
ENDMDL
