MODEL 1
REMARK VINA RESULT:     -11.8      0.000      0.000
REMARK SMILES CCc1cc(OC(F)(F)F)cc2c1O[C@H](C(F)(F)F)C(C(=O)OCCOC(=O)c1ccc(-c3c4nc(c(-c5c(F)cc(S(=O)(=O)[O-])cc5F)c5ccc([nH]5)c(-c5c(F)cc(S(=O)(=O)[O-])cc5F)c5nc(c(-c6c(F)cc(S(=O)(=O)[O-])cc6F)c6ccc3[nH]6)C=C5)C=C4)cc1)=C2
REMARK SMILES IDX 25 1 24 2 23 3 21 4 22 5 20 6 3 7 4 8 13 9 5 10 12 11 14 12
REMARK SMILES IDX 11 13 95 14 15 15 2 16 1 17 6 18 7 19 8 20 9 21 10 22 16 23
REMARK SMILES IDX 17 24 18 25 19 26 26 27 27 28 28 29 29 30 30 31 94 32 31 33
REMARK SMILES IDX 93 34 32 35 33 36 34 37 87 38 35 39 92 40 86 41 88 42 36 43
REMARK SMILES IDX 91 44 85 45 84 46 37 48 71 49 50 50 70 51 51 52 54 53 69 54
REMARK SMILES IDX 89 55 52 56 53 57 68 59 90 60 55 61 38 62 39 63 48 64 40 65
REMARK SMILES IDX 41 66 47 67 49 68 42 69 43 70 44 71 45 72 46 73 72 74 73 75
REMARK SMILES IDX 82 76 74 77 75 78 81 79 83 80 76 81 77 82 78 83 79 84 80 85
REMARK SMILES IDX 56 86 57 87 66 88 58 89 59 90 65 91 67 92 60 93 61 94 62 95
REMARK SMILES IDX 63 96 64 97
REMARK H PARENT 88 47 54 58
REMARK Flexibility Score: inf
ROOT
ATOM      1  C   UNL A   1      33.249  30.329  26.518  1.00  0.00     0.275 C 
ENDROOT
BRANCH   1   2
ATOM      2  C   UNL A   1      31.783  29.914  26.418  1.00  0.00     0.275 C 
BRANCH   2   3
ATOM      3  O   UNL A   1      31.619  28.717  25.628  1.00  0.00    -0.459 OA
BRANCH   3   4
ATOM      4  C   UNL A   1      31.702  27.560  26.326  1.00  0.00     0.338 C 
ATOM      5  O   UNL A   1      31.322  27.384  27.474  1.00  0.00    -0.246 OA
BRANCH   4   6
ATOM      6  C   UNL A   1      32.317  26.475  25.546  1.00  0.00     0.087 C 
ATOM      7  C   UNL A   1      33.362  22.706  24.131  1.00  0.00    -0.002 A 
ATOM      8  C   UNL A   1      34.722  22.371  24.032  1.00  0.00     0.054 A 
ATOM      9  C   UNL A   1      33.021  23.949  24.670  1.00  0.00     0.131 A 
ATOM     10  C   UNL A   1      35.711  23.251  24.487  1.00  0.00     0.130 A 
ATOM     11  C   UNL A   1      34.002  24.846  25.127  1.00  0.00     0.021 A 
ATOM     12  O   UNL A   1      31.685  24.249  24.755  1.00  0.00    -0.475 OA
ATOM     13  C   UNL A   1      35.344  24.487  25.032  1.00  0.00     0.058 A 
ATOM     14  C   UNL A   1      33.588  26.102  25.754  1.00  0.00     0.027 C 
ATOM     15  C   UNL A   1      31.398  25.664  24.663  1.00  0.00     0.316 C 
BRANCH   7  16
ATOM     16  C   UNL A   1      32.303  21.756  23.622  1.00  0.00     0.036 C 
ATOM     17  C   UNL A   1      32.690  20.298  23.831  1.00  0.00     0.009 C 
ENDBRANCH   7  16
BRANCH  10  18
ATOM     18  O   UNL A   1      37.060  23.032  24.456  1.00  0.00    -0.406 OA
BRANCH  18  19
ATOM     19  C   UNL A   1      37.583  22.046  25.329  1.00  0.00     0.573 C 
ATOM     20  F   UNL A   1      37.945  20.935  24.653  1.00  0.00    -0.132 F 
ATOM     21  F   UNL A   1      38.637  22.518  26.026  1.00  0.00    -0.132 F 
ATOM     22  F   UNL A   1      36.619  21.699  26.212  1.00  0.00    -0.132 F 
ENDBRANCH  18  19
ENDBRANCH  10  18
BRANCH  15  23
ATOM     23  C   UNL A   1      31.410  26.132  23.195  1.00  0.00     0.430 C 
ATOM     24  F   UNL A   1      30.396  26.996  22.954  1.00  0.00    -0.167 F 
ATOM     25  F   UNL A   1      32.561  26.773  22.893  1.00  0.00    -0.167 F 
ATOM     26  F   UNL A   1      31.289  25.112  22.314  1.00  0.00    -0.167 F 
ENDBRANCH  15  23
ENDBRANCH   4   6
ENDBRANCH   3   4
ENDBRANCH   2   3
ENDBRANCH   1   2
BRANCH   1  27
ATOM     27  O   UNL A   1      33.825  29.822  27.734  1.00  0.00    -0.458 OA
BRANCH  27  28
ATOM     28  C   UNL A   1      34.652  30.674  28.384  1.00  0.00     0.338 C 
ATOM     29  O   UNL A   1      34.378  31.787  28.797  1.00  0.00    -0.246 OA
BRANCH  28  30
ATOM     30  C   UNL A   1      35.991  30.071  28.527  1.00  0.00     0.060 A 
ATOM     31  C   UNL A   1      36.437  29.613  29.767  1.00  0.00     0.016 A 
ATOM     32  C   UNL A   1      36.861  30.096  27.441  1.00  0.00     0.016 A 
ATOM     33  C   UNL A   1      37.780  29.293  29.956  1.00  0.00     0.010 A 
ATOM     34  C   UNL A   1      38.177  29.654  27.603  1.00  0.00     0.010 A 
ATOM     35  C   UNL A   1      38.665  29.284  28.871  1.00  0.00    -0.014 A 
BRANCH  35  36
ATOM     36  C   UNL A   1      40.099  28.910  29.027  1.00  0.00     0.031 A 
ATOM     37  C   UNL A   1      41.103  29.962  29.420  1.00  0.00     0.074 A 
ATOM     38  C   UNL A   1      40.522  27.655  28.765  1.00  0.00     0.049 A 
ATOM     39  N   UNL A   1      42.402  29.963  29.277  1.00  0.00    -0.248 NA
ATOM     40  C   UNL A   1      40.565  31.189  30.034  1.00  0.00     0.031 C 
ATOM     41  C   UNL A   1      39.663  26.513  28.444  1.00  0.00     0.029 A 
ATOM     42  N   UNL A   1      41.793  27.136  28.703  1.00  0.00    -0.354 N 
ATOM     43  C   UNL A   1      42.831  31.214  29.708  1.00  0.00     0.074 A 
ATOM     44  C   UNL A   1      41.653  31.941  30.132  1.00  0.00     0.031 C 
ATOM     45  C   UNL A   1      40.427  25.431  28.231  1.00  0.00     0.029 A 
ATOM     46  C   UNL A   1      41.828  25.825  28.290  1.00  0.00     0.049 A 
ATOM     47  H   UNL A   1      42.600  27.654  28.932  1.00  0.00     0.167 HD
ATOM     48  C   UNL A   1      44.092  31.709  29.732  1.00  0.00     0.037 A 
ATOM     49  C   UNL A   1      42.863  25.042  27.926  1.00  0.00     0.037 A 
ATOM     50  C   UNL A   1      45.258  30.947  29.367  1.00  0.00     0.049 A 
ATOM     51  C   UNL A   1      44.251  25.615  27.926  1.00  0.00     0.074 A 
ATOM     52  C   UNL A   1      46.583  31.348  29.361  1.00  0.00     0.029 A 
ATOM     53  N   UNL A   1      45.241  29.619  28.964  1.00  0.00    -0.354 N 
ATOM     54  N   UNL A   1      44.639  26.825  28.250  1.00  0.00    -0.248 NA
ATOM     55  C   UNL A   1      45.339  24.730  27.489  1.00  0.00     0.031 C 
ATOM     56  C   UNL A   1      47.364  30.271  28.929  1.00  0.00     0.029 A 
ATOM     57  C   UNL A   1      46.530  29.187  28.706  1.00  0.00     0.049 A 
ATOM     58  H   UNL A   1      44.431  29.067  28.876  1.00  0.00     0.167 HD
ATOM     59  C   UNL A   1      46.018  26.840  28.080  1.00  0.00     0.074 A 
ATOM     60  C   UNL A   1      46.398  25.519  27.625  1.00  0.00     0.031 C 
ATOM     61  C   UNL A   1      46.890  27.857  28.283  1.00  0.00     0.037 A 
BRANCH  48  62
ATOM     62  C   UNL A   1      44.278  33.149  30.124  1.00  0.00     0.058 A 
ATOM     63  C   UNL A   1      44.577  33.534  31.439  1.00  0.00     0.135 A 
ATOM     64  C   UNL A   1      44.195  34.159  29.151  1.00  0.00     0.135 A 
ATOM     65  F   UNL A   1      44.653  32.612  32.412  1.00  0.00    -0.206 F 
ATOM     66  C   UNL A   1      44.763  34.871  31.781  1.00  0.00     0.059 A 
ATOM     67  C   UNL A   1      44.403  35.499  29.463  1.00  0.00     0.059 A 
ATOM     68  F   UNL A   1      43.914  33.847  27.875  1.00  0.00    -0.206 F 
ATOM     69  C   UNL A   1      44.672  35.847  30.786  1.00  0.00     0.060 A 
BRANCH  69  70
ATOM     70  S   UNL A   1      44.918  37.577  31.240  1.00  0.00     0.124 S 
ATOM     71  O   UNL A   1      46.355  37.609  31.498  1.00  0.00    -0.237 OA
ATOM     72  O   UNL A   1      44.473  38.283  30.043  1.00  0.00    -0.237 OA
ATOM     73  O   UNL A   1      44.067  37.745  32.415  1.00  0.00    -0.744 OA
ENDBRANCH  69  70
ENDBRANCH  48  62
BRANCH  49  74
ATOM     74  C   UNL A   1      42.609  23.647  27.476  1.00  0.00     0.058 A 
ATOM     75  C   UNL A   1      42.529  23.333  26.112  1.00  0.00     0.135 A 
ATOM     76  C   UNL A   1      42.479  22.595  28.398  1.00  0.00     0.135 A 
ATOM     77  F   UNL A   1      42.636  24.306  25.193  1.00  0.00    -0.206 F 
ATOM     78  C   UNL A   1      42.326  22.028  25.676  1.00  0.00     0.059 A 
ATOM     79  C   UNL A   1      42.304  21.278  27.986  1.00  0.00     0.059 A 
ATOM     80  F   UNL A   1      42.562  22.840  29.715  1.00  0.00    -0.206 F 
ATOM     81  C   UNL A   1      42.221  21.005  26.621  1.00  0.00     0.060 A 
BRANCH  81  82
ATOM     82  S   UNL A   1      42.024  19.306  26.045  1.00  0.00     0.124 S 
ATOM     83  O   UNL A   1      42.533  18.550  27.182  1.00  0.00    -0.237 OA
ATOM     84  O   UNL A   1      40.585  19.222  25.815  1.00  0.00    -0.237 OA
ATOM     85  O   UNL A   1      42.846  19.264  24.839  1.00  0.00    -0.744 OA
ENDBRANCH  81  82
ENDBRANCH  49  74
BRANCH  61  86
ATOM     86  C   UNL A   1      48.349  27.575  28.079  1.00  0.00     0.058 A 
ATOM     87  C   UNL A   1      49.138  27.006  29.088  1.00  0.00     0.135 A 
ATOM     88  C   UNL A   1      48.938  27.788  26.821  1.00  0.00     0.135 A 
ATOM     89  F   UNL A   1      48.624  26.793  30.310  1.00  0.00    -0.206 F 
ATOM     90  C   UNL A   1      50.463  26.651  28.857  1.00  0.00     0.059 A 
ATOM     91  C   UNL A   1      50.253  27.423  26.562  1.00  0.00     0.059 A 
ATOM     92  F   UNL A   1      48.219  28.326  25.822  1.00  0.00    -0.206 F 
ATOM     93  C   UNL A   1      51.010  26.856  27.587  1.00  0.00     0.060 A 
BRANCH  93  94
ATOM     94  S   UNL A   1      52.704  26.317  27.275  1.00  0.00     0.124 S 
ATOM     95  O   UNL A   1      53.186  27.364  26.379  1.00  0.00    -0.237 OA
ATOM     96  O   UNL A   1      53.284  26.314  28.614  1.00  0.00    -0.237 OA
ATOM     97  O   UNL A   1      52.536  25.000  26.669  1.00  0.00    -0.744 OA
ENDBRANCH  93  94
ENDBRANCH  61  86
ENDBRANCH  35  36
ENDBRANCH  28  30
ENDBRANCH  27  28
ENDBRANCH   1  27
TORSDOF 18
ENDMDL
MODEL 2
REMARK VINA RESULT:     -11.7      4.977     11.478
REMARK SMILES CCc1cc(OC(F)(F)F)cc2c1O[C@H](C(F)(F)F)C(C(=O)OCCOC(=O)c1ccc(-c3c4nc(c(-c5c(F)cc(S(=O)(=O)[O-])cc5F)c5ccc([nH]5)c(-c5c(F)cc(S(=O)(=O)[O-])cc5F)c5nc(c(-c6c(F)cc(S(=O)(=O)[O-])cc6F)c6ccc3[nH]6)C=C5)C=C4)cc1)=C2
REMARK SMILES IDX 25 1 24 2 23 3 21 4 22 5 20 6 3 7 4 8 13 9 5 10 12 11 14 12
REMARK SMILES IDX 11 13 95 14 15 15 2 16 1 17 6 18 7 19 8 20 9 21 10 22 16 23
REMARK SMILES IDX 17 24 18 25 19 26 26 27 27 28 28 29 29 30 30 31 94 32 31 33
REMARK SMILES IDX 93 34 32 35 33 36 34 37 87 38 35 39 92 40 86 41 88 42 36 43
REMARK SMILES IDX 91 44 85 45 84 46 37 48 71 49 50 50 70 51 51 52 54 53 69 54
REMARK SMILES IDX 89 55 52 56 53 57 68 59 90 60 55 61 38 62 39 63 48 64 40 65
REMARK SMILES IDX 41 66 47 67 49 68 42 69 43 70 44 71 45 72 46 73 72 74 73 75
REMARK SMILES IDX 82 76 74 77 75 78 81 79 83 80 76 81 77 82 78 83 79 84 80 85
REMARK SMILES IDX 56 86 57 87 66 88 58 89 59 90 65 91 67 92 60 93 61 94 62 95
REMARK SMILES IDX 63 96 64 97
REMARK H PARENT 88 47 54 58
REMARK Flexibility Score: inf
ROOT
ATOM      1  C   UNL A   1      39.974  20.784  25.880  1.00  0.00     0.275 C 
ENDROOT
BRANCH   1   2
ATOM      2  C   UNL A   1      41.171  20.004  26.420  1.00  0.00     0.275 C 
BRANCH   2   3
ATOM      3  O   UNL A   1      42.302  20.865  26.667  1.00  0.00    -0.459 OA
BRANCH   3   4
ATOM      4  C   UNL A   1      43.157  20.993  25.624  1.00  0.00     0.338 C 
ATOM      5  O   UNL A   1      43.444  20.119  24.819  1.00  0.00    -0.246 OA
BRANCH   4   6
ATOM      6  C   UNL A   1      43.739  22.341  25.535  1.00  0.00     0.087 C 
ATOM      7  C   UNL A   1      45.499  25.976  26.530  1.00  0.00    -0.002 A 
ATOM      8  C   UNL A   1      44.876  27.165  26.121  1.00  0.00     0.054 A 
ATOM      9  C   UNL A   1      44.865  24.763  26.248  1.00  0.00     0.131 A 
ATOM     10  C   UNL A   1      43.637  27.138  25.471  1.00  0.00     0.130 A 
ATOM     11  C   UNL A   1      43.623  24.717  25.592  1.00  0.00     0.021 A 
ATOM     12  O   UNL A   1      45.496  23.616  26.660  1.00  0.00    -0.475 OA
ATOM     13  C   UNL A   1      43.016  25.911  25.209  1.00  0.00     0.058 A 
ATOM     14  C   UNL A   1      42.965  23.425  25.390  1.00  0.00     0.027 C 
ATOM     15  C   UNL A   1      45.215  22.466  25.828  1.00  0.00     0.316 C 
BRANCH   7  16
ATOM     16  C   UNL A   1      46.844  26.014  27.216  1.00  0.00     0.036 C 
ATOM     17  C   UNL A   1      46.725  26.354  28.696  1.00  0.00     0.009 C 
ENDBRANCH   7  16
BRANCH  10  18
ATOM     18  O   UNL A   1      42.930  28.226  25.040  1.00  0.00    -0.406 OA
BRANCH  18  19
ATOM     19  C   UNL A   1      42.384  29.085  26.026  1.00  0.00     0.573 C 
ATOM     20  F   UNL A   1      42.924  30.320  25.952  1.00  0.00    -0.132 F 
ATOM     21  F   UNL A   1      41.043  29.167  25.917  1.00  0.00    -0.132 F 
ATOM     22  F   UNL A   1      42.675  28.578  27.246  1.00  0.00    -0.132 F 
ENDBRANCH  18  19
ENDBRANCH  10  18
BRANCH  15  23
ATOM     23  C   UNL A   1      46.081  22.485  24.553  1.00  0.00     0.430 C 
ATOM     24  F   UNL A   1      46.986  23.491  24.598  1.00  0.00    -0.167 F 
ATOM     25  F   UNL A   1      46.773  21.332  24.412  1.00  0.00    -0.167 F 
ATOM     26  F   UNL A   1      45.355  22.644  23.423  1.00  0.00    -0.167 F 
ENDBRANCH  15  23
ENDBRANCH   4   6
ENDBRANCH   3   4
ENDBRANCH   2   3
ENDBRANCH   1   2
BRANCH   1  27
ATOM     27  O   UNL A   1      39.666  21.885  26.750  1.00  0.00    -0.458 OA
BRANCH  27  28
ATOM     28  C   UNL A   1      38.855  22.833  26.224  1.00  0.00     0.338 C 
ATOM     29  O   UNL A   1      38.044  22.685  25.326  1.00  0.00    -0.246 OA
BRANCH  28  30
ATOM     30  C   UNL A   1      39.090  24.128  26.890  1.00  0.00     0.060 A 
ATOM     31  C   UNL A   1      39.817  25.134  26.254  1.00  0.00     0.016 A 
ATOM     32  C   UNL A   1      38.704  24.283  28.218  1.00  0.00     0.016 A 
ATOM     33  C   UNL A   1      40.263  26.241  26.974  1.00  0.00     0.010 A 
ATOM     34  C   UNL A   1      39.044  25.453  28.902  1.00  0.00     0.010 A 
ATOM     35  C   UNL A   1      39.861  26.430  28.301  1.00  0.00    -0.014 A 
BRANCH  35  36
ATOM     36  C   UNL A   1      40.285  27.621  29.091  1.00  0.00     0.031 A 
ATOM     37  C   UNL A   1      41.560  27.566  29.893  1.00  0.00     0.074 A 
ATOM     38  C   UNL A   1      39.516  28.728  29.145  1.00  0.00     0.049 A 
ATOM     39  N   UNL A   1      41.939  28.309  30.898  1.00  0.00    -0.248 NA
ATOM     40  C   UNL A   1      42.523  26.513  29.527  1.00  0.00     0.031 C 
ATOM     41  C   UNL A   1      38.295  28.959  28.371  1.00  0.00     0.029 A 
ATOM     42  N   UNL A   1      39.637  29.863  29.910  1.00  0.00    -0.354 N 
ATOM     43  C   UNL A   1      43.145  27.770  31.336  1.00  0.00     0.074 A 
ATOM     44  C   UNL A   1      43.439  26.643  30.476  1.00  0.00     0.031 C 
ATOM     45  C   UNL A   1      37.788  30.160  28.690  1.00  0.00     0.029 A 
ATOM     46  C   UNL A   1      38.583  30.734  29.768  1.00  0.00     0.049 A 
ATOM     47  H   UNL A   1      40.406  30.036  30.503  1.00  0.00     0.167 HD
ATOM     48  C   UNL A   1      43.921  28.174  32.370  1.00  0.00     0.037 A 
ATOM     49  C   UNL A   1      38.244  31.833  30.471  1.00  0.00     0.037 A 
ATOM     50  C   UNL A   1      43.643  29.337  33.174  1.00  0.00     0.049 A 
ATOM     51  C   UNL A   1      39.097  32.249  31.635  1.00  0.00     0.074 A 
ATOM     52  C   UNL A   1      44.367  29.840  34.240  1.00  0.00     0.029 A 
ATOM     53  N   UNL A   1      42.566  30.191  32.983  1.00  0.00    -0.354 N 
ATOM     54  N   UNL A   1      40.186  31.684  32.099  1.00  0.00    -0.248 NA
ATOM     55  C   UNL A   1      38.665  33.434  32.389  1.00  0.00     0.031 C 
ATOM     56  C   UNL A   1      43.712  30.983  34.712  1.00  0.00     0.029 A 
ATOM     57  C   UNL A   1      42.604  31.215  33.912  1.00  0.00     0.049 A 
ATOM     58  H   UNL A   1      41.877  30.083  32.288  1.00  0.00     0.167 HD
ATOM     59  C   UNL A   1      40.584  32.457  33.182  1.00  0.00     0.074 A 
ATOM     60  C   UNL A   1      39.620  33.532  33.306  1.00  0.00     0.031 C 
ATOM     61  C   UNL A   1      41.651  32.292  33.999  1.00  0.00     0.037 A 
BRANCH  48  62
ATOM     62  C   UNL A   1      45.119  27.336  32.723  1.00  0.00     0.058 A 
ATOM     63  C   UNL A   1      46.397  27.605  32.212  1.00  0.00     0.135 A 
ATOM     64  C   UNL A   1      44.988  26.267  33.626  1.00  0.00     0.135 A 
ATOM     65  F   UNL A   1      46.577  28.605  31.334  1.00  0.00    -0.206 F 
ATOM     66  C   UNL A   1      47.498  26.829  32.563  1.00  0.00     0.059 A 
ATOM     67  C   UNL A   1      46.079  25.494  34.012  1.00  0.00     0.059 A 
ATOM     68  F   UNL A   1      43.788  25.967  34.148  1.00  0.00    -0.206 F 
ATOM     69  C   UNL A   1      47.330  25.774  33.463  1.00  0.00     0.060 A 
BRANCH  69  70
ATOM     70  S   UNL A   1      48.765  24.777  33.913  1.00  0.00     0.124 S 
ATOM     71  O   UNL A   1      49.367  25.590  34.965  1.00  0.00    -0.237 OA
ATOM     72  O   UNL A   1      48.155  23.525  34.350  1.00  0.00    -0.237 OA
ATOM     73  O   UNL A   1      49.528  24.697  32.670  1.00  0.00    -0.744 OA
ENDBRANCH  69  70
ENDBRANCH  48  62
BRANCH  49  74
ATOM     74  C   UNL A   1      37.005  32.579  30.122  1.00  0.00     0.058 A 
ATOM     75  C   UNL A   1      35.791  32.302  30.765  1.00  0.00     0.135 A 
ATOM     76  C   UNL A   1      37.019  33.609  29.166  1.00  0.00     0.135 A 
ATOM     77  F   UNL A   1      35.726  31.320  31.678  1.00  0.00    -0.206 F 
ATOM     78  C   UNL A   1      34.633  33.015  30.473  1.00  0.00     0.059 A 
ATOM     79  C   UNL A   1      35.882  34.354  28.877  1.00  0.00     0.059 A 
ATOM     80  F   UNL A   1      38.160  33.923  28.532  1.00  0.00    -0.206 F 
ATOM     81  C   UNL A   1      34.689  34.044  29.531  1.00  0.00     0.060 A 
BRANCH  81  82
ATOM     82  S   UNL A   1      33.198  35.008  29.206  1.00  0.00     0.124 S 
ATOM     83  O   UNL A   1      33.760  36.290  28.801  1.00  0.00    -0.237 OA
ATOM     84  O   UNL A   1      32.552  34.232  28.152  1.00  0.00    -0.237 OA
ATOM     85  O   UNL A   1      32.506  34.998  30.493  1.00  0.00    -0.744 OA
ENDBRANCH  81  82
ENDBRANCH  49  74
BRANCH  61  86
ATOM     86  C   UNL A   1      41.880  33.325  35.064  1.00  0.00     0.058 A 
ATOM     87  C   UNL A   1      42.489  34.555  34.778  1.00  0.00     0.135 A 
ATOM     88  C   UNL A   1      41.394  33.114  36.364  1.00  0.00     0.135 A 
ATOM     89  F   UNL A   1      42.979  34.800  33.553  1.00  0.00    -0.206 F 
ATOM     90  C   UNL A   1      42.603  35.547  35.747  1.00  0.00     0.059 A 
ATOM     91  C   UNL A   1      41.479  34.097  37.342  1.00  0.00     0.059 A 
ATOM     92  F   UNL A   1      40.800  31.952  36.682  1.00  0.00    -0.206 F 
ATOM     93  C   UNL A   1      42.087  35.312  37.024  1.00  0.00     0.060 A 
BRANCH  93  94
ATOM     94  S   UNL A   1      42.167  36.635  38.249  1.00  0.00     0.124 S 
ATOM     95  O   UNL A   1      40.797  37.139  38.230  1.00  0.00    -0.237 OA
ATOM     96  O   UNL A   1      42.561  35.920  39.459  1.00  0.00    -0.237 OA
ATOM     97  O   UNL A   1      43.176  37.540  37.707  1.00  0.00    -0.744 OA
ENDBRANCH  93  94
ENDBRANCH  61  86
ENDBRANCH  35  36
ENDBRANCH  28  30
ENDBRANCH  27  28
ENDBRANCH   1  27
TORSDOF 18
ENDMDL
MODEL 3
REMARK VINA RESULT:     -11.6      3.740      6.543
REMARK SMILES CCc1cc(OC(F)(F)F)cc2c1O[C@H](C(F)(F)F)C(C(=O)OCCOC(=O)c1ccc(-c3c4nc(c(-c5c(F)cc(S(=O)(=O)[O-])cc5F)c5ccc([nH]5)c(-c5c(F)cc(S(=O)(=O)[O-])cc5F)c5nc(c(-c6c(F)cc(S(=O)(=O)[O-])cc6F)c6ccc3[nH]6)C=C5)C=C4)cc1)=C2
REMARK SMILES IDX 25 1 24 2 23 3 21 4 22 5 20 6 3 7 4 8 13 9 5 10 12 11 14 12
REMARK SMILES IDX 11 13 95 14 15 15 2 16 1 17 6 18 7 19 8 20 9 21 10 22 16 23
REMARK SMILES IDX 17 24 18 25 19 26 26 27 27 28 28 29 29 30 30 31 94 32 31 33
REMARK SMILES IDX 93 34 32 35 33 36 34 37 87 38 35 39 92 40 86 41 88 42 36 43
REMARK SMILES IDX 91 44 85 45 84 46 37 48 71 49 50 50 70 51 51 52 54 53 69 54
REMARK SMILES IDX 89 55 52 56 53 57 68 59 90 60 55 61 38 62 39 63 48 64 40 65
REMARK SMILES IDX 41 66 47 67 49 68 42 69 43 70 44 71 45 72 46 73 72 74 73 75
REMARK SMILES IDX 82 76 74 77 75 78 81 79 83 80 76 81 77 82 78 83 79 84 80 85
REMARK SMILES IDX 56 86 57 87 66 88 58 89 59 90 65 91 67 92 60 93 61 94 62 95
REMARK SMILES IDX 63 96 64 97
REMARK H PARENT 88 47 54 58
REMARK Flexibility Score: inf
ROOT
ATOM      1  C   UNL A   1      33.654  32.858  28.059  1.00  0.00     0.275 C 
ENDROOT
BRANCH   1   2
ATOM      2  C   UNL A   1      34.289  34.190  28.452  1.00  0.00     0.275 C 
BRANCH   2   3
ATOM      3  O   UNL A   1      35.232  34.035  29.533  1.00  0.00    -0.459 OA
BRANCH   3   4
ATOM      4  C   UNL A   1      34.682  34.028  30.771  1.00  0.00     0.338 C 
ATOM      5  O   UNL A   1      33.552  34.396  31.057  1.00  0.00    -0.246 OA
BRANCH   4   6
ATOM      6  C   UNL A   1      35.604  33.514  31.795  1.00  0.00     0.087 C 
ATOM      7  C   UNL A   1      39.028  32.771  34.037  1.00  0.00    -0.002 A 
ATOM      8  C   UNL A   1      39.410  31.441  34.271  1.00  0.00     0.054 A 
ATOM      9  C   UNL A   1      37.914  33.009  33.227  1.00  0.00     0.131 A 
ATOM     10  C   UNL A   1      38.709  30.381  33.686  1.00  0.00     0.130 A 
ATOM     11  C   UNL A   1      37.196  31.957  32.635  1.00  0.00     0.021 A 
ATOM     12  O   UNL A   1      37.565  34.320  33.015  1.00  0.00    -0.475 OA
ATOM     13  C   UNL A   1      37.602  30.645  32.870  1.00  0.00     0.058 A 
ATOM     14  C   UNL A   1      36.085  32.264  31.733  1.00  0.00     0.027 C 
ATOM     15  C   UNL A   1      36.149  34.514  32.786  1.00  0.00     0.316 C 
BRANCH   7  16
ATOM     16  C   UNL A   1      39.781  33.908  34.686  1.00  0.00     0.036 C 
ATOM     17  C   UNL A   1      40.747  33.420  35.758  1.00  0.00     0.009 C 
ENDBRANCH   7  16
BRANCH  10  18
ATOM     18  O   UNL A   1      38.993  29.051  33.828  1.00  0.00    -0.406 OA
BRANCH  18  19
ATOM     19  C   UNL A   1      40.053  28.521  33.052  1.00  0.00     0.573 C 
ATOM     20  F   UNL A   1      40.925  29.487  32.690  1.00  0.00    -0.132 F 
ATOM     21  F   UNL A   1      40.706  27.545  33.715  1.00  0.00    -0.132 F 
ATOM     22  F   UNL A   1      39.535  27.987  31.923  1.00  0.00    -0.132 F 
ENDBRANCH  18  19
ENDBRANCH  10  18
BRANCH  15  23
ATOM     23  C   UNL A   1      35.374  34.523  34.118  1.00  0.00     0.430 C 
ATOM     24  F   UNL A   1      34.456  33.529  34.150  1.00  0.00    -0.167 F 
ATOM     25  F   UNL A   1      36.203  34.336  35.169  1.00  0.00    -0.167 F 
ATOM     26  F   UNL A   1      34.718  35.685  34.340  1.00  0.00    -0.167 F 
ENDBRANCH  15  23
ENDBRANCH   4   6
ENDBRANCH   3   4
ENDBRANCH   2   3
ENDBRANCH   1   2
BRANCH   1  27
ATOM     27  O   UNL A   1      34.630  32.011  27.429  1.00  0.00    -0.458 OA
BRANCH  27  28
ATOM     28  C   UNL A   1      34.484  30.686  27.659  1.00  0.00     0.338 C 
ATOM     29  O   UNL A   1      33.444  30.049  27.639  1.00  0.00    -0.246 OA
BRANCH  28  30
ATOM     30  C   UNL A   1      35.793  30.077  27.965  1.00  0.00     0.060 A 
ATOM     31  C   UNL A   1      36.063  29.571  29.236  1.00  0.00     0.016 A 
ATOM     32  C   UNL A   1      36.806  30.146  27.014  1.00  0.00     0.016 A 
ATOM     33  C   UNL A   1      37.369  29.244  29.599  1.00  0.00     0.010 A 
ATOM     34  C   UNL A   1      38.089  29.699  27.341  1.00  0.00     0.010 A 
ATOM     35  C   UNL A   1      38.397  29.278  28.649  1.00  0.00    -0.014 A 
BRANCH  35  36
ATOM     36  C   UNL A   1      39.797  28.899  28.989  1.00  0.00     0.031 A 
ATOM     37  C   UNL A   1      40.735  29.939  29.546  1.00  0.00     0.074 A 
ATOM     38  C   UNL A   1      40.256  27.652  28.752  1.00  0.00     0.049 A 
ATOM     39  N   UNL A   1      42.041  29.942  29.582  1.00  0.00    -0.248 NA
ATOM     40  C   UNL A   1      40.114  31.148  30.114  1.00  0.00     0.031 C 
ATOM     41  C   UNL A   1      39.453  26.520  28.285  1.00  0.00     0.029 A 
ATOM     42  N   UNL A   1      41.525  27.134  28.850  1.00  0.00    -0.354 N 
ATOM     43  C   UNL A   1      42.403  31.181  30.103  1.00  0.00     0.074 A 
ATOM     44  C   UNL A   1      41.176  31.896  30.382  1.00  0.00     0.031 C 
ATOM     45  C   UNL A   1      40.241  25.444  28.148  1.00  0.00     0.029 A 
ATOM     46  C   UNL A   1      41.621  25.834  28.410  1.00  0.00     0.049 A 
ATOM     47  H   UNL A   1      42.291  27.644  29.202  1.00  0.00     0.167 HD
ATOM     48  C   UNL A   1      43.647  31.674  30.313  1.00  0.00     0.037 A 
ATOM     49  C   UNL A   1      42.698  25.061  28.169  1.00  0.00     0.037 A 
ATOM     50  C   UNL A   1      44.855  30.921  30.090  1.00  0.00     0.049 A 
ATOM     51  C   UNL A   1      44.071  25.633  28.376  1.00  0.00     0.074 A 
ATOM     52  C   UNL A   1      46.167  31.321  30.278  1.00  0.00     0.029 A 
ATOM     53  N   UNL A   1      44.898  29.605  29.652  1.00  0.00    -0.354 N 
ATOM     54  N   UNL A   1      44.408  26.833  28.784  1.00  0.00    -0.248 NA
ATOM     55  C   UNL A   1      45.211  24.760  28.067  1.00  0.00     0.031 C 
ATOM     56  C   UNL A   1      47.002  30.256  29.926  1.00  0.00     0.029 A 
ATOM     57  C   UNL A   1      46.210  29.179  29.560  1.00  0.00     0.049 A 
ATOM     58  H   UNL A   1      44.109  29.056  29.438  1.00  0.00     0.167 HD
ATOM     59  C   UNL A   1      45.796  26.852  28.805  1.00  0.00     0.074 A 
ATOM     60  C   UNL A   1      46.240  25.543  28.369  1.00  0.00     0.031 C 
ATOM     61  C   UNL A   1      46.629  27.862  29.154  1.00  0.00     0.037 A 
BRANCH  48  62
ATOM     62  C   UNL A   1      43.774  33.102  30.767  1.00  0.00     0.058 A 
ATOM     63  C   UNL A   1      43.794  33.457  32.124  1.00  0.00     0.135 A 
ATOM     64  C   UNL A   1      43.919  34.130  29.821  1.00  0.00     0.135 A 
ATOM     65  F   UNL A   1      43.644  32.516  33.071  1.00  0.00    -0.206 F 
ATOM     66  C   UNL A   1      43.929  34.782  32.527  1.00  0.00     0.059 A 
ATOM     67  C   UNL A   1      44.081  35.460  30.200  1.00  0.00     0.059 A 
ATOM     68  F   UNL A   1      43.909  33.847  28.509  1.00  0.00    -0.206 F 
ATOM     69  C   UNL A   1      44.070  35.778  31.557  1.00  0.00     0.060 A 
BRANCH  69  70
ATOM     70  S   UNL A   1      44.247  37.493  32.092  1.00  0.00     0.124 S 
ATOM     71  O   UNL A   1      45.675  37.561  32.388  1.00  0.00    -0.237 OA
ATOM     72  O   UNL A   1      43.808  38.237  30.914  1.00  0.00    -0.237 OA
ATOM     73  O   UNL A   1      43.362  37.582  33.250  1.00  0.00    -0.744 OA
ENDBRANCH  69  70
ENDBRANCH  48  62
BRANCH  49  74
ATOM     74  C   UNL A   1      42.512  23.680  27.649  1.00  0.00     0.058 A 
ATOM     75  C   UNL A   1      42.435  23.432  26.272  1.00  0.00     0.135 A 
ATOM     76  C   UNL A   1      42.446  22.577  28.517  1.00  0.00     0.135 A 
ATOM     77  F   UNL A   1      42.483  24.455  25.404  1.00  0.00    -0.206 F 
ATOM     78  C   UNL A   1      42.296  22.143  25.770  1.00  0.00     0.059 A 
ATOM     79  C   UNL A   1      42.336  21.276  28.039  1.00  0.00     0.059 A 
ATOM     80  F   UNL A   1      42.530  22.758  29.844  1.00  0.00    -0.206 F 
ATOM     81  C   UNL A   1      42.253  21.069  26.662  1.00  0.00     0.060 A 
BRANCH  81  82
ATOM     82  S   UNL A   1      42.139  19.393  26.000  1.00  0.00     0.124 S 
ATOM     83  O   UNL A   1      40.702  19.254  25.801  1.00  0.00    -0.237 OA
ATOM     84  O   UNL A   1      42.947  19.484  24.788  1.00  0.00    -0.237 OA
ATOM     85  O   UNL A   1      42.713  18.573  27.065  1.00  0.00    -0.744 OA
ENDBRANCH  81  82
ENDBRANCH  49  74
BRANCH  61  86
ATOM     86  C   UNL A   1      48.104  27.584  29.144  1.00  0.00     0.058 A 
ATOM     87  C   UNL A   1      48.889  27.813  28.005  1.00  0.00     0.135 A 
ATOM     88  C   UNL A   1      48.751  27.177  30.322  1.00  0.00     0.135 A 
ATOM     89  F   UNL A   1      48.315  28.193  26.852  1.00  0.00    -0.206 F 
ATOM     90  C   UNL A   1      50.271  27.652  28.036  1.00  0.00     0.059 A 
ATOM     91  C   UNL A   1      50.131  27.029  30.381  1.00  0.00     0.059 A 
ATOM     92  F   UNL A   1      48.040  26.950  31.438  1.00  0.00    -0.206 F 
ATOM     93  C   UNL A   1      50.883  27.268  29.231  1.00  0.00     0.060 A 
BRANCH  93  94
ATOM     94  S   UNL A   1      52.684  27.142  29.281  1.00  0.00     0.124 S 
ATOM     95  O   UNL A   1      52.983  26.662  27.936  1.00  0.00    -0.237 OA
ATOM     96  O   UNL A   1      53.086  28.516  29.567  1.00  0.00    -0.237 OA
ATOM     97  O   UNL A   1      52.928  26.188  30.358  1.00  0.00    -0.744 OA
ENDBRANCH  93  94
ENDBRANCH  61  86
ENDBRANCH  35  36
ENDBRANCH  28  30
ENDBRANCH  27  28
ENDBRANCH   1  27
TORSDOF 18
ENDMDL
