MODEL 1
REMARK VINA RESULT:     -10.6      0.000      0.000
REMARK SMILES CCN(CC(C)(C)O)C(=O)Nc1ccc(C(=O)OCCOC(=O)c2ccc(-c3c4nc(c(-c5c(F)cc(S(=O)(=O)[O-])cc5F)c5ccc([nH]5)c(-c5c(F)cc(S(=O)(=O)[O-])cc5F)c5nc(c(-c6c(F)cc(S(=O)(=O)[O-])cc6F)c6ccc3[nH]6)C=C5)C=C4)cc2)c(O)c1
REMARK SMILES IDX 19 1 18 2 16 3 17 4 15 5 12 6 13 7 92 8 14 9 90 10 11 11
REMARK SMILES IDX 9 12 10 13 3 15 2 16 1 17 4 18 5 19 6 20 7 21 8 22 91 24
REMARK SMILES IDX 20 26 21 27 22 28 23 29 24 30 25 31 89 32 26 33 88 34 27 35
REMARK SMILES IDX 28 36 29 37 82 38 30 39 87 40 81 41 83 42 31 43 86 44 80 45
REMARK SMILES IDX 79 46 32 48 66 49 45 50 65 51 46 52 49 53 64 54 84 55 47 56
REMARK SMILES IDX 48 57 63 59 85 60 50 61 33 62 34 63 43 64 35 65 36 66 42 67
REMARK SMILES IDX 44 68 37 69 38 70 39 71 40 72 41 73 67 74 68 75 77 76 69 77
REMARK SMILES IDX 70 78 76 79 78 80 71 81 72 82 73 83 74 84 75 85 51 86 52 87
REMARK SMILES IDX 61 88 53 89 54 90 60 91 62 92 55 93 56 94 57 95 58 96 59 97
REMARK H PARENT 11 14 8 23 91 25 83 47 49 58
REMARK Flexibility Score: inf
ROOT
ATOM      1  C   UNL A   1      32.889  31.165  27.190  1.00  0.00     0.275 C 
ENDROOT
BRANCH   1   2
ATOM      2  O   UNL A   1      33.237  29.897  26.596  1.00  0.00    -0.458 OA
BRANCH   2   3
ATOM      3  C   UNL A   1      32.385  28.871  26.865  1.00  0.00     0.342 C 
ATOM      4  O   UNL A   1      31.449  28.900  27.639  1.00  0.00    -0.246 OA
BRANCH   3   5
ATOM      5  C   UNL A   1      32.670  27.720  25.970  1.00  0.00     0.101 A 
ATOM      6  C   UNL A   1      33.592  25.597  24.348  1.00  0.00     0.046 A 
ATOM      7  C   UNL A   1      33.997  26.902  24.106  1.00  0.00     0.027 A 
ATOM      8  C   UNL A   1      32.589  25.388  25.304  1.00  0.00     0.073 A 
ATOM      9  C   UNL A   1      33.554  27.956  24.913  1.00  0.00     0.022 A 
ATOM     10  C   UNL A   1      32.147  26.433  26.124  1.00  0.00     0.132 A 
BRANCH   6  11
ATOM     11  N   UNL A   1      34.043  24.482  23.635  1.00  0.00    -0.308 N 
ATOM     12  C   UNL A   1      34.885  23.431  23.788  1.00  0.00     0.321 C 
ATOM     13  O   UNL A   1      35.213  22.892  22.722  1.00  0.00    -0.248 OA
ATOM     14  H   UNL A   1      33.618  24.450  22.747  1.00  0.00     0.171 HD
BRANCH  12  15
ATOM     15  N   UNL A   1      35.227  22.866  24.990  1.00  0.00    -0.322 N 
BRANCH  15  16
ATOM     16  C   UNL A   1      36.015  23.699  25.917  1.00  0.00     0.118 C 
ATOM     17  C   UNL A   1      37.517  23.592  25.678  1.00  0.00     0.027 C 
ENDBRANCH  15  16
BRANCH  15  18
ATOM     18  C   UNL A   1      34.967  21.512  25.490  1.00  0.00     0.155 C 
BRANCH  18  19
ATOM     19  C   UNL A   1      33.581  21.368  26.204  1.00  0.00     0.077 C 
ATOM     20  C   UNL A   1      33.333  22.375  27.339  1.00  0.00     0.043 C 
ATOM     21  C   UNL A   1      32.471  21.404  25.159  1.00  0.00     0.043 C 
BRANCH  19  22
ATOM     22  O   UNL A   1      33.505  20.062  26.804  1.00  0.00    -0.389 OA
ATOM     23  H   UNL A   1      33.928  19.414  26.221  1.00  0.00     0.211 HD
ENDBRANCH  19  22
ENDBRANCH  18  19
ENDBRANCH  15  18
ENDBRANCH  12  15
ENDBRANCH   6  11
BRANCH  10  24
ATOM     24  O   UNL A   1      31.202  26.102  27.056  1.00  0.00    -0.507 OA
ATOM     25  H   UNL A   1      30.342  26.470  27.002  1.00  0.00     0.293 HD
ENDBRANCH  10  24
ENDBRANCH   3   5
ENDBRANCH   2   3
ENDBRANCH   1   2
BRANCH   1  26
ATOM     26  C   UNL A   1      34.074  31.740  27.969  1.00  0.00     0.275 C 
BRANCH  26  27
ATOM     27  O   UNL A   1      35.173  30.810  28.011  1.00  0.00    -0.458 OA
BRANCH  27  28
ATOM     28  C   UNL A   1      35.914  30.828  29.143  1.00  0.00     0.338 C 
ATOM     29  O   UNL A   1      35.611  31.323  30.215  1.00  0.00    -0.246 OA
BRANCH  28  30
ATOM     30  C   UNL A   1      37.193  30.136  28.914  1.00  0.00     0.060 A 
ATOM     31  C   UNL A   1      37.901  29.650  30.005  1.00  0.00     0.016 A 
ATOM     32  C   UNL A   1      37.756  30.089  27.636  1.00  0.00     0.016 A 
ATOM     33  C   UNL A   1      39.209  29.188  29.821  1.00  0.00     0.010 A 
ATOM     34  C   UNL A   1      39.047  29.560  27.456  1.00  0.00     0.010 A 
ATOM     35  C   UNL A   1      39.820  29.143  28.552  1.00  0.00    -0.014 A 
BRANCH  35  36
ATOM     36  C   UNL A   1      41.258  28.717  28.398  1.00  0.00     0.031 A 
ATOM     37  C   UNL A   1      42.404  29.681  28.654  1.00  0.00     0.074 A 
ATOM     38  C   UNL A   1      41.572  27.442  28.074  1.00  0.00     0.049 A 
ATOM     39  N   UNL A   1      43.684  29.532  28.405  1.00  0.00    -0.248 NA
ATOM     40  C   UNL A   1      42.071  30.979  29.262  1.00  0.00     0.031 C 
ATOM     41  C   UNL A   1      40.610  26.365  27.840  1.00  0.00     0.029 A 
ATOM     42  N   UNL A   1      42.792  26.827  27.909  1.00  0.00    -0.354 N 
ATOM     43  C   UNL A   1      44.295  30.737  28.751  1.00  0.00     0.074 A 
ATOM     44  C   UNL A   1      43.242  31.603  29.241  1.00  0.00     0.031 C 
ATOM     45  C   UNL A   1      41.268  25.213  27.652  1.00  0.00     0.029 A 
ATOM     46  C   UNL A   1      42.700  25.485  27.614  1.00  0.00     0.049 A 
ATOM     47  H   UNL A   1      43.650  27.301  27.993  1.00  0.00     0.167 HD
ATOM     48  C   UNL A   1      45.602  31.093  28.668  1.00  0.00     0.037 A 
ATOM     49  C   UNL A   1      43.640  24.573  27.291  1.00  0.00     0.037 A 
ATOM     50  C   UNL A   1      46.669  30.211  28.258  1.00  0.00     0.049 A 
ATOM     51  C   UNL A   1      45.074  24.995  27.161  1.00  0.00     0.074 A 
ATOM     52  C   UNL A   1      48.025  30.486  28.164  1.00  0.00     0.029 A 
ATOM     53  N   UNL A   1      46.511  28.883  27.896  1.00  0.00    -0.354 N 
ATOM     54  N   UNL A   1      45.611  26.166  27.397  1.00  0.00    -0.248 NA
ATOM     55  C   UNL A   1      46.023  23.981  26.679  1.00  0.00     0.031 C 
ATOM     56  C   UNL A   1      48.680  29.334  27.711  1.00  0.00     0.029 A 
ATOM     57  C   UNL A   1      47.739  28.331  27.564  1.00  0.00     0.049 A 
ATOM     58  H   UNL A   1      45.652  28.402  27.878  1.00  0.00     0.167 HD
ATOM     59  C   UNL A   1      46.961  26.031  27.091  1.00  0.00     0.074 A 
ATOM     60  C   UNL A   1      47.163  24.658  26.676  1.00  0.00     0.031 C 
ATOM     61  C   UNL A   1      47.940  26.967  27.143  1.00  0.00     0.037 A 
BRANCH  48  62
ATOM     62  C   UNL A   1      45.967  32.522  28.985  1.00  0.00     0.058 A 
ATOM     63  C   UNL A   1      45.935  33.541  28.021  1.00  0.00     0.135 A 
ATOM     64  C   UNL A   1      46.308  32.884  30.302  1.00  0.00     0.135 A 
ATOM     65  F   UNL A   1      45.620  33.255  26.749  1.00  0.00    -0.206 F 
ATOM     66  C   UNL A   1      46.263  34.857  28.340  1.00  0.00     0.059 A 
ATOM     67  C   UNL A   1      46.611  34.197  30.650  1.00  0.00     0.059 A 
ATOM     68  F   UNL A   1      46.342  31.955  31.270  1.00  0.00    -0.206 F 
ATOM     69  C   UNL A   1      46.606  35.175  29.656  1.00  0.00     0.060 A 
BRANCH  69  70
ATOM     70  S   UNL A   1      47.045  36.881  30.055  1.00  0.00     0.124 S 
ATOM     71  O   UNL A   1      47.595  37.343  28.785  1.00  0.00    -0.237 OA
ATOM     72  O   UNL A   1      45.760  37.457  30.437  1.00  0.00    -0.237 OA
ATOM     73  O   UNL A   1      48.011  36.739  31.141  1.00  0.00    -0.744 OA
ENDBRANCH  69  70
ENDBRANCH  48  62
BRANCH  49  74
ATOM     74  C   UNL A   1      43.233  23.170  27.005  1.00  0.00     0.058 A 
ATOM     75  C   UNL A   1      43.206  22.681  25.692  1.00  0.00     0.135 A 
ATOM     76  C   UNL A   1      42.906  22.281  28.043  1.00  0.00     0.135 A 
ATOM     77  F   UNL A   1      43.491  23.496  24.665  1.00  0.00    -0.206 F 
ATOM     78  C   UNL A   1      42.882  21.355  25.417  1.00  0.00     0.059 A 
ATOM     79  C   UNL A   1      42.610  20.946  27.795  1.00  0.00     0.059 A 
ATOM     80  F   UNL A   1      42.922  22.701  29.317  1.00  0.00    -0.206 F 
ATOM     81  C   UNL A   1      42.597  20.494  26.477  1.00  0.00     0.060 A 
BRANCH  81  82
ATOM     82  S   UNL A   1      42.276  18.752  26.124  1.00  0.00     0.124 S 
ATOM     83  O   UNL A   1      43.245  18.484  25.069  1.00  0.00    -0.237 OA
ATOM     84  O   UNL A   1      42.540  18.120  27.412  1.00  0.00    -0.237 OA
ATOM     85  O   UNL A   1      40.874  18.750  25.711  1.00  0.00    -0.744 OA
ENDBRANCH  81  82
ENDBRANCH  49  74
BRANCH  61  86
ATOM     86  C   UNL A   1      49.327  26.536  26.756  1.00  0.00     0.058 A 
ATOM     87  C   UNL A   1      50.227  26.023  27.703  1.00  0.00     0.135 A 
ATOM     88  C   UNL A   1      49.751  26.608  25.419  1.00  0.00     0.135 A 
ATOM     89  F   UNL A   1      49.876  25.945  28.996  1.00  0.00    -0.206 F 
ATOM     90  C   UNL A   1      51.508  25.615  27.341  1.00  0.00     0.059 A 
ATOM     91  C   UNL A   1      51.019  26.185  25.032  1.00  0.00     0.059 A 
ATOM     92  F   UNL A   1      48.927  27.086  24.473  1.00  0.00    -0.206 F 
ATOM     93  C   UNL A   1      51.895  25.699  26.003  1.00  0.00     0.060 A 
BRANCH  93  94
ATOM     94  S   UNL A   1      53.550  25.142  25.542  1.00  0.00     0.124 S 
ATOM     95  O   UNL A   1      54.323  25.503  26.726  1.00  0.00    -0.237 OA
ATOM     96  O   UNL A   1      53.350  23.711  25.327  1.00  0.00    -0.237 OA
ATOM     97  O   UNL A   1      53.845  25.914  24.339  1.00  0.00    -0.744 OA
ENDBRANCH  93  94
ENDBRANCH  61  86
ENDBRANCH  35  36
ENDBRANCH  28  30
ENDBRANCH  27  28
ENDBRANCH  26  27
ENDBRANCH   1  26
TORSDOF 21
ENDMDL
MODEL 2
REMARK VINA RESULT:     -10.5      1.172      2.152
REMARK SMILES CCN(CC(C)(C)O)C(=O)Nc1ccc(C(=O)OCCOC(=O)c2ccc(-c3c4nc(c(-c5c(F)cc(S(=O)(=O)[O-])cc5F)c5ccc([nH]5)c(-c5c(F)cc(S(=O)(=O)[O-])cc5F)c5nc(c(-c6c(F)cc(S(=O)(=O)[O-])cc6F)c6ccc3[nH]6)C=C5)C=C4)cc2)c(O)c1
REMARK SMILES IDX 19 1 18 2 16 3 17 4 15 5 12 6 13 7 92 8 14 9 90 10 11 11
REMARK SMILES IDX 9 12 10 13 3 15 2 16 1 17 4 18 5 19 6 20 7 21 8 22 91 24
REMARK SMILES IDX 20 26 21 27 22 28 23 29 24 30 25 31 89 32 26 33 88 34 27 35
REMARK SMILES IDX 28 36 29 37 82 38 30 39 87 40 81 41 83 42 31 43 86 44 80 45
REMARK SMILES IDX 79 46 32 48 66 49 45 50 65 51 46 52 49 53 64 54 84 55 47 56
REMARK SMILES IDX 48 57 63 59 85 60 50 61 33 62 34 63 43 64 35 65 36 66 42 67
REMARK SMILES IDX 44 68 37 69 38 70 39 71 40 72 41 73 67 74 68 75 77 76 69 77
REMARK SMILES IDX 70 78 76 79 78 80 71 81 72 82 73 83 74 84 75 85 51 86 52 87
REMARK SMILES IDX 61 88 53 89 54 90 60 91 62 92 55 93 56 94 57 95 58 96 59 97
REMARK H PARENT 11 14 8 23 91 25 83 47 49 58
REMARK Flexibility Score: inf
ROOT
ATOM      1  C   UNL A   1      32.788  30.589  27.145  1.00  0.00     0.275 C 
ENDROOT
BRANCH   1   2
ATOM      2  O   UNL A   1      32.959  30.279  25.746  1.00  0.00    -0.458 OA
BRANCH   2   3
ATOM      3  C   UNL A   1      31.860  29.784  25.116  1.00  0.00     0.342 C 
ATOM      4  O   UNL A   1      30.780  30.333  25.024  1.00  0.00    -0.246 OA
BRANCH   3   5
ATOM      5  C   UNL A   1      32.194  28.514  24.424  1.00  0.00     0.101 A 
ATOM      6  C   UNL A   1      32.475  26.126  22.938  1.00  0.00     0.046 A 
ATOM      7  C   UNL A   1      31.437  26.278  23.845  1.00  0.00     0.027 A 
ATOM      8  C   UNL A   1      33.467  27.114  22.904  1.00  0.00     0.073 A 
ATOM      9  C   UNL A   1      31.285  27.463  24.576  1.00  0.00     0.022 A 
ATOM     10  C   UNL A   1      33.319  28.308  23.621  1.00  0.00     0.132 A 
BRANCH   6  11
ATOM     11  N   UNL A   1      32.654  25.006  22.120  1.00  0.00    -0.308 N 
ATOM     12  C   UNL A   1      33.077  23.722  22.208  1.00  0.00     0.321 C 
ATOM     13  O   UNL A   1      33.384  23.219  21.118  1.00  0.00    -0.248 OA
ATOM     14  H   UNL A   1      32.393  25.215  21.194  1.00  0.00     0.171 HD
BRANCH  12  15
ATOM     15  N   UNL A   1      33.019  22.951  23.341  1.00  0.00    -0.322 N 
BRANCH  15  16
ATOM     16  C   UNL A   1      31.724  22.895  24.042  1.00  0.00     0.118 C 
ATOM     17  C   UNL A   1      31.840  22.332  25.455  1.00  0.00     0.027 C 
ENDBRANCH  15  16
BRANCH  15  18
ATOM     18  C   UNL A   1      34.082  22.191  24.007  1.00  0.00     0.155 C 
BRANCH  18  19
ATOM     19  C   UNL A   1      35.394  23.018  24.226  1.00  0.00     0.077 C 
ATOM     20  C   UNL A   1      35.188  24.385  24.899  1.00  0.00     0.043 C 
ATOM     21  C   UNL A   1      36.409  22.161  24.975  1.00  0.00     0.043 C 
BRANCH  19  22
ATOM     22  O   UNL A   1      35.988  23.289  22.944  1.00  0.00    -0.389 OA
ATOM     23  H   UNL A   1      35.910  22.506  22.379  1.00  0.00     0.211 HD
ENDBRANCH  19  22
ENDBRANCH  18  19
ENDBRANCH  15  18
ENDBRANCH  12  15
ENDBRANCH   6  11
BRANCH  10  24
ATOM     24  O   UNL A   1      34.327  29.222  23.473  1.00  0.00    -0.507 OA
ATOM     25  H   UNL A   1      34.141  30.070  23.122  1.00  0.00     0.293 HD
ENDBRANCH  10  24
ENDBRANCH   3   5
ENDBRANCH   2   3
ENDBRANCH   1   2
BRANCH   1  26
ATOM     26  C   UNL A   1      34.053  31.234  27.714  1.00  0.00     0.275 C 
BRANCH  26  27
ATOM     27  O   UNL A   1      34.923  30.250  28.304  1.00  0.00    -0.458 OA
BRANCH  27  28
ATOM     28  C   UNL A   1      35.858  30.729  29.156  1.00  0.00     0.338 C 
ATOM     29  O   UNL A   1      35.710  31.590  30.008  1.00  0.00    -0.246 OA
BRANCH  28  30
ATOM     30  C   UNL A   1      37.142  30.047  28.924  1.00  0.00     0.060 A 
ATOM     31  C   UNL A   1      37.918  29.682  30.016  1.00  0.00     0.016 A 
ATOM     32  C   UNL A   1      37.639  29.891  27.628  1.00  0.00     0.016 A 
ATOM     33  C   UNL A   1      39.227  29.234  29.805  1.00  0.00     0.010 A 
ATOM     34  C   UNL A   1      38.932  29.376  27.428  1.00  0.00     0.010 A 
ATOM     35  C   UNL A   1      39.773  29.083  28.515  1.00  0.00    -0.014 A 
BRANCH  35  36
ATOM     36  C   UNL A   1      41.211  28.675  28.324  1.00  0.00     0.031 A 
ATOM     37  C   UNL A   1      42.350  29.658  28.540  1.00  0.00     0.074 A 
ATOM     38  C   UNL A   1      41.535  27.403  28.001  1.00  0.00     0.049 A 
ATOM     39  N   UNL A   1      43.625  29.525  28.256  1.00  0.00    -0.248 NA
ATOM     40  C   UNL A   1      42.016  30.956  29.146  1.00  0.00     0.031 C 
ATOM     41  C   UNL A   1      40.582  26.310  27.803  1.00  0.00     0.029 A 
ATOM     42  N   UNL A   1      42.758  26.803  27.807  1.00  0.00    -0.354 N 
ATOM     43  C   UNL A   1      44.228  30.742  28.575  1.00  0.00     0.074 A 
ATOM     44  C   UNL A   1      43.177  31.596  29.087  1.00  0.00     0.031 C 
ATOM     45  C   UNL A   1      41.251  25.166  27.606  1.00  0.00     0.029 A 
ATOM     46  C   UNL A   1      42.678  25.458  27.525  1.00  0.00     0.049 A 
ATOM     47  H   UNL A   1      43.611  27.290  27.863  1.00  0.00     0.167 HD
ATOM     48  C   UNL A   1      45.527  31.116  28.452  1.00  0.00     0.037 A 
ATOM     49  C   UNL A   1      43.621  24.557  27.183  1.00  0.00     0.037 A 
ATOM     50  C   UNL A   1      46.595  30.245  28.020  1.00  0.00     0.049 A 
ATOM     51  C   UNL A   1      45.045  24.998  27.009  1.00  0.00     0.074 A 
ATOM     52  C   UNL A   1      47.944  30.538  27.885  1.00  0.00     0.029 A 
ATOM     53  N   UNL A   1      46.445  28.912  27.672  1.00  0.00    -0.354 N 
ATOM     54  N   UNL A   1      45.572  26.178  27.221  1.00  0.00    -0.248 NA
ATOM     55  C   UNL A   1      45.994  23.993  26.509  1.00  0.00     0.031 C 
ATOM     56  C   UNL A   1      48.601  29.393  27.423  1.00  0.00     0.029 A 
ATOM     57  C   UNL A   1      47.672  28.374  27.310  1.00  0.00     0.049 A 
ATOM     58  H   UNL A   1      45.593  28.419  27.682  1.00  0.00     0.167 HD
ATOM     59  C   UNL A   1      46.914  26.060  26.878  1.00  0.00     0.074 A 
ATOM     60  C   UNL A   1      47.124  24.686  26.468  1.00  0.00     0.031 C 
ATOM     61  C   UNL A   1      47.881  27.010  26.894  1.00  0.00     0.037 A 
BRANCH  48  62
ATOM     62  C   UNL A   1      45.880  32.552  28.748  1.00  0.00     0.058 A 
ATOM     63  C   UNL A   1      46.232  32.993  30.032  1.00  0.00     0.135 A 
ATOM     64  C   UNL A   1      45.914  33.496  27.704  1.00  0.00     0.135 A 
ATOM     65  F   UNL A   1      46.215  32.138  31.067  1.00  0.00    -0.206 F 
ATOM     66  C   UNL A   1      46.570  34.322  30.280  1.00  0.00     0.059 A 
ATOM     67  C   UNL A   1      46.275  34.823  27.923  1.00  0.00     0.059 A 
ATOM     68  F   UNL A   1      45.600  33.129  26.452  1.00  0.00    -0.206 F 
ATOM     69  C   UNL A   1      46.582  35.231  29.220  1.00  0.00     0.060 A 
BRANCH  69  70
ATOM     70  S   UNL A   1      47.004  36.955  29.554  1.00  0.00     0.124 S 
ATOM     71  O   UNL A   1      47.501  36.872  30.924  1.00  0.00    -0.237 OA
ATOM     72  O   UNL A   1      48.006  37.239  28.532  1.00  0.00    -0.237 OA
ATOM     73  O   UNL A   1      45.733  37.655  29.391  1.00  0.00    -0.744 OA
ENDBRANCH  69  70
ENDBRANCH  48  62
BRANCH  49  74
ATOM     74  C   UNL A   1      43.227  23.146  26.920  1.00  0.00     0.058 A 
ATOM     75  C   UNL A   1      43.165  22.646  25.612  1.00  0.00     0.135 A 
ATOM     76  C   UNL A   1      42.945  22.260  27.973  1.00  0.00     0.135 A 
ATOM     77  F   UNL A   1      43.405  23.459  24.571  1.00  0.00    -0.206 F 
ATOM     78  C   UNL A   1      42.853  21.315  25.356  1.00  0.00     0.059 A 
ATOM     79  C   UNL A   1      42.662  20.919  27.745  1.00  0.00     0.059 A 
ATOM     80  F   UNL A   1      42.996  22.690  29.244  1.00  0.00    -0.206 F 
ATOM     81  C   UNL A   1      42.615  20.457  26.431  1.00  0.00     0.060 A 
BRANCH  81  82
ATOM     82  S   UNL A   1      42.309  18.708  26.100  1.00  0.00     0.124 S 
ATOM     83  O   UNL A   1      40.901  18.723  25.724  1.00  0.00    -0.237 OA
ATOM     84  O   UNL A   1      43.255  18.425  25.026  1.00  0.00    -0.237 OA
ATOM     85  O   UNL A   1      42.616  18.069  27.377  1.00  0.00    -0.744 OA
ENDBRANCH  81  82
ENDBRANCH  49  74
BRANCH  61  86
ATOM     86  C   UNL A   1      49.262  26.596  26.472  1.00  0.00     0.058 A 
ATOM     87  C   UNL A   1      49.756  26.887  25.191  1.00  0.00     0.135 A 
ATOM     88  C   UNL A   1      50.112  25.927  27.367  1.00  0.00     0.135 A 
ATOM     89  F   UNL A   1      48.979  27.515  24.293  1.00  0.00    -0.206 F 
ATOM     90  C   UNL A   1      51.040  26.512  24.805  1.00  0.00     0.059 A 
ATOM     91  C   UNL A   1      51.407  25.561  27.009  1.00  0.00     0.059 A 
ATOM     92  F   UNL A   1      49.690  25.627  28.606  1.00  0.00    -0.206 F 
ATOM     93  C   UNL A   1      51.858  25.850  25.721  1.00  0.00     0.060 A 
BRANCH  93  94
ATOM     94  S   UNL A   1      53.531  25.392  25.216  1.00  0.00     0.124 S 
ATOM     95  O   UNL A   1      54.334  26.387  25.917  1.00  0.00    -0.237 OA
ATOM     96  O   UNL A   1      53.644  24.022  25.711  1.00  0.00    -0.237 OA
ATOM     97  O   UNL A   1      53.494  25.524  23.762  1.00  0.00    -0.744 OA
ENDBRANCH  93  94
ENDBRANCH  61  86
ENDBRANCH  35  36
ENDBRANCH  28  30
ENDBRANCH  27  28
ENDBRANCH  26  27
ENDBRANCH   1  26
TORSDOF 21
ENDMDL
MODEL 3
REMARK VINA RESULT:     -10.3      4.930     12.030
REMARK SMILES CCN(CC(C)(C)O)C(=O)Nc1ccc(C(=O)OCCOC(=O)c2ccc(-c3c4nc(c(-c5c(F)cc(S(=O)(=O)[O-])cc5F)c5ccc([nH]5)c(-c5c(F)cc(S(=O)(=O)[O-])cc5F)c5nc(c(-c6c(F)cc(S(=O)(=O)[O-])cc6F)c6ccc3[nH]6)C=C5)C=C4)cc2)c(O)c1
REMARK SMILES IDX 19 1 18 2 16 3 17 4 15 5 12 6 13 7 92 8 14 9 90 10 11 11
REMARK SMILES IDX 9 12 10 13 3 15 2 16 1 17 4 18 5 19 6 20 7 21 8 22 91 24
REMARK SMILES IDX 20 26 21 27 22 28 23 29 24 30 25 31 89 32 26 33 88 34 27 35
REMARK SMILES IDX 28 36 29 37 82 38 30 39 87 40 81 41 83 42 31 43 86 44 80 45
REMARK SMILES IDX 79 46 32 48 66 49 45 50 65 51 46 52 49 53 64 54 84 55 47 56
REMARK SMILES IDX 48 57 63 59 85 60 50 61 33 62 34 63 43 64 35 65 36 66 42 67
REMARK SMILES IDX 44 68 37 69 38 70 39 71 40 72 41 73 67 74 68 75 77 76 69 77
REMARK SMILES IDX 70 78 76 79 78 80 71 81 72 82 73 83 74 84 75 85 51 86 52 87
REMARK SMILES IDX 61 88 53 89 54 90 60 91 62 92 55 93 56 94 57 95 58 96 59 97
REMARK H PARENT 11 14 8 23 91 25 83 47 49 58
REMARK Flexibility Score: inf
ROOT
ATOM      1  C   UNL A   1      41.950  20.202  26.445  1.00  0.00     0.275 C 
ENDROOT
BRANCH   1   2
ATOM      2  O   UNL A   1      42.934  21.255  26.365  1.00  0.00    -0.458 OA
BRANCH   2   3
ATOM      3  C   UNL A   1      43.885  21.096  25.405  1.00  0.00     0.342 C 
ATOM      4  O   UNL A   1      44.114  20.077  24.784  1.00  0.00    -0.246 OA
BRANCH   3   5
ATOM      5  C   UNL A   1      44.538  22.397  25.110  1.00  0.00     0.101 A 
ATOM      6  C   UNL A   1      45.682  24.974  24.917  1.00  0.00     0.046 A 
ATOM      7  C   UNL A   1      44.332  24.817  25.196  1.00  0.00     0.027 A 
ATOM      8  C   UNL A   1      46.417  23.834  24.569  1.00  0.00     0.073 A 
ATOM      9  C   UNL A   1      43.762  23.543  25.305  1.00  0.00     0.022 A 
ATOM     10  C   UNL A   1      45.861  22.555  24.686  1.00  0.00     0.132 A 
BRANCH   6  11
ATOM     11  N   UNL A   1      46.341  26.207  24.861  1.00  0.00    -0.308 N 
ATOM     12  C   UNL A   1      46.320  27.416  25.473  1.00  0.00     0.321 C 
ATOM     13  O   UNL A   1      46.876  28.315  24.826  1.00  0.00    -0.248 OA
ATOM     14  H   UNL A   1      47.034  26.192  24.162  1.00  0.00     0.171 HD
BRANCH  12  15
ATOM     15  N   UNL A   1      45.898  27.640  26.758  1.00  0.00    -0.322 N 
BRANCH  15  16
ATOM     16  C   UNL A   1      46.929  27.615  27.811  1.00  0.00     0.118 C 
ATOM     17  C   UNL A   1      46.946  26.305  28.592  1.00  0.00     0.027 C 
ENDBRANCH  15  16
BRANCH  15  18
ATOM     18  C   UNL A   1      44.541  27.859  27.269  1.00  0.00     0.155 C 
BRANCH  18  19
ATOM     19  C   UNL A   1      44.062  29.345  27.149  1.00  0.00     0.077 C 
ATOM     20  C   UNL A   1      42.607  29.517  26.684  1.00  0.00     0.043 C 
ATOM     21  C   UNL A   1      44.328  30.066  28.466  1.00  0.00     0.043 C 
BRANCH  19  22
ATOM     22  O   UNL A   1      44.877  30.014  26.170  1.00  0.00    -0.389 OA
ATOM     23  H   UNL A   1      45.786  29.680  26.223  1.00  0.00     0.211 HD
ENDBRANCH  19  22
ENDBRANCH  18  19
ENDBRANCH  15  18
ENDBRANCH  12  15
ENDBRANCH   6  11
BRANCH  10  24
ATOM     24  O   UNL A   1      46.688  21.513  24.368  1.00  0.00    -0.507 OA
ATOM     25  H   UNL A   1      46.335  20.739  23.974  1.00  0.00     0.293 HD
ENDBRANCH  10  24
ENDBRANCH   3   5
ENDBRANCH   2   3
ENDBRANCH   1   2
BRANCH   1  26
ATOM     26  C   UNL A   1      40.537  20.786  26.466  1.00  0.00     0.275 C 
BRANCH  26  27
ATOM     27  O   UNL A   1      40.510  22.113  25.908  1.00  0.00    -0.458 OA
BRANCH  27  28
ATOM     28  C   UNL A   1      39.309  22.738  25.938  1.00  0.00     0.338 C 
ATOM     29  O   UNL A   1      38.265  22.352  25.440  1.00  0.00    -0.246 OA
BRANCH  28  30
ATOM     30  C   UNL A   1      39.420  23.999  26.688  1.00  0.00     0.060 A 
ATOM     31  C   UNL A   1      40.268  24.992  26.215  1.00  0.00     0.016 A 
ATOM     32  C   UNL A   1      38.793  24.145  27.928  1.00  0.00     0.016 A 
ATOM     33  C   UNL A   1      40.546  26.097  27.026  1.00  0.00     0.010 A 
ATOM     34  C   UNL A   1      39.031  25.294  28.704  1.00  0.00     0.010 A 
ATOM     35  C   UNL A   1      39.951  26.272  28.291  1.00  0.00    -0.014 A 
BRANCH  35  36
ATOM     36  C   UNL A   1      40.332  27.432  29.175  1.00  0.00     0.031 A 
ATOM     37  C   UNL A   1      41.661  27.464  29.914  1.00  0.00     0.074 A 
ATOM     38  C   UNL A   1      39.521  28.506  29.299  1.00  0.00     0.049 A 
ATOM     39  N   UNL A   1      42.073  28.295  30.842  1.00  0.00    -0.248 NA
ATOM     40  C   UNL A   1      42.648  26.430  29.570  1.00  0.00     0.031 C 
ATOM     41  C   UNL A   1      38.232  28.676  28.628  1.00  0.00     0.029 A 
ATOM     42  N   UNL A   1      39.670  29.673  30.013  1.00  0.00    -0.354 N 
ATOM     43  C   UNL A   1      43.328  27.842  31.246  1.00  0.00     0.074 A 
ATOM     44  C   UNL A   1      43.614  26.667  30.449  1.00  0.00     0.031 C 
ATOM     45  C   UNL A   1      37.753  29.901  28.887  1.00  0.00     0.029 A 
ATOM     46  C   UNL A   1      38.628  30.559  29.851  1.00  0.00     0.049 A 
ATOM     47  H   UNL A   1      40.448  29.858  30.586  1.00  0.00     0.167 HD
ATOM     48  C   UNL A   1      44.163  28.348  32.189  1.00  0.00     0.037 A 
ATOM     49  C   UNL A   1      38.357  31.740  30.442  1.00  0.00     0.037 A 
ATOM     50  C   UNL A   1      43.923  29.565  32.930  1.00  0.00     0.049 A 
ATOM     51  C   UNL A   1      39.268  32.263  31.514  1.00  0.00     0.074 A 
ATOM     52  C   UNL A   1      44.726  30.160  33.891  1.00  0.00     0.029 A 
ATOM     53  N   UNL A   1      42.813  30.382  32.783  1.00  0.00    -0.354 N 
ATOM     54  N   UNL A   1      40.399  31.764  31.948  1.00  0.00    -0.248 NA
ATOM     55  C   UNL A   1      38.843  33.490  32.205  1.00  0.00     0.031 C 
ATOM     56  C   UNL A   1      44.085  31.317  34.349  1.00  0.00     0.029 A 
ATOM     57  C   UNL A   1      42.904  31.466  33.644  1.00  0.00     0.049 A 
ATOM     58  H   UNL A   1      42.071  30.218  32.158  1.00  0.00     0.167 HD
ATOM     59  C   UNL A   1      40.820  32.613  32.965  1.00  0.00     0.074 A 
ATOM     60  C   UNL A   1      39.836  33.672  33.066  1.00  0.00     0.031 C 
ATOM     61  C   UNL A   1      41.921  32.516  33.750  1.00  0.00     0.037 A 
BRANCH  48  62
ATOM     62  C   UNL A   1      45.411  27.569  32.521  1.00  0.00     0.058 A 
ATOM     63  C   UNL A   1      45.417  26.509  33.440  1.00  0.00     0.135 A 
ATOM     64  C   UNL A   1      46.619  27.865  31.861  1.00  0.00     0.135 A 
ATOM     65  F   UNL A   1      44.295  26.184  34.101  1.00  0.00    -0.206 F 
ATOM     66  C   UNL A   1      46.579  25.793  33.720  1.00  0.00     0.059 A 
ATOM     67  C   UNL A   1      47.786  27.145  32.105  1.00  0.00     0.059 A 
ATOM     68  F   UNL A   1      46.671  28.859  30.962  1.00  0.00    -0.206 F 
ATOM     69  C   UNL A   1      47.760  26.123  33.052  1.00  0.00     0.060 A 
BRANCH  69  70
ATOM     70  S   UNL A   1      49.265  25.201  33.436  1.00  0.00     0.124 S 
ATOM     71  O   UNL A   1      49.773  24.905  32.099  1.00  0.00    -0.237 OA
ATOM     72  O   UNL A   1      50.040  26.167  34.208  1.00  0.00    -0.237 OA
ATOM     73  O   UNL A   1      48.777  24.049  34.189  1.00  0.00    -0.744 OA
ENDBRANCH  69  70
ENDBRANCH  48  62
BRANCH  49  74
ATOM     74  C   UNL A   1      37.122  32.482  30.068  1.00  0.00     0.058 A 
ATOM     75  C   UNL A   1      35.884  32.154  30.636  1.00  0.00     0.135 A 
ATOM     76  C   UNL A   1      37.165  33.560  29.167  1.00  0.00     0.135 A 
ATOM     77  F   UNL A   1      35.788  31.120  31.486  1.00  0.00    -0.206 F 
ATOM     78  C   UNL A   1      34.733  32.877  30.337  1.00  0.00     0.059 A 
ATOM     79  C   UNL A   1      36.036  34.315  28.877  1.00  0.00     0.059 A 
ATOM     80  F   UNL A   1      38.329  33.915  28.600  1.00  0.00    -0.206 F 
ATOM     81  C   UNL A   1      34.823  33.963  29.465  1.00  0.00     0.060 A 
BRANCH  81  82
ATOM     82  S   UNL A   1      33.347  34.959  29.157  1.00  0.00     0.124 S 
ATOM     83  O   UNL A   1      32.626  34.126  28.203  1.00  0.00    -0.237 OA
ATOM     84  O   UNL A   1      32.760  35.062  30.489  1.00  0.00    -0.237 OA
ATOM     85  O   UNL A   1      33.893  36.205  28.624  1.00  0.00    -0.744 OA
ENDBRANCH  81  82
ENDBRANCH  49  74
BRANCH  61  86
ATOM     86  C   UNL A   1      42.133  33.591  34.778  1.00  0.00     0.058 A 
ATOM     87  C   UNL A   1      41.667  33.450  36.094  1.00  0.00     0.135 A 
ATOM     88  C   UNL A   1      42.836  34.762  34.453  1.00  0.00     0.135 A 
ATOM     89  F   UNL A   1      40.979  32.355  36.454  1.00  0.00    -0.206 F 
ATOM     90  C   UNL A   1      41.873  34.442  37.049  1.00  0.00     0.059 A 
ATOM     91  C   UNL A   1      43.072  35.758  35.396  1.00  0.00     0.059 A 
ATOM     92  F   UNL A   1      43.307  34.945  33.209  1.00  0.00    -0.206 F 
ATOM     93  C   UNL A   1      42.578  35.593  36.690  1.00  0.00     0.060 A 
BRANCH  93  94
ATOM     94  S   UNL A   1      42.861  36.861  37.944  1.00  0.00     0.124 S 
ATOM     95  O   UNL A   1      43.544  37.893  37.171  1.00  0.00    -0.237 OA
ATOM     96  O   UNL A   1      41.504  37.185  38.375  1.00  0.00    -0.237 OA
ATOM     97  O   UNL A   1      43.681  36.176  38.940  1.00  0.00    -0.744 OA
ENDBRANCH  93  94
ENDBRANCH  61  86
ENDBRANCH  35  36
ENDBRANCH  28  30
ENDBRANCH  27  28
ENDBRANCH  26  27
ENDBRANCH   1  26
TORSDOF 21
ENDMDL
