MODEL 1
REMARK VINA RESULT:     -10.9      0.000      0.000
REMARK SMILES CCCCCCNC(=O)Oc1cccc(-c2ccc([C@@H](C)C(=O)OCCOC(=O)c3ccc(-c4c5nc(c(-c6c(F)cc(S(=O)(=O)[O-])cc6F)c6ccc([nH]6)c(-c6c(F)cc(S(=O)(=O)[O-])cc6F)c6nc(c(-c7c(F)cc(S(=O)(=O)[O-])cc7F)c7ccc4[nH]7)C=C6)C=C5)cc3)cc2)c1
REMARK SMILES IDX 20 1 21 2 19 3 16 4 17 5 97 6 18 7 96 8 15 9 11 10 12 11
REMARK SMILES IDX 98 12 13 13 14 14 10 15 8 16 7 17 9 19 6 20 5 21 4 22 3 23
REMARK SMILES IDX 2 24 1 25 22 26 23 27 24 28 25 29 26 30 27 31 28 32 29 33
REMARK SMILES IDX 30 34 31 35 95 36 32 37 94 38 33 39 34 40 35 41 88 42 36 43
REMARK SMILES IDX 93 44 87 45 89 46 37 47 92 48 86 49 85 50 38 52 72 53 51 54
REMARK SMILES IDX 71 55 52 56 55 57 70 58 90 59 53 60 54 61 69 63 91 64 56 65
REMARK SMILES IDX 39 66 40 67 49 68 41 69 42 70 48 71 50 72 43 73 44 74 45 75
REMARK SMILES IDX 46 76 47 77 73 78 74 79 83 80 75 81 76 82 82 83 84 84 77 85
REMARK SMILES IDX 78 86 79 87 80 88 81 89 57 90 58 91 67 92 59 93 60 94 66 95
REMARK SMILES IDX 68 96 61 97 62 98 63 99 64 100 65 101
REMARK H PARENT 7 18 89 51 55 62
REMARK Flexibility Score: inf
ROOT
ATOM      1  C   UNL A   1      35.275  32.159  28.874  1.00  0.00     0.126 C 
ATOM      2  C   UNL A   1      36.249  32.938  27.992  1.00  0.00     0.025 C 
ENDROOT
BRANCH   1   3
ATOM      3  C   UNL A   1      34.464  31.141  28.089  1.00  0.00    -0.034 A 
ATOM      4  C   UNL A   1      32.996  29.212  26.600  1.00  0.00    -0.018 A 
ATOM      5  C   UNL A   1      32.450  30.469  26.899  1.00  0.00     0.009 A 
ATOM      6  C   UNL A   1      34.285  28.930  27.073  1.00  0.00     0.009 A 
ATOM      7  C   UNL A   1      33.171  31.420  27.628  1.00  0.00     0.005 A 
ATOM      8  C   UNL A   1      35.009  29.880  27.803  1.00  0.00     0.005 A 
BRANCH   4   9
ATOM      9  C   UNL A   1      32.247  28.238  25.790  1.00  0.00    -0.015 A 
ATOM     10  C   UNL A   1      31.693  25.961  25.161  1.00  0.00     0.133 A 
ATOM     11  C   UNL A   1      30.804  26.414  24.188  1.00  0.00     0.047 A 
ATOM     12  C   UNL A   1      32.425  26.853  25.948  1.00  0.00     0.056 A 
ATOM     13  C   UNL A   1      30.620  27.782  24.019  1.00  0.00     0.004 A 
ATOM     14  C   UNL A   1      31.334  28.682  24.813  1.00  0.00     0.009 A 
BRANCH  10  15
ATOM     15  O   UNL A   1      31.899  24.574  25.229  1.00  0.00    -0.410 OA
BRANCH  15  16
ATOM     16  C   UNL A   1      31.780  23.974  26.474  1.00  0.00     0.412 C 
ATOM     17  N   UNL A   1      32.909  23.297  26.852  1.00  0.00    -0.321 N 
ATOM     18  H   UNL A   1      32.899  22.896  27.751  1.00  0.00     0.167 HD
ATOM     19  O   UNL A   1      30.787  23.986  27.191  1.00  0.00    -0.224 OA
BRANCH  17  20
ATOM     20  C   UNL A   1      34.116  23.109  26.073  1.00  0.00     0.119 C 
BRANCH  20  21
ATOM     21  C   UNL A   1      33.880  22.266  24.821  1.00  0.00     0.021 C 
BRANCH  21  22
ATOM     22  C   UNL A   1      34.137  20.763  24.993  1.00  0.00     0.002 C 
BRANCH  22  23
ATOM     23  C   UNL A   1      33.151  19.832  24.279  1.00  0.00    -0.000 C 
BRANCH  23  24
ATOM     24  C   UNL A   1      32.975  18.447  24.905  1.00  0.00    -0.003 C 
ATOM     25  C   UNL A   1      33.743  17.353  24.179  1.00  0.00     0.004 C 
ENDBRANCH  23  24
ENDBRANCH  22  23
ENDBRANCH  21  22
ENDBRANCH  20  21
ENDBRANCH  17  20
ENDBRANCH  15  16
ENDBRANCH  10  15
ENDBRANCH   4   9
ENDBRANCH   1   3
BRANCH   1  26
ATOM     26  C   UNL A   1      34.476  33.129  29.737  1.00  0.00     0.313 C 
ATOM     27  O   UNL A   1      34.064  34.199  29.302  1.00  0.00    -0.252 OA
BRANCH  26  28
ATOM     28  O   UNL A   1      34.230  32.671  30.992  1.00  0.00    -0.462 OA
BRANCH  28  29
ATOM     29  C   UNL A   1      35.051  33.201  32.050  1.00  0.00     0.274 C 
BRANCH  29  30
ATOM     30  C   UNL A   1      35.896  32.101  32.694  1.00  0.00     0.275 C 
BRANCH  30  31
ATOM     31  O   UNL A   1      37.062  31.818  31.903  1.00  0.00    -0.458 OA
BRANCH  31  32
ATOM     32  C   UNL A   1      37.117  30.566  31.388  1.00  0.00     0.338 C 
ATOM     33  O   UNL A   1      36.217  29.752  31.314  1.00  0.00    -0.246 OA
BRANCH  32  34
ATOM     34  C   UNL A   1      38.450  30.343  30.813  1.00  0.00     0.060 A 
ATOM     35  C   UNL A   1      38.589  30.389  29.425  1.00  0.00     0.016 A 
ATOM     36  C   UNL A   1      39.533  30.014  31.627  1.00  0.00     0.016 A 
ATOM     37  C   UNL A   1      39.814  30.090  28.836  1.00  0.00     0.010 A 
ATOM     38  C   UNL A   1      40.768  29.730  31.037  1.00  0.00     0.010 A 
ATOM     39  C   UNL A   1      40.912  29.755  29.639  1.00  0.00    -0.014 A 
BRANCH  39  40
ATOM     40  C   UNL A   1      42.205  29.397  29.010  1.00  0.00     0.031 A 
ATOM     41  C   UNL A   1      42.428  28.005  28.497  1.00  0.00     0.074 A 
ATOM     42  C   UNL A   1      43.170  30.328  28.894  1.00  0.00     0.049 A 
ATOM     43  N   UNL A   1      43.513  27.471  27.999  1.00  0.00    -0.248 NA
ATOM     44  C   UNL A   1      41.276  27.091  28.554  1.00  0.00     0.031 C 
ATOM     45  C   UNL A   1      43.049  31.724  29.316  1.00  0.00     0.029 A 
ATOM     46  N   UNL A   1      44.442  30.238  28.391  1.00  0.00    -0.354 N 
ATOM     47  C   UNL A   1      43.185  26.153  27.704  1.00  0.00     0.074 A 
ATOM     48  C   UNL A   1      41.803  25.965  28.091  1.00  0.00     0.031 C 
ATOM     49  C   UNL A   1      44.201  32.361  29.049  1.00  0.00     0.029 A 
ATOM     50  C   UNL A   1      45.153  31.409  28.485  1.00  0.00     0.049 A 
ATOM     51  H   UNL A   1      44.811  29.412  28.000  1.00  0.00     0.167 HD
ATOM     52  C   UNL A   1      43.969  25.190  27.162  1.00  0.00     0.037 A 
ATOM     53  C   UNL A   1      46.438  31.676  28.179  1.00  0.00     0.037 A 
ATOM     54  C   UNL A   1      45.340  25.391  26.770  1.00  0.00     0.049 A 
ATOM     55  C   UNL A   1      47.306  30.577  27.636  1.00  0.00     0.074 A 
ATOM     56  C   UNL A   1      46.213  24.486  26.191  1.00  0.00     0.029 A 
ATOM     57  N   UNL A   1      46.040  26.579  26.923  1.00  0.00    -0.354 N 
ATOM     58  N   UNL A   1      46.988  29.332  27.371  1.00  0.00    -0.248 NA
ATOM     59  C   UNL A   1      48.710  30.912  27.365  1.00  0.00     0.031 C 
ATOM     60  C   UNL A   1      47.453  25.117  26.028  1.00  0.00     0.029 A 
ATOM     61  C   UNL A   1      47.342  26.425  26.472  1.00  0.00     0.049 A 
ATOM     62  H   UNL A   1      45.667  27.410  27.297  1.00  0.00     0.167 HD
ATOM     63  C   UNL A   1      48.150  28.736  26.893  1.00  0.00     0.074 A 
ATOM     64  C   UNL A   1      49.174  29.762  26.892  1.00  0.00     0.031 C 
ATOM     65  C   UNL A   1      48.351  27.456  26.492  1.00  0.00     0.037 A 
BRANCH  52  66
ATOM     66  C   UNL A   1      43.364  23.824  27.001  1.00  0.00     0.058 A 
ATOM     67  C   UNL A   1      43.200  22.954  28.089  1.00  0.00     0.135 A 
ATOM     68  C   UNL A   1      42.950  23.377  25.736  1.00  0.00     0.135 A 
ATOM     69  F   UNL A   1      43.594  23.325  29.317  1.00  0.00    -0.206 F 
ATOM     70  C   UNL A   1      42.682  21.672  27.924  1.00  0.00     0.059 A 
ATOM     71  C   UNL A   1      42.409  22.109  25.550  1.00  0.00     0.059 A 
ATOM     72  F   UNL A   1      43.085  24.170  24.661  1.00  0.00    -0.206 F 
ATOM     73  C   UNL A   1      42.299  21.255  26.647  1.00  0.00     0.060 A 
BRANCH  73  74
ATOM     74  S   UNL A   1      41.661  19.579  26.437  1.00  0.00     0.124 S 
ATOM     75  O   UNL A   1      42.441  19.113  25.293  1.00  0.00    -0.237 OA
ATOM     76  O   UNL A   1      41.981  18.954  27.716  1.00  0.00    -0.237 OA
ATOM     77  O   UNL A   1      40.238  19.787  26.185  1.00  0.00    -0.744 OA
ENDBRANCH  73  74
ENDBRANCH  52  66
BRANCH  53  78
ATOM     78  C   UNL A   1      46.975  33.043  28.402  1.00  0.00     0.058 A 
ATOM     79  C   UNL A   1      46.930  34.008  27.387  1.00  0.00     0.135 A 
ATOM     80  C   UNL A   1      47.502  33.422  29.647  1.00  0.00     0.135 A 
ATOM     81  F   UNL A   1      46.445  33.687  26.178  1.00  0.00    -0.206 F 
ATOM     82  C   UNL A   1      47.383  35.306  27.598  1.00  0.00     0.059 A 
ATOM     83  C   UNL A   1      47.943  34.719  29.888  1.00  0.00     0.059 A 
ATOM     84  F   UNL A   1      47.558  32.534  30.652  1.00  0.00    -0.206 F 
ATOM     85  C   UNL A   1      47.882  35.654  28.856  1.00  0.00     0.060 A 
BRANCH  85  86
ATOM     86  S   UNL A   1      48.392  37.363  29.145  1.00  0.00     0.124 S 
ATOM     87  O   UNL A   1      49.504  37.499  28.211  1.00  0.00    -0.237 OA
ATOM     88  O   UNL A   1      47.182  38.108  28.811  1.00  0.00    -0.237 OA
ATOM     89  O   UNL A   1      48.751  37.369  30.560  1.00  0.00    -0.744 OA
ENDBRANCH  85  86
ENDBRANCH  53  78
BRANCH  65  90
ATOM     90  C   UNL A   1      49.729  27.098  26.013  1.00  0.00     0.058 A 
ATOM     91  C   UNL A   1      50.703  26.605  26.895  1.00  0.00     0.135 A 
ATOM     92  C   UNL A   1      50.064  27.209  24.655  1.00  0.00     0.135 A 
ATOM     93  F   UNL A   1      50.433  26.490  28.205  1.00  0.00    -0.206 F 
ATOM     94  C   UNL A   1      51.972  26.252  26.448  1.00  0.00     0.059 A 
ATOM     95  C   UNL A   1      51.320  26.841  24.184  1.00  0.00     0.059 A 
ATOM     96  F   UNL A   1      49.164  27.667  23.771  1.00  0.00    -0.206 F 
ATOM     97  C   UNL A   1      52.272  26.375  25.090  1.00  0.00     0.060 A 
BRANCH  97  98
ATOM     98  S   UNL A   1      53.911  25.883  24.514  1.00  0.00     0.124 S 
ATOM     99  O   UNL A   1      53.842  26.235  23.099  1.00  0.00    -0.237 OA
ATOM    100  O   UNL A   1      54.794  26.710  25.330  1.00  0.00    -0.237 OA
ATOM    101  O   UNL A   1      53.957  24.453  24.804  1.00  0.00    -0.744 OA
ENDBRANCH  97  98
ENDBRANCH  65  90
ENDBRANCH  39  40
ENDBRANCH  32  34
ENDBRANCH  31  32
ENDBRANCH  30  31
ENDBRANCH  29  30
ENDBRANCH  28  29
ENDBRANCH  26  28
ENDBRANCH   1  26
TORSDOF 23
ENDMDL
MODEL 2
REMARK VINA RESULT:     -10.8      6.072     12.343
REMARK SMILES CCCCCCNC(=O)Oc1cccc(-c2ccc([C@@H](C)C(=O)OCCOC(=O)c3ccc(-c4c5nc(c(-c6c(F)cc(S(=O)(=O)[O-])cc6F)c6ccc([nH]6)c(-c6c(F)cc(S(=O)(=O)[O-])cc6F)c6nc(c(-c7c(F)cc(S(=O)(=O)[O-])cc7F)c7ccc4[nH]7)C=C6)C=C5)cc3)cc2)c1
REMARK SMILES IDX 20 1 21 2 19 3 16 4 17 5 97 6 18 7 96 8 15 9 11 10 12 11
REMARK SMILES IDX 98 12 13 13 14 14 10 15 8 16 7 17 9 19 6 20 5 21 4 22 3 23
REMARK SMILES IDX 2 24 1 25 22 26 23 27 24 28 25 29 26 30 27 31 28 32 29 33
REMARK SMILES IDX 30 34 31 35 95 36 32 37 94 38 33 39 34 40 35 41 88 42 36 43
REMARK SMILES IDX 93 44 87 45 89 46 37 47 92 48 86 49 85 50 38 52 72 53 51 54
REMARK SMILES IDX 71 55 52 56 55 57 70 58 90 59 53 60 54 61 69 63 91 64 56 65
REMARK SMILES IDX 39 66 40 67 49 68 41 69 42 70 48 71 50 72 43 73 44 74 45 75
REMARK SMILES IDX 46 76 47 77 73 78 74 79 83 80 75 81 76 82 82 83 84 84 77 85
REMARK SMILES IDX 78 86 79 87 80 88 81 89 57 90 58 91 67 92 59 93 60 94 66 95
REMARK SMILES IDX 68 96 61 97 62 98 63 99 64 100 65 101
REMARK H PARENT 7 18 89 51 55 62
REMARK Flexibility Score: inf
ROOT
ATOM      1  C   UNL A   1      41.199  21.361  26.802  1.00  0.00     0.126 C 
ATOM      2  C   UNL A   1      41.216  20.087  27.646  1.00  0.00     0.025 C 
ENDROOT
BRANCH   1   3
ATOM      3  C   UNL A   1      39.812  21.690  26.271  1.00  0.00    -0.034 A 
ATOM      4  C   UNL A   1      37.212  22.345  25.321  1.00  0.00    -0.018 A 
ATOM      5  C   UNL A   1      37.772  21.079  25.096  1.00  0.00     0.009 A 
ATOM      6  C   UNL A   1      37.984  23.285  26.018  1.00  0.00     0.009 A 
ATOM      7  C   UNL A   1      39.048  20.753  25.565  1.00  0.00     0.005 A 
ATOM      8  C   UNL A   1      39.262  22.962  26.489  1.00  0.00     0.005 A 
BRANCH   4   9
ATOM      9  C   UNL A   1      35.848  22.660  24.866  1.00  0.00    -0.015 A 
ATOM     10  C   UNL A   1      33.441  22.651  25.169  1.00  0.00     0.133 A 
ATOM     11  C   UNL A   1      33.253  23.260  23.931  1.00  0.00     0.047 A 
ATOM     12  C   UNL A   1      34.719  22.333  25.636  1.00  0.00     0.056 A 
ATOM     13  C   UNL A   1      34.361  23.586  23.157  1.00  0.00     0.004 A 
ATOM     14  C   UNL A   1      35.644  23.289  23.623  1.00  0.00     0.009 A 
BRANCH  10  15
ATOM     15  O   UNL A   1      32.284  22.271  25.868  1.00  0.00    -0.410 OA
BRANCH  15  16
ATOM     16  C   UNL A   1      32.034  22.903  27.076  1.00  0.00     0.412 C 
ATOM     17  N   UNL A   1      31.071  23.873  26.984  1.00  0.00    -0.321 N 
ATOM     18  H   UNL A   1      30.815  24.318  27.824  1.00  0.00     0.167 HD
ATOM     19  O   UNL A   1      32.602  22.684  28.138  1.00  0.00    -0.224 OA
BRANCH  17  20
ATOM     20  C   UNL A   1      30.388  24.313  25.784  1.00  0.00     0.119 C 
BRANCH  20  21
ATOM     21  C   UNL A   1      29.994  25.788  25.842  1.00  0.00     0.021 C 
BRANCH  21  22
ATOM     22  C   UNL A   1      30.406  26.619  24.620  1.00  0.00     0.002 C 
BRANCH  22  23
ATOM     23  C   UNL A   1      31.906  26.899  24.480  1.00  0.00    -0.000 C 
BRANCH  23  24
ATOM     24  C   UNL A   1      32.685  27.016  25.792  1.00  0.00    -0.003 C 
ATOM     25  C   UNL A   1      34.054  26.355  25.743  1.00  0.00     0.004 C 
ENDBRANCH  23  24
ENDBRANCH  22  23
ENDBRANCH  21  22
ENDBRANCH  20  21
ENDBRANCH  17  20
ENDBRANCH  15  16
ENDBRANCH  10  15
ENDBRANCH   4   9
ENDBRANCH   1   3
BRANCH   1  26
ATOM     26  C   UNL A   1      42.316  21.304  25.765  1.00  0.00     0.313 C 
ATOM     27  O   UNL A   1      42.909  20.263  25.504  1.00  0.00    -0.252 OA
BRANCH  26  28
ATOM     28  O   UNL A   1      42.543  22.488  25.140  1.00  0.00    -0.462 OA
BRANCH  28  29
ATOM     29  C   UNL A   1      43.906  22.950  25.098  1.00  0.00     0.274 C 
BRANCH  29  30
ATOM     30  C   UNL A   1      44.103  24.167  26.003  1.00  0.00     0.275 C 
BRANCH  30  31
ATOM     31  O   UNL A   1      42.841  24.672  26.470  1.00  0.00    -0.458 OA
BRANCH  31  32
ATOM     32  C   UNL A   1      42.535  25.925  26.056  1.00  0.00     0.338 C 
ATOM     33  O   UNL A   1      42.524  26.350  24.917  1.00  0.00    -0.246 OA
BRANCH  32  34
ATOM     34  C   UNL A   1      42.102  26.719  27.213  1.00  0.00     0.060 A 
ATOM     35  C   UNL A   1      42.691  27.968  27.417  1.00  0.00     0.016 A 
ATOM     36  C   UNL A   1      41.186  26.205  28.130  1.00  0.00     0.016 A 
ATOM     37  C   UNL A   1      42.377  28.710  28.552  1.00  0.00     0.010 A 
ATOM     38  C   UNL A   1      40.859  26.957  29.261  1.00  0.00     0.010 A 
ATOM     39  C   UNL A   1      41.461  28.208  29.485  1.00  0.00    -0.014 A 
BRANCH  39  40
ATOM     40  C   UNL A   1      41.159  28.979  30.712  1.00  0.00     0.031 A 
ATOM     41  C   UNL A   1      40.022  29.959  30.720  1.00  0.00     0.074 A 
ATOM     42  C   UNL A   1      41.903  28.791  31.818  1.00  0.00     0.049 A 
ATOM     43  N   UNL A   1      39.654  30.791  31.660  1.00  0.00    -0.248 NA
ATOM     44  C   UNL A   1      39.189  30.009  29.509  1.00  0.00     0.031 C 
ATOM     45  C   UNL A   1      43.003  27.834  31.940  1.00  0.00     0.029 A 
ATOM     46  N   UNL A   1      41.847  29.397  33.047  1.00  0.00    -0.354 N 
ATOM     47  C   UNL A   1      38.562  31.481  31.147  1.00  0.00     0.074 A 
ATOM     48  C   UNL A   1      38.335  30.978  29.808  1.00  0.00     0.031 C 
ATOM     49  C   UNL A   1      43.517  27.916  33.179  1.00  0.00     0.029 A 
ATOM     50  C   UNL A   1      42.814  28.961  33.918  1.00  0.00     0.049 A 
ATOM     51  H   UNL A   1      41.177  30.080  33.282  1.00  0.00     0.167 HD
ATOM     52  C   UNL A   1      37.820  32.447  31.741  1.00  0.00     0.037 A 
ATOM     53  C   UNL A   1      43.120  29.379  35.162  1.00  0.00     0.037 A 
ATOM     54  C   UNL A   1      38.048  32.932  33.078  1.00  0.00     0.049 A 
ATOM     55  C   UNL A   1      42.323  30.493  35.778  1.00  0.00     0.074 A 
ATOM     56  C   UNL A   1      37.338  33.891  33.780  1.00  0.00     0.029 A 
ATOM     57  N   UNL A   1      39.067  32.498  33.914  1.00  0.00    -0.354 N 
ATOM     58  N   UNL A   1      41.298  31.145  35.280  1.00  0.00    -0.248 NA
ATOM     59  C   UNL A   1      42.729  30.940  37.116  1.00  0.00     0.031 C 
ATOM     60  C   UNL A   1      37.952  34.064  35.027  1.00  0.00     0.029 A 
ATOM     61  C   UNL A   1      39.021  33.186  35.116  1.00  0.00     0.049 A 
ATOM     62  H   UNL A   1      39.725  31.802  33.687  1.00  0.00     0.167 HD
ATOM     63  C   UNL A   1      40.932  32.074  36.247  1.00  0.00     0.074 A 
ATOM     64  C   UNL A   1      41.836  31.889  37.366  1.00  0.00     0.031 C 
ATOM     65  C   UNL A   1      39.939  32.996  36.213  1.00  0.00     0.037 A 
BRANCH  52  66
ATOM     66  C   UNL A   1      36.720  33.064  30.926  1.00  0.00     0.058 A 
ATOM     67  C   UNL A   1      36.975  34.055  29.966  1.00  0.00     0.135 A 
ATOM     68  C   UNL A   1      35.387  32.662  31.115  1.00  0.00     0.135 A 
ATOM     69  F   UNL A   1      38.228  34.487  29.758  1.00  0.00    -0.206 F 
ATOM     70  C   UNL A   1      35.943  34.655  29.249  1.00  0.00     0.059 A 
ATOM     71  C   UNL A   1      34.343  33.231  30.393  1.00  0.00     0.059 A 
ATOM     72  F   UNL A   1      35.088  31.717  32.020  1.00  0.00    -0.206 F 
ATOM     73  C   UNL A   1      34.629  34.243  29.477  1.00  0.00     0.060 A 
BRANCH  73  74
ATOM     74  S   UNL A   1      33.296  35.052  28.567  1.00  0.00     0.124 S 
ATOM     75  O   UNL A   1      34.042  35.970  27.713  1.00  0.00    -0.237 OA
ATOM     76  O   UNL A   1      32.654  33.933  27.884  1.00  0.00    -0.237 OA
ATOM     77  O   UNL A   1      32.499  35.678  29.618  1.00  0.00    -0.744 OA
ENDBRANCH  73  74
ENDBRANCH  52  66
BRANCH  53  78
ATOM     78  C   UNL A   1      44.248  28.744  35.891  1.00  0.00     0.058 A 
ATOM     79  C   UNL A   1      45.546  29.266  35.804  1.00  0.00     0.135 A 
ATOM     80  C   UNL A   1      44.041  27.634  36.725  1.00  0.00     0.135 A 
ATOM     81  F   UNL A   1      45.792  30.320  35.011  1.00  0.00    -0.206 F 
ATOM     82  C   UNL A   1      46.601  28.712  36.521  1.00  0.00     0.059 A 
ATOM     83  C   UNL A   1      45.075  27.075  37.467  1.00  0.00     0.059 A 
ATOM     84  F   UNL A   1      42.813  27.104  36.847  1.00  0.00    -0.206 F 
ATOM     85  C   UNL A   1      46.354  27.620  37.356  1.00  0.00     0.060 A 
BRANCH  85  86
ATOM     86  S   UNL A   1      47.713  26.959  38.346  1.00  0.00     0.124 S 
ATOM     87  O   UNL A   1      47.142  25.707  38.830  1.00  0.00    -0.237 OA
ATOM     88  O   UNL A   1      48.782  26.835  37.361  1.00  0.00    -0.237 OA
ATOM     89  O   UNL A   1      47.922  27.991  39.358  1.00  0.00    -0.744 OA
ENDBRANCH  85  86
ENDBRANCH  53  78
BRANCH  65  90
ATOM     90  C   UNL A   1      39.775  33.870  37.423  1.00  0.00     0.058 A 
ATOM     91  C   UNL A   1      38.954  33.487  38.495  1.00  0.00     0.135 A 
ATOM     92  C   UNL A   1      40.477  35.080  37.531  1.00  0.00     0.135 A 
ATOM     93  F   UNL A   1      38.255  32.343  38.435  1.00  0.00    -0.206 F 
ATOM     94  C   UNL A   1      38.820  34.285  39.627  1.00  0.00     0.059 A 
ATOM     95  C   UNL A   1      40.374  35.884  38.662  1.00  0.00     0.059 A 
ATOM     96  F   UNL A   1      41.282  35.487  36.537  1.00  0.00    -0.206 F 
ATOM     97  C   UNL A   1      39.534  35.483  39.700  1.00  0.00     0.060 A 
BRANCH  97  98
ATOM     98  S   UNL A   1      39.379  36.497  41.186  1.00  0.00     0.124 S 
ATOM     99  O   UNL A   1      40.759  36.538  41.658  1.00  0.00    -0.237 OA
ATOM    100  O   UNL A   1      38.852  37.752  40.659  1.00  0.00    -0.237 OA
ATOM    101  O   UNL A   1      38.452  35.737  42.019  1.00  0.00    -0.744 OA
ENDBRANCH  97  98
ENDBRANCH  65  90
ENDBRANCH  39  40
ENDBRANCH  32  34
ENDBRANCH  31  32
ENDBRANCH  30  31
ENDBRANCH  29  30
ENDBRANCH  28  29
ENDBRANCH  26  28
ENDBRANCH   1  26
TORSDOF 23
ENDMDL
MODEL 3
REMARK VINA RESULT:     -10.6      6.088     12.085
REMARK SMILES CCCCCCNC(=O)Oc1cccc(-c2ccc([C@@H](C)C(=O)OCCOC(=O)c3ccc(-c4c5nc(c(-c6c(F)cc(S(=O)(=O)[O-])cc6F)c6ccc([nH]6)c(-c6c(F)cc(S(=O)(=O)[O-])cc6F)c6nc(c(-c7c(F)cc(S(=O)(=O)[O-])cc7F)c7ccc4[nH]7)C=C6)C=C5)cc3)cc2)c1
REMARK SMILES IDX 20 1 21 2 19 3 16 4 17 5 97 6 18 7 96 8 15 9 11 10 12 11
REMARK SMILES IDX 98 12 13 13 14 14 10 15 8 16 7 17 9 19 6 20 5 21 4 22 3 23
REMARK SMILES IDX 2 24 1 25 22 26 23 27 24 28 25 29 26 30 27 31 28 32 29 33
REMARK SMILES IDX 30 34 31 35 95 36 32 37 94 38 33 39 34 40 35 41 88 42 36 43
REMARK SMILES IDX 93 44 87 45 89 46 37 47 92 48 86 49 85 50 38 52 72 53 51 54
REMARK SMILES IDX 71 55 52 56 55 57 70 58 90 59 53 60 54 61 69 63 91 64 56 65
REMARK SMILES IDX 39 66 40 67 49 68 41 69 42 70 48 71 50 72 43 73 44 74 45 75
REMARK SMILES IDX 46 76 47 77 73 78 74 79 83 80 75 81 76 82 82 83 84 84 77 85
REMARK SMILES IDX 78 86 79 87 80 88 81 89 57 90 58 91 67 92 59 93 60 94 66 95
REMARK SMILES IDX 68 96 61 97 62 98 63 99 64 100 65 101
REMARK H PARENT 7 18 89 51 55 62
REMARK Flexibility Score: inf
ROOT
ATOM      1  C   UNL A   1      41.156  21.298  26.796  1.00  0.00     0.126 C 
ATOM      2  C   UNL A   1      40.965  20.002  27.582  1.00  0.00     0.025 C 
ENDROOT
BRANCH   1   3
ATOM      3  C   UNL A   1      39.844  21.863  26.276  1.00  0.00    -0.034 A 
ATOM      4  C   UNL A   1      37.386  22.957  25.349  1.00  0.00    -0.018 A 
ATOM      5  C   UNL A   1      37.774  21.650  25.015  1.00  0.00     0.009 A 
ATOM      6  C   UNL A   1      38.259  23.713  26.143  1.00  0.00     0.009 A 
ATOM      7  C   UNL A   1      38.980  21.109  25.472  1.00  0.00     0.005 A 
ATOM      8  C   UNL A   1      39.467  23.175  26.602  1.00  0.00     0.005 A 
BRANCH   4   9
ATOM      9  C   UNL A   1      36.092  23.497  24.903  1.00  0.00    -0.015 A 
ATOM     10  C   UNL A   1      34.039  24.724  25.305  1.00  0.00     0.133 A 
ATOM     11  C   UNL A   1      33.606  24.486  24.002  1.00  0.00     0.047 A 
ATOM     12  C   UNL A   1      35.258  24.226  25.768  1.00  0.00     0.056 A 
ATOM     13  C   UNL A   1      34.420  23.765  23.136  1.00  0.00     0.004 A 
ATOM     14  C   UNL A   1      35.650  23.277  23.584  1.00  0.00     0.009 A 
BRANCH  10  15
ATOM     15  O   UNL A   1      33.140  25.386  26.156  1.00  0.00    -0.410 OA
BRANCH  15  16
ATOM     16  C   UNL A   1      31.793  25.327  25.831  1.00  0.00     0.412 C 
ATOM     17  N   UNL A   1      31.192  24.169  26.247  1.00  0.00    -0.321 N 
ATOM     18  H   UNL A   1      30.223  24.097  26.088  1.00  0.00     0.167 HD
ATOM     19  O   UNL A   1      31.162  26.173  25.211  1.00  0.00    -0.224 OA
BRANCH  17  20
ATOM     20  C   UNL A   1      31.827  23.040  26.895  1.00  0.00     0.119 C 
BRANCH  20  21
ATOM     21  C   UNL A   1      31.987  21.841  25.962  1.00  0.00     0.021 C 
BRANCH  21  22
ATOM     22  C   UNL A   1      33.288  21.049  26.140  1.00  0.00     0.002 C 
BRANCH  22  23
ATOM     23  C   UNL A   1      33.861  20.414  24.868  1.00  0.00    -0.000 C 
BRANCH  23  24
ATOM     24  C   UNL A   1      33.034  19.278  24.262  1.00  0.00    -0.003 C 
ATOM     25  C   UNL A   1      32.679  18.189  25.264  1.00  0.00     0.004 C 
ENDBRANCH  23  24
ENDBRANCH  22  23
ENDBRANCH  21  22
ENDBRANCH  20  21
ENDBRANCH  17  20
ENDBRANCH  15  16
ENDBRANCH  10  15
ENDBRANCH   4   9
ENDBRANCH   1   3
BRANCH   1  26
ATOM     26  C   UNL A   1      42.262  21.113  25.762  1.00  0.00     0.313 C 
ATOM     27  O   UNL A   1      42.804  20.028  25.576  1.00  0.00    -0.252 OA
BRANCH  26  28
ATOM     28  O   UNL A   1      42.539  22.235  25.049  1.00  0.00    -0.462 OA
BRANCH  28  29
ATOM     29  C   UNL A   1      43.883  22.744  25.133  1.00  0.00     0.274 C 
BRANCH  29  30
ATOM     30  C   UNL A   1      43.960  23.944  26.078  1.00  0.00     0.275 C 
BRANCH  30  31
ATOM     31  O   UNL A   1      42.645  24.396  26.444  1.00  0.00    -0.458 OA
BRANCH  31  32
ATOM     32  C   UNL A   1      42.335  25.650  26.036  1.00  0.00     0.338 C 
ATOM     33  O   UNL A   1      42.274  26.067  24.894  1.00  0.00    -0.246 OA
BRANCH  32  34
ATOM     34  C   UNL A   1      41.970  26.459  27.206  1.00  0.00     0.060 A 
ATOM     35  C   UNL A   1      42.637  27.668  27.410  1.00  0.00     0.016 A 
ATOM     36  C   UNL A   1      41.039  25.992  28.133  1.00  0.00     0.016 A 
ATOM     37  C   UNL A   1      42.387  28.417  28.556  1.00  0.00     0.010 A 
ATOM     38  C   UNL A   1      40.776  26.753  29.276  1.00  0.00     0.010 A 
ATOM     39  C   UNL A   1      41.457  27.963  29.499  1.00  0.00    -0.014 A 
BRANCH  39  40
ATOM     40  C   UNL A   1      41.221  28.740  30.738  1.00  0.00     0.031 A 
ATOM     41  C   UNL A   1      40.105  29.741  30.793  1.00  0.00     0.074 A 
ATOM     42  C   UNL A   1      42.007  28.538  31.811  1.00  0.00     0.049 A 
ATOM     43  N   UNL A   1      39.792  30.580  31.746  1.00  0.00    -0.248 NA
ATOM     44  C   UNL A   1      39.222  29.807  29.618  1.00  0.00     0.031 C 
ATOM     45  C   UNL A   1      43.093  27.560  31.888  1.00  0.00     0.029 A 
ATOM     46  N   UNL A   1      42.015  29.144  33.041  1.00  0.00    -0.354 N 
ATOM     47  C   UNL A   1      38.694  31.291  31.279  1.00  0.00     0.074 A 
ATOM     48  C   UNL A   1      38.401  30.793  29.952  1.00  0.00     0.031 C 
ATOM     49  C   UNL A   1      43.660  27.632  33.104  1.00  0.00     0.029 A 
ATOM     50  C   UNL A   1      43.009  28.690  33.871  1.00  0.00     0.049 A 
ATOM     51  H   UNL A   1      41.368  29.840  33.303  1.00  0.00     0.167 HD
ATOM     52  C   UNL A   1      37.996  32.271  31.904  1.00  0.00     0.037 A 
ATOM     53  C   UNL A   1      43.375  29.102  35.101  1.00  0.00     0.037 A 
ATOM     54  C   UNL A   1      38.289  32.752  33.229  1.00  0.00     0.049 A 
ATOM     55  C   UNL A   1      42.626  30.231  35.749  1.00  0.00     0.074 A 
ATOM     56  C   UNL A   1      37.628  33.724  33.959  1.00  0.00     0.029 A 
ATOM     57  N   UNL A   1      39.333  32.298  34.022  1.00  0.00    -0.354 N 
ATOM     58  N   UNL A   1      41.594  30.903  35.294  1.00  0.00    -0.248 NA
ATOM     59  C   UNL A   1      43.097  30.670  37.069  1.00  0.00     0.031 C 
ATOM     60  C   UNL A   1      38.297  33.886  35.179  1.00  0.00     0.029 A 
ATOM     61  C   UNL A   1      39.352  32.988  35.224  1.00  0.00     0.049 A 
ATOM     62  H   UNL A   1      39.968  31.590  33.768  1.00  0.00     0.167 HD
ATOM     63  C   UNL A   1      41.287  31.839  36.275  1.00  0.00     0.074 A 
ATOM     64  C   UNL A   1      42.233  31.636  37.355  1.00  0.00     0.031 C 
ATOM     65  C   UNL A   1      40.311  32.780  36.281  1.00  0.00     0.037 A 
BRANCH  52  66
ATOM     66  C   UNL A   1      36.874  32.909  31.135  1.00  0.00     0.058 A 
ATOM     67  C   UNL A   1      35.529  32.610  31.402  1.00  0.00     0.135 A 
ATOM     68  C   UNL A   1      37.149  33.828  30.109  1.00  0.00     0.135 A 
ATOM     69  F   UNL A   1      35.210  31.727  32.361  1.00  0.00    -0.206 F 
ATOM     70  C   UNL A   1      34.497  33.170  30.654  1.00  0.00     0.059 A 
ATOM     71  C   UNL A   1      36.134  34.417  29.363  1.00  0.00     0.059 A 
ATOM     72  F   UNL A   1      38.419  34.148  29.813  1.00  0.00    -0.206 F 
ATOM     73  C   UNL A   1      34.811  34.065  29.629  1.00  0.00     0.060 A 
BRANCH  73  74
ATOM     74  S   UNL A   1      33.468  34.758  28.641  1.00  0.00     0.124 S 
ATOM     75  O   UNL A   1      32.480  35.068  29.671  1.00  0.00    -0.237 OA
ATOM     76  O   UNL A   1      34.102  35.910  28.007  1.00  0.00    -0.237 OA
ATOM     77  O   UNL A   1      33.113  33.668  27.738  1.00  0.00    -0.744 OA
ENDBRANCH  73  74
ENDBRANCH  52  66
BRANCH  53  78
ATOM     78  C   UNL A   1      44.520  28.446  35.783  1.00  0.00     0.058 A 
ATOM     79  C   UNL A   1      44.318  27.365  36.651  1.00  0.00     0.135 A 
ATOM     80  C   UNL A   1      45.841  28.859  35.544  1.00  0.00     0.135 A 
ATOM     81  F   UNL A   1      43.073  26.943  36.917  1.00  0.00    -0.206 F 
ATOM     82  C   UNL A   1      45.385  26.710  37.257  1.00  0.00     0.059 A 
ATOM     83  C   UNL A   1      46.925  28.208  36.121  1.00  0.00     0.059 A 
ATOM     84  F   UNL A   1      46.085  29.885  34.713  1.00  0.00    -0.206 F 
ATOM     85  C   UNL A   1      46.687  27.135  36.979  1.00  0.00     0.060 A 
BRANCH  85  86
ATOM     86  S   UNL A   1      48.070  26.227  37.706  1.00  0.00     0.124 S 
ATOM     87  O   UNL A   1      47.426  24.979  38.101  1.00  0.00    -0.237 OA
ATOM     88  O   UNL A   1      49.003  26.137  36.587  1.00  0.00    -0.237 OA
ATOM     89  O   UNL A   1      48.498  27.092  38.801  1.00  0.00    -0.744 OA
ENDBRANCH  85  86
ENDBRANCH  53  78
BRANCH  65  90
ATOM     90  C   UNL A   1      40.215  33.657  37.497  1.00  0.00     0.058 A 
ATOM     91  C   UNL A   1      39.349  33.345  38.556  1.00  0.00     0.135 A 
ATOM     92  C   UNL A   1      41.026  34.795  37.622  1.00  0.00     0.135 A 
ATOM     93  F   UNL A   1      38.546  32.272  38.479  1.00  0.00    -0.206 F 
ATOM     94  C   UNL A   1      39.276  34.144  39.692  1.00  0.00     0.059 A 
ATOM     95  C   UNL A   1      40.985  35.597  38.759  1.00  0.00     0.059 A 
ATOM     96  F   UNL A   1      41.878  35.131  36.641  1.00  0.00    -0.206 F 
ATOM     97  C   UNL A   1      40.098  35.269  39.784  1.00  0.00     0.060 A 
BRANCH  97  98
ATOM     98  S   UNL A   1      40.021  36.283  41.276  1.00  0.00     0.124 S 
ATOM     99  O   UNL A   1      39.609  35.303  42.275  1.00  0.00    -0.237 OA
ATOM    100  O   UNL A   1      41.391  36.773  41.397  1.00  0.00    -0.237 OA
ATOM    101  O   UNL A   1      39.027  37.299  40.944  1.00  0.00    -0.744 OA
ENDBRANCH  97  98
ENDBRANCH  65  90
ENDBRANCH  39  40
ENDBRANCH  32  34
ENDBRANCH  31  32
ENDBRANCH  30  31
ENDBRANCH  29  30
ENDBRANCH  28  29
ENDBRANCH  26  28
ENDBRANCH   1  26
TORSDOF 23
ENDMDL
