MODEL 1
REMARK VINA RESULT:     -13.6      0.000      0.000
REMARK SMILES Cc1cc(/C=C2/C(=O)NC(=S)N=C2OCCOC(=O)c2ccc(-c3c4nc(c(-c5c(F)cc(S(=O)(=O)[O-])cc5F)c5ccc([nH]5)c(-c5c(F)cc(S(=O)(=O)[O-])cc5F)c5nc(c(-c6c(F)cc(S(=O)(=O)[O-])cc6F)c6ccc3[nH]6)C=C5)C=C4)cc2)c(C)n1-c1cccc(C(=O)[O-])c1
REMARK SMILES IDX 16 1 15 2 14 3 13 4 5 5 6 6 7 7 8 8 9 9 12 10 10 11 11 13
REMARK SMILES IDX 4 14 1 15 2 16 3 17 88 18 86 19 87 20 89 21 90 22 97 23
REMARK SMILES IDX 91 24 93 25 92 26 94 27 95 28 96 29 17 30 18 31 19 32 20 33
REMARK SMILES IDX 21 34 85 35 22 36 84 37 23 38 24 39 25 40 78 41 26 42 83 43
REMARK SMILES IDX 77 44 79 45 27 46 82 47 76 48 75 49 28 51 62 52 41 53 61 54
REMARK SMILES IDX 42 55 45 56 60 57 80 58 43 59 44 60 59 62 81 63 46 64 29 65
REMARK SMILES IDX 30 66 39 67 31 68 32 69 38 70 40 71 33 72 34 73 35 74 36 75
REMARK SMILES IDX 37 76 63 77 64 78 73 79 65 80 66 81 72 82 74 83 67 84 68 85
REMARK SMILES IDX 69 86 70 87 71 88 47 89 48 90 57 91 49 92 50 93 56 94 58 95
REMARK SMILES IDX 51 96 52 97 53 98 54 99 55 100
REMARK H PARENT 9 12 79 50 45 61
REMARK Flexibility Score: inf
ROOT
ATOM      1  C   UNL A   1      31.780  29.275  26.786  1.00  0.00     0.274 C 
ENDROOT
BRANCH   1   2
ATOM      2  C   UNL A   1      32.670  27.970  26.608  1.00  0.00     0.273 C 
BRANCH   2   3
ATOM      3  O   UNL A   1      32.014  26.849  25.940  1.00  0.00    -0.473 OA
BRANCH   3   4
ATOM      4  C   UNL A   1      31.848  27.032  24.617  1.00  0.00     0.229 C 
ATOM      5  C   UNL A   1      33.924  25.707  23.773  1.00  0.00     0.029 C 
ATOM      6  C   UNL A   1      33.005  26.705  23.761  1.00  0.00     0.103 C 
ATOM      7  C   UNL A   1      33.068  27.613  22.572  1.00  0.00     0.262 C 
ATOM      8  O   UNL A   1      34.033  27.696  21.820  1.00  0.00    -0.269 OA
ATOM      9  N   UNL A   1      31.902  28.286  22.307  1.00  0.00    -0.297 N 
ATOM     10  N   UNL A   1      30.759  27.592  24.219  1.00  0.00    -0.184 NA
ATOM     11  C   UNL A   1      30.733  28.197  23.009  1.00  0.00     0.203 C 
ATOM     12  H   UNL A   1      31.908  28.894  21.532  1.00  0.00     0.172 HD
ATOM     13  S   UNL A   1      29.359  28.943  22.409  1.00  0.00    -0.038 S 
BRANCH   5  14
ATOM     14  C   UNL A   1      34.143  24.541  24.593  1.00  0.00    -0.003 A 
ATOM     15  C   UNL A   1      33.873  22.607  27.793  1.00  0.00     0.065 C 
ATOM     16  C   UNL A   1      34.065  23.176  26.425  1.00  0.00     0.020 A 
ATOM     17  C   UNL A   1      33.718  24.429  25.950  1.00  0.00     0.031 A 
ATOM     18  N   UNL A   1      34.675  22.496  25.378  1.00  0.00    -0.318 N 
ATOM     19  C   UNL A   1      34.902  23.409  24.333  1.00  0.00     0.027 A 
ATOM     20  C   UNL A   1      35.726  23.089  23.134  1.00  0.00     0.065 C 
BRANCH  18  21
ATOM     21  C   UNL A   1      34.865  21.083  25.288  1.00  0.00     0.046 A 
ATOM     22  C   UNL A   1      36.153  20.542  25.255  1.00  0.00     0.026 A 
ATOM     23  C   UNL A   1      33.758  20.262  25.024  1.00  0.00     0.036 A 
ATOM     24  C   UNL A   1      36.362  19.244  24.796  1.00  0.00     0.003 A 
ATOM     25  C   UNL A   1      33.968  18.939  24.601  1.00  0.00    -0.001 A 
ATOM     26  C   UNL A   1      35.273  18.454  24.442  1.00  0.00     0.010 A 
BRANCH  25  27
ATOM     27  C   UNL A   1      32.853  18.028  24.266  1.00  0.00     0.072 C 
ATOM     28  O   UNL A   1      31.909  17.755  25.005  1.00  0.00    -0.545 OA
ATOM     29  O   UNL A   1      32.929  17.524  23.027  1.00  0.00    -0.545 OA
ENDBRANCH  25  27
ENDBRANCH  18  21
ENDBRANCH   5  14
ENDBRANCH   3   4
ENDBRANCH   2   3
ENDBRANCH   1   2
BRANCH   1  30
ATOM     30  O   UNL A   1      32.092  30.701  26.295  1.00  0.00    -0.458 OA
BRANCH  30  31
ATOM     31  C   UNL A   1      32.662  31.733  27.068  1.00  0.00     0.338 C 
ATOM     32  O   UNL A   1      32.167  32.855  27.037  1.00  0.00    -0.246 OA
BRANCH  31  33
ATOM     33  C   UNL A   1      33.993  31.423  27.989  1.00  0.00     0.060 A 
ATOM     34  C   UNL A   1      34.389  31.842  29.317  1.00  0.00     0.016 A 
ATOM     35  C   UNL A   1      35.021  30.695  27.504  1.00  0.00     0.016 A 
ATOM     36  C   UNL A   1      35.754  31.472  30.180  1.00  0.00     0.010 A 
ATOM     37  C   UNL A   1      36.238  30.375  28.363  1.00  0.00     0.010 A 
ATOM     38  C   UNL A   1      36.864  30.660  29.766  1.00  0.00    -0.014 A 
BRANCH  38  39
ATOM     39  C   UNL A   1      37.932  29.452  30.841  1.00  0.00     0.031 A 
ATOM     40  C   UNL A   1      38.328  28.621  29.660  1.00  0.00     0.074 A 
ATOM     41  C   UNL A   1      38.901  29.130  32.113  1.00  0.00     0.049 A 
ATOM     42  N   UNL A   1      38.382  29.399  28.593  1.00  0.00    -0.248 NA
ATOM     43  C   UNL A   1      39.453  27.712  29.597  1.00  0.00     0.031 C 
ATOM     44  C   UNL A   1      39.168  29.897  33.404  1.00  0.00     0.029 A 
ATOM     45  N   UNL A   1      40.060  27.969  32.534  1.00  0.00    -0.354 N 
ATOM     46  C   UNL A   1      39.601  29.954  28.902  1.00  0.00     0.074 A 
ATOM     47  C   UNL A   1      40.224  28.581  28.898  1.00  0.00     0.031 C 
ATOM     48  C   UNL A   1      40.232  29.519  34.201  1.00  0.00     0.029 A 
ATOM     49  C   UNL A   1      41.040  28.315  33.787  1.00  0.00     0.049 A 
ATOM     50  H   UNL A   1      40.138  27.121  32.041  1.00  0.00     0.167 HD
ATOM     51  C   UNL A   1      39.946  31.093  29.743  1.00  0.00     0.037 A 
ATOM     52  C   UNL A   1      42.321  27.924  34.582  1.00  0.00     0.037 A 
ATOM     53  C   UNL A   1      41.376  31.211  29.712  1.00  0.00     0.049 A 
ATOM     54  C   UNL A   1      43.113  29.041  34.008  1.00  0.00     0.074 A 
ATOM     55  C   UNL A   1      42.327  30.215  29.608  1.00  0.00     0.029 A 
ATOM     56  N   UNL A   1      41.984  32.082  30.584  1.00  0.00    -0.354 N 
ATOM     57  N   UNL A   1      43.335  30.225  34.479  1.00  0.00    -0.248 NA
ATOM     58  C   UNL A   1      43.866  28.664  32.782  1.00  0.00     0.031 C 
ATOM     59  C   UNL A   1      42.259  29.980  30.980  1.00  0.00     0.029 A 
ATOM     60  C   UNL A   1      42.458  31.242  31.544  1.00  0.00     0.049 A 
ATOM     61  H   UNL A   1      42.057  33.062  30.529  1.00  0.00     0.167 HD
ATOM     62  C   UNL A   1      43.830  30.854  33.351  1.00  0.00     0.074 A 
ATOM     63  C   UNL A   1      44.463  29.827  32.524  1.00  0.00     0.031 C 
ATOM     64  C   UNL A   1      42.949  31.728  32.790  1.00  0.00     0.037 A 
BRANCH  51  65
ATOM     65  C   UNL A   1      39.104  32.370  30.711  1.00  0.00     0.058 A 
ATOM     66  C   UNL A   1      38.836  32.519  32.149  1.00  0.00     0.135 A 
ATOM     67  C   UNL A   1      38.250  33.265  30.004  1.00  0.00     0.135 A 
ATOM     68  F   UNL A   1      39.535  31.942  33.128  1.00  0.00    -0.206 F 
ATOM     69  C   UNL A   1      37.718  33.163  32.727  1.00  0.00     0.059 A 
ATOM     70  C   UNL A   1      37.168  33.991  30.585  1.00  0.00     0.059 A 
ATOM     71  F   UNL A   1      38.379  33.385  28.675  1.00  0.00    -0.206 F 
ATOM     72  C   UNL A   1      36.839  33.839  31.926  1.00  0.00     0.060 A 
BRANCH  72  73
ATOM     73  S   UNL A   1      35.283  34.451  32.631  1.00  0.00     0.124 S 
ATOM     74  O   UNL A   1      34.908  33.353  33.521  1.00  0.00    -0.237 OA
ATOM     75  O   UNL A   1      35.668  35.684  33.310  1.00  0.00    -0.237 OA
ATOM     76  O   UNL A   1      34.433  34.613  31.457  1.00  0.00    -0.744 OA
ENDBRANCH  72  73
ENDBRANCH  51  65
BRANCH  52  77
ATOM     77  C   UNL A   1      43.810  27.084  35.222  1.00  0.00     0.058 A 
ATOM     78  C   UNL A   1      44.561  26.018  34.628  1.00  0.00     0.135 A 
ATOM     79  C   UNL A   1      44.284  27.070  36.632  1.00  0.00     0.135 A 
ATOM     80  F   UNL A   1      44.129  25.459  33.487  1.00  0.00    -0.206 F 
ATOM     81  C   UNL A   1      45.753  25.334  35.242  1.00  0.00     0.059 A 
ATOM     82  C   UNL A   1      45.468  26.523  37.215  1.00  0.00     0.059 A 
ATOM     83  F   UNL A   1      43.501  27.366  37.671  1.00  0.00    -0.206 F 
ATOM     84  C   UNL A   1      46.255  25.675  36.502  1.00  0.00     0.060 A 
BRANCH  84  85
ATOM     85  S   UNL A   1      47.827  25.101  37.262  1.00  0.00     0.124 S 
ATOM     86  O   UNL A   1      47.571  25.168  38.697  1.00  0.00    -0.237 OA
ATOM     87  O   UNL A   1      47.970  23.759  36.705  1.00  0.00    -0.237 OA
ATOM     88  O   UNL A   1      48.820  26.061  36.776  1.00  0.00    -0.744 OA
ENDBRANCH  84  85
ENDBRANCH  52  77
BRANCH  64  89
ATOM     89  C   UNL A   1      42.311  32.704  33.723  1.00  0.00     0.058 A 
ATOM     90  C   UNL A   1      42.196  34.046  33.353  1.00  0.00     0.135 A 
ATOM     91  C   UNL A   1      41.866  32.382  35.007  1.00  0.00     0.135 A 
ATOM     92  F   UNL A   1      42.537  34.430  32.113  1.00  0.00    -0.206 F 
ATOM     93  C   UNL A   1      41.719  35.012  34.232  1.00  0.00     0.059 A 
ATOM     94  C   UNL A   1      41.396  33.320  35.922  1.00  0.00     0.059 A 
ATOM     95  F   UNL A   1      41.891  31.119  35.402  1.00  0.00    -0.206 F 
ATOM     96  C   UNL A   1      41.333  34.644  35.520  1.00  0.00     0.060 A 
BRANCH  96  97
ATOM     97  S   UNL A   1      40.772  35.920  36.659  1.00  0.00     0.124 S 
ATOM     98  O   UNL A   1      39.793  36.649  35.856  1.00  0.00    -0.237 OA
ATOM     99  O   UNL A   1      40.219  35.116  37.743  1.00  0.00    -0.237 OA
ATOM    100  O   UNL A   1      41.989  36.664  36.963  1.00  0.00    -0.744 OA
ENDBRANCH  96  97
ENDBRANCH  64  89
ENDBRANCH  38  39
ENDBRANCH  31  33
ENDBRANCH  30  31
ENDBRANCH   1  30
TORSDOF 16
ENDMDL
MODEL 2
REMARK VINA RESULT:     -13.4      5.607     10.456
REMARK SMILES Cc1cc(/C=C2/C(=O)NC(=S)N=C2OCCOC(=O)c2ccc(-c3c4nc(c(-c5c(F)cc(S(=O)(=O)[O-])cc5F)c5ccc([nH]5)c(-c5c(F)cc(S(=O)(=O)[O-])cc5F)c5nc(c(-c6c(F)cc(S(=O)(=O)[O-])cc6F)c6ccc3[nH]6)C=C5)C=C4)cc2)c(C)n1-c1cccc(C(=O)[O-])c1
REMARK SMILES IDX 16 1 15 2 14 3 13 4 5 5 6 6 7 7 8 8 9 9 12 10 10 11 11 13
REMARK SMILES IDX 4 14 1 15 2 16 3 17 88 18 86 19 87 20 89 21 90 22 97 23
REMARK SMILES IDX 91 24 93 25 92 26 94 27 95 28 96 29 17 30 18 31 19 32 20 33
REMARK SMILES IDX 21 34 85 35 22 36 84 37 23 38 24 39 25 40 78 41 26 42 83 43
REMARK SMILES IDX 77 44 79 45 27 46 82 47 76 48 75 49 28 51 62 52 41 53 61 54
REMARK SMILES IDX 42 55 45 56 60 57 80 58 43 59 44 60 59 62 81 63 46 64 29 65
REMARK SMILES IDX 30 66 39 67 31 68 32 69 38 70 40 71 33 72 34 73 35 74 36 75
REMARK SMILES IDX 37 76 63 77 64 78 73 79 65 80 66 81 72 82 74 83 67 84 68 85
REMARK SMILES IDX 69 86 70 87 71 88 47 89 48 90 57 91 49 92 50 93 56 94 58 95
REMARK SMILES IDX 51 96 52 97 53 98 54 99 55 100
REMARK H PARENT 9 12 79 50 45 61
REMARK Flexibility Score: inf
ROOT
ATOM      1  C   UNL A   1      36.767  21.950  24.206  1.00  0.00     0.274 C 
ENDROOT
BRANCH   1   2
ATOM      2  C   UNL A   1      36.052  23.314  24.598  1.00  0.00     0.273 C 
BRANCH   2   3
ATOM      3  O   UNL A   1      34.720  23.510  24.034  1.00  0.00    -0.473 OA
BRANCH   3   4
ATOM      4  C   UNL A   1      33.758  22.812  24.667  1.00  0.00     0.229 C 
ATOM      5  C   UNL A   1      32.847  24.706  26.205  1.00  0.00     0.029 C 
ATOM      6  C   UNL A   1      33.190  23.434  25.880  1.00  0.00     0.103 C 
ATOM      7  C   UNL A   1      32.810  22.395  26.888  1.00  0.00     0.262 C 
ATOM      8  O   UNL A   1      32.512  22.642  28.053  1.00  0.00    -0.269 OA
ATOM      9  N   UNL A   1      32.706  21.122  26.385  1.00  0.00    -0.297 N 
ATOM     10  N   UNL A   1      33.505  21.621  24.251  1.00  0.00    -0.184 NA
ATOM     11  C   UNL A   1      32.911  20.741  25.088  1.00  0.00     0.203 C 
ATOM     12  H   UNL A   1      32.460  20.413  27.021  1.00  0.00     0.172 HD
ATOM     13  S   UNL A   1      32.539  19.174  24.628  1.00  0.00    -0.038 S 
BRANCH   5  14
ATOM     14  C   UNL A   1      32.860  25.969  25.509  1.00  0.00    -0.003 A 
ATOM     15  C   UNL A   1      34.054  28.289  22.817  1.00  0.00     0.065 C 
ATOM     16  C   UNL A   1      33.420  27.533  23.940  1.00  0.00     0.020 A 
ATOM     17  C   UNL A   1      33.673  26.243  24.369  1.00  0.00     0.031 A 
ATOM     18  N   UNL A   1      32.443  28.059  24.777  1.00  0.00    -0.318 N 
ATOM     19  C   UNL A   1      32.260  27.171  25.852  1.00  0.00     0.027 A 
ATOM     20  C   UNL A   1      31.447  27.503  27.054  1.00  0.00     0.065 C 
BRANCH  18  21
ATOM     21  C   UNL A   1      31.623  29.197  24.504  1.00  0.00     0.046 A 
ATOM     22  C   UNL A   1      31.702  30.336  25.309  1.00  0.00     0.026 A 
ATOM     23  C   UNL A   1      30.594  29.084  23.555  1.00  0.00     0.036 A 
ATOM     24  C   UNL A   1      30.677  31.279  25.300  1.00  0.00     0.003 A 
ATOM     25  C   UNL A   1      29.583  30.057  23.519  1.00  0.00    -0.001 A 
ATOM     26  C   UNL A   1      29.605  31.125  24.428  1.00  0.00     0.010 A 
BRANCH  25  27
ATOM     27  C   UNL A   1      28.446  29.985  22.575  1.00  0.00     0.072 C 
ATOM     28  O   UNL A   1      27.261  30.118  22.876  1.00  0.00    -0.545 OA
ATOM     29  O   UNL A   1      28.820  29.791  21.304  1.00  0.00    -0.545 OA
ENDBRANCH  25  27
ENDBRANCH  18  21
ENDBRANCH   5  14
ENDBRANCH   3   4
ENDBRANCH   2   3
ENDBRANCH   1   2
BRANCH   1  30
ATOM     30  O   UNL A   1      37.282  20.851  25.154  1.00  0.00    -0.458 OA
BRANCH  30  31
ATOM     31  C   UNL A   1      38.610  20.707  25.604  1.00  0.00     0.338 C 
ATOM     32  O   UNL A   1      39.087  19.583  25.730  1.00  0.00    -0.246 OA
BRANCH  31  33
ATOM     33  C   UNL A   1      39.499  22.046  25.968  1.00  0.00     0.060 A 
ATOM     34  C   UNL A   1      40.882  22.402  25.732  1.00  0.00     0.016 A 
ATOM     35  C   UNL A   1      38.967  23.062  26.680  1.00  0.00     0.016 A 
ATOM     36  C   UNL A   1      41.699  23.788  26.127  1.00  0.00     0.010 A 
ATOM     37  C   UNL A   1      39.772  24.318  26.989  1.00  0.00     0.010 A 
ATOM     38  C   UNL A   1      41.196  24.938  26.826  1.00  0.00    -0.014 A 
BRANCH  38  39
ATOM     39  C   UNL A   1      41.639  26.803  26.540  1.00  0.00     0.031 A 
ATOM     40  C   UNL A   1      40.393  27.286  27.215  1.00  0.00     0.074 A 
ATOM     41  C   UNL A   1      42.712  28.022  26.387  1.00  0.00     0.049 A 
ATOM     42  N   UNL A   1      40.058  26.423  28.157  1.00  0.00    -0.248 NA
ATOM     43  C   UNL A   1      40.170  28.617  27.741  1.00  0.00     0.031 C 
ATOM     44  C   UNL A   1      44.212  28.023  26.108  1.00  0.00     0.029 A 
ATOM     45  N   UNL A   1      42.719  29.706  26.565  1.00  0.00    -0.354 N 
ATOM     46  C   UNL A   1      40.995  26.856  29.065  1.00  0.00     0.074 A 
ATOM     47  C   UNL A   1      40.390  28.237  29.023  1.00  0.00     0.031 C 
ATOM     48  C   UNL A   1      44.925  29.194  26.281  1.00  0.00     0.029 A 
ATOM     49  C   UNL A   1      44.168  30.438  26.673  1.00  0.00     0.049 A 
ATOM     50  H   UNL A   1      41.881  30.220  26.601  1.00  0.00     0.167 HD
ATOM     51  C   UNL A   1      42.395  26.495  29.240  1.00  0.00     0.037 A 
ATOM     52  C   UNL A   1      44.940  31.750  27.001  1.00  0.00     0.037 A 
ATOM     53  C   UNL A   1      42.888  27.273  30.341  1.00  0.00     0.049 A 
ATOM     54  C   UNL A   1      45.405  31.242  28.317  1.00  0.00     0.074 A 
ATOM     55  C   UNL A   1      42.530  28.548  30.732  1.00  0.00     0.029 A 
ATOM     56  N   UNL A   1      44.239  27.277  30.591  1.00  0.00    -0.354 N 
ATOM     57  N   UNL A   1      46.515  30.659  28.633  1.00  0.00    -0.248 NA
ATOM     58  C   UNL A   1      44.500  31.598  29.442  1.00  0.00     0.031 C 
ATOM     59  C   UNL A   1      43.404  29.101  29.799  1.00  0.00     0.029 A 
ATOM     60  C   UNL A   1      44.623  28.476  30.073  1.00  0.00     0.049 A 
ATOM     61  H   UNL A   1      44.789  26.590  31.031  1.00  0.00     0.167 HD
ATOM     62  C   UNL A   1      46.186  30.154  29.878  1.00  0.00     0.074 A 
ATOM     63  C   UNL A   1      45.167  31.034  30.449  1.00  0.00     0.031 C 
ATOM     64  C   UNL A   1      45.996  28.805  29.880  1.00  0.00     0.037 A 
BRANCH  51  65
ATOM     65  C   UNL A   1      43.601  25.349  28.525  1.00  0.00     0.058 A 
ATOM     66  C   UNL A   1      44.682  25.519  27.546  1.00  0.00     0.135 A 
ATOM     67  C   UNL A   1      43.321  23.957  28.643  1.00  0.00     0.135 A 
ATOM     68  F   UNL A   1      45.302  26.669  27.272  1.00  0.00    -0.206 F 
ATOM     69  C   UNL A   1      45.141  24.545  26.630  1.00  0.00     0.059 A 
ATOM     70  C   UNL A   1      43.841  22.945  27.782  1.00  0.00     0.059 A 
ATOM     71  F   UNL A   1      42.434  23.538  29.557  1.00  0.00    -0.206 F 
ATOM     72  C   UNL A   1      44.657  23.267  26.704  1.00  0.00     0.060 A 
BRANCH  72  73
ATOM     73  S   UNL A   1      45.053  22.087  25.385  1.00  0.00     0.124 S 
ATOM     74  O   UNL A   1      44.065  21.036  25.620  1.00  0.00    -0.237 OA
ATOM     75  O   UNL A   1      44.851  22.853  24.159  1.00  0.00    -0.237 OA
ATOM     76  O   UNL A   1      46.432  21.717  25.679  1.00  0.00    -0.744 OA
ENDBRANCH  72  73
ENDBRANCH  51  65
BRANCH  52  77
ATOM     77  C   UNL A   1      45.401  33.469  27.407  1.00  0.00     0.058 A 
ATOM     78  C   UNL A   1      44.551  34.614  27.548  1.00  0.00     0.135 A 
ATOM     79  C   UNL A   1      46.752  34.081  27.279  1.00  0.00     0.135 A 
ATOM     80  F   UNL A   1      43.239  34.502  27.286  1.00  0.00    -0.206 F 
ATOM     81  C   UNL A   1      45.008  36.020  27.833  1.00  0.00     0.059 A 
ATOM     82  C   UNL A   1      47.230  35.375  27.647  1.00  0.00     0.059 A 
ATOM     83  F   UNL A   1      47.719  33.565  26.520  1.00  0.00    -0.206 F 
ATOM     84  C   UNL A   1      46.356  36.360  27.981  1.00  0.00     0.060 A 
BRANCH  84  85
ATOM     85  S   UNL A   1      47.037  37.966  28.562  1.00  0.00     0.124 S 
ATOM     86  O   UNL A   1      48.482  37.802  28.443  1.00  0.00    -0.237 OA
ATOM     87  O   UNL A   1      46.428  38.916  27.635  1.00  0.00    -0.237 OA
ATOM     88  O   UNL A   1      46.547  38.074  29.938  1.00  0.00    -0.744 OA
ENDBRANCH  84  85
ENDBRANCH  52  77
BRANCH  64  89
ATOM     89  C   UNL A   1      47.064  27.992  29.227  1.00  0.00     0.058 A 
ATOM     90  C   UNL A   1      47.567  26.859  29.871  1.00  0.00     0.135 A 
ATOM     91  C   UNL A   1      47.667  28.324  28.012  1.00  0.00     0.135 A 
ATOM     92  F   UNL A   1      47.000  26.429  31.009  1.00  0.00    -0.206 F 
ATOM     93  C   UNL A   1      48.640  26.139  29.359  1.00  0.00     0.059 A 
ATOM     94  C   UNL A   1      48.751  27.640  27.472  1.00  0.00     0.059 A 
ATOM     95  F   UNL A   1      47.201  29.351  27.319  1.00  0.00    -0.206 F 
ATOM     96  C   UNL A   1      49.236  26.543  28.166  1.00  0.00     0.060 A 
BRANCH  96  97
ATOM     97  S   UNL A   1      50.661  25.629  27.551  1.00  0.00     0.124 S 
ATOM     98  O   UNL A   1      51.713  26.023  28.485  1.00  0.00    -0.237 OA
ATOM     99  O   UNL A   1      50.196  24.252  27.677  1.00  0.00    -0.237 OA
ATOM    100  O   UNL A   1      50.828  26.132  26.193  1.00  0.00    -0.744 OA
ENDBRANCH  96  97
ENDBRANCH  64  89
ENDBRANCH  38  39
ENDBRANCH  31  33
ENDBRANCH  30  31
ENDBRANCH   1  30
TORSDOF 16
ENDMDL
MODEL 3
REMARK VINA RESULT:     -13.2      5.453      9.531
REMARK SMILES Cc1cc(/C=C2/C(=O)NC(=S)N=C2OCCOC(=O)c2ccc(-c3c4nc(c(-c5c(F)cc(S(=O)(=O)[O-])cc5F)c5ccc([nH]5)c(-c5c(F)cc(S(=O)(=O)[O-])cc5F)c5nc(c(-c6c(F)cc(S(=O)(=O)[O-])cc6F)c6ccc3[nH]6)C=C5)C=C4)cc2)c(C)n1-c1cccc(C(=O)[O-])c1
REMARK SMILES IDX 16 1 15 2 14 3 13 4 5 5 6 6 7 7 8 8 9 9 12 10 10 11 11 13
REMARK SMILES IDX 4 14 1 15 2 16 3 17 88 18 86 19 87 20 89 21 90 22 97 23
REMARK SMILES IDX 91 24 93 25 92 26 94 27 95 28 96 29 17 30 18 31 19 32 20 33
REMARK SMILES IDX 21 34 85 35 22 36 84 37 23 38 24 39 25 40 78 41 26 42 83 43
REMARK SMILES IDX 77 44 79 45 27 46 82 47 76 48 75 49 28 51 62 52 41 53 61 54
REMARK SMILES IDX 42 55 45 56 60 57 80 58 43 59 44 60 59 62 81 63 46 64 29 65
REMARK SMILES IDX 30 66 39 67 31 68 32 69 38 70 40 71 33 72 34 73 35 74 36 75
REMARK SMILES IDX 37 76 63 77 64 78 73 79 65 80 66 81 72 82 74 83 67 84 68 85
REMARK SMILES IDX 69 86 70 87 71 88 47 89 48 90 57 91 49 92 50 93 56 94 58 95
REMARK SMILES IDX 51 96 52 97 53 98 54 99 55 100
REMARK H PARENT 9 12 79 50 45 61
REMARK Flexibility Score: inf
ROOT
ATOM      1  C   UNL A   1      36.617  21.879  24.400  1.00  0.00     0.274 C 
ENDROOT
BRANCH   1   2
ATOM      2  C   UNL A   1      35.705  23.100  24.853  1.00  0.00     0.273 C 
BRANCH   2   3
ATOM      3  O   UNL A   1      34.877  23.688  23.804  1.00  0.00    -0.473 OA
BRANCH   3   4
ATOM      4  C   UNL A   1      33.897  24.483  24.274  1.00  0.00     0.229 C 
ATOM      5  C   UNL A   1      31.858  23.265  23.206  1.00  0.00     0.029 C 
ATOM      6  C   UNL A   1      32.573  24.334  23.637  1.00  0.00     0.103 C 
ATOM      7  C   UNL A   1      31.849  25.644  23.591  1.00  0.00     0.262 C 
ATOM      8  O   UNL A   1      30.831  25.845  22.937  1.00  0.00    -0.269 OA
ATOM      9  N   UNL A   1      32.349  26.602  24.437  1.00  0.00    -0.297 N 
ATOM     10  N   UNL A   1      34.214  25.386  25.134  1.00  0.00    -0.184 NA
ATOM     11  C   UNL A   1      33.410  26.463  25.287  1.00  0.00     0.203 C 
ATOM     12  H   UNL A   1      31.897  27.476  24.431  1.00  0.00     0.172 HD
ATOM     13  S   UNL A   1      33.742  27.682  26.387  1.00  0.00    -0.038 S 
BRANCH   5  14
ATOM     14  C   UNL A   1      32.065  21.837  23.212  1.00  0.00    -0.003 A 
ATOM     15  C   UNL A   1      32.154  18.467  21.573  1.00  0.00     0.065 C 
ATOM     16  C   UNL A   1      32.212  19.700  22.415  1.00  0.00     0.020 A 
ATOM     17  C   UNL A   1      31.913  21.005  22.063  1.00  0.00     0.031 A 
ATOM     18  N   UNL A   1      32.573  19.710  23.756  1.00  0.00    -0.318 N 
ATOM     19  C   UNL A   1      32.281  20.982  24.282  1.00  0.00     0.027 A 
ATOM     20  C   UNL A   1      32.339  21.296  25.736  1.00  0.00     0.065 C 
BRANCH  18  21
ATOM     21  C   UNL A   1      33.295  18.685  24.442  1.00  0.00     0.046 A 
ATOM     22  C   UNL A   1      34.692  18.676  24.432  1.00  0.00     0.026 A 
ATOM     23  C   UNL A   1      32.594  17.579  24.946  1.00  0.00     0.036 A 
ATOM     24  C   UNL A   1      35.392  17.516  24.755  1.00  0.00     0.003 A 
ATOM     25  C   UNL A   1      33.304  16.424  25.312  1.00  0.00    -0.001 A 
ATOM     26  C   UNL A   1      34.698  16.383  25.166  1.00  0.00     0.010 A 
BRANCH  25  27
ATOM     27  C   UNL A   1      32.632  15.206  25.813  1.00  0.00     0.072 C 
ATOM     28  O   UNL A   1      31.552  15.178  26.401  1.00  0.00    -0.545 OA
ATOM     29  O   UNL A   1      33.297  14.077  25.535  1.00  0.00    -0.545 OA
ENDBRANCH  25  27
ENDBRANCH  18  21
ENDBRANCH   5  14
ENDBRANCH   3   4
ENDBRANCH   2   3
ENDBRANCH   1   2
BRANCH   1  30
ATOM     30  O   UNL A   1      37.252  20.797  25.292  1.00  0.00    -0.458 OA
BRANCH  30  31
ATOM     31  C   UNL A   1      38.624  20.679  25.595  1.00  0.00     0.338 C 
ATOM     32  O   UNL A   1      39.154  19.572  25.575  1.00  0.00    -0.246 OA
BRANCH  31  33
ATOM     33  C   UNL A   1      39.493  22.024  25.984  1.00  0.00     0.060 A 
ATOM     34  C   UNL A   1      40.865  22.413  25.736  1.00  0.00     0.016 A 
ATOM     35  C   UNL A   1      38.953  23.008  26.733  1.00  0.00     0.016 A 
ATOM     36  C   UNL A   1      41.662  23.803  26.159  1.00  0.00     0.010 A 
ATOM     37  C   UNL A   1      39.739  24.270  27.066  1.00  0.00     0.010 A 
ATOM     38  C   UNL A   1      41.149  24.922  26.899  1.00  0.00    -0.014 A 
BRANCH  38  39
ATOM     39  C   UNL A   1      41.552  26.803  26.660  1.00  0.00     0.031 A 
ATOM     40  C   UNL A   1      40.295  27.242  27.347  1.00  0.00     0.074 A 
ATOM     41  C   UNL A   1      42.598  28.048  26.539  1.00  0.00     0.049 A 
ATOM     42  N   UNL A   1      39.980  26.348  28.267  1.00  0.00    -0.248 NA
ATOM     43  C   UNL A   1      40.045  28.554  27.906  1.00  0.00     0.031 C 
ATOM     44  C   UNL A   1      44.098  28.089  26.260  1.00  0.00     0.029 A 
ATOM     45  N   UNL A   1      42.569  29.727  26.759  1.00  0.00    -0.354 N 
ATOM     46  C   UNL A   1      40.907  26.778  29.186  1.00  0.00     0.074 A 
ATOM     47  C   UNL A   1      40.273  28.146  29.179  1.00  0.00     0.031 C 
ATOM     48  C   UNL A   1      44.785  29.270  26.463  1.00  0.00     0.029 A 
ATOM     49  C   UNL A   1      44.003  30.487  26.887  1.00  0.00     0.049 A 
ATOM     50  H   UNL A   1      41.720  30.222  26.808  1.00  0.00     0.167 HD
ATOM     51  C   UNL A   1      42.315  26.443  29.352  1.00  0.00     0.037 A 
ATOM     52  C   UNL A   1      44.746  31.807  27.248  1.00  0.00     0.037 A 
ATOM     53  C   UNL A   1      42.792  27.203  30.472  1.00  0.00     0.049 A 
ATOM     54  C   UNL A   1      45.222  31.275  28.551  1.00  0.00     0.074 A 
ATOM     55  C   UNL A   1      42.406  28.459  30.896  1.00  0.00     0.029 A 
ATOM     56  N   UNL A   1      44.142  27.230  30.722  1.00  0.00    -0.354 N 
ATOM     57  N   UNL A   1      46.344  30.708  28.852  1.00  0.00    -0.248 NA
ATOM     58  C   UNL A   1      44.310  31.583  29.684  1.00  0.00     0.031 C 
ATOM     59  C   UNL A   1      43.268  29.055  29.977  1.00  0.00     0.029 A 
ATOM     60  C   UNL A   1      44.500  28.449  30.235  1.00  0.00     0.049 A 
ATOM     61  H   UNL A   1      44.707  26.543  31.145  1.00  0.00     0.167 HD
ATOM     62  C   UNL A   1      46.027  30.164  30.084  1.00  0.00     0.074 A 
ATOM     63  C   UNL A   1      44.989  31.008  30.676  1.00  0.00     0.031 C 
ATOM     64  C   UNL A   1      45.865  28.812  30.051  1.00  0.00     0.037 A 
BRANCH  51  65
ATOM     65  C   UNL A   1      43.544  25.341  28.609  1.00  0.00     0.058 A 
ATOM     66  C   UNL A   1      44.621  25.559  27.632  1.00  0.00     0.135 A 
ATOM     67  C   UNL A   1      43.296  23.940  28.693  1.00  0.00     0.135 A 
ATOM     68  F   UNL A   1      45.215  26.729  27.386  1.00  0.00    -0.206 F 
ATOM     69  C   UNL A   1      45.100  24.617  26.693  1.00  0.00     0.059 A 
ATOM     70  C   UNL A   1      43.837  22.962  27.807  1.00  0.00     0.059 A 
ATOM     71  F   UNL A   1      42.419  23.480  29.596  1.00  0.00    -0.206 F 
ATOM     72  C   UNL A   1      44.644  23.328  26.737  1.00  0.00     0.060 A 
BRANCH  72  73
ATOM     73  S   UNL A   1      45.064  22.189  25.388  1.00  0.00     0.124 S 
ATOM     74  O   UNL A   1      46.489  21.962  25.625  1.00  0.00    -0.237 OA
ATOM     75  O   UNL A   1      44.212  21.030  25.632  1.00  0.00    -0.237 OA
ATOM     76  O   UNL A   1      44.752  22.965  24.194  1.00  0.00    -0.744 OA
ENDBRANCH  72  73
ENDBRANCH  51  65
BRANCH  52  77
ATOM     77  C   UNL A   1      45.171  33.524  27.698  1.00  0.00     0.058 A 
ATOM     78  C   UNL A   1      44.305  34.661  27.805  1.00  0.00     0.135 A 
ATOM     79  C   UNL A   1      46.521  34.147  27.650  1.00  0.00     0.135 A 
ATOM     80  F   UNL A   1      43.010  34.542  27.471  1.00  0.00    -0.206 F 
ATOM     81  C   UNL A   1      44.734  36.066  28.130  1.00  0.00     0.059 A 
ATOM     82  C   UNL A   1      46.968  35.440  28.058  1.00  0.00     0.059 A 
ATOM     83  F   UNL A   1      47.532  33.647  26.939  1.00  0.00    -0.206 F 
ATOM     84  C   UNL A   1      46.069  36.415  28.354  1.00  0.00     0.060 A 
BRANCH  84  85
ATOM     85  S   UNL A   1      46.705  38.020  28.990  1.00  0.00     0.124 S 
ATOM     86  O   UNL A   1      46.077  38.154  30.300  1.00  0.00    -0.237 OA
ATOM     87  O   UNL A   1      48.148  37.801  28.998  1.00  0.00    -0.237 OA
ATOM     88  O   UNL A   1      46.252  38.993  27.994  1.00  0.00    -0.744 OA
ENDBRANCH  84  85
ENDBRANCH  52  77
BRANCH  64  89
ATOM     89  C   UNL A   1      46.950  28.039  29.378  1.00  0.00     0.058 A 
ATOM     90  C   UNL A   1      47.611  28.585  28.275  1.00  0.00     0.135 A 
ATOM     91  C   UNL A   1      47.323  26.741  29.734  1.00  0.00     0.135 A 
ATOM     92  F   UNL A   1      47.364  29.851  27.906  1.00  0.00    -0.206 F 
ATOM     93  C   UNL A   1      48.543  27.859  27.543  1.00  0.00     0.059 A 
ATOM     94  C   UNL A   1      48.240  25.975  29.021  1.00  0.00     0.059 A 
ATOM     95  F   UNL A   1      46.780  26.184  30.805  1.00  0.00    -0.206 F 
ATOM     96  C   UNL A   1      48.843  26.549  27.914  1.00  0.00     0.060 A 
BRANCH  96  97
ATOM     97  S   UNL A   1      50.011  25.608  26.919  1.00  0.00     0.124 S 
ATOM     98  O   UNL A   1      51.216  26.432  26.984  1.00  0.00    -0.237 OA
ATOM     99  O   UNL A   1      50.073  24.351  27.657  1.00  0.00    -0.237 OA
ATOM    100  O   UNL A   1      49.376  25.555  25.607  1.00  0.00    -0.744 OA
ENDBRANCH  96  97
ENDBRANCH  64  89
ENDBRANCH  38  39
ENDBRANCH  31  33
ENDBRANCH  30  31
ENDBRANCH   1  30
TORSDOF 16
ENDMDL
