MODEL 1
REMARK VINA RESULT:     -11.9      0.000      0.000
REMARK SMILES Nc1oc2ccc(F)cc2c(=O)c1[C@@H]1[NH2+][C@H](C(=O)OCCOC(=O)c2ccc(-c3c4nc(c(-c5c(F)cc(S(=O)(=O)[O-])cc5F)c5ccc([nH]5)c(-c5c(F)cc(S(=O)(=O)[O-])cc5F)c5nc(c(-c6c(F)cc(S(=O)(=O)[O-])cc6F)c6ccc3[nH]6)C=C5)C=C4)cc2)CS1
REMARK SMILES IDX 21 1 20 2 19 3 17 4 18 5 16 6 14 7 15 8 92 9 91 12 13 13
REMARK SMILES IDX 2 14 3 15 4 16 11 17 5 18 10 19 12 20 6 21 9 22 7 23 8 24
REMARK SMILES IDX 1 25 22 28 23 29 24 30 25 31 26 32 90 33 27 34 89 35 28 36
REMARK SMILES IDX 29 37 30 38 83 39 31 40 88 41 82 42 84 43 32 44 87 45 81 46
REMARK SMILES IDX 80 47 33 49 67 50 46 51 66 52 47 53 50 54 65 55 85 56 48 57
REMARK SMILES IDX 49 58 64 60 86 61 51 62 34 63 35 64 44 65 36 66 37 67 43 68
REMARK SMILES IDX 45 69 38 70 39 71 40 72 41 73 42 74 68 75 69 76 78 77 70 78
REMARK SMILES IDX 71 79 77 80 79 81 72 82 73 83 74 84 75 85 76 86 52 87 53 88
REMARK SMILES IDX 62 89 54 90 55 91 61 92 63 93 56 94 57 95 58 96 59 97 60 98
REMARK H PARENT 15 10 15 11 1 26 1 27 84 48 50 59
REMARK Flexibility Score: inf
ROOT
ATOM      1  C   UNL A   1      35.128  31.107  27.975  1.00  0.00     0.275 C 
ENDROOT
BRANCH   1   2
ATOM      2  C   UNL A   1      33.699  30.778  27.543  1.00  0.00     0.274 C 
BRANCH   2   3
ATOM      3  O   UNL A   1      33.548  29.347  27.500  1.00  0.00    -0.458 OA
BRANCH   3   4
ATOM      4  C   UNL A   1      32.448  28.855  26.874  1.00  0.00     0.365 C 
ATOM      5  O   UNL A   1      31.520  28.299  27.450  1.00  0.00    -0.245 OA
BRANCH   4   6
ATOM      6  C   UNL A   1      32.441  29.128  25.358  1.00  0.00     0.304 C 
ATOM      7  C   UNL A   1      32.175  27.079  24.094  1.00  0.00     0.283 C 
ATOM      8  N   UNL A   1      33.130  28.107  24.532  1.00  0.00    -0.319 N 
ATOM      9  S   UNL A   1      30.545  27.858  23.951  1.00  0.00    -0.087 SA
ATOM     10  H   UNL A   1      33.541  28.556  23.714  1.00  0.00     0.348 HD
ATOM     11  H   UNL A   1      33.861  27.665  25.091  1.00  0.00     0.348 HD
ATOM     12  C   UNL A   1      31.028  29.361  24.836  1.00  0.00     0.153 C 
BRANCH   7  13
ATOM     13  C   UNL A   1      32.221  25.840  24.958  1.00  0.00     0.128 A 
ATOM     14  C   UNL A   1      31.331  25.423  25.887  1.00  0.00     0.205 A 
ATOM     15  O   UNL A   1      31.575  24.393  26.780  1.00  0.00    -0.440 OA
ATOM     16  C   UNL A   1      32.723  23.665  26.673  1.00  0.00     0.140 A 
ATOM     17  C   UNL A   1      33.415  24.975  24.724  1.00  0.00     0.205 A 
ATOM     18  C   UNL A   1      32.935  22.667  27.626  1.00  0.00     0.051 A 
ATOM     19  C   UNL A   1      33.629  23.851  25.640  1.00  0.00     0.068 A 
ATOM     20  O   UNL A   1      34.184  25.141  23.782  1.00  0.00    -0.288 OA
ATOM     21  C   UNL A   1      34.026  21.810  27.496  1.00  0.00     0.043 A 
ATOM     22  C   UNL A   1      34.710  22.979  25.486  1.00  0.00     0.055 A 
ATOM     23  C   UNL A   1      34.887  21.958  26.412  1.00  0.00     0.124 A 
ATOM     24  F   UNL A   1      35.903  21.096  26.261  1.00  0.00    -0.207 F 
BRANCH  14  25
ATOM     25  N   UNL A   1      30.107  25.986  26.104  1.00  0.00    -0.369 N 
ATOM     26  H   UNL A   1      29.914  26.890  25.767  1.00  0.00     0.159 HD
ATOM     27  H   UNL A   1      29.417  25.486  26.598  1.00  0.00     0.159 HD
ENDBRANCH  14  25
ENDBRANCH   7  13
ENDBRANCH   4   6
ENDBRANCH   3   4
ENDBRANCH   2   3
ENDBRANCH   1   2
BRANCH   1  28
ATOM     28  O   UNL A   1      35.667  29.984  28.691  1.00  0.00    -0.458 OA
BRANCH  28  29
ATOM     29  C   UNL A   1      36.453  30.300  29.750  1.00  0.00     0.338 C 
ATOM     30  O   UNL A   1      36.109  30.683  30.852  1.00  0.00    -0.246 OA
BRANCH  29  31
ATOM     31  C   UNL A   1      37.814  29.870  29.400  1.00  0.00     0.060 A 
ATOM     32  C   UNL A   1      38.786  29.712  30.386  1.00  0.00     0.016 A 
ATOM     33  C   UNL A   1      38.123  29.689  28.049  1.00  0.00     0.016 A 
ATOM     34  C   UNL A   1      40.089  29.396  30.009  1.00  0.00     0.010 A 
ATOM     35  C   UNL A   1      39.427  29.381  27.671  1.00  0.00     0.010 A 
ATOM     36  C   UNL A   1      40.418  29.240  28.651  1.00  0.00    -0.014 A 
BRANCH  36  37
ATOM     37  C   UNL A   1      41.790  28.849  28.262  1.00  0.00     0.031 A 
ATOM     38  C   UNL A   1      42.893  29.862  28.202  1.00  0.00     0.074 A 
ATOM     39  C   UNL A   1      42.013  27.564  27.939  1.00  0.00     0.049 A 
ATOM     40  N   UNL A   1      44.160  29.681  27.934  1.00  0.00    -0.248 NA
ATOM     41  C   UNL A   1      42.525  31.262  28.461  1.00  0.00     0.031 C 
ATOM     42  C   UNL A   1      40.988  26.517  27.910  1.00  0.00     0.029 A 
ATOM     43  N   UNL A   1      43.162  26.918  27.571  1.00  0.00    -0.354 N 
ATOM     44  C   UNL A   1      44.747  30.939  28.001  1.00  0.00     0.074 A 
ATOM     45  C   UNL A   1      43.686  31.882  28.291  1.00  0.00     0.031 C 
ATOM     46  C   UNL A   1      41.559  25.355  27.563  1.00  0.00     0.029 A 
ATOM     47  C   UNL A   1      42.982  25.579  27.325  1.00  0.00     0.049 A 
ATOM     48  H   UNL A   1      44.033  27.369  27.491  1.00  0.00     0.167 HD
ATOM     49  C   UNL A   1      46.053  31.266  27.848  1.00  0.00     0.037 A 
ATOM     50  C   UNL A   1      43.867  24.637  26.952  1.00  0.00     0.037 A 
ATOM     51  C   UNL A   1      47.090  30.308  27.549  1.00  0.00     0.049 A 
ATOM     52  C   UNL A   1      45.309  25.020  26.800  1.00  0.00     0.074 A 
ATOM     53  C   UNL A   1      48.452  30.519  27.434  1.00  0.00     0.029 A 
ATOM     54  N   UNL A   1      46.875  28.957  27.304  1.00  0.00    -0.354 N 
ATOM     55  N   UNL A   1      45.867  26.199  26.947  1.00  0.00    -0.248 NA
ATOM     56  C   UNL A   1      46.246  23.947  26.448  1.00  0.00     0.031 C 
ATOM     57  C   UNL A   1      49.054  29.308  27.069  1.00  0.00     0.029 A 
ATOM     58  C   UNL A   1      48.075  28.329  27.010  1.00  0.00     0.049 A 
ATOM     59  H   UNL A   1      45.998  28.511  27.336  1.00  0.00     0.167 HD
ATOM     60  C   UNL A   1      47.222  26.013  26.708  1.00  0.00     0.074 A 
ATOM     61  C   UNL A   1      47.401  24.598  26.437  1.00  0.00     0.031 C 
ATOM     62  C   UNL A   1      48.226  26.925  26.709  1.00  0.00     0.037 A 
BRANCH  49  63
ATOM     63  C   UNL A   1      46.436  32.714  27.996  1.00  0.00     0.058 A 
ATOM     64  C   UNL A   1      46.972  33.216  29.195  1.00  0.00     0.135 A 
ATOM     65  C   UNL A   1      46.307  33.605  26.918  1.00  0.00     0.135 A 
ATOM     66  F   UNL A   1      47.108  32.414  30.263  1.00  0.00    -0.206 F 
ATOM     67  C   UNL A   1      47.342  34.551  29.326  1.00  0.00     0.059 A 
ATOM     68  C   UNL A   1      46.695  34.940  27.019  1.00  0.00     0.059 A 
ATOM     69  F   UNL A   1      45.801  33.182  25.750  1.00  0.00    -0.206 F 
ATOM     70  C   UNL A   1      47.199  35.406  28.232  1.00  0.00     0.060 A 
BRANCH  70  71
ATOM     71  S   UNL A   1      47.689  37.134  28.421  1.00  0.00     0.124 S 
ATOM     72  O   UNL A   1      46.695  37.811  27.592  1.00  0.00    -0.237 OA
ATOM     73  O   UNL A   1      47.559  37.339  29.859  1.00  0.00    -0.237 OA
ATOM     74  O   UNL A   1      49.055  37.160  27.907  1.00  0.00    -0.744 OA
ENDBRANCH  70  71
ENDBRANCH  49  63
BRANCH  50  75
ATOM     75  C   UNL A   1      43.398  23.242  26.746  1.00  0.00     0.058 A 
ATOM     76  C   UNL A   1      43.351  22.679  25.464  1.00  0.00     0.135 A 
ATOM     77  C   UNL A   1      43.071  22.421  27.837  1.00  0.00     0.135 A 
ATOM     78  F   UNL A   1      43.653  23.427  24.392  1.00  0.00    -0.206 F 
ATOM     79  C   UNL A   1      43.002  21.347  25.267  1.00  0.00     0.059 A 
ATOM     80  C   UNL A   1      42.742  21.080  27.668  1.00  0.00     0.059 A 
ATOM     81  F   UNL A   1      43.120  22.910  29.086  1.00  0.00    -0.206 F 
ATOM     82  C   UNL A   1      42.712  20.553  26.378  1.00  0.00     0.060 A 
BRANCH  82  83
ATOM     83  S   UNL A   1      42.357  18.802  26.115  1.00  0.00     0.124 S 
ATOM     84  O   UNL A   1      40.945  18.838  25.752  1.00  0.00    -0.237 OA
ATOM     85  O   UNL A   1      43.283  18.462  25.040  1.00  0.00    -0.237 OA
ATOM     86  O   UNL A   1      42.661  18.198  27.408  1.00  0.00    -0.744 OA
ENDBRANCH  82  83
ENDBRANCH  50  75
BRANCH  62  87
ATOM     87  C   UNL A   1      49.605  26.414  26.391  1.00  0.00     0.058 A 
ATOM     88  C   UNL A   1      50.139  26.505  25.097  1.00  0.00     0.135 A 
ATOM     89  C   UNL A   1      50.403  25.836  27.391  1.00  0.00     0.135 A 
ATOM     90  F   UNL A   1      49.416  27.045  24.102  1.00  0.00    -0.206 F 
ATOM     91  C   UNL A   1      51.400  26.003  24.794  1.00  0.00     0.059 A 
ATOM     92  C   UNL A   1      51.679  25.354  27.118  1.00  0.00     0.059 A 
ATOM     93  F   UNL A   1      49.946  25.736  28.649  1.00  0.00    -0.206 F 
ATOM     94  C   UNL A   1      52.161  25.424  25.811  1.00  0.00     0.060 A 
BRANCH  94  95
ATOM     95  S   UNL A   1      53.791  24.766  25.402  1.00  0.00     0.124 S 
ATOM     96  O   UNL A   1      54.527  25.022  26.637  1.00  0.00    -0.237 OA
ATOM     97  O   UNL A   1      53.500  23.365  25.116  1.00  0.00    -0.237 OA
ATOM     98  O   UNL A   1      54.201  25.564  24.251  1.00  0.00    -0.744 OA
ENDBRANCH  94  95
ENDBRANCH  62  87
ENDBRANCH  36  37
ENDBRANCH  29  31
ENDBRANCH  28  29
ENDBRANCH   1  28
TORSDOF 16
ENDMDL
MODEL 2
REMARK VINA RESULT:     -11.7      6.977     12.387
REMARK SMILES Nc1oc2ccc(F)cc2c(=O)c1[C@@H]1[NH2+][C@H](C(=O)OCCOC(=O)c2ccc(-c3c4nc(c(-c5c(F)cc(S(=O)(=O)[O-])cc5F)c5ccc([nH]5)c(-c5c(F)cc(S(=O)(=O)[O-])cc5F)c5nc(c(-c6c(F)cc(S(=O)(=O)[O-])cc6F)c6ccc3[nH]6)C=C5)C=C4)cc2)CS1
REMARK SMILES IDX 21 1 20 2 19 3 17 4 18 5 16 6 14 7 15 8 92 9 91 12 13 13
REMARK SMILES IDX 2 14 3 15 4 16 11 17 5 18 10 19 12 20 6 21 9 22 7 23 8 24
REMARK SMILES IDX 1 25 22 28 23 29 24 30 25 31 26 32 90 33 27 34 89 35 28 36
REMARK SMILES IDX 29 37 30 38 83 39 31 40 88 41 82 42 84 43 32 44 87 45 81 46
REMARK SMILES IDX 80 47 33 49 67 50 46 51 66 52 47 53 50 54 65 55 85 56 48 57
REMARK SMILES IDX 49 58 64 60 86 61 51 62 34 63 35 64 44 65 36 66 37 67 43 68
REMARK SMILES IDX 45 69 38 70 39 71 40 72 41 73 42 74 68 75 69 76 78 77 70 78
REMARK SMILES IDX 71 79 77 80 79 81 72 82 73 83 74 84 75 85 76 86 52 87 53 88
REMARK SMILES IDX 62 89 54 90 55 91 61 92 63 93 56 94 57 95 58 96 59 97 60 98
REMARK H PARENT 15 10 15 11 1 26 1 27 84 48 50 59
REMARK Flexibility Score: inf
ROOT
ATOM      1  C   UNL A   1      38.891  23.124  26.123  1.00  0.00     0.275 C 
ENDROOT
BRANCH   1   2
ATOM      2  C   UNL A   1      37.661  23.098  25.215  1.00  0.00     0.274 C 
BRANCH   2   3
ATOM      3  O   UNL A   1      36.673  22.233  25.802  1.00  0.00    -0.458 OA
BRANCH   3   4
ATOM      4  C   UNL A   1      35.618  21.874  25.026  1.00  0.00     0.365 C 
ATOM      5  O   UNL A   1      35.479  22.211  23.856  1.00  0.00    -0.245 OA
BRANCH   4   6
ATOM      6  C   UNL A   1      34.633  20.930  25.741  1.00  0.00     0.304 C 
ATOM      7  C   UNL A   1      32.391  21.846  25.760  1.00  0.00     0.283 C 
ATOM      8  N   UNL A   1      33.599  21.606  26.562  1.00  0.00    -0.319 N 
ATOM      9  S   UNL A   1      32.285  20.539  24.509  1.00  0.00    -0.087 SA
ATOM     10  H   UNL A   1      33.362  21.016  27.359  1.00  0.00     0.348 HD
ATOM     11  H   UNL A   1      33.965  22.501  26.887  1.00  0.00     0.348 HD
ATOM     12  C   UNL A   1      33.979  19.957  24.767  1.00  0.00     0.153 C 
BRANCH   7  13
ATOM     13  C   UNL A   1      32.322  23.256  25.223  1.00  0.00     0.128 A 
ATOM     14  C   UNL A   1      32.563  23.696  23.966  1.00  0.00     0.205 A 
ATOM     15  O   UNL A   1      32.690  25.033  23.630  1.00  0.00    -0.440 OA
ATOM     16  C   UNL A   1      32.458  25.992  24.571  1.00  0.00     0.140 A 
ATOM     17  C   UNL A   1      31.923  24.278  26.236  1.00  0.00     0.205 A 
ATOM     18  C   UNL A   1      32.643  27.321  24.185  1.00  0.00     0.051 A 
ATOM     19  C   UNL A   1      32.005  25.689  25.846  1.00  0.00     0.068 A 
ATOM     20  O   UNL A   1      31.494  23.982  27.347  1.00  0.00    -0.288 OA
ATOM     21  C   UNL A   1      32.302  28.347  25.065  1.00  0.00     0.043 A 
ATOM     22  C   UNL A   1      31.635  26.711  26.724  1.00  0.00     0.055 A 
ATOM     23  C   UNL A   1      31.776  28.032  26.315  1.00  0.00     0.124 A 
ATOM     24  F   UNL A   1      31.399  29.023  27.134  1.00  0.00    -0.207 F 
BRANCH  14  25
ATOM     25  N   UNL A   1      32.761  22.892  22.882  1.00  0.00    -0.369 N 
ATOM     26  H   UNL A   1      33.058  23.282  22.028  1.00  0.00     0.159 HD
ATOM     27  H   UNL A   1      32.606  21.923  22.954  1.00  0.00     0.159 HD
ENDBRANCH  14  25
ENDBRANCH   7  13
ENDBRANCH   4   6
ENDBRANCH   3   4
ENDBRANCH   2   3
ENDBRANCH   1   2
BRANCH   1  28
ATOM     28  O   UNL A   1      39.188  24.488  26.463  1.00  0.00    -0.458 OA
BRANCH  28  29
ATOM     29  C   UNL A   1      40.461  24.715  26.873  1.00  0.00     0.338 C 
ATOM     30  O   UNL A   1      41.494  24.308  26.374  1.00  0.00    -0.246 OA
BRANCH  29  31
ATOM     31  C   UNL A   1      40.384  25.750  27.913  1.00  0.00     0.060 A 
ATOM     32  C   UNL A   1      41.412  26.677  28.071  1.00  0.00     0.016 A 
ATOM     33  C   UNL A   1      39.287  25.735  28.780  1.00  0.00     0.016 A 
ATOM     34  C   UNL A   1      41.350  27.583  29.127  1.00  0.00     0.010 A 
ATOM     35  C   UNL A   1      39.230  26.635  29.841  1.00  0.00     0.010 A 
ATOM     36  C   UNL A   1      40.266  27.559  30.022  1.00  0.00    -0.014 A 
BRANCH  36  37
ATOM     37  C   UNL A   1      40.180  28.561  31.107  1.00  0.00     0.031 A 
ATOM     38  C   UNL A   1      41.053  28.460  32.321  1.00  0.00     0.074 A 
ATOM     39  C   UNL A   1      39.278  29.550  30.984  1.00  0.00     0.049 A 
ATOM     40  N   UNL A   1      41.145  29.278  33.336  1.00  0.00    -0.248 NA
ATOM     41  C   UNL A   1      41.925  27.280  32.417  1.00  0.00     0.031 C 
ATOM     42  C   UNL A   1      38.343  29.696  29.866  1.00  0.00     0.029 A 
ATOM     43  N   UNL A   1      38.993  30.611  31.800  1.00  0.00    -0.354 N 
ATOM     44  C   UNL A   1      42.090  28.723  34.189  1.00  0.00     0.074 A 
ATOM     45  C   UNL A   1      42.511  27.472  33.592  1.00  0.00     0.031 C 
ATOM     46  C   UNL A   1      37.601  30.796  30.057  1.00  0.00     0.029 A 
ATOM     47  C   UNL A   1      37.993  31.418  31.318  1.00  0.00     0.049 A 
ATOM     48  H   UNL A   1      39.461  30.779  32.650  1.00  0.00     0.167 HD
ATOM     49  C   UNL A   1      42.569  29.224  35.354  1.00  0.00     0.037 A 
ATOM     50  C   UNL A   1      37.455  32.538  31.835  1.00  0.00     0.037 A 
ATOM     51  C   UNL A   1      42.126  30.469  35.934  1.00  0.00     0.049 A 
ATOM     52  C   UNL A   1      38.009  33.080  33.119  1.00  0.00     0.074 A 
ATOM     53  C   UNL A   1      42.585  31.100  37.076  1.00  0.00     0.029 A 
ATOM     54  N   UNL A   1      41.109  31.264  35.421  1.00  0.00    -0.354 N 
ATOM     55  N   UNL A   1      38.962  32.588  33.876  1.00  0.00    -0.248 NA
ATOM     56  C   UNL A   1      37.429  34.333  33.613  1.00  0.00     0.031 C 
ATOM     57  C   UNL A   1      41.813  32.250  37.281  1.00  0.00     0.029 A 
ATOM     58  C   UNL A   1      40.906  32.365  36.239  1.00  0.00     0.049 A 
ATOM     59  H   UNL A   1      40.605  31.074  34.597  1.00  0.00     0.167 HD
ATOM     60  C   UNL A   1      39.100  33.473  34.937  1.00  0.00     0.074 A 
ATOM     61  C   UNL A   1      38.151  34.546  34.705  1.00  0.00     0.031 C 
ATOM     62  C   UNL A   1      39.932  33.405  36.007  1.00  0.00     0.037 A 
BRANCH  49  63
ATOM     63  C   UNL A   1      43.620  28.428  36.081  1.00  0.00     0.058 A 
ATOM     64  C   UNL A   1      43.283  27.343  36.908  1.00  0.00     0.135 A 
ATOM     65  C   UNL A   1      44.984  28.724  35.920  1.00  0.00     0.135 A 
ATOM     66  F   UNL A   1      41.995  27.019  37.109  1.00  0.00    -0.206 F 
ATOM     67  C   UNL A   1      44.257  26.597  37.566  1.00  0.00     0.059 A 
ATOM     68  C   UNL A   1      45.976  27.975  36.549  1.00  0.00     0.059 A 
ATOM     69  F   UNL A   1      45.364  29.750  35.143  1.00  0.00    -0.206 F 
ATOM     70  C   UNL A   1      45.601  26.920  37.380  1.00  0.00     0.060 A 
BRANCH  70  71
ATOM     71  S   UNL A   1      46.850  25.938  38.239  1.00  0.00     0.124 S 
ATOM     72  O   UNL A   1      47.136  26.779  39.398  1.00  0.00    -0.237 OA
ATOM     73  O   UNL A   1      46.133  24.699  38.518  1.00  0.00    -0.237 OA
ATOM     74  O   UNL A   1      47.929  25.830  37.263  1.00  0.00    -0.744 OA
ENDBRANCH  70  71
ENDBRANCH  49  63
BRANCH  50  75
ATOM     75  C   UNL A   1      36.363  33.224  31.097  1.00  0.00     0.058 A 
ATOM     76  C   UNL A   1      35.056  33.245  31.600  1.00  0.00     0.135 A 
ATOM     77  C   UNL A   1      36.626  33.945  29.921  1.00  0.00     0.135 A 
ATOM     78  F   UNL A   1      34.757  32.569  32.720  1.00  0.00    -0.206 F 
ATOM     79  C   UNL A   1      34.044  33.961  30.968  1.00  0.00     0.059 A 
ATOM     80  C   UNL A   1      35.638  34.687  29.284  1.00  0.00     0.059 A 
ATOM     81  F   UNL A   1      37.868  33.971  29.412  1.00  0.00    -0.206 F 
ATOM     82  C   UNL A   1      34.350  34.690  29.817  1.00  0.00     0.060 A 
BRANCH  82  83
ATOM     83  S   UNL A   1      33.050  35.693  29.064  1.00  0.00     0.124 S 
ATOM     84  O   UNL A   1      32.294  36.124  30.233  1.00  0.00    -0.237 OA
ATOM     85  O   UNL A   1      33.821  36.729  28.384  1.00  0.00    -0.237 OA
ATOM     86  O   UNL A   1      32.367  34.751  28.181  1.00  0.00    -0.744 OA
ENDBRANCH  82  83
ENDBRANCH  50  75
BRANCH  62  87
ATOM     87  C   UNL A   1      39.834  34.520  37.012  1.00  0.00     0.058 A 
ATOM     88  C   UNL A   1      40.589  35.696  36.876  1.00  0.00     0.135 A 
ATOM     89  C   UNL A   1      38.973  34.418  38.115  1.00  0.00     0.135 A 
ATOM     90  F   UNL A   1      41.432  35.844  35.842  1.00  0.00    -0.206 F 
ATOM     91  C   UNL A   1      40.524  36.714  37.821  1.00  0.00     0.059 A 
ATOM     92  C   UNL A   1      38.869  35.436  39.057  1.00  0.00     0.059 A 
ATOM     93  F   UNL A   1      38.218  33.320  38.286  1.00  0.00    -0.206 F 
ATOM     94  C   UNL A   1      39.665  36.572  38.913  1.00  0.00     0.060 A 
BRANCH  94  95
ATOM     95  S   UNL A   1      39.599  37.895  40.138  1.00  0.00     0.124 S 
ATOM     96  O   UNL A   1      40.946  38.450  40.041  1.00  0.00    -0.237 OA
ATOM     97  O   UNL A   1      38.527  38.742  39.627  1.00  0.00    -0.237 OA
ATOM     98  O   UNL A   1      39.298  37.192  41.381  1.00  0.00    -0.744 OA
ENDBRANCH  94  95
ENDBRANCH  62  87
ENDBRANCH  36  37
ENDBRANCH  29  31
ENDBRANCH  28  29
ENDBRANCH   1  28
TORSDOF 16
ENDMDL
MODEL 3
REMARK VINA RESULT:     -11.7      3.102      3.985
REMARK SMILES Nc1oc2ccc(F)cc2c(=O)c1[C@@H]1[NH2+][C@H](C(=O)OCCOC(=O)c2ccc(-c3c4nc(c(-c5c(F)cc(S(=O)(=O)[O-])cc5F)c5ccc([nH]5)c(-c5c(F)cc(S(=O)(=O)[O-])cc5F)c5nc(c(-c6c(F)cc(S(=O)(=O)[O-])cc6F)c6ccc3[nH]6)C=C5)C=C4)cc2)CS1
REMARK SMILES IDX 21 1 20 2 19 3 17 4 18 5 16 6 14 7 15 8 92 9 91 12 13 13
REMARK SMILES IDX 2 14 3 15 4 16 11 17 5 18 10 19 12 20 6 21 9 22 7 23 8 24
REMARK SMILES IDX 1 25 22 28 23 29 24 30 25 31 26 32 90 33 27 34 89 35 28 36
REMARK SMILES IDX 29 37 30 38 83 39 31 40 88 41 82 42 84 43 32 44 87 45 81 46
REMARK SMILES IDX 80 47 33 49 67 50 46 51 66 52 47 53 50 54 65 55 85 56 48 57
REMARK SMILES IDX 49 58 64 60 86 61 51 62 34 63 35 64 44 65 36 66 37 67 43 68
REMARK SMILES IDX 45 69 38 70 39 71 40 72 41 73 42 74 68 75 69 76 78 77 70 78
REMARK SMILES IDX 71 79 77 80 79 81 72 82 73 83 74 84 75 85 76 86 52 87 53 88
REMARK SMILES IDX 62 89 54 90 55 91 61 92 63 93 56 94 57 95 58 96 59 97 60 98
REMARK H PARENT 15 10 15 11 1 26 1 27 84 48 50 59
REMARK Flexibility Score: inf
ROOT
ATOM      1  C   UNL A   1      32.711  29.227  26.850  1.00  0.00     0.275 C 
ENDROOT
BRANCH   1   2
ATOM      2  C   UNL A   1      33.065  29.534  25.395  1.00  0.00     0.274 C 
BRANCH   2   3
ATOM      3  O   UNL A   1      32.020  29.022  24.548  1.00  0.00    -0.458 OA
BRANCH   3   4
ATOM      4  C   UNL A   1      32.311  28.852  23.233  1.00  0.00     0.365 C 
ATOM      5  O   UNL A   1      33.393  29.127  22.726  1.00  0.00    -0.245 OA
BRANCH   4   6
ATOM      6  C   UNL A   1      31.162  28.202  22.438  1.00  0.00     0.304 C 
ATOM      7  C   UNL A   1      31.015  25.826  22.882  1.00  0.00     0.283 C 
ATOM      8  N   UNL A   1      31.449  26.844  21.915  1.00  0.00    -0.319 N 
ATOM      9  S   UNL A   1      29.609  26.500  23.806  1.00  0.00    -0.087 SA
ATOM     10  H   UNL A   1      30.951  26.708  21.036  1.00  0.00     0.348 HD
ATOM     11  H   UNL A   1      32.454  26.751  21.764  1.00  0.00     0.348 HD
ATOM     12  C   UNL A   1      29.861  28.198  23.231  1.00  0.00     0.153 C 
BRANCH   7  13
ATOM     13  C   UNL A   1      32.153  25.311  23.732  1.00  0.00     0.128 A 
ATOM     14  C   UNL A   1      32.411  25.552  25.038  1.00  0.00     0.205 A 
ATOM     15  O   UNL A   1      33.599  25.213  25.663  1.00  0.00    -0.440 OA
ATOM     16  C   UNL A   1      34.541  24.498  24.983  1.00  0.00     0.140 A 
ATOM     17  C   UNL A   1      33.097  24.408  23.007  1.00  0.00     0.205 A 
ATOM     18  C   UNL A   1      35.735  24.222  25.650  1.00  0.00     0.051 A 
ATOM     19  C   UNL A   1      34.323  24.008  23.704  1.00  0.00     0.068 A 
ATOM     20  O   UNL A   1      32.865  23.962  21.888  1.00  0.00    -0.288 OA
ATOM     21  C   UNL A   1      36.682  23.391  25.053  1.00  0.00     0.043 A 
ATOM     22  C   UNL A   1      35.254  23.152  23.110  1.00  0.00     0.055 A 
ATOM     23  C   UNL A   1      36.420  22.843  23.800  1.00  0.00     0.124 A 
ATOM     24  F   UNL A   1      37.309  22.001  23.256  1.00  0.00    -0.207 F 
BRANCH  14  25
ATOM     25  N   UNL A   1      31.569  26.199  25.894  1.00  0.00    -0.369 N 
ATOM     26  H   UNL A   1      31.006  25.682  26.514  1.00  0.00     0.159 HD
ATOM     27  H   UNL A   1      31.525  27.182  25.891  1.00  0.00     0.159 HD
ENDBRANCH  14  25
ENDBRANCH   7  13
ENDBRANCH   4   6
ENDBRANCH   3   4
ENDBRANCH   2   3
ENDBRANCH   1   2
BRANCH   1  28
ATOM     28  O   UNL A   1      33.925  29.126  27.612  1.00  0.00    -0.458 OA
BRANCH  28  29
ATOM     29  C   UNL A   1      34.490  30.310  27.955  1.00  0.00     0.338 C 
ATOM     30  O   UNL A   1      33.934  31.368  28.185  1.00  0.00    -0.246 OA
BRANCH  29  31
ATOM     31  C   UNL A   1      35.906  30.031  28.232  1.00  0.00     0.060 A 
ATOM     32  C   UNL A   1      36.871  30.202  27.241  1.00  0.00     0.016 A 
ATOM     33  C   UNL A   1      36.246  29.528  29.490  1.00  0.00     0.016 A 
ATOM     34  C   UNL A   1      38.188  29.836  27.509  1.00  0.00     0.010 A 
ATOM     35  C   UNL A   1      37.561  29.155  29.755  1.00  0.00     0.010 A 
ATOM     36  C   UNL A   1      38.537  29.302  28.762  1.00  0.00    -0.014 A 
BRANCH  36  37
ATOM     37  C   UNL A   1      39.947  28.971  29.057  1.00  0.00     0.031 A 
ATOM     38  C   UNL A   1      40.858  29.975  29.697  1.00  0.00     0.074 A 
ATOM     39  C   UNL A   1      40.396  27.751  28.712  1.00  0.00     0.049 A 
ATOM     40  N   UNL A   1      42.102  29.832  30.073  1.00  0.00    -0.248 NA
ATOM     41  C   UNL A   1      40.308  31.318  29.931  1.00  0.00     0.031 C 
ATOM     42  C   UNL A   1      39.598  26.728  28.032  1.00  0.00     0.029 A 
ATOM     43  N   UNL A   1      41.621  27.166  28.879  1.00  0.00    -0.354 N 
ATOM     44  C   UNL A   1      42.485  31.060  30.598  1.00  0.00     0.074 A 
ATOM     45  C   UNL A   1      41.352  31.951  30.449  1.00  0.00     0.031 C 
ATOM     46  C   UNL A   1      40.352  25.633  27.856  1.00  0.00     0.029 A 
ATOM     47  C   UNL A   1      41.686  25.884  28.392  1.00  0.00     0.049 A 
ATOM     48  H   UNL A   1      42.383  27.620  29.307  1.00  0.00     0.167 HD
ATOM     49  C   UNL A   1      43.669  31.401  31.162  1.00  0.00     0.037 A 
ATOM     50  C   UNL A   1      42.707  25.008  28.382  1.00  0.00     0.037 A 
ATOM     51  C   UNL A   1      44.787  30.497  31.289  1.00  0.00     0.049 A 
ATOM     52  C   UNL A   1      44.004  25.403  29.023  1.00  0.00     0.074 A 
ATOM     53  C   UNL A   1      46.009  30.717  31.897  1.00  0.00     0.029 A 
ATOM     54  N   UNL A   1      44.821  29.203  30.784  1.00  0.00    -0.354 N 
ATOM     55  N   UNL A   1      44.328  26.542  29.591  1.00  0.00    -0.248 NA
ATOM     56  C   UNL A   1      45.069  24.395  29.038  1.00  0.00     0.031 C 
ATOM     57  C   UNL A   1      46.801  29.576  31.716  1.00  0.00     0.029 A 
ATOM     58  C   UNL A   1      46.053  28.623  31.041  1.00  0.00     0.049 A 
ATOM     59  H   UNL A   1      44.078  28.762  30.312  1.00  0.00     0.167 HD
ATOM     60  C   UNL A   1      45.635  26.388  30.034  1.00  0.00     0.074 A 
ATOM     61  C   UNL A   1      46.029  25.033  29.695  1.00  0.00     0.031 C 
ATOM     62  C   UNL A   1      46.437  27.284  30.663  1.00  0.00     0.037 A 
BRANCH  49  63
ATOM     63  C   UNL A   1      43.820  32.806  31.682  1.00  0.00     0.058 A 
ATOM     64  C   UNL A   1      44.284  33.849  30.863  1.00  0.00     0.135 A 
ATOM     65  C   UNL A   1      43.459  33.126  33.001  1.00  0.00     0.135 A 
ATOM     66  F   UNL A   1      44.655  33.601  29.596  1.00  0.00    -0.206 F 
ATOM     67  C   UNL A   1      44.408  35.151  31.339  1.00  0.00     0.059 A 
ATOM     68  C   UNL A   1      43.550  34.428  33.491  1.00  0.00     0.059 A 
ATOM     69  F   UNL A   1      43.011  32.170  33.829  1.00  0.00    -0.206 F 
ATOM     70  C   UNL A   1      44.038  35.431  32.655  1.00  0.00     0.060 A 
BRANCH  70  71
ATOM     71  S   UNL A   1      44.201  37.127  33.253  1.00  0.00     0.124 S 
ATOM     72  O   UNL A   1      44.436  37.854  32.009  1.00  0.00    -0.237 OA
ATOM     73  O   UNL A   1      42.908  37.359  33.887  1.00  0.00    -0.237 OA
ATOM     74  O   UNL A   1      45.340  37.060  34.163  1.00  0.00    -0.744 OA
ENDBRANCH  70  71
ENDBRANCH  49  63
BRANCH  50  75
ATOM     75  C   UNL A   1      42.505  23.666  27.777  1.00  0.00     0.058 A 
ATOM     76  C   UNL A   1      42.615  23.475  26.394  1.00  0.00     0.135 A 
ATOM     77  C   UNL A   1      42.285  22.536  28.581  1.00  0.00     0.135 A 
ATOM     78  F   UNL A   1      42.823  24.525  25.586  1.00  0.00    -0.206 F 
ATOM     79  C   UNL A   1      42.520  22.209  25.825  1.00  0.00     0.059 A 
ATOM     80  C   UNL A   1      42.209  21.258  28.039  1.00  0.00     0.059 A 
ATOM     81  F   UNL A   1      42.192  22.667  29.914  1.00  0.00    -0.206 F 
ATOM     82  C   UNL A   1      42.330  21.105  26.658  1.00  0.00     0.060 A 
BRANCH  82  83
ATOM     83  S   UNL A   1      42.307  19.459  25.915  1.00  0.00     0.124 S 
ATOM     84  O   UNL A   1      40.893  19.299  25.596  1.00  0.00    -0.237 OA
ATOM     85  O   UNL A   1      43.203  19.627  24.776  1.00  0.00    -0.237 OA
ATOM     86  O   UNL A   1      42.815  18.601  26.981  1.00  0.00    -0.744 OA
ENDBRANCH  82  83
ENDBRANCH  50  75
BRANCH  62  87
ATOM     87  C   UNL A   1      47.827  26.822  31.006  1.00  0.00     0.058 A 
ATOM     88  C   UNL A   1      48.127  26.268  32.261  1.00  0.00     0.135 A 
ATOM     89  C   UNL A   1      48.868  26.925  30.070  1.00  0.00     0.135 A 
ATOM     90  F   UNL A   1      47.169  26.151  33.195  1.00  0.00    -0.206 F 
ATOM     91  C   UNL A   1      49.417  25.872  32.591  1.00  0.00     0.059 A 
ATOM     92  C   UNL A   1      50.161  26.507  30.367  1.00  0.00     0.059 A 
ATOM     93  F   UNL A   1      48.634  27.435  28.850  1.00  0.00    -0.206 F 
ATOM     94  C   UNL A   1      50.430  26.001  31.638  1.00  0.00     0.060 A 
BRANCH  94  95
ATOM     95  S   UNL A   1      52.104  25.493  32.083  1.00  0.00     0.124 S 
ATOM     96  O   UNL A   1      52.875  26.006  30.955  1.00  0.00    -0.237 OA
ATOM     97  O   UNL A   1      52.311  26.177  33.355  1.00  0.00    -0.237 OA
ATOM     98  O   UNL A   1      52.007  24.039  32.167  1.00  0.00    -0.744 OA
ENDBRANCH  94  95
ENDBRANCH  62  87
ENDBRANCH  36  37
ENDBRANCH  29  31
ENDBRANCH  28  29
ENDBRANCH   1  28
TORSDOF 16
ENDMDL
