MODEL 1
REMARK VINA RESULT:     -10.9      0.000      0.000
REMARK SMILES COc1cc(OC)cc(-c2ccc(C(=O)OCCOC(=O)c3ccc(-c4c5nc(c(-c6c(F)cc(S(=O)(=O)[O-])cc6F)c6ccc([nH]6)c(-c6c(F)cc(S(=O)(=O)[O-])cc6F)c6nc(c(-c7c(F)cc(S(=O)(=O)[O-])cc7F)c7ccc4[nH]7)C=C6)C=C5)cc3)o2)c1
REMARK SMILES IDX 18 1 17 2 16 3 14 4 15 5 13 6 10 7 11 8 88 9 12 10 9 11 3 12
REMARK SMILES IDX 4 13 89 14 5 15 8 16 2 17 1 18 6 19 7 20 19 21 20 22 21 23
REMARK SMILES IDX 22 24 23 25 87 26 24 27 86 28 25 29 26 30 27 31 80 32 28 33
REMARK SMILES IDX 85 34 79 35 81 36 29 37 84 38 78 39 77 40 30 42 64 43 43 44
REMARK SMILES IDX 63 45 44 46 47 47 62 48 82 49 45 50 46 51 61 53 83 54 48 55
REMARK SMILES IDX 31 56 32 57 41 58 33 59 34 60 40 61 42 62 35 63 36 64 37 65
REMARK SMILES IDX 38 66 39 67 65 68 66 69 75 70 67 71 68 72 74 73 76 74 69 75
REMARK SMILES IDX 70 76 71 77 72 78 73 79 49 80 50 81 59 82 51 83 52 84 58 85
REMARK SMILES IDX 60 86 53 87 54 88 55 89 56 90 57 91
REMARK H PARENT 81 41 47 52
REMARK Flexibility Score: inf
ROOT
ATOM      1  C   UNL A   1      43.099  23.038  25.648  1.00  0.00     0.275 C 
ENDROOT
BRANCH   1   2
ATOM      2  C   UNL A   1      42.595  21.635  26.010  1.00  0.00     0.275 C 
BRANCH   2   3
ATOM      3  O   UNL A   1      41.255  21.417  25.531  1.00  0.00    -0.456 OA
BRANCH   3   4
ATOM      4  C   UNL A   1      40.290  21.295  26.496  1.00  0.00     0.374 C 
ATOM      5  O   UNL A   1      40.413  20.627  27.509  1.00  0.00    -0.242 OA
BRANCH   4   6
ATOM      6  C   UNL A   1      39.163  22.142  26.168  1.00  0.00     0.212 A 
ATOM      7  C   UNL A   1      37.081  22.492  25.533  1.00  0.00     0.135 A 
ATOM      8  C   UNL A   1      37.562  23.709  25.958  1.00  0.00     0.052 A 
ATOM      9  O   UNL A   1      38.061  21.551  25.601  1.00  0.00    -0.449 OA
ATOM     10  C   UNL A   1      38.899  23.484  26.371  1.00  0.00     0.059 A 
BRANCH   7  11
ATOM     11  C   UNL A   1      35.780  22.024  25.096  1.00  0.00     0.025 A 
ATOM     12  C   UNL A   1      34.184  20.229  24.811  1.00  0.00     0.123 A 
ATOM     13  C   UNL A   1      33.344  21.098  24.112  1.00  0.00     0.092 A 
ATOM     14  C   UNL A   1      35.408  20.690  25.296  1.00  0.00     0.058 A 
ATOM     15  C   UNL A   1      33.695  22.435  23.919  1.00  0.00     0.123 A 
ATOM     16  C   UNL A   1      34.912  22.899  24.419  1.00  0.00     0.058 A 
BRANCH  12  17
ATOM     17  O   UNL A   1      33.751  18.934  24.905  1.00  0.00    -0.497 OA
ATOM     18  C   UNL A   1      34.592  17.977  24.272  1.00  0.00     0.278 C 
ENDBRANCH  12  17
BRANCH  15  19
ATOM     19  O   UNL A   1      32.777  23.164  23.218  1.00  0.00    -0.497 OA
ATOM     20  C   UNL A   1      33.246  24.292  22.490  1.00  0.00     0.278 C 
ENDBRANCH  15  19
ENDBRANCH   7  11
ENDBRANCH   4   6
ENDBRANCH   3   4
ENDBRANCH   2   3
ENDBRANCH   1   2
BRANCH   1  21
ATOM     21  O   UNL A   1      42.739  24.015  26.642  1.00  0.00    -0.458 OA
BRANCH  21  22
ATOM     22  C   UNL A   1      42.287  25.197  26.156  1.00  0.00     0.338 C 
ATOM     23  O   UNL A   1      42.105  25.481  24.983  1.00  0.00    -0.246 OA
BRANCH  22  24
ATOM     24  C   UNL A   1      41.898  26.081  27.270  1.00  0.00     0.060 A 
ATOM     25  C   UNL A   1      42.635  27.253  27.457  1.00  0.00     0.016 A 
ATOM     26  C   UNL A   1      40.867  25.751  28.151  1.00  0.00     0.016 A 
ATOM     27  C   UNL A   1      42.346  28.105  28.518  1.00  0.00     0.010 A 
ATOM     28  C   UNL A   1      40.581  26.604  29.225  1.00  0.00     0.010 A 
ATOM     29  C   UNL A   1      41.324  27.782  29.417  1.00  0.00    -0.014 A 
BRANCH  29  30
ATOM     30  C   UNL A   1      41.072  28.670  30.578  1.00  0.00     0.031 A 
ATOM     31  C   UNL A   1      41.931  28.555  31.804  1.00  0.00     0.074 A 
ATOM     32  C   UNL A   1      40.108  29.605  30.507  1.00  0.00     0.049 A 
ATOM     33  N   UNL A   1      41.855  29.218  32.930  1.00  0.00    -0.248 NA
ATOM     34  C   UNL A   1      43.021  27.567  31.758  1.00  0.00     0.031 C 
ATOM     35  C   UNL A   1      39.238  29.834  29.352  1.00  0.00     0.029 A 
ATOM     36  N   UNL A   1      39.699  30.540  31.424  1.00  0.00    -0.354 N 
ATOM     37  C   UNL A   1      42.881  28.728  33.728  1.00  0.00     0.074 A 
ATOM     38  C   UNL A   1      43.553  27.696  32.967  1.00  0.00     0.031 C 
ATOM     39  C   UNL A   1      38.398  30.845  29.630  1.00  0.00     0.029 A 
ATOM     40  C   UNL A   1      38.648  31.314  30.991  1.00  0.00     0.049 A 
ATOM     41  H   UNL A   1      40.119  30.647  32.308  1.00  0.00     0.167 HD
ATOM     42  C   UNL A   1      43.231  29.109  34.980  1.00  0.00     0.037 A 
ATOM     43  C   UNL A   1      37.955  32.277  31.628  1.00  0.00     0.037 A 
ATOM     44  C   UNL A   1      42.561  30.139  35.731  1.00  0.00     0.049 A 
ATOM     45  C   UNL A   1      38.339  32.653  33.034  1.00  0.00     0.074 A 
ATOM     46  C   UNL A   1      42.834  30.585  37.013  1.00  0.00     0.029 A 
ATOM     47  N   UNL A   1      41.491  30.889  35.267  1.00  0.00    -0.354 N 
ATOM     48  N   UNL A   1      39.302  32.169  33.783  1.00  0.00    -0.248 NA
ATOM     49  C   UNL A   1      37.543  33.703  33.684  1.00  0.00     0.031 C 
ATOM     50  C   UNL A   1      41.909  31.586  37.334  1.00  0.00     0.029 A 
ATOM     51  C   UNL A   1      41.084  31.786  36.240  1.00  0.00     0.049 A 
ATOM     52  H   UNL A   1      41.081  30.795  34.377  1.00  0.00     0.167 HD
ATOM     53  C   UNL A   1      39.236  32.865  34.984  1.00  0.00     0.074 A 
ATOM     54  C   UNL A   1      38.150  33.815  34.859  1.00  0.00     0.031 C 
ATOM     55  C   UNL A   1      40.004  32.728  36.093  1.00  0.00     0.037 A 
BRANCH  42  56
ATOM     56  C   UNL A   1      44.384  28.396  35.625  1.00  0.00     0.058 A 
ATOM     57  C   UNL A   1      45.698  28.875  35.511  1.00  0.00     0.135 A 
ATOM     58  C   UNL A   1      44.167  27.248  36.403  1.00  0.00     0.135 A 
ATOM     59  F   UNL A   1      45.962  29.956  34.762  1.00  0.00    -0.206 F 
ATOM     60  C   UNL A   1      46.761  28.231  36.138  1.00  0.00     0.059 A 
ATOM     61  C   UNL A   1      45.213  26.598  37.052  1.00  0.00     0.059 A 
ATOM     62  F   UNL A   1      42.929  26.747  36.538  1.00  0.00    -0.206 F 
ATOM     63  C   UNL A   1      46.509  27.093  36.905  1.00  0.00     0.060 A 
BRANCH  63  64
ATOM     64  S   UNL A   1      47.896  26.273  37.719  1.00  0.00     0.124 S 
ATOM     65  O   UNL A   1      47.442  26.247  39.107  1.00  0.00    -0.237 OA
ATOM     66  O   UNL A   1      47.938  24.980  37.044  1.00  0.00    -0.237 OA
ATOM     67  O   UNL A   1      49.023  27.158  37.445  1.00  0.00    -0.744 OA
ENDBRANCH  63  64
ENDBRANCH  42  56
BRANCH  43  68
ATOM     68  C   UNL A   1      36.808  32.939  30.954  1.00  0.00     0.058 A 
ATOM     69  C   UNL A   1      37.008  33.905  29.957  1.00  0.00     0.135 A 
ATOM     70  C   UNL A   1      35.487  32.626  31.307  1.00  0.00     0.135 A 
ATOM     71  F   UNL A   1      38.253  34.246  29.594  1.00  0.00    -0.206 F 
ATOM     72  C   UNL A   1      35.938  34.554  29.347  1.00  0.00     0.059 A 
ATOM     73  C   UNL A   1      34.401  33.244  30.696  1.00  0.00     0.059 A 
ATOM     74  F   UNL A   1      35.242  31.701  32.248  1.00  0.00    -0.206 F 
ATOM     75  C   UNL A   1      34.637  34.219  29.727  1.00  0.00     0.060 A 
BRANCH  75  76
ATOM     76  S   UNL A   1      33.249  35.039  28.915  1.00  0.00     0.124 S 
ATOM     77  O   UNL A   1      33.906  36.191  28.306  1.00  0.00    -0.237 OA
ATOM     78  O   UNL A   1      32.774  34.014  27.991  1.00  0.00    -0.237 OA
ATOM     79  O   UNL A   1      32.345  35.339  30.022  1.00  0.00    -0.744 OA
ENDBRANCH  75  76
ENDBRANCH  43  68
BRANCH  55  80
ATOM     80  C   UNL A   1      39.710  33.641  37.250  1.00  0.00     0.058 A 
ATOM     81  C   UNL A   1      38.838  33.259  38.280  1.00  0.00     0.135 A 
ATOM     82  C   UNL A   1      40.339  34.891  37.349  1.00  0.00     0.135 A 
ATOM     83  F   UNL A   1      38.206  32.075  38.227  1.00  0.00    -0.206 F 
ATOM     84  C   UNL A   1      38.585  34.094  39.363  1.00  0.00     0.059 A 
ATOM     85  C   UNL A   1      40.117  35.734  38.433  1.00  0.00     0.059 A 
ATOM     86  F   UNL A   1      41.189  35.298  36.392  1.00  0.00    -0.206 F 
ATOM     87  C   UNL A   1      39.229  35.331  39.429  1.00  0.00     0.060 A 
BRANCH  87  88
ATOM     88  S   UNL A   1      38.921  36.396  40.855  1.00  0.00     0.124 S 
ATOM     89  O   UNL A   1      40.220  36.387  41.517  1.00  0.00    -0.237 OA
ATOM     90  O   UNL A   1      38.537  37.659  40.229  1.00  0.00    -0.237 OA
ATOM     91  O   UNL A   1      37.847  35.708  41.565  1.00  0.00    -0.744 OA
ENDBRANCH  87  88
ENDBRANCH  55  80
ENDBRANCH  29  30
ENDBRANCH  22  24
ENDBRANCH  21  22
ENDBRANCH   1  21
TORSDOF 17
ENDMDL
MODEL 2
REMARK VINA RESULT:     -10.8      0.313      2.004
REMARK SMILES COc1cc(OC)cc(-c2ccc(C(=O)OCCOC(=O)c3ccc(-c4c5nc(c(-c6c(F)cc(S(=O)(=O)[O-])cc6F)c6ccc([nH]6)c(-c6c(F)cc(S(=O)(=O)[O-])cc6F)c6nc(c(-c7c(F)cc(S(=O)(=O)[O-])cc7F)c7ccc4[nH]7)C=C6)C=C5)cc3)o2)c1
REMARK SMILES IDX 18 1 17 2 16 3 14 4 15 5 13 6 10 7 11 8 88 9 12 10 9 11 3 12
REMARK SMILES IDX 4 13 89 14 5 15 8 16 2 17 1 18 6 19 7 20 19 21 20 22 21 23
REMARK SMILES IDX 22 24 23 25 87 26 24 27 86 28 25 29 26 30 27 31 80 32 28 33
REMARK SMILES IDX 85 34 79 35 81 36 29 37 84 38 78 39 77 40 30 42 64 43 43 44
REMARK SMILES IDX 63 45 44 46 47 47 62 48 82 49 45 50 46 51 61 53 83 54 48 55
REMARK SMILES IDX 31 56 32 57 41 58 33 59 34 60 40 61 42 62 35 63 36 64 37 65
REMARK SMILES IDX 38 66 39 67 65 68 66 69 75 70 67 71 68 72 74 73 76 74 69 75
REMARK SMILES IDX 70 76 71 77 72 78 73 79 49 80 50 81 59 82 51 83 52 84 58 85
REMARK SMILES IDX 60 86 53 87 54 88 55 89 56 90 57 91
REMARK H PARENT 81 41 47 52
REMARK Flexibility Score: inf
ROOT
ATOM      1  C   UNL A   1      42.936  23.230  25.408  1.00  0.00     0.275 C 
ENDROOT
BRANCH   1   2
ATOM      2  C   UNL A   1      42.570  21.779  25.744  1.00  0.00     0.275 C 
BRANCH   2   3
ATOM      3  O   UNL A   1      41.533  21.715  26.740  1.00  0.00    -0.456 OA
BRANCH   3   4
ATOM      4  C   UNL A   1      40.437  20.961  26.412  1.00  0.00     0.374 C 
ATOM      5  O   UNL A   1      40.409  19.743  26.437  1.00  0.00    -0.242 OA
BRANCH   4   6
ATOM      6  C   UNL A   1      39.316  21.831  26.125  1.00  0.00     0.212 A 
ATOM      7  C   UNL A   1      37.248  22.229  25.470  1.00  0.00     0.135 A 
ATOM      8  C   UNL A   1      37.717  23.409  26.000  1.00  0.00     0.052 A 
ATOM      9  O   UNL A   1      38.229  21.286  25.487  1.00  0.00    -0.449 OA
ATOM     10  C   UNL A   1      39.044  23.153  26.426  1.00  0.00     0.059 A 
BRANCH   7  11
ATOM     11  C   UNL A   1      35.959  21.796  24.967  1.00  0.00     0.025 A 
ATOM     12  C   UNL A   1      33.784  22.319  24.049  1.00  0.00     0.123 A 
ATOM     13  C   UNL A   1      33.428  20.973  24.148  1.00  0.00     0.092 A 
ATOM     14  C   UNL A   1      35.048  22.733  24.468  1.00  0.00     0.058 A 
ATOM     15  C   UNL A   1      34.332  20.025  24.629  1.00  0.00     0.123 A 
ATOM     16  C   UNL A   1      35.602  20.438  25.032  1.00  0.00     0.058 A 
BRANCH  12  17
ATOM     17  O   UNL A   1      32.802  23.160  23.598  1.00  0.00    -0.497 OA
ATOM     18  C   UNL A   1      33.275  24.360  22.997  1.00  0.00     0.278 C 
ENDBRANCH  12  17
BRANCH  15  19
ATOM     19  O   UNL A   1      33.845  18.749  24.668  1.00  0.00    -0.497 OA
ATOM     20  C   UNL A   1      34.708  17.699  24.252  1.00  0.00     0.278 C 
ENDBRANCH  15  19
ENDBRANCH   7  11
ENDBRANCH   4   6
ENDBRANCH   3   4
ENDBRANCH   2   3
ENDBRANCH   1   2
BRANCH   1  21
ATOM     21  O   UNL A   1      42.492  24.149  26.423  1.00  0.00    -0.458 OA
BRANCH  21  22
ATOM     22  C   UNL A   1      42.174  25.391  25.984  1.00  0.00     0.338 C 
ATOM     23  O   UNL A   1      42.086  25.752  24.821  1.00  0.00    -0.246 OA
BRANCH  22  24
ATOM     24  C   UNL A   1      41.800  26.246  27.124  1.00  0.00     0.060 A 
ATOM     25  C   UNL A   1      42.440  27.482  27.247  1.00  0.00     0.016 A 
ATOM     26  C   UNL A   1      40.880  25.832  28.090  1.00  0.00     0.016 A 
ATOM     27  C   UNL A   1      42.163  28.315  28.326  1.00  0.00     0.010 A 
ATOM     28  C   UNL A   1      40.608  26.665  29.182  1.00  0.00     0.010 A 
ATOM     29  C   UNL A   1      41.253  27.908  29.309  1.00  0.00    -0.014 A 
BRANCH  29  30
ATOM     30  C   UNL A   1      41.019  28.780  30.485  1.00  0.00     0.031 A 
ATOM     31  C   UNL A   1      41.883  28.636  31.705  1.00  0.00     0.074 A 
ATOM     32  C   UNL A   1      40.066  29.729  30.434  1.00  0.00     0.049 A 
ATOM     33  N   UNL A   1      41.821  29.281  32.841  1.00  0.00    -0.248 NA
ATOM     34  C   UNL A   1      42.960  27.635  31.637  1.00  0.00     0.031 C 
ATOM     35  C   UNL A   1      39.193  29.987  29.288  1.00  0.00     0.029 A 
ATOM     36  N   UNL A   1      39.674  30.654  31.369  1.00  0.00    -0.354 N 
ATOM     37  C   UNL A   1      42.845  28.766  33.626  1.00  0.00     0.074 A 
ATOM     38  C   UNL A   1      43.500  27.738  32.845  1.00  0.00     0.031 C 
ATOM     39  C   UNL A   1      38.368  31.004  29.587  1.00  0.00     0.029 A 
ATOM     40  C   UNL A   1      38.631  31.448  30.954  1.00  0.00     0.049 A 
ATOM     41  H   UNL A   1      40.100  30.742  32.252  1.00  0.00     0.167 HD
ATOM     42  C   UNL A   1      43.206  29.122  34.882  1.00  0.00     0.037 A 
ATOM     43  C   UNL A   1      37.953  32.409  31.610  1.00  0.00     0.037 A 
ATOM     44  C   UNL A   1      42.554  30.148  35.653  1.00  0.00     0.049 A 
ATOM     45  C   UNL A   1      38.350  32.757  33.020  1.00  0.00     0.074 A 
ATOM     46  C   UNL A   1      42.838  30.571  36.941  1.00  0.00     0.029 A 
ATOM     47  N   UNL A   1      41.490  30.919  35.206  1.00  0.00    -0.354 N 
ATOM     48  N   UNL A   1      39.310  32.250  33.755  1.00  0.00    -0.248 NA
ATOM     49  C   UNL A   1      37.570  33.808  33.691  1.00  0.00     0.031 C 
ATOM     50  C   UNL A   1      41.928  31.577  37.282  1.00  0.00     0.029 A 
ATOM     51  C   UNL A   1      41.100  31.806  36.196  1.00  0.00     0.049 A 
ATOM     52  H   UNL A   1      41.074  30.844  34.317  1.00  0.00     0.167 HD
ATOM     53  C   UNL A   1      39.260  32.928  34.968  1.00  0.00     0.074 A 
ATOM     54  C   UNL A   1      38.184  33.892  34.863  1.00  0.00     0.031 C 
ATOM     55  C   UNL A   1      40.031  32.763  36.070  1.00  0.00     0.037 A 
BRANCH  42  56
ATOM     56  C   UNL A   1      44.354  28.384  35.509  1.00  0.00     0.058 A 
ATOM     57  C   UNL A   1      44.153  27.216  36.259  1.00  0.00     0.135 A 
ATOM     58  C   UNL A   1      45.673  28.827  35.321  1.00  0.00     0.135 A 
ATOM     59  F   UNL A   1      42.910  26.763  36.486  1.00  0.00    -0.206 F 
ATOM     60  C   UNL A   1      45.221  26.516  36.812  1.00  0.00     0.059 A 
ATOM     61  C   UNL A   1      46.757  28.133  35.851  1.00  0.00     0.059 A 
ATOM     62  F   UNL A   1      45.918  29.943  34.616  1.00  0.00    -0.206 F 
ATOM     63  C   UNL A   1      46.519  26.984  36.604  1.00  0.00     0.060 A 
BRANCH  63  64
ATOM     64  S   UNL A   1      47.897  26.061  37.319  1.00  0.00     0.124 S 
ATOM     65  O   UNL A   1      47.888  24.849  36.504  1.00  0.00    -0.237 OA
ATOM     66  O   UNL A   1      49.025  26.960  37.103  1.00  0.00    -0.237 OA
ATOM     67  O   UNL A   1      47.499  25.882  38.712  1.00  0.00    -0.744 OA
ENDBRANCH  63  64
ENDBRANCH  42  56
BRANCH  43  68
ATOM     68  C   UNL A   1      36.811  33.097  30.952  1.00  0.00     0.058 A 
ATOM     69  C   UNL A   1      37.018  34.079  29.973  1.00  0.00     0.135 A 
ATOM     70  C   UNL A   1      35.488  32.792  31.305  1.00  0.00     0.135 A 
ATOM     71  F   UNL A   1      38.266  34.412  29.611  1.00  0.00    -0.206 F 
ATOM     72  C   UNL A   1      35.953  34.751  29.379  1.00  0.00     0.059 A 
ATOM     73  C   UNL A   1      34.407  33.433  30.710  1.00  0.00     0.059 A 
ATOM     74  F   UNL A   1      35.237  31.851  32.229  1.00  0.00    -0.206 F 
ATOM     75  C   UNL A   1      34.650  34.422  29.758  1.00  0.00     0.060 A 
BRANCH  75  76
ATOM     76  S   UNL A   1      33.268  35.273  28.967  1.00  0.00     0.124 S 
ATOM     77  O   UNL A   1      32.523  35.759  30.123  1.00  0.00    -0.237 OA
ATOM     78  O   UNL A   1      33.942  36.293  28.169  1.00  0.00    -0.237 OA
ATOM     79  O   UNL A   1      32.621  34.214  28.197  1.00  0.00    -0.744 OA
ENDBRANCH  75  76
ENDBRANCH  43  68
BRANCH  55  80
ATOM     80  C   UNL A   1      39.754  33.660  37.243  1.00  0.00     0.058 A 
ATOM     81  C   UNL A   1      40.368  34.916  37.365  1.00  0.00     0.135 A 
ATOM     82  C   UNL A   1      38.833  33.278  38.230  1.00  0.00     0.135 A 
ATOM     83  F   UNL A   1      41.262  35.324  36.450  1.00  0.00    -0.206 F 
ATOM     84  C   UNL A   1      40.093  35.756  38.439  1.00  0.00     0.059 A 
ATOM     85  C   UNL A   1      38.527  34.111  39.302  1.00  0.00     0.059 A 
ATOM     86  F   UNL A   1      38.213  32.090  38.153  1.00  0.00    -0.206 F 
ATOM     87  C   UNL A   1      39.171  35.344  39.403  1.00  0.00     0.060 A 
BRANCH  87  88
ATOM     88  S   UNL A   1      38.794  36.454  40.776  1.00  0.00     0.124 S 
ATOM     89  O   UNL A   1      37.781  35.694  41.500  1.00  0.00    -0.237 OA
ATOM     90  O   UNL A   1      40.087  36.582  41.443  1.00  0.00    -0.237 OA
ATOM     91  O   UNL A   1      38.319  37.664  40.113  1.00  0.00    -0.744 OA
ENDBRANCH  87  88
ENDBRANCH  55  80
ENDBRANCH  29  30
ENDBRANCH  22  24
ENDBRANCH  21  22
ENDBRANCH   1  21
TORSDOF 17
ENDMDL
MODEL 3
REMARK VINA RESULT:     -10.8      0.497      8.536
REMARK SMILES COc1cc(OC)cc(-c2ccc(C(=O)OCCOC(=O)c3ccc(-c4c5nc(c(-c6c(F)cc(S(=O)(=O)[O-])cc6F)c6ccc([nH]6)c(-c6c(F)cc(S(=O)(=O)[O-])cc6F)c6nc(c(-c7c(F)cc(S(=O)(=O)[O-])cc7F)c7ccc4[nH]7)C=C6)C=C5)cc3)o2)c1
REMARK SMILES IDX 18 1 17 2 16 3 14 4 15 5 13 6 10 7 11 8 88 9 12 10 9 11 3 12
REMARK SMILES IDX 4 13 89 14 5 15 8 16 2 17 1 18 6 19 7 20 19 21 20 22 21 23
REMARK SMILES IDX 22 24 23 25 87 26 24 27 86 28 25 29 26 30 27 31 80 32 28 33
REMARK SMILES IDX 85 34 79 35 81 36 29 37 84 38 78 39 77 40 30 42 64 43 43 44
REMARK SMILES IDX 63 45 44 46 47 47 62 48 82 49 45 50 46 51 61 53 83 54 48 55
REMARK SMILES IDX 31 56 32 57 41 58 33 59 34 60 40 61 42 62 35 63 36 64 37 65
REMARK SMILES IDX 38 66 39 67 65 68 66 69 75 70 67 71 68 72 74 73 76 74 69 75
REMARK SMILES IDX 70 76 71 77 72 78 73 79 49 80 50 81 59 82 51 83 52 84 58 85
REMARK SMILES IDX 60 86 53 87 54 88 55 89 56 90 57 91
REMARK H PARENT 81 41 47 52
REMARK Flexibility Score: inf
ROOT
ATOM      1  C   UNL A   1      43.120  23.165  25.642  1.00  0.00     0.275 C 
ENDROOT
BRANCH   1   2
ATOM      2  C   UNL A   1      42.858  21.719  26.081  1.00  0.00     0.275 C 
BRANCH   2   3
ATOM      3  O   UNL A   1      41.564  21.262  25.647  1.00  0.00    -0.456 OA
BRANCH   3   4
ATOM      4  C   UNL A   1      40.603  21.182  26.620  1.00  0.00     0.374 C 
ATOM      5  O   UNL A   1      40.696  20.494  27.621  1.00  0.00    -0.242 OA
BRANCH   4   6
ATOM      6  C   UNL A   1      39.523  22.097  26.315  1.00  0.00     0.212 A 
ATOM      7  C   UNL A   1      37.496  22.582  25.596  1.00  0.00     0.135 A 
ATOM      8  C   UNL A   1      37.983  23.732  26.174  1.00  0.00     0.052 A 
ATOM      9  O   UNL A   1      38.443  21.606  25.624  1.00  0.00    -0.449 OA
ATOM     10  C   UNL A   1      39.285  23.420  26.641  1.00  0.00     0.059 A 
BRANCH   7  11
ATOM     11  C   UNL A   1      36.213  22.207  25.034  1.00  0.00     0.025 A 
ATOM     12  C   UNL A   1      34.169  22.807  23.889  1.00  0.00     0.123 A 
ATOM     13  C   UNL A   1      33.683  21.516  24.096  1.00  0.00     0.092 A 
ATOM     14  C   UNL A   1      35.432  23.157  24.366  1.00  0.00     0.058 A 
ATOM     15  C   UNL A   1      34.457  20.553  24.746  1.00  0.00     0.123 A 
ATOM     16  C   UNL A   1      35.727  20.899  25.209  1.00  0.00     0.058 A 
BRANCH  12  17
ATOM     17  O   UNL A   1      33.306  23.673  23.273  1.00  0.00    -0.497 OA
ATOM     18  C   UNL A   1      33.742  25.028  23.242  1.00  0.00     0.278 C 
ENDBRANCH  12  17
BRANCH  15  19
ATOM     19  O   UNL A   1      33.852  19.335  24.877  1.00  0.00    -0.497 OA
ATOM     20  C   UNL A   1      32.450  19.267  24.646  1.00  0.00     0.278 C 
ENDBRANCH  15  19
ENDBRANCH   7  11
ENDBRANCH   4   6
ENDBRANCH   3   4
ENDBRANCH   2   3
ENDBRANCH   1   2
BRANCH   1  21
ATOM     21  O   UNL A   1      42.747  24.115  26.657  1.00  0.00    -0.458 OA
BRANCH  21  22
ATOM     22  C   UNL A   1      42.417  25.349  26.205  1.00  0.00     0.338 C 
ATOM     23  O   UNL A   1      42.325  25.697  25.039  1.00  0.00    -0.246 OA
BRANCH  22  24
ATOM     24  C   UNL A   1      42.037  26.213  27.336  1.00  0.00     0.060 A 
ATOM     25  C   UNL A   1      42.780  27.379  27.541  1.00  0.00     0.016 A 
ATOM     26  C   UNL A   1      41.010  25.870  28.217  1.00  0.00     0.016 A 
ATOM     27  C   UNL A   1      42.499  28.213  28.619  1.00  0.00     0.010 A 
ATOM     28  C   UNL A   1      40.733  26.704  29.308  1.00  0.00     0.010 A 
ATOM     29  C   UNL A   1      41.480  27.876  29.518  1.00  0.00    -0.014 A 
BRANCH  29  30
ATOM     30  C   UNL A   1      41.238  28.743  30.696  1.00  0.00     0.031 A 
ATOM     31  C   UNL A   1      40.123  29.749  30.665  1.00  0.00     0.074 A 
ATOM     32  C   UNL A   1      41.987  28.591  31.803  1.00  0.00     0.049 A 
ATOM     33  N   UNL A   1      39.768  30.615  31.579  1.00  0.00    -0.248 NA
ATOM     34  C   UNL A   1      39.297  29.783  29.448  1.00  0.00     0.031 C 
ATOM     35  C   UNL A   1      43.071  27.620  31.962  1.00  0.00     0.029 A 
ATOM     36  N   UNL A   1      41.949  29.249  33.006  1.00  0.00    -0.354 N 
ATOM     37  C   UNL A   1      38.681  31.301  31.050  1.00  0.00     0.074 A 
ATOM     38  C   UNL A   1      38.448  30.764  29.725  1.00  0.00     0.031 C 
ATOM     39  C   UNL A   1      43.595  27.746  33.192  1.00  0.00     0.029 A 
ATOM     40  C   UNL A   1      42.907  28.824  33.897  1.00  0.00     0.049 A 
ATOM     41  H   UNL A   1      41.297  29.956  33.213  1.00  0.00     0.167 HD
ATOM     42  C   UNL A   1      37.945  32.283  31.620  1.00  0.00     0.037 A 
ATOM     43  C   UNL A   1      43.206  29.269  35.133  1.00  0.00     0.037 A 
ATOM     44  C   UNL A   1      38.178  32.810  32.939  1.00  0.00     0.049 A 
ATOM     45  C   UNL A   1      42.397  30.392  35.727  1.00  0.00     0.074 A 
ATOM     46  C   UNL A   1      37.494  33.817  33.599  1.00  0.00     0.029 A 
ATOM     47  N   UNL A   1      39.168  32.368  33.805  1.00  0.00    -0.354 N 
ATOM     48  N   UNL A   1      41.382  31.040  35.207  1.00  0.00    -0.248 NA
ATOM     49  C   UNL A   1      42.774  30.843  37.074  1.00  0.00     0.031 C 
ATOM     50  C   UNL A   1      38.089  34.003  34.852  1.00  0.00     0.029 A 
ATOM     51  C   UNL A   1      39.120  33.088  34.986  1.00  0.00     0.049 A 
ATOM     52  H   UNL A   1      39.810  31.648  33.607  1.00  0.00     0.167 HD
ATOM     53  C   UNL A   1      40.991  31.966  36.168  1.00  0.00     0.074 A 
ATOM     54  C   UNL A   1      41.867  31.783  37.307  1.00  0.00     0.031 C 
ATOM     55  C   UNL A   1      39.997  32.887  36.111  1.00  0.00     0.037 A 
BRANCH  42  56
ATOM     56  C   UNL A   1      36.821  32.867  30.812  1.00  0.00     0.058 A 
ATOM     57  C   UNL A   1      35.491  32.469  31.012  1.00  0.00     0.135 A 
ATOM     58  C   UNL A   1      37.073  33.866  29.859  1.00  0.00     0.135 A 
ATOM     59  F   UNL A   1      35.199  31.502  31.895  1.00  0.00    -0.206 F 
ATOM     60  C   UNL A   1      34.448  33.035  30.285  1.00  0.00     0.059 A 
ATOM     61  C   UNL A   1      36.043  34.458  29.133  1.00  0.00     0.059 A 
ATOM     62  F   UNL A   1      38.330  34.278  29.627  1.00  0.00    -0.206 F 
ATOM     63  C   UNL A   1      34.735  34.027  29.346  1.00  0.00     0.060 A 
BRANCH  63  64
ATOM     64  S   UNL A   1      33.371  34.760  28.416  1.00  0.00     0.124 S 
ATOM     65  O   UNL A   1      34.087  35.639  27.497  1.00  0.00    -0.237 OA
ATOM     66  O   UNL A   1      32.739  33.592  27.812  1.00  0.00    -0.237 OA
ATOM     67  O   UNL A   1      32.583  35.435  29.444  1.00  0.00    -0.744 OA
ENDBRANCH  63  64
ENDBRANCH  42  56
BRANCH  43  68
ATOM     68  C   UNL A   1      44.341  28.673  35.885  1.00  0.00     0.058 A 
ATOM     69  C   UNL A   1      44.142  27.619  36.787  1.00  0.00     0.135 A 
ATOM     70  C   UNL A   1      45.647  29.160  35.723  1.00  0.00     0.135 A 
ATOM     71  F   UNL A   1      42.909  27.127  36.983  1.00  0.00    -0.206 F 
ATOM     72  C   UNL A   1      45.195  27.080  37.521  1.00  0.00     0.059 A 
ATOM     73  C   UNL A   1      46.719  28.623  36.428  1.00  0.00     0.059 A 
ATOM     74  F   UNL A   1      45.891  30.161  34.863  1.00  0.00    -0.206 F 
ATOM     75  C   UNL A   1      46.481  27.592  37.336  1.00  0.00     0.060 A 
BRANCH  75  76
ATOM     76  S   UNL A   1      47.852  26.873  38.266  1.00  0.00     0.124 S 
ATOM     77  O   UNL A   1      47.778  27.619  39.517  1.00  0.00    -0.237 OA
ATOM     78  O   UNL A   1      47.476  25.464  38.340  1.00  0.00    -0.237 OA
ATOM     79  O   UNL A   1      49.011  27.160  37.426  1.00  0.00    -0.744 OA
ENDBRANCH  75  76
ENDBRANCH  43  68
BRANCH  55  80
ATOM     80  C   UNL A   1      39.792  33.751  37.322  1.00  0.00     0.058 A 
ATOM     81  C   UNL A   1      40.460  34.976  37.470  1.00  0.00     0.135 A 
ATOM     82  C   UNL A   1      38.885  33.371  38.324  1.00  0.00     0.135 A 
ATOM     83  F   UNL A   1      41.343  35.380  36.542  1.00  0.00    -0.206 F 
ATOM     84  C   UNL A   1      40.250  35.787  38.580  1.00  0.00     0.059 A 
ATOM     85  C   UNL A   1      38.644  34.177  39.433  1.00  0.00     0.059 A 
ATOM     86  F   UNL A   1      38.214  32.212  38.224  1.00  0.00    -0.206 F 
ATOM     87  C   UNL A   1      39.341  35.378  39.557  1.00  0.00     0.060 A 
BRANCH  87  88
ATOM     88  S   UNL A   1      39.050  36.452  40.979  1.00  0.00     0.124 S 
ATOM     89  O   UNL A   1      40.376  36.504  41.585  1.00  0.00    -0.237 OA
ATOM     90  O   UNL A   1      38.590  37.688  40.353  1.00  0.00    -0.237 OA
ATOM     91  O   UNL A   1      38.036  35.732  41.744  1.00  0.00    -0.744 OA
ENDBRANCH  87  88
ENDBRANCH  55  80
ENDBRANCH  29  30
ENDBRANCH  22  24
ENDBRANCH  21  22
ENDBRANCH   1  21
TORSDOF 17
ENDMDL
