MODEL 1
REMARK VINA RESULT:     -11.6      0.000      0.000
REMARK SMILES CNC(=O)NC1=[NH+]N=CN[C@@H]1C(=O)OCCOC(=O)c1ccc(-c2c3nc(c(-c4c(F)cc(S(=O)(=O)[O-])cc4F)c4ccc([nH]4)c(-c4c(F)cc(S(=O)(=O)[O-])cc4F)c4nc(c(-c5c(F)cc(S(=O)(=O)[O-])cc5F)c5ccc2[nH]5)C=C4)C=C3)cc1
REMARK SMILES IDX 17 1 16 2 15 3 14 4 12 5 13 6 11 7 1 8 2 9 3 10 4 12 5 13
REMARK SMILES IDX 6 14 7 16 8 17 10 19 9 20 18 22 19 23 20 24 21 25 85 26
REMARK SMILES IDX 22 27 84 28 23 29 24 30 25 31 78 32 26 33 83 34 77 35 79 36
REMARK SMILES IDX 27 37 82 38 76 39 75 40 28 42 62 43 41 44 61 45 42 46 45 47
REMARK SMILES IDX 60 48 80 49 43 50 44 51 59 53 81 54 46 55 29 56 30 57 39 58
REMARK SMILES IDX 31 59 32 60 38 61 40 62 33 63 34 64 35 65 36 66 37 67 63 68
REMARK SMILES IDX 64 69 73 70 65 71 66 72 72 73 74 74 67 75 68 76 69 77 70 78
REMARK SMILES IDX 71 79 47 80 48 81 57 82 49 83 50 84 56 85 58 86 51 87 52 88
REMARK SMILES IDX 53 89 54 90 55 91
REMARK H PARENT 2 11 5 15 7 18 10 21 79 41 45 52
REMARK Flexibility Score: inf
ROOT
ATOM      1  O   UNL A   1      35.500  29.494  28.076  1.00  0.00    -0.458 OA
ENDROOT
BRANCH   1   2
ATOM      2  C   UNL A   1      34.308  30.251  27.780  1.00  0.00     0.275 C 
BRANCH   2   3
ATOM      3  C   UNL A   1      34.580  31.756  27.672  1.00  0.00     0.274 C 
BRANCH   3   4
ATOM      4  O   UNL A   1      33.845  32.478  28.679  1.00  0.00    -0.460 OA
BRANCH   4   5
ATOM      5  C   UNL A   1      33.463  33.753  28.371  1.00  0.00     0.341 C 
ATOM      6  O   UNL A   1      32.436  34.024  27.759  1.00  0.00    -0.249 OA
BRANCH   5   7
ATOM      7  C   UNL A   1      34.397  34.815  28.964  1.00  0.00     0.308 C 
ATOM      8  C   UNL A   1      36.994  34.200  31.164  1.00  0.00     0.147 C 
ATOM      9  N   UNL A   1      35.985  33.168  31.272  1.00  0.00    -0.321 N 
ATOM     10  C   UNL A   1      34.680  33.311  31.618  1.00  0.00     0.406 C 
ATOM     11  H   UNL A   1      36.281  32.250  31.070  1.00  0.00     0.167 HD
ATOM     12  O   UNL A   1      34.063  32.369  32.104  1.00  0.00    -0.221 OA
ATOM     13  N   UNL A   1      34.091  34.532  31.453  1.00  0.00    -0.191 N 
ATOM     14  C   UNL A   1      33.910  35.295  30.321  1.00  0.00     0.311 C 
ATOM     15  H   UNL A   1      33.736  34.932  32.279  1.00  0.00     0.317 HD
ATOM     16  N   UNL A   1      33.298  36.426  30.508  1.00  0.00    -0.148 N 
ATOM     17  N   UNL A   1      33.162  37.316  29.420  1.00  0.00    -0.077 NA
ATOM     18  H   UNL A   1      32.935  36.659  31.393  1.00  0.00     0.342 HD
ATOM     19  N   UNL A   1      34.565  35.960  28.076  1.00  0.00    -0.350 N 
ATOM     20  C   UNL A   1      33.819  37.062  28.336  1.00  0.00     0.241 C 
ATOM     21  H   UNL A   1      35.193  35.934  27.319  1.00  0.00     0.163 HD
ENDBRANCH   5   7
ENDBRANCH   4   5
ENDBRANCH   3   4
ENDBRANCH   2   3
ENDBRANCH   1   2
BRANCH   1  22
ATOM     22  C   UNL A   1      36.152  29.870  29.200  1.00  0.00     0.338 C 
ATOM     23  O   UNL A   1      35.657  30.141  30.284  1.00  0.00    -0.246 OA
BRANCH  22  24
ATOM     24  C   UNL A   1      37.609  29.766  29.010  1.00  0.00     0.060 A 
ATOM     25  C   UNL A   1      38.068  29.652  27.698  1.00  0.00     0.016 A 
ATOM     26  C   UNL A   1      38.497  29.648  30.077  1.00  0.00     0.016 A 
ATOM     27  C   UNL A   1      39.398  29.351  27.439  1.00  0.00     0.010 A 
ATOM     28  C   UNL A   1      39.849  29.378  29.816  1.00  0.00     0.010 A 
ATOM     29  C   UNL A   1      40.302  29.196  28.496  1.00  0.00    -0.014 A 
BRANCH  29  30
ATOM     30  C   UNL A   1      41.691  28.771  28.191  1.00  0.00     0.031 A 
ATOM     31  C   UNL A   1      42.819  29.761  28.297  1.00  0.00     0.074 A 
ATOM     32  C   UNL A   1      41.955  27.481  27.909  1.00  0.00     0.049 A 
ATOM     33  N   UNL A   1      44.088  29.601  28.020  1.00  0.00    -0.248 NA
ATOM     34  C   UNL A   1      42.475  31.108  28.779  1.00  0.00     0.031 C 
ATOM     35  C   UNL A   1      40.958  26.410  27.841  1.00  0.00     0.029 A 
ATOM     36  N   UNL A   1      43.142  26.847  27.645  1.00  0.00    -0.354 N 
ATOM     37  C   UNL A   1      44.686  30.833  28.255  1.00  0.00     0.074 A 
ATOM     38  C   UNL A   1      43.642  31.733  28.697  1.00  0.00     0.031 C 
ATOM     39  C   UNL A   1      41.580  25.248  27.584  1.00  0.00     0.029 A 
ATOM     40  C   UNL A   1      43.007  25.500  27.409  1.00  0.00     0.049 A 
ATOM     41  H   UNL A   1      44.009  27.313  27.627  1.00  0.00     0.167 HD
ATOM     42  C   UNL A   1      45.988  31.182  28.113  1.00  0.00     0.037 A 
ATOM     43  C   UNL A   1      43.925  24.577  27.063  1.00  0.00     0.037 A 
ATOM     44  C   UNL A   1      47.031  30.278  27.708  1.00  0.00     0.049 A 
ATOM     45  C   UNL A   1      45.358  24.995  26.883  1.00  0.00     0.074 A 
ATOM     46  C   UNL A   1      48.378  30.541  27.522  1.00  0.00     0.029 A 
ATOM     47  N   UNL A   1      46.847  28.929  27.440  1.00  0.00    -0.354 N 
ATOM     48  N   UNL A   1      45.897  26.179  27.050  1.00  0.00    -0.248 NA
ATOM     49  C   UNL A   1      46.304  23.956  26.454  1.00  0.00     0.031 C 
ATOM     50  C   UNL A   1      49.004  29.356  27.120  1.00  0.00     0.029 A 
ATOM     51  C   UNL A   1      48.053  28.348  27.086  1.00  0.00     0.049 A 
ATOM     52  H   UNL A   1      45.986  28.455  27.495  1.00  0.00     0.167 HD
ATOM     53  C   UNL A   1      47.246  26.026  26.753  1.00  0.00     0.074 A 
ATOM     54  C   UNL A   1      47.444  24.631  26.414  1.00  0.00     0.031 C 
ATOM     55  C   UNL A   1      48.232  26.957  26.755  1.00  0.00     0.037 A 
BRANCH  42  56
ATOM     56  C   UNL A   1      46.345  32.619  28.363  1.00  0.00     0.058 A 
ATOM     57  C   UNL A   1      46.760  33.072  29.624  1.00  0.00     0.135 A 
ATOM     58  C   UNL A   1      46.278  33.555  27.318  1.00  0.00     0.135 A 
ATOM     59  F   UNL A   1      46.820  32.223  30.661  1.00  0.00    -0.206 F 
ATOM     60  C   UNL A   1      47.070  34.411  29.849  1.00  0.00     0.059 A 
ATOM     61  C   UNL A   1      46.603  34.894  27.514  1.00  0.00     0.059 A 
ATOM     62  F   UNL A   1      45.885  33.173  26.093  1.00  0.00    -0.206 F 
ATOM     63  C   UNL A   1      46.980  35.315  28.788  1.00  0.00     0.060 A 
BRANCH  63  64
ATOM     64  S   UNL A   1      47.363  37.052  29.093  1.00  0.00     0.124 S 
ATOM     65  O   UNL A   1      46.465  37.715  28.154  1.00  0.00    -0.237 OA
ATOM     66  O   UNL A   1      47.029  37.207  30.506  1.00  0.00    -0.237 OA
ATOM     67  O   UNL A   1      48.786  37.146  28.777  1.00  0.00    -0.744 OA
ENDBRANCH  63  64
ENDBRANCH  42  56
BRANCH  43  68
ATOM     68  C   UNL A   1      43.509  23.170  26.834  1.00  0.00     0.058 A 
ATOM     69  C   UNL A   1      43.441  22.636  25.540  1.00  0.00     0.135 A 
ATOM     70  C   UNL A   1      43.181  22.328  27.909  1.00  0.00     0.135 A 
ATOM     71  F   UNL A   1      43.736  23.406  24.481  1.00  0.00    -0.206 F 
ATOM     72  C   UNL A   1      43.055  21.319  25.315  1.00  0.00     0.059 A 
ATOM     73  C   UNL A   1      42.814  21.002  27.711  1.00  0.00     0.059 A 
ATOM     74  F   UNL A   1      43.241  22.791  29.167  1.00  0.00    -0.206 F 
ATOM     75  C   UNL A   1      42.744  20.509  26.409  1.00  0.00     0.060 A 
BRANCH  75  76
ATOM     76  S   UNL A   1      42.296  18.783  26.119  1.00  0.00     0.124 S 
ATOM     77  O   UNL A   1      43.220  18.418  25.051  1.00  0.00    -0.237 OA
ATOM     78  O   UNL A   1      42.549  18.173  27.420  1.00  0.00    -0.237 OA
ATOM     79  O   UNL A   1      40.890  18.867  25.738  1.00  0.00    -0.744 OA
ENDBRANCH  75  76
ENDBRANCH  43  68
BRANCH  55  80
ATOM     80  C   UNL A   1      49.613  26.490  26.402  1.00  0.00     0.058 A 
ATOM     81  C   UNL A   1      50.439  25.867  27.350  1.00  0.00     0.135 A 
ATOM     82  C   UNL A   1      50.103  26.636  25.095  1.00  0.00     0.135 A 
ATOM     83  F   UNL A   1      50.018  25.709  28.614  1.00  0.00    -0.206 F 
ATOM     84  C   UNL A   1      51.716  25.424  27.018  1.00  0.00     0.059 A 
ATOM     85  C   UNL A   1      51.369  26.184  24.737  1.00  0.00     0.059 A 
ATOM     86  F   UNL A   1      49.346  27.219  24.151  1.00  0.00    -0.206 F 
ATOM     87  C   UNL A   1      52.173  25.591  25.709  1.00  0.00     0.060 A 
BRANCH  87  88
ATOM     88  S   UNL A   1      53.822  24.992  25.280  1.00  0.00     0.124 S 
ATOM     89  O   UNL A   1      54.602  25.433  26.432  1.00  0.00    -0.237 OA
ATOM     90  O   UNL A   1      53.617  23.552  25.166  1.00  0.00    -0.237 OA
ATOM     91  O   UNL A   1      54.111  25.677  24.024  1.00  0.00    -0.744 OA
ENDBRANCH  87  88
ENDBRANCH  55  80
ENDBRANCH  29  30
ENDBRANCH  22  24
ENDBRANCH   1  22
TORSDOF 14
ENDMDL
MODEL 2
REMARK VINA RESULT:     -11.4      6.530     14.285
REMARK SMILES CNC(=O)NC1=[NH+]N=CN[C@@H]1C(=O)OCCOC(=O)c1ccc(-c2c3nc(c(-c4c(F)cc(S(=O)(=O)[O-])cc4F)c4ccc([nH]4)c(-c4c(F)cc(S(=O)(=O)[O-])cc4F)c4nc(c(-c5c(F)cc(S(=O)(=O)[O-])cc5F)c5ccc2[nH]5)C=C4)C=C3)cc1
REMARK SMILES IDX 17 1 16 2 15 3 14 4 12 5 13 6 11 7 1 8 2 9 3 10 4 12 5 13
REMARK SMILES IDX 6 14 7 16 8 17 10 19 9 20 18 22 19 23 20 24 21 25 85 26
REMARK SMILES IDX 22 27 84 28 23 29 24 30 25 31 78 32 26 33 83 34 77 35 79 36
REMARK SMILES IDX 27 37 82 38 76 39 75 40 28 42 62 43 41 44 61 45 42 46 45 47
REMARK SMILES IDX 60 48 80 49 43 50 44 51 59 53 81 54 46 55 29 56 30 57 39 58
REMARK SMILES IDX 31 59 32 60 38 61 40 62 33 63 34 64 35 65 36 66 37 67 63 68
REMARK SMILES IDX 64 69 73 70 65 71 66 72 72 73 74 74 67 75 68 76 69 77 70 78
REMARK SMILES IDX 71 79 47 80 48 81 57 82 49 83 50 84 56 85 58 86 51 87 52 88
REMARK SMILES IDX 53 89 54 90 55 91
REMARK H PARENT 2 11 5 15 7 18 10 21 79 41 45 52
REMARK Flexibility Score: inf
ROOT
ATOM      1  O   UNL A   1      40.429  23.589  27.008  1.00  0.00    -0.458 OA
ENDROOT
BRANCH   1   2
ATOM      2  C   UNL A   1      39.182  23.142  26.437  1.00  0.00     0.275 C 
BRANCH   2   3
ATOM      3  C   UNL A   1      39.231  21.676  25.993  1.00  0.00     0.274 C 
BRANCH   3   4
ATOM      4  O   UNL A   1      40.582  21.286  25.677  1.00  0.00    -0.460 OA
BRANCH   4   5
ATOM      5  C   UNL A   1      40.965  20.029  26.049  1.00  0.00     0.341 C 
ATOM      6  O   UNL A   1      40.366  19.012  25.720  1.00  0.00    -0.249 OA
BRANCH   5   7
ATOM      7  C   UNL A   1      42.283  20.015  26.833  1.00  0.00     0.308 C 
ATOM      8  C   UNL A   1      44.290  22.768  27.432  1.00  0.00     0.147 C 
ATOM      9  N   UNL A   1      43.508  22.964  26.229  1.00  0.00    -0.321 N 
ATOM     10  C   UNL A   1      43.520  22.216  25.097  1.00  0.00     0.406 C 
ATOM     11  H   UNL A   1      42.893  23.734  26.233  1.00  0.00     0.167 HD
ATOM     12  O   UNL A   1      43.182  22.712  24.027  1.00  0.00    -0.221 OA
ATOM     13  N   UNL A   1      43.953  20.924  25.172  1.00  0.00    -0.191 N 
ATOM     14  C   UNL A   1      43.482  19.861  25.910  1.00  0.00     0.311 C 
ATOM     15  H   UNL A   1      44.730  20.717  24.605  1.00  0.00     0.317 HD
ATOM     16  N   UNL A   1      44.127  18.745  25.749  1.00  0.00    -0.148 N 
ATOM     17  N   UNL A   1      43.776  17.632  26.543  1.00  0.00    -0.077 NA
ATOM     18  H   UNL A   1      44.850  18.676  25.083  1.00  0.00     0.342 HD
ATOM     19  N   UNL A   1      42.313  18.966  27.844  1.00  0.00    -0.350 N 
ATOM     20  C   UNL A   1      42.964  17.818  27.531  1.00  0.00     0.241 C 
ATOM     21  H   UNL A   1      41.879  19.085  28.719  1.00  0.00     0.163 HD
ENDBRANCH   5   7
ENDBRANCH   4   5
ENDBRANCH   3   4
ENDBRANCH   2   3
ENDBRANCH   1   2
BRANCH   1  22
ATOM     22  C   UNL A   1      40.853  24.800  26.581  1.00  0.00     0.338 C 
ATOM     23  O   UNL A   1      41.362  25.065  25.502  1.00  0.00    -0.246 OA
BRANCH  22  24
ATOM     24  C   UNL A   1      40.481  25.847  27.548  1.00  0.00     0.060 A 
ATOM     25  C   UNL A   1      41.218  27.031  27.513  1.00  0.00     0.016 A 
ATOM     26  C   UNL A   1      39.534  25.639  28.550  1.00  0.00     0.016 A 
ATOM     27  C   UNL A   1      41.070  27.985  28.510  1.00  0.00     0.010 A 
ATOM     28  C   UNL A   1      39.358  26.618  29.540  1.00  0.00     0.010 A 
ATOM     29  C   UNL A   1      40.148  27.784  29.543  1.00  0.00    -0.014 A 
BRANCH  29  30
ATOM     30  C   UNL A   1      40.089  28.772  30.650  1.00  0.00     0.031 A 
ATOM     31  C   UNL A   1      41.083  28.695  31.777  1.00  0.00     0.074 A 
ATOM     32  C   UNL A   1      39.208  29.790  30.599  1.00  0.00     0.049 A 
ATOM     33  N   UNL A   1      41.162  29.426  32.859  1.00  0.00    -0.248 NA
ATOM     34  C   UNL A   1      42.123  27.659  31.674  1.00  0.00     0.031 C 
ATOM     35  C   UNL A   1      38.237  30.014  29.526  1.00  0.00     0.029 A 
ATOM     36  N   UNL A   1      39.000  30.836  31.461  1.00  0.00    -0.354 N 
ATOM     37  C   UNL A   1      42.233  28.917  33.583  1.00  0.00     0.074 A 
ATOM     38  C   UNL A   1      42.774  27.813  32.819  1.00  0.00     0.031 C 
ATOM     39  C   UNL A   1      37.558  31.144  29.779  1.00  0.00     0.029 A 
ATOM     40  C   UNL A   1      38.001  31.690  31.059  1.00  0.00     0.049 A 
ATOM     41  H   UNL A   1      39.517  30.964  32.288  1.00  0.00     0.167 HD
ATOM     42  C   UNL A   1      42.720  29.331  34.779  1.00  0.00     0.037 A 
ATOM     43  C   UNL A   1      37.482  32.775  31.665  1.00  0.00     0.037 A 
ATOM     44  C   UNL A   1      42.204  30.451  35.520  1.00  0.00     0.049 A 
ATOM     45  C   UNL A   1      38.019  33.197  33.004  1.00  0.00     0.074 A 
ATOM     46  C   UNL A   1      42.621  30.939  36.747  1.00  0.00     0.029 A 
ATOM     47  N   UNL A   1      41.166  31.268  35.097  1.00  0.00    -0.354 N 
ATOM     48  N   UNL A   1      38.993  32.667  33.705  1.00  0.00    -0.248 NA
ATOM     49  C   UNL A   1      37.378  34.355  33.642  1.00  0.00     0.031 C 
ATOM     50  C   UNL A   1      41.819  32.039  37.076  1.00  0.00     0.029 A 
ATOM     51  C   UNL A   1      40.925  32.253  36.040  1.00  0.00     0.049 A 
ATOM     52  H   UNL A   1      40.673  31.162  34.252  1.00  0.00     0.167 HD
ATOM     53  C   UNL A   1      39.086  33.431  34.862  1.00  0.00     0.074 A 
ATOM     54  C   UNL A   1      38.082  34.471  34.759  1.00  0.00     0.031 C 
ATOM     55  C   UNL A   1      39.923  33.282  35.919  1.00  0.00     0.037 A 
BRANCH  42  56
ATOM     56  C   UNL A   1      43.848  28.538  35.373  1.00  0.00     0.058 A 
ATOM     57  C   UNL A   1      45.186  28.773  35.022  1.00  0.00     0.135 A 
ATOM     58  C   UNL A   1      43.583  27.533  36.317  1.00  0.00     0.135 A 
ATOM     59  F   UNL A   1      45.490  29.707  34.108  1.00  0.00    -0.206 F 
ATOM     60  C   UNL A   1      46.222  28.018  35.565  1.00  0.00     0.059 A 
ATOM     61  C   UNL A   1      44.605  26.780  36.889  1.00  0.00     0.059 A 
ATOM     62  F   UNL A   1      42.320  27.267  36.686  1.00  0.00    -0.206 F 
ATOM     63  C   UNL A   1      45.919  27.019  36.492  1.00  0.00     0.060 A 
BRANCH  63  64
ATOM     64  S   UNL A   1      47.267  26.031  37.176  1.00  0.00     0.124 S 
ATOM     65  O   UNL A   1      47.003  26.134  38.607  1.00  0.00    -0.237 OA
ATOM     66  O   UNL A   1      47.031  24.719  36.581  1.00  0.00    -0.237 OA
ATOM     67  O   UNL A   1      48.465  26.722  36.706  1.00  0.00    -0.744 OA
ENDBRANCH  63  64
ENDBRANCH  42  56
BRANCH  43  68
ATOM     68  C   UNL A   1      36.369  33.519  31.023  1.00  0.00     0.058 A 
ATOM     69  C   UNL A   1      35.072  33.481  31.552  1.00  0.00     0.135 A 
ATOM     70  C   UNL A   1      36.585  34.293  29.871  1.00  0.00     0.135 A 
ATOM     71  F   UNL A   1      34.816  32.748  32.647  1.00  0.00    -0.206 F 
ATOM     72  C   UNL A   1      34.023  34.177  30.960  1.00  0.00     0.059 A 
ATOM     73  C   UNL A   1      35.559  35.015  29.274  1.00  0.00     0.059 A 
ATOM     74  F   UNL A   1      37.813  34.368  29.334  1.00  0.00    -0.206 F 
ATOM     75  C   UNL A   1      34.279  34.943  29.820  1.00  0.00     0.060 A 
BRANCH  75  76
ATOM     76  S   UNL A   1      32.928  35.890  29.084  1.00  0.00     0.124 S 
ATOM     77  O   UNL A   1      32.358  34.915  28.161  1.00  0.00    -0.237 OA
ATOM     78  O   UNL A   1      32.111  36.224  30.246  1.00  0.00    -0.237 OA
ATOM     79  O   UNL A   1      33.615  37.019  28.465  1.00  0.00    -0.744 OA
ENDBRANCH  75  76
ENDBRANCH  43  68
BRANCH  55  80
ATOM     80  C   UNL A   1      39.802  34.280  37.032  1.00  0.00     0.058 A 
ATOM     81  C   UNL A   1      40.404  35.545  36.950  1.00  0.00     0.135 A 
ATOM     82  C   UNL A   1      39.048  33.982  38.178  1.00  0.00     0.135 A 
ATOM     83  F   UNL A   1      41.139  35.875  35.877  1.00  0.00    -0.206 F 
ATOM     84  C   UNL A   1      40.281  36.474  37.978  1.00  0.00     0.059 A 
ATOM     85  C   UNL A   1      38.897  34.903  39.210  1.00  0.00     0.059 A 
ATOM     86  F   UNL A   1      38.446  32.787  38.298  1.00  0.00    -0.206 F 
ATOM     87  C   UNL A   1      39.528  36.141  39.106  1.00  0.00     0.060 A 
BRANCH  87  88
ATOM     88  S   UNL A   1      39.353  37.361  40.427  1.00  0.00     0.124 S 
ATOM     89  O   UNL A   1      38.512  38.367  39.787  1.00  0.00    -0.237 OA
ATOM     90  O   UNL A   1      38.720  36.588  41.491  1.00  0.00    -0.237 OA
ATOM     91  O   UNL A   1      40.730  37.768  40.693  1.00  0.00    -0.744 OA
ENDBRANCH  87  88
ENDBRANCH  55  80
ENDBRANCH  29  30
ENDBRANCH  22  24
ENDBRANCH   1  22
TORSDOF 14
ENDMDL
MODEL 3
REMARK VINA RESULT:     -11.1      1.099      2.376
REMARK SMILES CNC(=O)NC1=[NH+]N=CN[C@@H]1C(=O)OCCOC(=O)c1ccc(-c2c3nc(c(-c4c(F)cc(S(=O)(=O)[O-])cc4F)c4ccc([nH]4)c(-c4c(F)cc(S(=O)(=O)[O-])cc4F)c4nc(c(-c5c(F)cc(S(=O)(=O)[O-])cc5F)c5ccc2[nH]5)C=C4)C=C3)cc1
REMARK SMILES IDX 17 1 16 2 15 3 14 4 12 5 13 6 11 7 1 8 2 9 3 10 4 12 5 13
REMARK SMILES IDX 6 14 7 16 8 17 10 19 9 20 18 22 19 23 20 24 21 25 85 26
REMARK SMILES IDX 22 27 84 28 23 29 24 30 25 31 78 32 26 33 83 34 77 35 79 36
REMARK SMILES IDX 27 37 82 38 76 39 75 40 28 42 62 43 41 44 61 45 42 46 45 47
REMARK SMILES IDX 60 48 80 49 43 50 44 51 59 53 81 54 46 55 29 56 30 57 39 58
REMARK SMILES IDX 31 59 32 60 38 61 40 62 33 63 34 64 35 65 36 66 37 67 63 68
REMARK SMILES IDX 64 69 73 70 65 71 66 72 72 73 74 74 67 75 68 76 69 77 70 78
REMARK SMILES IDX 71 79 47 80 48 81 57 82 49 83 50 84 56 85 58 86 51 87 52 88
REMARK SMILES IDX 53 89 54 90 55 91
REMARK H PARENT 2 11 5 15 7 18 10 21 79 41 45 52
REMARK Flexibility Score: inf
ROOT
ATOM      1  O   UNL A   1      36.351  30.344  31.341  1.00  0.00    -0.458 OA
ENDROOT
BRANCH   1   2
ATOM      2  C   UNL A   1      36.931  31.553  31.872  1.00  0.00     0.275 C 
BRANCH   2   3
ATOM      3  C   UNL A   1      36.355  31.927  33.243  1.00  0.00     0.274 C 
BRANCH   3   4
ATOM      4  O   UNL A   1      35.760  33.239  33.203  1.00  0.00    -0.460 OA
BRANCH   4   5
ATOM      5  C   UNL A   1      34.732  33.424  32.322  1.00  0.00     0.341 C 
ATOM      6  O   UNL A   1      33.718  32.737  32.309  1.00  0.00    -0.249 OA
BRANCH   5   7
ATOM      7  C   UNL A   1      34.933  34.650  31.422  1.00  0.00     0.308 C 
ATOM      8  C   UNL A   1      33.765  37.838  32.082  1.00  0.00     0.147 C 
ATOM      9  N   UNL A   1      32.942  36.850  32.748  1.00  0.00    -0.321 N 
ATOM     10  C   UNL A   1      32.219  35.850  32.182  1.00  0.00     0.406 C 
ATOM     11  H   UNL A   1      32.903  36.910  33.730  1.00  0.00     0.167 HD
ATOM     12  O   UNL A   1      31.245  35.386  32.766  1.00  0.00    -0.221 OA
ATOM     13  N   UNL A   1      32.575  35.408  30.940  1.00  0.00    -0.191 N 
ATOM     14  C   UNL A   1      33.753  34.859  30.487  1.00  0.00     0.311 C 
ATOM     15  H   UNL A   1      31.873  35.496  30.256  1.00  0.00     0.317 HD
ATOM     16  N   UNL A   1      33.766  34.535  29.228  1.00  0.00    -0.148 N 
ATOM     17  N   UNL A   1      34.966  34.061  28.657  1.00  0.00    -0.077 NA
ATOM     18  H   UNL A   1      32.951  34.620  28.682  1.00  0.00     0.342 HD
ATOM     19  N   UNL A   1      36.161  34.565  30.640  1.00  0.00    -0.350 N 
ATOM     20  C   UNL A   1      36.052  34.150  29.354  1.00  0.00     0.241 C 
ATOM     21  H   UNL A   1      37.034  34.798  31.030  1.00  0.00     0.163 HD
ENDBRANCH   5   7
ENDBRANCH   4   5
ENDBRANCH   3   4
ENDBRANCH   2   3
ENDBRANCH   1   2
BRANCH   1  22
ATOM     22  C   UNL A   1      36.306  30.276  29.991  1.00  0.00     0.338 C 
ATOM     23  O   UNL A   1      35.447  30.745  29.258  1.00  0.00    -0.246 OA
BRANCH  22  24
ATOM     24  C   UNL A   1      37.542  29.674  29.462  1.00  0.00     0.060 A 
ATOM     25  C   UNL A   1      38.376  29.036  30.380  1.00  0.00     0.016 A 
ATOM     26  C   UNL A   1      37.949  29.838  28.139  1.00  0.00     0.016 A 
ATOM     27  C   UNL A   1      39.647  28.620  30.008  1.00  0.00     0.010 A 
ATOM     28  C   UNL A   1      39.219  29.387  27.752  1.00  0.00     0.010 A 
ATOM     29  C   UNL A   1      40.089  28.803  28.692  1.00  0.00    -0.014 A 
BRANCH  29  30
ATOM     30  C   UNL A   1      41.489  28.443  28.354  1.00  0.00     0.031 A 
ATOM     31  C   UNL A   1      42.575  29.479  28.459  1.00  0.00     0.074 A 
ATOM     32  C   UNL A   1      41.802  27.171  28.041  1.00  0.00     0.049 A 
ATOM     33  N   UNL A   1      43.844  29.378  28.155  1.00  0.00    -0.248 NA
ATOM     34  C   UNL A   1      42.183  30.800  28.974  1.00  0.00     0.031 C 
ATOM     35  C   UNL A   1      40.850  26.060  27.971  1.00  0.00     0.029 A 
ATOM     36  N   UNL A   1      43.010  26.594  27.743  1.00  0.00    -0.354 N 
ATOM     37  C   UNL A   1      44.394  30.630  28.404  1.00  0.00     0.074 A 
ATOM     38  C   UNL A   1      43.321  31.475  28.883  1.00  0.00     0.031 C 
ATOM     39  C   UNL A   1      41.516  24.931  27.679  1.00  0.00     0.029 A 
ATOM     40  C   UNL A   1      42.928  25.247  27.483  1.00  0.00     0.049 A 
ATOM     41  H   UNL A   1      43.855  27.097  27.719  1.00  0.00     0.167 HD
ATOM     42  C   UNL A   1      45.677  31.037  28.245  1.00  0.00     0.037 A 
ATOM     43  C   UNL A   1      43.878  24.370  27.103  1.00  0.00     0.037 A 
ATOM     44  C   UNL A   1      46.749  30.187  27.804  1.00  0.00     0.049 A 
ATOM     45  C   UNL A   1      45.287  24.853  26.905  1.00  0.00     0.074 A 
ATOM     46  C   UNL A   1      48.080  30.511  27.598  1.00  0.00     0.029 A 
ATOM     47  N   UNL A   1      46.618  28.836  27.513  1.00  0.00    -0.354 N 
ATOM     48  N   UNL A   1      45.779  26.056  27.085  1.00  0.00    -0.248 NA
ATOM     49  C   UNL A   1      46.268  23.865  26.438  1.00  0.00     0.031 C 
ATOM     50  C   UNL A   1      48.748  29.361  27.161  1.00  0.00     0.029 A 
ATOM     51  C   UNL A   1      47.841  28.315  27.125  1.00  0.00     0.049 A 
ATOM     52  H   UNL A   1      45.779  28.325  27.573  1.00  0.00     0.167 HD
ATOM     53  C   UNL A   1      47.127  25.967  26.761  1.00  0.00     0.074 A 
ATOM     54  C   UNL A   1      47.378  24.588  26.391  1.00  0.00     0.031 C 
ATOM     55  C   UNL A   1      48.072  26.939  26.763  1.00  0.00     0.037 A 
BRANCH  42  56
ATOM     56  C   UNL A   1      45.977  32.484  28.517  1.00  0.00     0.058 A 
ATOM     57  C   UNL A   1      45.897  33.460  27.513  1.00  0.00     0.135 A 
ATOM     58  C   UNL A   1      46.343  32.897  29.808  1.00  0.00     0.135 A 
ATOM     59  F   UNL A   1      45.573  33.113  26.258  1.00  0.00    -0.206 F 
ATOM     60  C   UNL A   1      46.197  34.794  27.772  1.00  0.00     0.059 A 
ATOM     61  C   UNL A   1      46.628  34.229  30.096  1.00  0.00     0.059 A 
ATOM     62  F   UNL A   1      46.437  32.002  30.804  1.00  0.00    -0.206 F 
ATOM     63  C   UNL A   1      46.569  35.167  29.066  1.00  0.00     0.060 A 
BRANCH  63  64
ATOM     64  S   UNL A   1      46.976  36.895  29.388  1.00  0.00     0.124 S 
ATOM     65  O   UNL A   1      48.394  36.927  29.043  1.00  0.00    -0.237 OA
ATOM     66  O   UNL A   1      46.086  37.607  28.475  1.00  0.00    -0.237 OA
ATOM     67  O   UNL A   1      46.671  37.056  30.807  1.00  0.00    -0.744 OA
ENDBRANCH  63  64
ENDBRANCH  42  56
BRANCH  43  68
ATOM     68  C   UNL A   1      43.517  22.952  26.854  1.00  0.00     0.058 A 
ATOM     69  C   UNL A   1      43.483  22.431  25.553  1.00  0.00     0.135 A 
ATOM     70  C   UNL A   1      43.210  22.086  27.915  1.00  0.00     0.135 A 
ATOM     71  F   UNL A   1      43.760  23.224  24.506  1.00  0.00    -0.206 F 
ATOM     72  C   UNL A   1      43.149  21.103  25.309  1.00  0.00     0.059 A 
ATOM     73  C   UNL A   1      42.896  20.749  27.699  1.00  0.00     0.059 A 
ATOM     74  F   UNL A   1      43.239  22.536  29.179  1.00  0.00    -0.206 F 
ATOM     75  C   UNL A   1      42.858  20.269  26.391  1.00  0.00     0.060 A 
BRANCH  75  76
ATOM     76  S   UNL A   1      42.479  18.531  26.077  1.00  0.00     0.124 S 
ATOM     77  O   UNL A   1      41.073  18.605  25.696  1.00  0.00    -0.237 OA
ATOM     78  O   UNL A   1      43.414  18.196  25.008  1.00  0.00    -0.237 OA
ATOM     79  O   UNL A   1      42.754  17.896  27.362  1.00  0.00    -0.744 OA
ENDBRANCH  75  76
ENDBRANCH  43  68
BRANCH  55  80
ATOM     80  C   UNL A   1      49.466  26.539  26.376  1.00  0.00     0.058 A 
ATOM     81  C   UNL A   1      49.954  26.751  25.078  1.00  0.00     0.135 A 
ATOM     82  C   UNL A   1      50.332  25.969  27.322  1.00  0.00     0.135 A 
ATOM     83  F   UNL A   1      49.163  27.287  24.138  1.00  0.00    -0.206 F 
ATOM     84  C   UNL A   1      51.250  26.389  24.724  1.00  0.00     0.059 A 
ATOM     85  C   UNL A   1      51.637  25.617  26.995  1.00  0.00     0.059 A 
ATOM     86  F   UNL A   1      49.912  25.754  28.580  1.00  0.00    -0.206 F 
ATOM     87  C   UNL A   1      52.083  25.819  25.690  1.00  0.00     0.060 A 
BRANCH  87  88
ATOM     88  S   UNL A   1      53.771  25.373  25.229  1.00  0.00     0.124 S 
ATOM     89  O   UNL A   1      54.544  26.033  26.277  1.00  0.00    -0.237 OA
ATOM     90  O   UNL A   1      53.742  23.915  25.285  1.00  0.00    -0.237 OA
ATOM     91  O   UNL A   1      53.915  25.939  23.891  1.00  0.00    -0.744 OA
ENDBRANCH  87  88
ENDBRANCH  55  80
ENDBRANCH  29  30
ENDBRANCH  22  24
ENDBRANCH   1  22
TORSDOF 14
ENDMDL
