MODEL 1
REMARK VINA RESULT:     -10.8      0.000      0.000
REMARK SMILES COc1cc(N[C@H]2C=C[C@@H](C(=O)OCCOC(=O)c3ccc(-c4c5nc(c(-c6c(F)cc(S(=O)(=O)[O-])cc6F)c6ccc([nH]6)c(-c6c(F)cc(S(=O)(=O)[O-])cc6F)c6nc(c(-c7c(F)cc(S(=O)(=O)[O-])cc7F)c7ccc4[nH]7)C=C6)C=C5)cc3)C2)c([N+](=O)[O-])cc1F
REMARK SMILES IDX 14 1 13 2 11 3 12 4 10 5 7 6 8 7 85 8 9 9 6 10 5 12 3 13
REMARK SMILES IDX 4 14 91 15 90 16 92 17 86 18 2 19 1 20 87 21 88 22 89 23
REMARK SMILES IDX 15 24 16 25 17 26 18 27 19 28 20 29 84 30 21 31 83 32 22 33
REMARK SMILES IDX 23 34 24 35 77 36 25 37 82 38 76 39 78 40 26 41 81 42 75 43
REMARK SMILES IDX 74 44 27 46 61 47 40 48 60 49 41 50 44 51 59 52 79 53 42 54
REMARK SMILES IDX 43 55 58 57 80 58 45 59 28 60 29 61 38 62 30 63 31 64 37 65
REMARK SMILES IDX 39 66 32 67 33 68 34 69 35 70 36 71 62 72 63 73 72 74 64 75
REMARK SMILES IDX 65 76 71 77 73 78 66 79 67 80 68 81 69 82 70 83 46 84 47 85
REMARK SMILES IDX 56 86 48 87 49 88 55 89 57 90 50 91 51 92 52 93 53 94 54 95
REMARK H PARENT 6 11 78 45 44 56
REMARK Flexibility Score: inf
ROOT
ATOM      1  C   UNL A   1      32.202  28.791  25.465  1.00  0.00     0.274 C 
ENDROOT
BRANCH   1   2
ATOM      2  O   UNL A   1      31.783  27.454  25.126  1.00  0.00    -0.462 OA
BRANCH   2   3
ATOM      3  C   UNL A   1      31.128  26.743  26.079  1.00  0.00     0.312 C 
ATOM      4  O   UNL A   1      31.157  27.003  27.276  1.00  0.00    -0.252 OA
BRANCH   3   5
ATOM      5  C   UNL A   1      30.319  25.575  25.511  1.00  0.00     0.124 C 
ATOM      6  C   UNL A   1      30.748  23.622  24.089  1.00  0.00     0.103 C 
ATOM      7  C   UNL A   1      30.780  23.266  25.535  1.00  0.00    -0.006 C 
ATOM      8  C   UNL A   1      30.603  25.147  24.058  1.00  0.00     0.048 C 
ATOM      9  C   UNL A   1      30.543  24.326  26.313  1.00  0.00    -0.014 C 
BRANCH   6  10
ATOM     10  N   UNL A   1      31.911  23.102  23.391  1.00  0.00    -0.373 N 
ATOM     11  H   UNL A   1      31.895  23.242  22.417  1.00  0.00     0.161 HD
BRANCH  10  12
ATOM     12  C   UNL A   1      33.039  22.446  23.851  1.00  0.00     0.117 A 
ATOM     13  C   UNL A   1      34.138  20.374  24.613  1.00  0.00     0.157 A 
ATOM     14  C   UNL A   1      33.041  21.059  24.081  1.00  0.00     0.082 A 
ATOM     15  C   UNL A   1      35.311  21.069  24.866  1.00  0.00     0.172 A 
ATOM     16  C   UNL A   1      35.387  22.430  24.615  1.00  0.00     0.131 A 
ATOM     17  F   UNL A   1      36.403  20.445  25.328  1.00  0.00    -0.203 F 
ATOM     18  C   UNL A   1      34.262  23.115  24.114  1.00  0.00     0.295 A 
BRANCH  13  19
ATOM     19  O   UNL A   1      33.964  19.029  24.799  1.00  0.00    -0.494 OA
ATOM     20  C   UNL A   1      32.716  18.536  24.320  1.00  0.00     0.278 C 
ENDBRANCH  13  19
BRANCH  18  21
ATOM     21  N   UNL A   1      34.425  24.561  23.864  1.00  0.00     0.065 N 
ATOM     22  O   UNL A   1      34.367  24.979  22.698  1.00  0.00    -0.258 OA
ATOM     23  O   UNL A   1      34.618  25.294  24.848  1.00  0.00    -0.258 OA
ENDBRANCH  18  21
ENDBRANCH  10  12
ENDBRANCH   6  10
ENDBRANCH   3   5
ENDBRANCH   2   3
ENDBRANCH   1   2
BRANCH   1  24
ATOM     24  C   UNL A   1      33.682  28.784  25.855  1.00  0.00     0.275 C 
BRANCH  24  25
ATOM     25  O   UNL A   1      33.826  28.916  27.281  1.00  0.00    -0.458 OA
BRANCH  25  26
ATOM     26  C   UNL A   1      34.360  30.090  27.692  1.00  0.00     0.338 C 
ATOM     27  O   UNL A   1      33.779  31.144  27.885  1.00  0.00    -0.246 OA
BRANCH  26  28
ATOM     28  C   UNL A   1      35.759  29.864  28.080  1.00  0.00     0.060 A 
ATOM     29  C   UNL A   1      36.736  30.074  27.105  1.00  0.00     0.016 A 
ATOM     30  C   UNL A   1      36.107  29.415  29.353  1.00  0.00     0.016 A 
ATOM     31  C   UNL A   1      38.072  29.833  27.390  1.00  0.00     0.010 A 
ATOM     32  C   UNL A   1      37.452  29.166  29.640  1.00  0.00     0.010 A 
ATOM     33  C   UNL A   1      38.438  29.364  28.657  1.00  0.00    -0.014 A 
BRANCH  33  34
ATOM     34  C   UNL A   1      39.851  29.012  28.916  1.00  0.00     0.031 A 
ATOM     35  C   UNL A   1      40.749  30.017  29.574  1.00  0.00     0.074 A 
ATOM     36  C   UNL A   1      40.303  27.785  28.605  1.00  0.00     0.049 A 
ATOM     37  N   UNL A   1      42.031  29.946  29.815  1.00  0.00    -0.248 NA
ATOM     38  C   UNL A   1      40.118  31.269  30.023  1.00  0.00     0.031 C 
ATOM     39  C   UNL A   1      39.492  26.711  28.029  1.00  0.00     0.029 A 
ATOM     40  N   UNL A   1      41.549  27.230  28.736  1.00  0.00    -0.354 N 
ATOM     41  C   UNL A   1      42.366  31.148  30.424  1.00  0.00     0.074 A 
ATOM     42  C   UNL A   1      41.157  31.938  30.502  1.00  0.00     0.031 C 
ATOM     43  C   UNL A   1      40.261  25.622  27.866  1.00  0.00     0.029 A 
ATOM     44  C   UNL A   1      41.627  25.938  28.274  1.00  0.00     0.049 A 
ATOM     45  H   UNL A   1      42.316  27.712  29.122  1.00  0.00     0.167 HD
ATOM     46  C   UNL A   1      43.577  31.549  30.879  1.00  0.00     0.037 A 
ATOM     47  C   UNL A   1      42.688  25.115  28.167  1.00  0.00     0.037 A 
ATOM     48  C   UNL A   1      44.768  30.743  30.802  1.00  0.00     0.049 A 
ATOM     49  C   UNL A   1      44.037  25.607  28.612  1.00  0.00     0.074 A 
ATOM     50  C   UNL A   1      46.049  31.058  31.217  1.00  0.00     0.029 A 
ATOM     51  N   UNL A   1      44.820  29.459  30.277  1.00  0.00    -0.354 N 
ATOM     52  N   UNL A   1      44.354  26.764  29.143  1.00  0.00    -0.248 NA
ATOM     53  C   UNL A   1      45.173  24.694  28.431  1.00  0.00     0.031 C 
ATOM     54  C   UNL A   1      46.883  29.978  30.909  1.00  0.00     0.029 A 
ATOM     55  C   UNL A   1      46.114  28.972  30.342  1.00  0.00     0.049 A 
ATOM     56  H   UNL A   1      44.049  28.967  29.912  1.00  0.00     0.167 HD
ATOM     57  C   UNL A   1      45.724  26.717  29.370  1.00  0.00     0.074 A 
ATOM     58  C   UNL A   1      46.173  25.410  28.929  1.00  0.00     0.031 C 
ATOM     59  C   UNL A   1      46.537  27.669  29.891  1.00  0.00     0.037 A 
BRANCH  46  60
ATOM     60  C   UNL A   1      43.676  32.929  31.466  1.00  0.00     0.058 A 
ATOM     61  C   UNL A   1      43.981  34.028  30.648  1.00  0.00     0.135 A 
ATOM     62  C   UNL A   1      43.483  33.166  32.837  1.00  0.00     0.135 A 
ATOM     63  F   UNL A   1      44.165  33.861  29.330  1.00  0.00    -0.206 F 
ATOM     64  C   UNL A   1      44.095  35.314  31.169  1.00  0.00     0.059 A 
ATOM     65  C   UNL A   1      43.568  34.447  33.375  1.00  0.00     0.059 A 
ATOM     66  F   UNL A   1      43.162  32.154  33.657  1.00  0.00    -0.206 F 
ATOM     67  C   UNL A   1      43.884  35.514  32.533  1.00  0.00     0.060 A 
BRANCH  67  68
ATOM     68  S   UNL A   1      43.969  37.198  33.182  1.00  0.00     0.124 S 
ATOM     69  O   UNL A   1      42.843  37.220  34.107  1.00  0.00    -0.237 OA
ATOM     70  O   UNL A   1      45.296  37.224  33.792  1.00  0.00    -0.237 OA
ATOM     71  O   UNL A   1      43.824  38.025  31.988  1.00  0.00    -0.744 OA
ENDBRANCH  67  68
ENDBRANCH  46  60
BRANCH  47  72
ATOM     72  C   UNL A   1      42.499  23.752  27.606  1.00  0.00     0.058 A 
ATOM     73  C   UNL A   1      42.379  22.632  28.443  1.00  0.00     0.135 A 
ATOM     74  C   UNL A   1      42.506  23.534  26.221  1.00  0.00     0.135 A 
ATOM     75  F   UNL A   1      42.371  22.786  29.777  1.00  0.00    -0.206 F 
ATOM     76  C   UNL A   1      42.317  21.341  27.931  1.00  0.00     0.059 A 
ATOM     77  C   UNL A   1      42.422  22.253  25.682  1.00  0.00     0.059 A 
ATOM     78  F   UNL A   1      42.601  24.576  25.380  1.00  0.00    -0.206 F 
ATOM     79  C   UNL A   1      42.353  21.161  26.547  1.00  0.00     0.060 A 
BRANCH  79  80
ATOM     80  S   UNL A   1      42.322  19.475  25.901  1.00  0.00     0.124 S 
ATOM     81  O   UNL A   1      43.391  19.524  24.910  1.00  0.00    -0.237 OA
ATOM     82  O   UNL A   1      42.598  18.685  27.097  1.00  0.00    -0.237 OA
ATOM     83  O   UNL A   1      40.972  19.344  25.364  1.00  0.00    -0.744 OA
ENDBRANCH  79  80
ENDBRANCH  47  72
BRANCH  59  84
ATOM     84  C   UNL A   1      47.995  27.336  30.026  1.00  0.00     0.058 A 
ATOM     85  C   UNL A   1      48.474  26.689  31.176  1.00  0.00     0.135 A 
ATOM     86  C   UNL A   1      48.929  27.733  29.057  1.00  0.00     0.135 A 
ATOM     87  F   UNL A   1      47.621  26.291  32.134  1.00  0.00    -0.206 F 
ATOM     88  C   UNL A   1      49.832  26.467  31.371  1.00  0.00     0.059 A 
ATOM     89  C   UNL A   1      50.290  27.502  29.221  1.00  0.00     0.059 A 
ATOM     90  F   UNL A   1      48.517  28.345  27.934  1.00  0.00    -0.206 F 
ATOM     91  C   UNL A   1      50.734  26.884  30.391  1.00  0.00     0.060 A 
BRANCH  91  92
ATOM     92  S   UNL A   1      52.494  26.589  30.659  1.00  0.00     0.124 S 
ATOM     93  O   UNL A   1      52.961  26.318  29.304  1.00  0.00    -0.237 OA
ATOM     94  O   UNL A   1      52.935  27.853  31.242  1.00  0.00    -0.237 OA
ATOM     95  O   UNL A   1      52.511  25.448  31.570  1.00  0.00    -0.744 OA
ENDBRANCH  91  92
ENDBRANCH  59  84
ENDBRANCH  33  34
ENDBRANCH  26  28
ENDBRANCH  25  26
ENDBRANCH  24  25
ENDBRANCH   1  24
TORSDOF 18
ENDMDL
MODEL 2
REMARK VINA RESULT:     -10.5      2.779      3.939
REMARK SMILES COc1cc(N[C@H]2C=C[C@@H](C(=O)OCCOC(=O)c3ccc(-c4c5nc(c(-c6c(F)cc(S(=O)(=O)[O-])cc6F)c6ccc([nH]6)c(-c6c(F)cc(S(=O)(=O)[O-])cc6F)c6nc(c(-c7c(F)cc(S(=O)(=O)[O-])cc7F)c7ccc4[nH]7)C=C6)C=C5)cc3)C2)c([N+](=O)[O-])cc1F
REMARK SMILES IDX 14 1 13 2 11 3 12 4 10 5 7 6 8 7 85 8 9 9 6 10 5 12 3 13
REMARK SMILES IDX 4 14 91 15 90 16 92 17 86 18 2 19 1 20 87 21 88 22 89 23
REMARK SMILES IDX 15 24 16 25 17 26 18 27 19 28 20 29 84 30 21 31 83 32 22 33
REMARK SMILES IDX 23 34 24 35 77 36 25 37 82 38 76 39 78 40 26 41 81 42 75 43
REMARK SMILES IDX 74 44 27 46 61 47 40 48 60 49 41 50 44 51 59 52 79 53 42 54
REMARK SMILES IDX 43 55 58 57 80 58 45 59 28 60 29 61 38 62 30 63 31 64 37 65
REMARK SMILES IDX 39 66 32 67 33 68 34 69 35 70 36 71 62 72 63 73 72 74 64 75
REMARK SMILES IDX 65 76 71 77 73 78 66 79 67 80 68 81 69 82 70 83 46 84 47 85
REMARK SMILES IDX 56 86 48 87 49 88 55 89 57 90 50 91 51 92 52 93 53 94 54 95
REMARK H PARENT 6 11 78 45 44 56
REMARK Flexibility Score: inf
ROOT
ATOM      1  C   UNL A   1      33.906  31.552  27.897  1.00  0.00     0.274 C 
ENDROOT
BRANCH   1   2
ATOM      2  O   UNL A   1      33.090  30.405  27.586  1.00  0.00    -0.462 OA
BRANCH   2   3
ATOM      3  C   UNL A   1      32.377  30.438  26.432  1.00  0.00     0.312 C 
ATOM      4  O   UNL A   1      31.428  31.186  26.229  1.00  0.00    -0.252 OA
BRANCH   3   5
ATOM      5  C   UNL A   1      32.887  29.450  25.380  1.00  0.00     0.124 C 
ATOM      6  C   UNL A   1      32.869  27.020  25.046  1.00  0.00     0.103 C 
ATOM      7  C   UNL A   1      31.765  27.684  24.299  1.00  0.00    -0.006 C 
ATOM      8  C   UNL A   1      33.513  28.134  25.878  1.00  0.00     0.048 C 
ATOM      9  C   UNL A   1      31.773  29.009  24.475  1.00  0.00    -0.014 C 
BRANCH   6  10
ATOM     10  N   UNL A   1      32.379  25.887  25.813  1.00  0.00    -0.373 N 
ATOM     11  H   UNL A   1      31.975  26.128  26.678  1.00  0.00     0.161 HD
BRANCH  10  12
ATOM     12  C   UNL A   1      32.377  24.530  25.544  1.00  0.00     0.117 A 
ATOM     13  C   UNL A   1      33.462  22.554  24.545  1.00  0.00     0.157 A 
ATOM     14  C   UNL A   1      33.459  23.908  24.898  1.00  0.00     0.082 A 
ATOM     15  C   UNL A   1      32.385  21.759  24.907  1.00  0.00     0.172 A 
ATOM     16  C   UNL A   1      31.308  22.305  25.589  1.00  0.00     0.131 A 
ATOM     17  F   UNL A   1      32.367  20.447  24.635  1.00  0.00    -0.203 F 
ATOM     18  C   UNL A   1      31.301  23.678  25.904  1.00  0.00     0.295 A 
BRANCH  13  19
ATOM     19  O   UNL A   1      34.584  22.112  23.897  1.00  0.00    -0.494 OA
ATOM     20  C   UNL A   1      35.717  21.956  24.745  1.00  0.00     0.278 C 
ENDBRANCH  13  19
BRANCH  18  21
ATOM     21  N   UNL A   1      30.124  24.182  26.639  1.00  0.00     0.065 N 
ATOM     22  O   UNL A   1      29.704  25.322  26.390  1.00  0.00    -0.258 OA
ATOM     23  O   UNL A   1      29.610  23.428  27.482  1.00  0.00    -0.258 OA
ENDBRANCH  18  21
ENDBRANCH  10  12
ENDBRANCH   6  10
ENDBRANCH   3   5
ENDBRANCH   2   3
ENDBRANCH   1   2
BRANCH   1  24
ATOM     24  C   UNL A   1      35.382  31.211  27.674  1.00  0.00     0.275 C 
BRANCH  24  25
ATOM     25  O   UNL A   1      36.142  31.465  28.869  1.00  0.00    -0.458 OA
BRANCH  25  26
ATOM     26  C   UNL A   1      36.476  30.360  29.576  1.00  0.00     0.338 C 
ATOM     27  O   UNL A   1      35.731  29.619  30.194  1.00  0.00    -0.246 OA
BRANCH  26  28
ATOM     28  C   UNL A   1      37.890  30.049  29.329  1.00  0.00     0.060 A 
ATOM     29  C   UNL A   1      38.268  29.787  28.011  1.00  0.00     0.016 A 
ATOM     30  C   UNL A   1      38.819  29.970  30.367  1.00  0.00     0.016 A 
ATOM     31  C   UNL A   1      39.578  29.439  27.715  1.00  0.00     0.010 A 
ATOM     32  C   UNL A   1      40.137  29.614  30.070  1.00  0.00     0.010 A 
ATOM     33  C   UNL A   1      40.520  29.337  28.745  1.00  0.00    -0.014 A 
BRANCH  33  34
ATOM     34  C   UNL A   1      41.885  28.866  28.431  1.00  0.00     0.031 A 
ATOM     35  C   UNL A   1      43.030  29.832  28.503  1.00  0.00     0.074 A 
ATOM     36  C   UNL A   1      42.094  27.571  28.133  1.00  0.00     0.049 A 
ATOM     37  N   UNL A   1      44.285  29.650  28.189  1.00  0.00    -0.248 NA
ATOM     38  C   UNL A   1      42.721  31.184  28.997  1.00  0.00     0.031 C 
ATOM     39  C   UNL A   1      41.060  26.536  28.108  1.00  0.00     0.029 A 
ATOM     40  N   UNL A   1      43.245  26.904  27.802  1.00  0.00    -0.354 N 
ATOM     41  C   UNL A   1      44.913  30.866  28.426  1.00  0.00     0.074 A 
ATOM     42  C   UNL A   1      43.898  31.784  28.896  1.00  0.00     0.031 C 
ATOM     43  C   UNL A   1      41.626  25.361  27.789  1.00  0.00     0.029 A 
ATOM     44  C   UNL A   1      43.049  25.570  27.535  1.00  0.00     0.049 A 
ATOM     45  H   UNL A   1      44.127  27.339  27.759  1.00  0.00     0.167 HD
ATOM     46  C   UNL A   1      46.220  31.181  28.268  1.00  0.00     0.037 A 
ATOM     47  C   UNL A   1      43.915  24.632  27.107  1.00  0.00     0.037 A 
ATOM     48  C   UNL A   1      47.217  30.249  27.809  1.00  0.00     0.049 A 
ATOM     49  C   UNL A   1      45.347  25.021  26.868  1.00  0.00     0.074 A 
ATOM     50  C   UNL A   1      48.567  30.466  27.598  1.00  0.00     0.029 A 
ATOM     51  N   UNL A   1      46.971  28.919  27.495  1.00  0.00    -0.354 N 
ATOM     52  N   UNL A   1      45.923  26.186  27.050  1.00  0.00    -0.248 NA
ATOM     53  C   UNL A   1      46.245  23.978  26.355  1.00  0.00     0.031 C 
ATOM     54  C   UNL A   1      49.129  29.277  27.121  1.00  0.00     0.029 A 
ATOM     55  C   UNL A   1      48.139  28.306  27.076  1.00  0.00     0.049 A 
ATOM     56  H   UNL A   1      46.094  28.477  27.561  1.00  0.00     0.167 HD
ATOM     57  C   UNL A   1      47.252  26.017  26.682  1.00  0.00     0.074 A 
ATOM     58  C   UNL A   1      47.398  24.632  26.281  1.00  0.00     0.031 C 
ATOM     59  C   UNL A   1      48.258  26.926  26.675  1.00  0.00     0.037 A 
BRANCH  46  60
ATOM     60  C   UNL A   1      46.634  32.595  28.561  1.00  0.00     0.058 A 
ATOM     61  C   UNL A   1      47.025  32.966  29.857  1.00  0.00     0.135 A 
ATOM     62  C   UNL A   1      46.633  33.588  27.568  1.00  0.00     0.135 A 
ATOM     63  F   UNL A   1      47.054  32.055  30.842  1.00  0.00    -0.206 F 
ATOM     64  C   UNL A   1      47.397  34.272  30.160  1.00  0.00     0.059 A 
ATOM     65  C   UNL A   1      47.026  34.895  27.842  1.00  0.00     0.059 A 
ATOM     66  F   UNL A   1      46.295  33.280  26.306  1.00  0.00    -0.206 F 
ATOM     67  C   UNL A   1      47.398  35.230  29.145  1.00  0.00     0.060 A 
BRANCH  67  68
ATOM     68  S   UNL A   1      47.949  36.904  29.538  1.00  0.00     0.124 S 
ATOM     69  O   UNL A   1      49.385  36.810  29.305  1.00  0.00    -0.237 OA
ATOM     70  O   UNL A   1      47.198  37.708  28.577  1.00  0.00    -0.237 OA
ATOM     71  O   UNL A   1      47.543  37.072  30.931  1.00  0.00    -0.744 OA
ENDBRANCH  67  68
ENDBRANCH  46  60
BRANCH  47  72
ATOM     72  C   UNL A   1      43.432  23.247  26.873  1.00  0.00     0.058 A 
ATOM     73  C   UNL A   1      43.179  22.375  27.943  1.00  0.00     0.135 A 
ATOM     74  C   UNL A   1      43.281  22.744  25.572  1.00  0.00     0.135 A 
ATOM     75  F   UNL A   1      43.313  22.806  29.208  1.00  0.00    -0.206 F 
ATOM     76  C   UNL A   1      42.838  21.043  27.736  1.00  0.00     0.059 A 
ATOM     77  C   UNL A   1      42.918  21.421  25.337  1.00  0.00     0.059 A 
ATOM     78  F   UNL A   1      43.495  23.545  24.517  1.00  0.00    -0.206 F 
ATOM     79  C   UNL A   1      42.722  20.572  26.426  1.00  0.00     0.060 A 
BRANCH  79  80
ATOM     80  S   UNL A   1      42.327  18.828  26.176  1.00  0.00     0.124 S 
ATOM     81  O   UNL A   1      42.530  18.289  27.517  1.00  0.00    -0.237 OA
ATOM     82  O   UNL A   1      40.943  18.890  25.718  1.00  0.00    -0.237 OA
ATOM     83  O   UNL A   1      43.298  18.402  25.174  1.00  0.00    -0.744 OA
ENDBRANCH  79  80
ENDBRANCH  47  72
BRANCH  59  84
ATOM     84  C   UNL A   1      49.612  26.455  26.228  1.00  0.00     0.058 A 
ATOM     85  C   UNL A   1      50.486  25.836  27.136  1.00  0.00     0.135 A 
ATOM     86  C   UNL A   1      50.076  26.694  24.926  1.00  0.00     0.135 A 
ATOM     87  F   UNL A   1      50.090  25.587  28.394  1.00  0.00    -0.206 F 
ATOM     88  C   UNL A   1      51.782  25.489  26.773  1.00  0.00     0.059 A 
ATOM     89  C   UNL A   1      51.362  26.336  24.535  1.00  0.00     0.059 A 
ATOM     90  F   UNL A   1      49.273  27.273  24.019  1.00  0.00    -0.206 F 
ATOM     91  C   UNL A   1      52.214  25.750  25.472  1.00  0.00     0.060 A 
BRANCH  91  92
ATOM     92  S   UNL A   1      53.900  25.294  25.017  1.00  0.00     0.124 S 
ATOM     93  O   UNL A   1      54.660  25.781  26.164  1.00  0.00    -0.237 OA
ATOM     94  O   UNL A   1      53.805  23.843  24.888  1.00  0.00    -0.237 OA
ATOM     95  O   UNL A   1      54.119  26.014  23.766  1.00  0.00    -0.744 OA
ENDBRANCH  91  92
ENDBRANCH  59  84
ENDBRANCH  33  34
ENDBRANCH  26  28
ENDBRANCH  25  26
ENDBRANCH  24  25
ENDBRANCH   1  24
TORSDOF 18
ENDMDL
MODEL 3
REMARK VINA RESULT:     -10.4      2.899      3.844
REMARK SMILES COc1cc(N[C@H]2C=C[C@@H](C(=O)OCCOC(=O)c3ccc(-c4c5nc(c(-c6c(F)cc(S(=O)(=O)[O-])cc6F)c6ccc([nH]6)c(-c6c(F)cc(S(=O)(=O)[O-])cc6F)c6nc(c(-c7c(F)cc(S(=O)(=O)[O-])cc7F)c7ccc4[nH]7)C=C6)C=C5)cc3)C2)c([N+](=O)[O-])cc1F
REMARK SMILES IDX 14 1 13 2 11 3 12 4 10 5 7 6 8 7 85 8 9 9 6 10 5 12 3 13
REMARK SMILES IDX 4 14 91 15 90 16 92 17 86 18 2 19 1 20 87 21 88 22 89 23
REMARK SMILES IDX 15 24 16 25 17 26 18 27 19 28 20 29 84 30 21 31 83 32 22 33
REMARK SMILES IDX 23 34 24 35 77 36 25 37 82 38 76 39 78 40 26 41 81 42 75 43
REMARK SMILES IDX 74 44 27 46 61 47 40 48 60 49 41 50 44 51 59 52 79 53 42 54
REMARK SMILES IDX 43 55 58 57 80 58 45 59 28 60 29 61 38 62 30 63 31 64 37 65
REMARK SMILES IDX 39 66 32 67 33 68 34 69 35 70 36 71 62 72 63 73 72 74 64 75
REMARK SMILES IDX 65 76 71 77 73 78 66 79 67 80 68 81 69 82 70 83 46 84 47 85
REMARK SMILES IDX 56 86 48 87 49 88 55 89 57 90 50 91 51 92 52 93 53 94 54 95
REMARK H PARENT 6 11 78 45 44 56
REMARK Flexibility Score: inf
ROOT
ATOM      1  C   UNL A   1      33.511  30.919  27.254  1.00  0.00     0.274 C 
ENDROOT
BRANCH   1   2
ATOM      2  O   UNL A   1      32.234  30.265  27.110  1.00  0.00    -0.462 OA
BRANCH   2   3
ATOM      3  C   UNL A   1      32.234  28.980  26.674  1.00  0.00     0.312 C 
ATOM      4  O   UNL A   1      31.905  28.019  27.360  1.00  0.00    -0.252 OA
BRANCH   3   5
ATOM      5  C   UNL A   1      32.671  28.837  25.215  1.00  0.00     0.124 C 
ATOM      6  C   UNL A   1      33.070  27.003  23.636  1.00  0.00     0.103 C 
ATOM      7  C   UNL A   1      31.710  27.587  23.466  1.00  0.00    -0.006 C 
ATOM      8  C   UNL A   1      33.651  27.699  24.870  1.00  0.00     0.048 C 
ATOM      9  C   UNL A   1      31.490  28.589  24.322  1.00  0.00    -0.014 C 
BRANCH   6  10
ATOM     10  N   UNL A   1      33.014  25.553  23.718  1.00  0.00    -0.373 N 
ATOM     11  H   UNL A   1      32.989  25.099  22.845  1.00  0.00     0.161 HD
BRANCH  10  12
ATOM     12  C   UNL A   1      32.992  24.697  24.804  1.00  0.00     0.117 A 
ATOM     13  C   UNL A   1      31.791  23.720  26.724  1.00  0.00     0.157 A 
ATOM     14  C   UNL A   1      31.831  24.521  25.578  1.00  0.00     0.082 A 
ATOM     15  C   UNL A   1      32.921  23.003  27.088  1.00  0.00     0.172 A 
ATOM     16  C   UNL A   1      34.083  23.098  26.337  1.00  0.00     0.131 A 
ATOM     17  F   UNL A   1      32.914  22.184  28.148  1.00  0.00    -0.203 F 
ATOM     18  C   UNL A   1      34.121  23.938  25.206  1.00  0.00     0.295 A 
BRANCH  13  19
ATOM     19  O   UNL A   1      30.589  23.678  27.377  1.00  0.00    -0.494 OA
ATOM     20  C   UNL A   1      29.543  24.373  26.705  1.00  0.00     0.278 C 
ENDBRANCH  13  19
BRANCH  18  21
ATOM     21  N   UNL A   1      35.391  23.977  24.454  1.00  0.00     0.065 N 
ATOM     22  O   UNL A   1      36.460  24.028  25.082  1.00  0.00    -0.258 OA
ATOM     23  O   UNL A   1      35.323  23.958  23.214  1.00  0.00    -0.258 OA
ENDBRANCH  18  21
ENDBRANCH  10  12
ENDBRANCH   6  10
ENDBRANCH   3   5
ENDBRANCH   2   3
ENDBRANCH   1   2
BRANCH   1  24
ATOM     24  C   UNL A   1      34.522  29.947  27.867  1.00  0.00     0.275 C 
BRANCH  24  25
ATOM     25  O   UNL A   1      35.783  30.605  28.083  1.00  0.00    -0.458 OA
BRANCH  25  26
ATOM     26  C   UNL A   1      36.370  30.334  29.273  1.00  0.00     0.338 C 
ATOM     27  O   UNL A   1      35.826  30.190  30.354  1.00  0.00    -0.246 OA
BRANCH  26  28
ATOM     28  C   UNL A   1      37.789  30.031  29.044  1.00  0.00     0.060 A 
ATOM     29  C   UNL A   1      38.181  29.749  27.734  1.00  0.00     0.016 A 
ATOM     30  C   UNL A   1      38.709  29.979  30.091  1.00  0.00     0.016 A 
ATOM     31  C   UNL A   1      39.497  29.408  27.455  1.00  0.00     0.010 A 
ATOM     32  C   UNL A   1      40.033  29.630  29.813  1.00  0.00     0.010 A 
ATOM     33  C   UNL A   1      40.430  29.334  28.496  1.00  0.00    -0.014 A 
BRANCH  33  34
ATOM     34  C   UNL A   1      41.802  28.869  28.203  1.00  0.00     0.031 A 
ATOM     35  C   UNL A   1      42.938  29.847  28.265  1.00  0.00     0.074 A 
ATOM     36  C   UNL A   1      42.026  27.571  27.930  1.00  0.00     0.049 A 
ATOM     37  N   UNL A   1      44.197  29.671  27.965  1.00  0.00    -0.248 NA
ATOM     38  C   UNL A   1      42.612  31.205  28.731  1.00  0.00     0.031 C 
ATOM     39  C   UNL A   1      41.001  26.526  27.916  1.00  0.00     0.029 A 
ATOM     40  N   UNL A   1      43.185  26.909  27.622  1.00  0.00    -0.354 N 
ATOM     41  C   UNL A   1      44.811  30.896  28.185  1.00  0.00     0.074 A 
ATOM     42  C   UNL A   1      43.784  31.814  28.629  1.00  0.00     0.031 C 
ATOM     43  C   UNL A   1      41.581  25.350  27.623  1.00  0.00     0.029 A 
ATOM     44  C   UNL A   1      43.004  25.568  27.378  1.00  0.00     0.049 A 
ATOM     45  H   UNL A   1      44.064  27.350  27.577  1.00  0.00     0.167 HD
ATOM     46  C   UNL A   1      46.117  31.221  28.032  1.00  0.00     0.037 A 
ATOM     47  C   UNL A   1      43.882  24.630  26.975  1.00  0.00     0.037 A 
ATOM     48  C   UNL A   1      47.127  30.290  27.600  1.00  0.00     0.049 A 
ATOM     49  C   UNL A   1      45.313  25.028  26.741  1.00  0.00     0.074 A 
ATOM     50  C   UNL A   1      48.476  30.516  27.395  1.00  0.00     0.029 A 
ATOM     51  N   UNL A   1      46.896  28.952  27.309  1.00  0.00    -0.354 N 
ATOM     52  N   UNL A   1      45.876  26.202  26.906  1.00  0.00    -0.248 NA
ATOM     53  C   UNL A   1      46.224  23.984  26.255  1.00  0.00     0.031 C 
ATOM     54  C   UNL A   1      49.053  29.324  26.945  1.00  0.00     0.029 A 
ATOM     55  C   UNL A   1      48.073  28.343  26.911  1.00  0.00     0.049 A 
ATOM     56  H   UNL A   1      46.022  28.503  27.376  1.00  0.00     0.167 HD
ATOM     57  C   UNL A   1      47.210  26.038  26.553  1.00  0.00     0.074 A 
ATOM     58  C   UNL A   1      47.372  24.647  26.178  1.00  0.00     0.031 C 
ATOM     59  C   UNL A   1      48.207  26.956  26.537  1.00  0.00     0.037 A 
BRANCH  46  60
ATOM     60  C   UNL A   1      46.516  32.644  28.302  1.00  0.00     0.058 A 
ATOM     61  C   UNL A   1      46.953  33.028  29.580  1.00  0.00     0.135 A 
ATOM     62  C   UNL A   1      46.454  33.632  27.306  1.00  0.00     0.135 A 
ATOM     63  F   UNL A   1      47.041  32.123  30.566  1.00  0.00    -0.206 F 
ATOM     64  C   UNL A   1      47.313  34.343  29.861  1.00  0.00     0.059 A 
ATOM     65  C   UNL A   1      46.833  34.948  27.559  1.00  0.00     0.059 A 
ATOM     66  F   UNL A   1      46.069  33.311  26.061  1.00  0.00    -0.206 F 
ATOM     67  C   UNL A   1      47.252  35.295  28.844  1.00  0.00     0.060 A 
BRANCH  67  68
ATOM     68  S   UNL A   1      47.786  36.982  29.207  1.00  0.00     0.124 S 
ATOM     69  O   UNL A   1      49.057  37.054  28.497  1.00  0.00    -0.237 OA
ATOM     70  O   UNL A   1      46.697  37.777  28.646  1.00  0.00    -0.237 OA
ATOM     71  O   UNL A   1      47.874  37.000  30.664  1.00  0.00    -0.744 OA
ENDBRANCH  67  68
ENDBRANCH  46  60
BRANCH  47  72
ATOM     72  C   UNL A   1      43.414  23.236  26.763  1.00  0.00     0.058 A 
ATOM     73  C   UNL A   1      43.135  22.391  27.848  1.00  0.00     0.135 A 
ATOM     74  C   UNL A   1      43.304  22.700  25.472  1.00  0.00     0.135 A 
ATOM     75  F   UNL A   1      43.229  22.855  29.104  1.00  0.00    -0.206 F 
ATOM     76  C   UNL A   1      42.807  21.052  27.664  1.00  0.00     0.059 A 
ATOM     77  C   UNL A   1      42.955  21.368  25.261  1.00  0.00     0.059 A 
ATOM     78  F   UNL A   1      43.544  23.475  24.402  1.00  0.00    -0.206 F 
ATOM     79  C   UNL A   1      42.732  20.547  26.365  1.00  0.00     0.060 A 
BRANCH  79  80
ATOM     80  S   UNL A   1      42.355  18.794  26.149  1.00  0.00     0.124 S 
ATOM     81  O   UNL A   1      42.649  18.268  27.477  1.00  0.00    -0.237 OA
ATOM     82  O   UNL A   1      40.943  18.829  25.777  1.00  0.00    -0.237 OA
ATOM     83  O   UNL A   1      43.270  18.379  25.091  1.00  0.00    -0.744 OA
ENDBRANCH  79  80
ENDBRANCH  47  72
BRANCH  59  84
ATOM     84  C   UNL A   1      49.570  26.490  26.110  1.00  0.00     0.058 A 
ATOM     85  C   UNL A   1      50.429  25.867  27.029  1.00  0.00     0.135 A 
ATOM     86  C   UNL A   1      50.055  26.736  24.817  1.00  0.00     0.135 A 
ATOM     87  F   UNL A   1      50.012  25.611  28.279  1.00  0.00    -0.206 F 
ATOM     88  C   UNL A   1      51.732  25.524  26.686  1.00  0.00     0.059 A 
ATOM     89  C   UNL A   1      51.348  26.382  24.446  1.00  0.00     0.059 A 
ATOM     90  F   UNL A   1      49.266  27.319  23.900  1.00  0.00    -0.206 F 
ATOM     91  C   UNL A   1      52.185  25.792  25.394  1.00  0.00     0.060 A 
BRANCH  91  92
ATOM     92  S   UNL A   1      53.879  25.342  24.965  1.00  0.00     0.124 S 
ATOM     93  O   UNL A   1      53.815  23.884  24.988  1.00  0.00    -0.237 OA
ATOM     94  O   UNL A   1      54.037  25.950  23.647  1.00  0.00    -0.237 OA
ATOM     95  O   UNL A   1      54.672  25.953  26.028  1.00  0.00    -0.744 OA
ENDBRANCH  91  92
ENDBRANCH  59  84
ENDBRANCH  33  34
ENDBRANCH  26  28
ENDBRANCH  25  26
ENDBRANCH  24  25
ENDBRANCH   1  24
TORSDOF 18
ENDMDL
