MODEL 1
REMARK VINA RESULT:     -11.3      0.000      0.000
REMARK SMILES C[NH2+][C@@]1(C(=O)OCCOC(=O)c2ccc(-c3c4nc(c(-c5c(F)cc(S(=O)(=O)[O-])cc5F)c5ccc([nH]5)c(-c5c(F)cc(S(=O)(=O)[O-])cc5F)c5nc(c(-c6c(F)cc(S(=O)(=O)[O-])cc6F)c6ccc3[nH]6)C=C5)C=C4)cc2)C=CC=C(c2ccccc2)C1
REMARK SMILES IDX 8 1 7 2 6 3 4 4 5 5 3 6 78 7 88 8 79 9 81 10 80 11 2 12 1 13
REMARK SMILES IDX 82 16 83 17 87 18 84 19 86 20 85 21 9 22 10 23 11 24 12 25
REMARK SMILES IDX 13 26 77 27 14 28 76 29 15 30 16 31 17 32 70 33 18 34 75 35
REMARK SMILES IDX 69 36 71 37 19 38 74 39 68 40 67 41 20 43 54 44 33 45 53 46
REMARK SMILES IDX 34 47 37 48 52 49 72 50 35 51 36 52 51 54 73 55 38 56 21 57
REMARK SMILES IDX 22 58 31 59 23 60 24 61 30 62 32 63 25 64 26 65 27 66 28 67
REMARK SMILES IDX 29 68 55 69 56 70 65 71 57 72 58 73 64 74 66 75 59 76 60 77
REMARK SMILES IDX 61 78 62 79 63 80 39 81 40 82 49 83 41 84 42 85 48 86 50 87
REMARK SMILES IDX 43 88 44 89 45 90 46 91 47 92
REMARK H PARENT 2 14 2 15 71 42 37 53
REMARK Flexibility Score: inf
ROOT
ATOM      1  C   UNL A   1      39.295  22.383  26.393  1.00  0.00     0.275 C 
ENDROOT
BRANCH   1   2
ATOM      2  C   UNL A   1      38.209  21.827  25.475  1.00  0.00     0.274 C 
BRANCH   2   3
ATOM      3  O   UNL A   1      36.938  22.454  25.742  1.00  0.00    -0.457 OA
BRANCH   3   4
ATOM      4  C   UNL A   1      35.821  21.726  25.453  1.00  0.00     0.372 C 
ATOM      5  O   UNL A   1      35.831  20.501  25.334  1.00  0.00    -0.244 OA
BRANCH   4   6
ATOM      6  C   UNL A   1      34.536  22.609  25.240  1.00  0.00     0.217 C 
ATOM      7  C   UNL A   1      34.260  22.553  23.741  1.00  0.00     0.053 C 
ATOM      8  C   UNL A   1      34.756  24.092  25.690  1.00  0.00     0.122 C 
ATOM      9  C   UNL A   1      33.752  23.597  23.067  1.00  0.00     0.003 C 
ATOM     10  C   UNL A   1      33.788  25.047  25.016  1.00  0.00    -0.034 C 
ATOM     11  C   UNL A   1      33.353  24.796  23.767  1.00  0.00     0.004 C 
BRANCH   6  12
ATOM     12  N   UNL A   1      33.458  22.001  26.076  1.00  0.00    -0.331 N 
ATOM     13  C   UNL A   1      33.588  22.079  27.519  1.00  0.00     0.332 C 
ATOM     14  H   UNL A   1      32.584  22.463  25.824  1.00  0.00     0.347 HD
ATOM     15  H   UNL A   1      33.507  21.003  25.868  1.00  0.00     0.347 HD
ENDBRANCH   6  12
BRANCH  10  16
ATOM     16  C   UNL A   1      33.343  26.241  25.752  1.00  0.00    -0.022 A 
ATOM     17  C   UNL A   1      32.028  26.331  26.233  1.00  0.00     0.008 A 
ATOM     18  C   UNL A   1      34.229  27.295  26.005  1.00  0.00     0.008 A 
ATOM     19  C   UNL A   1      31.604  27.458  26.937  1.00  0.00     0.001 A 
ATOM     20  C   UNL A   1      33.802  28.426  26.704  1.00  0.00     0.001 A 
ATOM     21  C   UNL A   1      32.490  28.509  27.169  1.00  0.00     0.000 A 
ENDBRANCH  10  16
ENDBRANCH   4   6
ENDBRANCH   3   4
ENDBRANCH   2   3
ENDBRANCH   1   2
BRANCH   1  22
ATOM     22  O   UNL A   1      39.308  23.819  26.350  1.00  0.00    -0.458 OA
BRANCH  22  23
ATOM     23  C   UNL A   1      40.494  24.388  26.665  1.00  0.00     0.338 C 
ATOM     24  O   UNL A   1      41.597  24.093  26.239  1.00  0.00    -0.246 OA
BRANCH  23  25
ATOM     25  C   UNL A   1      40.263  25.516  27.576  1.00  0.00     0.060 A 
ATOM     26  C   UNL A   1      41.108  26.618  27.480  1.00  0.00     0.016 A 
ATOM     27  C   UNL A   1      39.316  25.436  28.595  1.00  0.00     0.016 A 
ATOM     28  C   UNL A   1      41.072  27.612  28.450  1.00  0.00     0.010 A 
ATOM     29  C   UNL A   1      39.230  26.474  29.530  1.00  0.00     0.010 A 
ATOM     30  C   UNL A   1      40.130  27.555  29.487  1.00  0.00    -0.014 A 
BRANCH  30  31
ATOM     31  C   UNL A   1      40.122  28.603  30.543  1.00  0.00     0.031 A 
ATOM     32  C   UNL A   1      41.127  28.553  31.663  1.00  0.00     0.074 A 
ATOM     33  C   UNL A   1      39.235  29.616  30.487  1.00  0.00     0.049 A 
ATOM     34  N   UNL A   1      41.197  29.288  32.743  1.00  0.00    -0.248 NA
ATOM     35  C   UNL A   1      42.187  27.538  31.559  1.00  0.00     0.031 C 
ATOM     36  C   UNL A   1      38.238  29.811  29.432  1.00  0.00     0.029 A 
ATOM     37  N   UNL A   1      39.036  30.679  31.332  1.00  0.00    -0.354 N 
ATOM     38  C   UNL A   1      42.270  28.790  33.474  1.00  0.00     0.074 A 
ATOM     39  C   UNL A   1      42.827  27.694  32.710  1.00  0.00     0.031 C 
ATOM     40  C   UNL A   1      37.559  30.944  29.673  1.00  0.00     0.029 A 
ATOM     41  C   UNL A   1      38.023  31.518  30.932  1.00  0.00     0.049 A 
ATOM     42  H   UNL A   1      39.569  30.828  32.146  1.00  0.00     0.167 HD
ATOM     43  C   UNL A   1      42.743  29.206  34.674  1.00  0.00     0.037 A 
ATOM     44  C   UNL A   1      37.504  32.610  31.525  1.00  0.00     0.037 A 
ATOM     45  C   UNL A   1      42.225  30.332  35.404  1.00  0.00     0.049 A 
ATOM     46  C   UNL A   1      38.043  33.052  32.855  1.00  0.00     0.074 A 
ATOM     47  C   UNL A   1      42.645  30.838  36.623  1.00  0.00     0.029 A 
ATOM     48  N   UNL A   1      41.183  31.141  34.974  1.00  0.00    -0.354 N 
ATOM     49  N   UNL A   1      39.018  32.531  33.562  1.00  0.00    -0.248 NA
ATOM     50  C   UNL A   1      37.398  34.214  33.481  1.00  0.00     0.031 C 
ATOM     51  C   UNL A   1      41.845  31.944  36.937  1.00  0.00     0.029 A 
ATOM     52  C   UNL A   1      40.943  32.139  35.904  1.00  0.00     0.049 A 
ATOM     53  H   UNL A   1      40.688  31.023  34.132  1.00  0.00     0.167 HD
ATOM     54  C   UNL A   1      39.102  33.301  34.715  1.00  0.00     0.074 A 
ATOM     55  C   UNL A   1      38.094  34.337  34.603  1.00  0.00     0.031 C 
ATOM     56  C   UNL A   1      39.935  33.158  35.775  1.00  0.00     0.037 A 
BRANCH  43  57
ATOM     57  C   UNL A   1      43.857  28.411  35.289  1.00  0.00     0.058 A 
ATOM     58  C   UNL A   1      45.205  28.665  34.992  1.00  0.00     0.135 A 
ATOM     59  C   UNL A   1      43.569  27.386  36.206  1.00  0.00     0.135 A 
ATOM     60  F   UNL A   1      45.531  29.622  34.108  1.00  0.00    -0.206 F 
ATOM     61  C   UNL A   1      46.227  27.915  35.564  1.00  0.00     0.059 A 
ATOM     62  C   UNL A   1      44.577  26.636  36.803  1.00  0.00     0.059 A 
ATOM     63  F   UNL A   1      42.296  27.102  36.522  1.00  0.00    -0.206 F 
ATOM     64  C   UNL A   1      45.904  26.897  36.463  1.00  0.00     0.060 A 
BRANCH  64  65
ATOM     65  S   UNL A   1      47.235  25.922  37.195  1.00  0.00     0.124 S 
ATOM     66  O   UNL A   1      46.522  24.713  37.595  1.00  0.00    -0.237 OA
ATOM     67  O   UNL A   1      48.167  25.769  36.084  1.00  0.00    -0.237 OA
ATOM     68  O   UNL A   1      47.707  26.764  38.291  1.00  0.00    -0.744 OA
ENDBRANCH  64  65
ENDBRANCH  43  57
BRANCH  44  69
ATOM     69  C   UNL A   1      36.390  33.344  30.872  1.00  0.00     0.058 A 
ATOM     70  C   UNL A   1      35.094  33.307  31.405  1.00  0.00     0.135 A 
ATOM     71  C   UNL A   1      36.606  34.117  29.721  1.00  0.00     0.135 A 
ATOM     72  F   UNL A   1      34.839  32.572  32.498  1.00  0.00    -0.206 F 
ATOM     73  C   UNL A   1      34.048  34.012  30.819  1.00  0.00     0.059 A 
ATOM     74  C   UNL A   1      35.581  34.846  29.130  1.00  0.00     0.059 A 
ATOM     75  F   UNL A   1      37.832  34.190  29.181  1.00  0.00    -0.206 F 
ATOM     76  C   UNL A   1      34.302  34.782  29.683  1.00  0.00     0.060 A 
BRANCH  76  77
ATOM     77  S   UNL A   1      32.960  35.755  28.965  1.00  0.00     0.124 S 
ATOM     78  O   UNL A   1      33.692  36.862  28.361  1.00  0.00    -0.237 OA
ATOM     79  O   UNL A   1      32.351  34.811  28.034  1.00  0.00    -0.237 OA
ATOM     80  O   UNL A   1      32.140  36.094  30.125  1.00  0.00    -0.744 OA
ENDBRANCH  76  77
ENDBRANCH  44  69
BRANCH  56  81
ATOM     81  C   UNL A   1      39.794  34.153  36.890  1.00  0.00     0.058 A 
ATOM     82  C   UNL A   1      40.334  35.443  36.787  1.00  0.00     0.135 A 
ATOM     83  C   UNL A   1      39.082  33.825  38.054  1.00  0.00     0.135 A 
ATOM     84  F   UNL A   1      41.030  35.799  35.695  1.00  0.00    -0.206 F 
ATOM     85  C   UNL A   1      40.188  36.374  37.809  1.00  0.00     0.059 A 
ATOM     86  C   UNL A   1      38.910  34.745  39.083  1.00  0.00     0.059 A 
ATOM     87  F   UNL A   1      38.542  32.605  38.194  1.00  0.00    -0.206 F 
ATOM     88  C   UNL A   1      39.476  36.014  38.955  1.00  0.00     0.060 A 
BRANCH  88  89
ATOM     89  S   UNL A   1      39.262  37.235  40.269  1.00  0.00     0.124 S 
ATOM     90  O   UNL A   1      38.527  36.464  41.266  1.00  0.00    -0.237 OA
ATOM     91  O   UNL A   1      40.639  37.573  40.617  1.00  0.00    -0.237 OA
ATOM     92  O   UNL A   1      38.509  38.302  39.618  1.00  0.00    -0.744 OA
ENDBRANCH  88  89
ENDBRANCH  56  81
ENDBRANCH  30  31
ENDBRANCH  23  25
ENDBRANCH  22  23
ENDBRANCH   1  22
TORSDOF 16
ENDMDL
MODEL 2
REMARK VINA RESULT:     -11.3      6.759     12.292
REMARK SMILES C[NH2+][C@@]1(C(=O)OCCOC(=O)c2ccc(-c3c4nc(c(-c5c(F)cc(S(=O)(=O)[O-])cc5F)c5ccc([nH]5)c(-c5c(F)cc(S(=O)(=O)[O-])cc5F)c5nc(c(-c6c(F)cc(S(=O)(=O)[O-])cc6F)c6ccc3[nH]6)C=C5)C=C4)cc2)C=CC=C(c2ccccc2)C1
REMARK SMILES IDX 8 1 7 2 6 3 4 4 5 5 3 6 78 7 88 8 79 9 81 10 80 11 2 12 1 13
REMARK SMILES IDX 82 16 83 17 87 18 84 19 86 20 85 21 9 22 10 23 11 24 12 25
REMARK SMILES IDX 13 26 77 27 14 28 76 29 15 30 16 31 17 32 70 33 18 34 75 35
REMARK SMILES IDX 69 36 71 37 19 38 74 39 68 40 67 41 20 43 54 44 33 45 53 46
REMARK SMILES IDX 34 47 37 48 52 49 72 50 35 51 36 52 51 54 73 55 38 56 21 57
REMARK SMILES IDX 22 58 31 59 23 60 24 61 30 62 32 63 25 64 26 65 27 66 28 67
REMARK SMILES IDX 29 68 55 69 56 70 65 71 57 72 58 73 64 74 66 75 59 76 60 77
REMARK SMILES IDX 61 78 62 79 63 80 39 81 40 82 49 83 41 84 42 85 48 86 50 87
REMARK SMILES IDX 43 88 44 89 45 90 46 91 47 92
REMARK H PARENT 2 14 2 15 71 42 37 53
REMARK Flexibility Score: inf
ROOT
ATOM      1  C   UNL A   1      34.357  31.002  27.736  1.00  0.00     0.275 C 
ENDROOT
BRANCH   1   2
ATOM      2  C   UNL A   1      33.105  30.303  27.210  1.00  0.00     0.274 C 
BRANCH   2   3
ATOM      3  O   UNL A   1      33.453  29.252  26.286  1.00  0.00    -0.457 OA
BRANCH   3   4
ATOM      4  C   UNL A   1      32.508  28.910  25.362  1.00  0.00     0.372 C 
ATOM      5  O   UNL A   1      31.708  29.716  24.890  1.00  0.00    -0.244 OA
BRANCH   4   6
ATOM      6  C   UNL A   1      32.513  27.378  25.001  1.00  0.00     0.217 C 
ATOM      7  C   UNL A   1      31.456  26.754  25.906  1.00  0.00     0.053 C 
ATOM      8  C   UNL A   1      33.905  26.713  25.264  1.00  0.00     0.122 C 
ATOM      9  C   UNL A   1      31.584  25.514  26.405  1.00  0.00     0.003 C 
ATOM     10  C   UNL A   1      33.798  25.211  25.453  1.00  0.00    -0.034 C 
ATOM     11  C   UNL A   1      32.698  24.680  26.019  1.00  0.00     0.004 C 
BRANCH   6  12
ATOM     12  N   UNL A   1      32.194  27.283  23.545  1.00  0.00    -0.331 N 
ATOM     13  C   UNL A   1      33.244  27.605  22.595  1.00  0.00     0.332 C 
ATOM     14  H   UNL A   1      31.903  26.323  23.361  1.00  0.00     0.347 HD
ATOM     15  H   UNL A   1      31.483  27.999  23.392  1.00  0.00     0.347 HD
ENDBRANCH   6  12
BRANCH  10  16
ATOM     16  C   UNL A   1      34.914  24.360  25.012  1.00  0.00    -0.022 A 
ATOM     17  C   UNL A   1      34.949  23.856  23.703  1.00  0.00     0.008 A 
ATOM     18  C   UNL A   1      35.969  24.058  25.880  1.00  0.00     0.008 A 
ATOM     19  C   UNL A   1      36.009  23.054  23.278  1.00  0.00     0.001 A 
ATOM     20  C   UNL A   1      37.026  23.249  25.456  1.00  0.00     0.001 A 
ATOM     21  C   UNL A   1      37.045  22.746  24.156  1.00  0.00     0.000 A 
ENDBRANCH  10  16
ENDBRANCH   4   6
ENDBRANCH   3   4
ENDBRANCH   2   3
ENDBRANCH   1   2
BRANCH   1  22
ATOM     22  O   UNL A   1      35.194  30.075  28.446  1.00  0.00    -0.458 OA
BRANCH  22  23
ATOM     23  C   UNL A   1      36.159  30.645  29.204  1.00  0.00     0.338 C 
ATOM     24  O   UNL A   1      36.028  31.514  30.047  1.00  0.00    -0.246 OA
BRANCH  23  25
ATOM     25  C   UNL A   1      37.444  29.993  28.919  1.00  0.00     0.060 A 
ATOM     26  C   UNL A   1      38.243  29.625  29.998  1.00  0.00     0.016 A 
ATOM     27  C   UNL A   1      37.913  29.865  27.614  1.00  0.00     0.016 A 
ATOM     28  C   UNL A   1      39.552  29.205  29.786  1.00  0.00     0.010 A 
ATOM     29  C   UNL A   1      39.205  29.372  27.398  1.00  0.00     0.010 A 
ATOM     30  C   UNL A   1      40.049  29.070  28.482  1.00  0.00    -0.014 A 
BRANCH  30  31
ATOM     31  C   UNL A   1      41.461  28.656  28.265  1.00  0.00     0.031 A 
ATOM     32  C   UNL A   1      42.573  29.660  28.410  1.00  0.00     0.074 A 
ATOM     33  C   UNL A   1      41.754  27.375  27.965  1.00  0.00     0.049 A 
ATOM     34  N   UNL A   1      43.845  29.531  28.131  1.00  0.00    -0.248 NA
ATOM     35  C   UNL A   1      42.205  30.988  28.929  1.00  0.00     0.031 C 
ATOM     36  C   UNL A   1      40.778  26.290  27.840  1.00  0.00     0.029 A 
ATOM     37  N   UNL A   1      42.960  26.766  27.720  1.00  0.00    -0.354 N 
ATOM     38  C   UNL A   1      44.418  30.772  28.386  1.00  0.00     0.074 A 
ATOM     39  C   UNL A   1      43.357  31.640  28.849  1.00  0.00     0.031 C 
ATOM     40  C   UNL A   1      41.426  25.144  27.579  1.00  0.00     0.029 A 
ATOM     41  C   UNL A   1      42.854  25.423  27.450  1.00  0.00     0.049 A 
ATOM     42  H   UNL A   1      43.819  27.246  27.738  1.00  0.00     0.167 HD
ATOM     43  C   UNL A   1      45.711  31.153  28.240  1.00  0.00     0.037 A 
ATOM     44  C   UNL A   1      43.793  24.521  27.107  1.00  0.00     0.037 A 
ATOM     45  C   UNL A   1      46.775  30.274  27.835  1.00  0.00     0.049 A 
ATOM     46  C   UNL A   1      45.218  24.966  26.950  1.00  0.00     0.074 A 
ATOM     47  C   UNL A   1      48.119  30.564  27.671  1.00  0.00     0.029 A 
ATOM     48  N   UNL A   1      46.621  28.925  27.549  1.00  0.00    -0.354 N 
ATOM     49  N   UNL A   1      45.733  26.159  27.134  1.00  0.00    -0.248 NA
ATOM     50  C   UNL A   1      46.188  23.950  26.517  1.00  0.00     0.031 C 
ATOM     51  C   UNL A   1      48.774  29.393  27.268  1.00  0.00     0.029 A 
ATOM     52  C   UNL A   1      47.842  28.371  27.205  1.00  0.00     0.049 A 
ATOM     53  H   UNL A   1      45.767  28.435  27.586  1.00  0.00     0.167 HD
ATOM     54  C   UNL A   1      47.085  26.037  26.840  1.00  0.00     0.074 A 
ATOM     55  C   UNL A   1      47.314  24.650  26.484  1.00  0.00     0.031 C 
ATOM     56  C   UNL A   1      48.048  26.990  26.853  1.00  0.00     0.037 A 
BRANCH  43  57
ATOM     57  C   UNL A   1      46.036  32.597  28.486  1.00  0.00     0.058 A 
ATOM     58  C   UNL A   1      45.989  33.556  27.462  1.00  0.00     0.135 A 
ATOM     59  C   UNL A   1      46.387  33.030  29.775  1.00  0.00     0.135 A 
ATOM     60  F   UNL A   1      45.678  33.190  26.209  1.00  0.00    -0.206 F 
ATOM     61  C   UNL A   1      46.302  34.890  27.704  1.00  0.00     0.059 A 
ATOM     62  C   UNL A   1      46.686  34.363  30.043  1.00  0.00     0.059 A 
ATOM     63  F   UNL A   1      46.449  32.152  30.789  1.00  0.00    -0.206 F 
ATOM     64  C   UNL A   1      46.656  35.283  28.996  1.00  0.00     0.060 A 
BRANCH  64  65
ATOM     65  S   UNL A   1      47.068  37.014  29.301  1.00  0.00     0.124 S 
ATOM     66  O   UNL A   1      45.812  37.675  28.960  1.00  0.00    -0.237 OA
ATOM     67  O   UNL A   1      47.420  37.015  30.716  1.00  0.00    -0.237 OA
ATOM     68  O   UNL A   1      48.177  37.263  28.384  1.00  0.00    -0.744 OA
ENDBRANCH  64  65
ENDBRANCH  43  57
BRANCH  44  69
ATOM     69  C   UNL A   1      43.403  23.109  26.860  1.00  0.00     0.058 A 
ATOM     70  C   UNL A   1      43.360  22.591  25.559  1.00  0.00     0.135 A 
ATOM     71  C   UNL A   1      43.095  22.245  27.923  1.00  0.00     0.135 A 
ATOM     72  F   UNL A   1      43.637  23.384  24.512  1.00  0.00    -0.206 F 
ATOM     73  C   UNL A   1      43.024  21.263  25.316  1.00  0.00     0.059 A 
ATOM     74  C   UNL A   1      42.776  20.909  27.706  1.00  0.00     0.059 A 
ATOM     75  F   UNL A   1      43.132  22.693  29.187  1.00  0.00    -0.206 F 
ATOM     76  C   UNL A   1      42.737  20.429  26.398  1.00  0.00     0.060 A 
BRANCH  76  77
ATOM     77  S   UNL A   1      42.371  18.687  26.087  1.00  0.00     0.124 S 
ATOM     78  O   UNL A   1      43.299  18.382  25.005  1.00  0.00    -0.237 OA
ATOM     79  O   UNL A   1      42.668  18.069  27.375  1.00  0.00    -0.237 OA
ATOM     80  O   UNL A   1      40.957  18.707  25.724  1.00  0.00    -0.744 OA
ENDBRANCH  76  77
ENDBRANCH  44  69
BRANCH  56  81
ATOM     81  C   UNL A   1      49.438  26.559  26.484  1.00  0.00     0.058 A 
ATOM     82  C   UNL A   1      50.281  25.941  27.418  1.00  0.00     0.135 A 
ATOM     83  C   UNL A   1      49.915  26.732  25.176  1.00  0.00     0.135 A 
ATOM     84  F   UNL A   1      49.870  25.762  28.684  1.00  0.00    -0.206 F 
ATOM     85  C   UNL A   1      51.561  25.522  27.073  1.00  0.00     0.059 A 
ATOM     86  C   UNL A   1      51.186  26.307  24.804  1.00  0.00     0.059 A 
ATOM     87  F   UNL A   1      49.141  27.313  24.245  1.00  0.00    -0.206 F 
ATOM     88  C   UNL A   1      52.006  25.712  25.764  1.00  0.00     0.060 A 
BRANCH  88  89
ATOM     89  S   UNL A   1      53.658  25.139  25.310  1.00  0.00     0.124 S 
ATOM     90  O   UNL A   1      53.808  25.709  23.976  1.00  0.00    -0.237 OA
ATOM     91  O   UNL A   1      54.495  25.731  26.350  1.00  0.00    -0.237 OA
ATOM     92  O   UNL A   1      53.537  23.686  25.366  1.00  0.00    -0.744 OA
ENDBRANCH  88  89
ENDBRANCH  56  81
ENDBRANCH  30  31
ENDBRANCH  23  25
ENDBRANCH  22  23
ENDBRANCH   1  22
TORSDOF 16
ENDMDL
MODEL 3
REMARK VINA RESULT:     -11.3      1.721      2.949
REMARK SMILES C[NH2+][C@@]1(C(=O)OCCOC(=O)c2ccc(-c3c4nc(c(-c5c(F)cc(S(=O)(=O)[O-])cc5F)c5ccc([nH]5)c(-c5c(F)cc(S(=O)(=O)[O-])cc5F)c5nc(c(-c6c(F)cc(S(=O)(=O)[O-])cc6F)c6ccc3[nH]6)C=C5)C=C4)cc2)C=CC=C(c2ccccc2)C1
REMARK SMILES IDX 8 1 7 2 6 3 4 4 5 5 3 6 78 7 88 8 79 9 81 10 80 11 2 12 1 13
REMARK SMILES IDX 82 16 83 17 87 18 84 19 86 20 85 21 9 22 10 23 11 24 12 25
REMARK SMILES IDX 13 26 77 27 14 28 76 29 15 30 16 31 17 32 70 33 18 34 75 35
REMARK SMILES IDX 69 36 71 37 19 38 74 39 68 40 67 41 20 43 54 44 33 45 53 46
REMARK SMILES IDX 34 47 37 48 52 49 72 50 35 51 36 52 51 54 73 55 38 56 21 57
REMARK SMILES IDX 22 58 31 59 23 60 24 61 30 62 32 63 25 64 26 65 27 66 28 67
REMARK SMILES IDX 29 68 55 69 56 70 65 71 57 72 58 73 64 74 66 75 59 76 60 77
REMARK SMILES IDX 61 78 62 79 63 80 39 81 40 82 49 83 41 84 42 85 48 86 50 87
REMARK SMILES IDX 43 88 44 89 45 90 46 91 47 92
REMARK H PARENT 2 14 2 15 71 42 37 53
REMARK Flexibility Score: inf
ROOT
ATOM      1  C   UNL A   1      40.821  22.224  26.160  1.00  0.00     0.275 C 
ENDROOT
BRANCH   1   2
ATOM      2  C   UNL A   1      39.427  21.720  26.529  1.00  0.00     0.274 C 
BRANCH   2   3
ATOM      3  O   UNL A   1      38.476  22.029  25.491  1.00  0.00    -0.457 OA
BRANCH   3   4
ATOM      4  C   UNL A   1      37.557  23.000  25.768  1.00  0.00     0.372 C 
ATOM      5  O   UNL A   1      37.856  24.081  26.273  1.00  0.00    -0.244 OA
BRANCH   4   6
ATOM      6  C   UNL A   1      36.080  22.579  25.426  1.00  0.00     0.217 C 
ATOM      7  C   UNL A   1      35.258  22.990  26.644  1.00  0.00     0.053 C 
ATOM      8  C   UNL A   1      35.945  21.039  25.182  1.00  0.00     0.122 C 
ATOM      9  C   UNL A   1      34.199  22.280  27.064  1.00  0.00     0.003 C 
ATOM     10  C   UNL A   1      34.526  20.545  25.395  1.00  0.00    -0.034 C 
ATOM     11  C   UNL A   1      33.737  21.138  26.310  1.00  0.00     0.004 C 
BRANCH   6  12
ATOM     12  N   UNL A   1      35.710  23.305  24.174  1.00  0.00    -0.331 N 
ATOM     13  C   UNL A   1      36.470  23.021  22.971  1.00  0.00     0.332 C 
ATOM     14  H   UNL A   1      34.734  23.086  23.975  1.00  0.00     0.347 HD
ATOM     15  H   UNL A   1      35.911  24.284  24.379  1.00  0.00     0.347 HD
ENDBRANCH   6  12
BRANCH  10  16
ATOM     16  C   UNL A   1      34.040  19.415  24.589  1.00  0.00    -0.022 A 
ATOM     17  C   UNL A   1      34.806  18.245  24.471  1.00  0.00     0.008 A 
ATOM     18  C   UNL A   1      32.799  19.477  23.944  1.00  0.00     0.008 A 
ATOM     19  C   UNL A   1      34.347  17.168  23.712  1.00  0.00     0.001 A 
ATOM     20  C   UNL A   1      32.344  18.402  23.179  1.00  0.00     0.001 A 
ATOM     21  C   UNL A   1      33.117  17.248  23.062  1.00  0.00     0.000 A 
ENDBRANCH  10  16
ENDBRANCH   4   6
ENDBRANCH   3   4
ENDBRANCH   2   3
ENDBRANCH   1   2
BRANCH   1  22
ATOM     22  O   UNL A   1      41.264  23.218  27.098  1.00  0.00    -0.458 OA
BRANCH  22  23
ATOM     23  C   UNL A   1      41.666  24.385  26.545  1.00  0.00     0.338 C 
ATOM     24  O   UNL A   1      42.160  24.555  25.444  1.00  0.00    -0.246 OA
BRANCH  23  25
ATOM     25  C   UNL A   1      41.344  25.489  27.457  1.00  0.00     0.060 A 
ATOM     26  C   UNL A   1      42.203  26.584  27.487  1.00  0.00     0.016 A 
ATOM     27  C   UNL A   1      40.290  25.391  28.362  1.00  0.00     0.016 A 
ATOM     28  C   UNL A   1      42.068  27.551  28.477  1.00  0.00     0.010 A 
ATOM     29  C   UNL A   1      40.109  26.403  29.312  1.00  0.00     0.010 A 
ATOM     30  C   UNL A   1      41.016  27.475  29.401  1.00  0.00    -0.014 A 
BRANCH  30  31
ATOM     31  C   UNL A   1      40.900  28.492  30.479  1.00  0.00     0.031 A 
ATOM     32  C   UNL A   1      41.876  28.493  31.626  1.00  0.00     0.074 A 
ATOM     33  C   UNL A   1      39.939  29.436  30.421  1.00  0.00     0.049 A 
ATOM     34  N   UNL A   1      41.861  29.204  32.724  1.00  0.00    -0.248 NA
ATOM     35  C   UNL A   1      43.014  27.564  31.529  1.00  0.00     0.031 C 
ATOM     36  C   UNL A   1      38.958  29.580  29.344  1.00  0.00     0.029 A 
ATOM     37  N   UNL A   1      39.636  30.459  31.284  1.00  0.00    -0.354 N 
ATOM     38  C   UNL A   1      42.949  28.771  33.473  1.00  0.00     0.074 A 
ATOM     39  C   UNL A   1      43.609  27.740  32.701  1.00  0.00     0.031 C 
ATOM     40  C   UNL A   1      38.187  30.651  29.591  1.00  0.00     0.029 A 
ATOM     41  C   UNL A   1      38.572  31.228  30.875  1.00  0.00     0.049 A 
ATOM     42  H   UNL A   1      40.134  30.628  32.116  1.00  0.00     0.167 HD
ATOM     43  C   UNL A   1      43.356  29.192  34.695  1.00  0.00     0.037 A 
ATOM     44  C   UNL A   1      37.955  32.261  31.478  1.00  0.00     0.037 A 
ATOM     45  C   UNL A   1      42.734  30.257  35.436  1.00  0.00     0.049 A 
ATOM     46  C   UNL A   1      38.423  32.710  32.833  1.00  0.00     0.074 A 
ATOM     47  C   UNL A   1      43.082  30.763  36.677  1.00  0.00     0.029 A 
ATOM     48  N   UNL A   1      41.645  30.994  34.995  1.00  0.00    -0.354 N 
ATOM     49  N   UNL A   1      39.416  32.248  33.555  1.00  0.00    -0.248 NA
ATOM     50  C   UNL A   1      37.674  33.804  33.466  1.00  0.00     0.031 C 
ATOM     51  C   UNL A   1      42.190  31.796  36.994  1.00  0.00     0.029 A 
ATOM     52  C   UNL A   1      41.304  31.947  35.940  1.00  0.00     0.049 A 
ATOM     53  H   UNL A   1      41.182  30.859  34.137  1.00  0.00     0.167 HD
ATOM     54  C   UNL A   1      39.411  32.994  34.727  1.00  0.00     0.074 A 
ATOM     55  C   UNL A   1      38.328  33.951  34.610  1.00  0.00     0.031 C 
ATOM     56  C   UNL A   1      40.223  32.889  35.806  1.00  0.00     0.037 A 
BRANCH  43  57
ATOM     57  C   UNL A   1      44.512  28.470  35.324  1.00  0.00     0.058 A 
ATOM     58  C   UNL A   1      45.839  28.891  35.145  1.00  0.00     0.135 A 
ATOM     59  C   UNL A   1      44.284  27.345  36.133  1.00  0.00     0.135 A 
ATOM     60  F   UNL A   1      46.111  29.950  34.365  1.00  0.00    -0.206 F 
ATOM     61  C   UNL A   1      46.901  28.207  35.726  1.00  0.00     0.059 A 
ATOM     62  C   UNL A   1      45.331  26.657  36.739  1.00  0.00     0.059 A 
ATOM     63  F   UNL A   1      43.034  26.899  36.334  1.00  0.00    -0.206 F 
ATOM     64  C   UNL A   1      46.638  27.086  36.517  1.00  0.00     0.060 A 
BRANCH  64  65
ATOM     65  S   UNL A   1      48.022  26.199  37.262  1.00  0.00     0.124 S 
ATOM     66  O   UNL A   1      47.344  25.051  37.857  1.00  0.00    -0.237 OA
ATOM     67  O   UNL A   1      48.871  25.906  36.112  1.00  0.00    -0.237 OA
ATOM     68  O   UNL A   1      48.571  27.164  38.210  1.00  0.00    -0.744 OA
ENDBRANCH  64  65
ENDBRANCH  43  57
BRANCH  44  69
ATOM     69  C   UNL A   1      36.805  32.924  30.811  1.00  0.00     0.058 A 
ATOM     70  C   UNL A   1      35.487  32.606  31.165  1.00  0.00     0.135 A 
ATOM     71  C   UNL A   1      37.004  33.906  29.828  1.00  0.00     0.135 A 
ATOM     72  F   UNL A   1      35.250  31.666  32.093  1.00  0.00    -0.206 F 
ATOM     73  C   UNL A   1      34.401  33.239  30.568  1.00  0.00     0.059 A 
ATOM     74  C   UNL A   1      35.935  34.566  29.232  1.00  0.00     0.059 A 
ATOM     75  F   UNL A   1      38.248  34.250  29.463  1.00  0.00    -0.206 F 
ATOM     76  C   UNL A   1      34.636  34.221  29.604  1.00  0.00     0.060 A 
BRANCH  76  77
ATOM     77  S   UNL A   1      33.229  35.093  28.881  1.00  0.00     0.124 S 
ATOM     78  O   UNL A   1      33.882  36.248  28.274  1.00  0.00    -0.237 OA
ATOM     79  O   UNL A   1      32.690  34.105  27.952  1.00  0.00    -0.237 OA
ATOM     80  O   UNL A   1      32.386  35.377  30.039  1.00  0.00    -0.744 OA
ENDBRANCH  76  77
ENDBRANCH  44  69
BRANCH  56  81
ATOM     81  C   UNL A   1      39.977  33.842  36.939  1.00  0.00     0.058 A 
ATOM     82  C   UNL A   1      40.568  35.114  36.962  1.00  0.00     0.135 A 
ATOM     83  C   UNL A   1      39.114  33.495  37.989  1.00  0.00     0.135 A 
ATOM     84  F   UNL A   1      41.407  35.486  35.982  1.00  0.00    -0.206 F 
ATOM     85  C   UNL A   1      40.326  36.007  38.000  1.00  0.00     0.059 A 
ATOM     86  C   UNL A   1      38.845  34.378  39.030  1.00  0.00     0.059 A 
ATOM     87  F   UNL A   1      38.521  32.291  38.007  1.00  0.00    -0.206 F 
ATOM     88  C   UNL A   1      39.464  35.629  39.031  1.00  0.00     0.060 A 
BRANCH  88  89
ATOM     89  S   UNL A   1      39.127  36.802  40.362  1.00  0.00     0.124 S 
ATOM     90  O   UNL A   1      38.284  36.006  41.246  1.00  0.00    -0.237 OA
ATOM     91  O   UNL A   1      40.464  37.105  40.865  1.00  0.00    -0.237 OA
ATOM     92  O   UNL A   1      38.460  37.905  39.678  1.00  0.00    -0.744 OA
ENDBRANCH  88  89
ENDBRANCH  56  81
ENDBRANCH  30  31
ENDBRANCH  23  25
ENDBRANCH  22  23
ENDBRANCH   1  22
TORSDOF 16
ENDMDL
