MODEL 1
REMARK VINA RESULT:     -11.8      0.000      0.000
REMARK SMILES O=C(CNc1nc(-c2ccccc2)c(-c2ccccc2)s1)OCCOC(=O)c1ccc(-c2c3nc(c(-c4c(F)cc(S(=O)(=O)[O-])cc4F)c4ccc([nH]4)c(-c4c(F)cc(S(=O)(=O)[O-])cc4F)c4nc(c(-c5c(F)cc(S(=O)(=O)[O-])cc5F)c5ccc2[nH]5)C=C4)C=C3)cc1
REMARK SMILES IDX 23 1 22 2 2 3 1 4 3 5 4 6 5 8 6 9 21 10 7 11 14 12 8 13 9 14
REMARK SMILES IDX 13 15 10 16 12 17 11 18 15 19 16 20 20 21 17 22 19 23 18 24
REMARK SMILES IDX 24 25 25 26 26 27 27 28 28 29 29 30 93 31 30 32 92 33 31 34
REMARK SMILES IDX 32 35 33 36 86 37 34 38 91 39 85 40 87 41 35 42 90 43 84 44
REMARK SMILES IDX 83 45 36 47 70 48 49 49 69 50 50 51 53 52 68 53 88 54 51 55
REMARK SMILES IDX 52 56 67 58 89 59 54 60 37 61 38 62 47 63 39 64 40 65 46 66
REMARK SMILES IDX 48 67 41 68 42 69 43 70 44 71 45 72 71 73 72 74 81 75 73 76
REMARK SMILES IDX 74 77 80 78 82 79 75 80 76 81 77 82 78 83 79 84 55 85 56 86
REMARK SMILES IDX 65 87 57 88 58 89 64 90 66 91 59 92 60 93 61 94 62 95 63 96
REMARK H PARENT 4 7 87 46 53 57
REMARK Flexibility Score: inf
ROOT
ATOM      1  C   UNL A   1      42.524  22.658  27.820  1.00  0.00     0.274 C 
ENDROOT
BRANCH   1   2
ATOM      2  O   UNL A   1      41.176  22.166  27.968  1.00  0.00    -0.461 OA
BRANCH   2   3
ATOM      3  C   UNL A   1      40.637  21.097  27.328  1.00  0.00     0.325 C 
ATOM      4  O   UNL A   1      40.835  19.966  27.772  1.00  0.00    -0.250 OA
BRANCH   3   5
ATOM      5  C   UNL A   1      39.781  21.305  26.081  1.00  0.00     0.238 C 
BRANCH   5   6
ATOM      6  N   UNL A   1      39.035  22.550  26.126  1.00  0.00    -0.351 N 
ATOM      7  H   UNL A   1      39.483  23.376  26.421  1.00  0.00     0.163 HD
BRANCH   6   8
ATOM      8  C   UNL A   1      37.737  22.589  25.771  1.00  0.00     0.184 A 
ATOM      9  N   UNL A   1      36.868  23.498  26.148  1.00  0.00    -0.220 NA
ATOM     10  S   UNL A   1      37.086  21.295  24.851  1.00  0.00    -0.096 S 
ATOM     11  C   UNL A   1      35.595  23.155  25.721  1.00  0.00     0.091 A 
ATOM     12  C   UNL A   1      35.509  21.942  25.056  1.00  0.00     0.064 A 
BRANCH  11  13
ATOM     13  C   UNL A   1      34.457  24.044  25.924  1.00  0.00     0.002 A 
ATOM     14  C   UNL A   1      33.326  23.633  26.642  1.00  0.00     0.010 A 
ATOM     15  C   UNL A   1      34.458  25.304  25.315  1.00  0.00     0.010 A 
ATOM     16  C   UNL A   1      32.191  24.447  26.700  1.00  0.00     0.001 A 
ATOM     17  C   UNL A   1      33.321  26.116  25.370  1.00  0.00     0.001 A 
ATOM     18  C   UNL A   1      32.184  25.681  26.052  1.00  0.00     0.000 A 
ENDBRANCH  11  13
BRANCH  12  19
ATOM     19  C   UNL A   1      34.373  21.225  24.491  1.00  0.00    -0.006 A 
ATOM     20  C   UNL A   1      34.099  19.909  24.889  1.00  0.00     0.009 A 
ATOM     21  C   UNL A   1      33.537  21.849  23.560  1.00  0.00     0.009 A 
ATOM     22  C   UNL A   1      33.013  19.222  24.349  1.00  0.00     0.001 A 
ATOM     23  C   UNL A   1      32.452  21.159  23.018  1.00  0.00     0.001 A 
ATOM     24  C   UNL A   1      32.193  19.845  23.409  1.00  0.00     0.000 A 
ENDBRANCH  12  19
ENDBRANCH   6   8
ENDBRANCH   5   6
ENDBRANCH   3   5
ENDBRANCH   2   3
ENDBRANCH   1   2
BRANCH   1  25
ATOM     25  C   UNL A   1      42.692  23.593  26.624  1.00  0.00     0.275 C 
BRANCH  25  26
ATOM     26  O   UNL A   1      41.456  24.252  26.321  1.00  0.00    -0.458 OA
BRANCH  26  27
ATOM     27  C   UNL A   1      41.561  25.582  26.083  1.00  0.00     0.338 C 
ATOM     28  O   UNL A   1      41.560  26.125  24.990  1.00  0.00    -0.246 OA
BRANCH  27  29
ATOM     29  C   UNL A   1      41.493  26.321  27.362  1.00  0.00     0.060 A 
ATOM     30  C   UNL A   1      40.434  26.019  28.227  1.00  0.00     0.016 A 
ATOM     31  C   UNL A   1      42.444  27.284  27.721  1.00  0.00     0.016 A 
ATOM     32  C   UNL A   1      40.284  26.726  29.417  1.00  0.00     0.010 A 
ATOM     33  C   UNL A   1      42.294  27.990  28.919  1.00  0.00     0.010 A 
ATOM     34  C   UNL A   1      41.188  27.746  29.749  1.00  0.00    -0.014 A 
BRANCH  34  35
ATOM     35  C   UNL A   1      40.859  28.662  30.868  1.00  0.00     0.031 A 
ATOM     36  C   UNL A   1      41.680  28.582  32.127  1.00  0.00     0.074 A 
ATOM     37  C   UNL A   1      39.889  29.585  30.751  1.00  0.00     0.049 A 
ATOM     38  N   UNL A   1      41.644  29.342  33.191  1.00  0.00    -0.248 NA
ATOM     39  C   UNL A   1      42.674  27.498  32.197  1.00  0.00     0.031 C 
ATOM     40  C   UNL A   1      39.026  29.765  29.584  1.00  0.00     0.029 A 
ATOM     41  N   UNL A   1      39.472  30.553  31.631  1.00  0.00    -0.354 N 
ATOM     42  C   UNL A   1      42.614  28.837  34.049  1.00  0.00     0.074 A 
ATOM     43  C   UNL A   1      43.189  27.677  33.403  1.00  0.00     0.031 C 
ATOM     44  C   UNL A   1      38.186  30.789  29.818  1.00  0.00     0.029 A 
ATOM     45  C   UNL A   1      38.446  31.331  31.151  1.00  0.00     0.049 A 
ATOM     46  H   UNL A   1      39.871  30.679  32.522  1.00  0.00     0.167 HD
ATOM     47  C   UNL A   1      43.006  29.306  35.257  1.00  0.00     0.037 A 
ATOM     48  C   UNL A   1      37.800  32.367  31.721  1.00  0.00     0.037 A 
ATOM     49  C   UNL A   1      42.433  30.458  35.901  1.00  0.00     0.049 A 
ATOM     50  C   UNL A   1      38.231  32.852  33.083  1.00  0.00     0.074 A 
ATOM     51  C   UNL A   1      42.780  31.029  37.112  1.00  0.00     0.029 A 
ATOM     52  N   UNL A   1      41.385  31.208  35.391  1.00  0.00    -0.354 N 
ATOM     53  N   UNL A   1      39.194  32.406  33.854  1.00  0.00    -0.248 NA
ATOM     54  C   UNL A   1      37.496  33.995  33.643  1.00  0.00     0.031 C 
ATOM     55  C   UNL A   1      41.914  32.102  37.354  1.00  0.00     0.029 A 
ATOM     56  C   UNL A   1      41.058  32.225  36.271  1.00  0.00     0.049 A 
ATOM     57  H   UNL A   1      40.939  31.043  34.528  1.00  0.00     0.167 HD
ATOM     58  C   UNL A   1      39.207  33.238  34.969  1.00  0.00     0.074 A 
ATOM     59  C   UNL A   1      38.157  34.215  34.772  1.00  0.00     0.031 C 
ATOM     60  C   UNL A   1      40.020  33.202  36.055  1.00  0.00     0.037 A 
BRANCH  47  61
ATOM     61  C   UNL A   1      44.101  28.559  35.963  1.00  0.00     0.058 A 
ATOM     62  C   UNL A   1      45.452  28.911  35.808  1.00  0.00     0.135 A 
ATOM     63  C   UNL A   1      43.796  27.484  36.814  1.00  0.00     0.135 A 
ATOM     64  F   UNL A   1      45.798  29.918  34.990  1.00  0.00    -0.206 F 
ATOM     65  C   UNL A   1      46.465  28.205  36.448  1.00  0.00     0.059 A 
ATOM     66  C   UNL A   1      44.793  26.779  37.483  1.00  0.00     0.059 A 
ATOM     67  F   UNL A   1      42.521  27.105  36.994  1.00  0.00    -0.206 F 
ATOM     68  C   UNL A   1      46.125  27.137  37.281  1.00  0.00     0.060 A 
BRANCH  68  69
ATOM     69  S   UNL A   1      47.449  26.223  38.098  1.00  0.00     0.124 S 
ATOM     70  O   UNL A   1      48.210  25.728  36.955  1.00  0.00    -0.237 OA
ATOM     71  O   UNL A   1      48.102  27.258  38.893  1.00  0.00    -0.237 OA
ATOM     72  O   UNL A   1      46.736  25.206  38.865  1.00  0.00    -0.744 OA
ENDBRANCH  68  69
ENDBRANCH  47  61
BRANCH  48  73
ATOM     73  C   UNL A   1      36.694  33.046  30.996  1.00  0.00     0.058 A 
ATOM     74  C   UNL A   1      36.952  33.893  29.908  1.00  0.00     0.135 A 
ATOM     75  C   UNL A   1      35.357  32.876  31.389  1.00  0.00     0.135 A 
ATOM     76  F   UNL A   1      38.215  34.095  29.502  1.00  0.00    -0.206 F 
ATOM     77  C   UNL A   1      35.929  34.565  29.247  1.00  0.00     0.059 A 
ATOM     78  C   UNL A   1      34.314  33.519  30.730  1.00  0.00     0.059 A 
ATOM     79  F   UNL A   1      35.056  32.069  32.418  1.00  0.00    -0.206 F 
ATOM     80  C   UNL A   1      34.611  34.372  29.667  1.00  0.00     0.060 A 
BRANCH  80  81
ATOM     81  S   UNL A   1      33.286  35.223  28.783  1.00  0.00     0.124 S 
ATOM     82  O   UNL A   1      32.490  35.750  29.885  1.00  0.00    -0.237 OA
ATOM     83  O   UNL A   1      34.023  36.208  27.998  1.00  0.00    -0.237 OA
ATOM     84  O   UNL A   1      32.663  34.155  28.008  1.00  0.00    -0.744 OA
ENDBRANCH  80  81
ENDBRANCH  48  73
BRANCH  60  85
ATOM     85  C   UNL A   1      39.844  34.277  37.092  1.00  0.00     0.058 A 
ATOM     86  C   UNL A   1      39.077  34.075  38.249  1.00  0.00     0.135 A 
ATOM     87  C   UNL A   1      40.489  35.517  36.942  1.00  0.00     0.135 A 
ATOM     88  F   UNL A   1      38.437  32.910  38.441  1.00  0.00    -0.206 F 
ATOM     89  C   UNL A   1      38.928  35.075  39.207  1.00  0.00     0.059 A 
ATOM     90  C   UNL A   1      40.377  36.520  37.898  1.00  0.00     0.059 A 
ATOM     91  F   UNL A   1      41.247  35.758  35.861  1.00  0.00    -0.206 F 
ATOM     92  C   UNL A   1      39.580  36.295  39.021  1.00  0.00     0.060 A 
BRANCH  92  93
ATOM     93  S   UNL A   1      39.398  37.580  40.277  1.00  0.00     0.124 S 
ATOM     94  O   UNL A   1      38.482  38.506  39.618  1.00  0.00    -0.237 OA
ATOM     95  O   UNL A   1      38.844  36.839  41.407  1.00  0.00    -0.237 OA
ATOM     96  O   UNL A   1      40.760  38.069  40.463  1.00  0.00    -0.744 OA
ENDBRANCH  92  93
ENDBRANCH  60  85
ENDBRANCH  34  35
ENDBRANCH  27  29
ENDBRANCH  26  27
ENDBRANCH  25  26
ENDBRANCH   1  25
TORSDOF 18
ENDMDL
MODEL 2
REMARK VINA RESULT:     -11.5      0.549      2.498
REMARK SMILES O=C(CNc1nc(-c2ccccc2)c(-c2ccccc2)s1)OCCOC(=O)c1ccc(-c2c3nc(c(-c4c(F)cc(S(=O)(=O)[O-])cc4F)c4ccc([nH]4)c(-c4c(F)cc(S(=O)(=O)[O-])cc4F)c4nc(c(-c5c(F)cc(S(=O)(=O)[O-])cc5F)c5ccc2[nH]5)C=C4)C=C3)cc1
REMARK SMILES IDX 23 1 22 2 2 3 1 4 3 5 4 6 5 8 6 9 21 10 7 11 14 12 8 13 9 14
REMARK SMILES IDX 13 15 10 16 12 17 11 18 15 19 16 20 20 21 17 22 19 23 18 24
REMARK SMILES IDX 24 25 25 26 26 27 27 28 28 29 29 30 93 31 30 32 92 33 31 34
REMARK SMILES IDX 32 35 33 36 86 37 34 38 91 39 85 40 87 41 35 42 90 43 84 44
REMARK SMILES IDX 83 45 36 47 70 48 49 49 69 50 50 51 53 52 68 53 88 54 51 55
REMARK SMILES IDX 52 56 67 58 89 59 54 60 37 61 38 62 47 63 39 64 40 65 46 66
REMARK SMILES IDX 48 67 41 68 42 69 43 70 44 71 45 72 71 73 72 74 81 75 73 76
REMARK SMILES IDX 74 77 80 78 82 79 75 80 76 81 77 82 78 83 79 84 55 85 56 86
REMARK SMILES IDX 65 87 57 88 58 89 64 90 66 91 59 92 60 93 61 94 62 95 63 96
REMARK H PARENT 4 7 87 46 53 57
REMARK Flexibility Score: inf
ROOT
ATOM      1  C   UNL A   1      42.616  22.529  27.369  1.00  0.00     0.274 C 
ENDROOT
BRANCH   1   2
ATOM      2  O   UNL A   1      41.338  21.937  27.683  1.00  0.00    -0.461 OA
BRANCH   2   3
ATOM      3  C   UNL A   1      40.837  20.788  27.165  1.00  0.00     0.325 C 
ATOM      4  O   UNL A   1      41.167  19.709  27.658  1.00  0.00    -0.250 OA
BRANCH   3   5
ATOM      5  C   UNL A   1      39.861  20.840  25.991  1.00  0.00     0.238 C 
BRANCH   5   6
ATOM      6  N   UNL A   1      39.274  22.158  25.822  1.00  0.00    -0.351 N 
ATOM      7  H   UNL A   1      39.856  22.952  25.814  1.00  0.00     0.163 HD
BRANCH   6   8
ATOM      8  C   UNL A   1      37.944  22.305  25.677  1.00  0.00     0.184 A 
ATOM      9  N   UNL A   1      37.129  21.416  25.157  1.00  0.00    -0.220 NA
ATOM     10  S   UNL A   1      37.224  23.811  26.073  1.00  0.00    -0.096 S 
ATOM     11  C   UNL A   1      35.856  21.948  25.025  1.00  0.00     0.091 A 
ATOM     12  C   UNL A   1      35.735  23.274  25.409  1.00  0.00     0.064 A 
BRANCH  11  13
ATOM     13  C   UNL A   1      34.735  21.137  24.563  1.00  0.00     0.002 A 
ATOM     14  C   UNL A   1      33.664  21.703  23.858  1.00  0.00     0.010 A 
ATOM     15  C   UNL A   1      34.685  19.782  24.908  1.00  0.00     0.010 A 
ATOM     16  C   UNL A   1      32.536  20.938  23.554  1.00  0.00     0.001 A 
ATOM     17  C   UNL A   1      33.553  19.018  24.607  1.00  0.00     0.001 A 
ATOM     18  C   UNL A   1      32.474  19.600  23.941  1.00  0.00     0.000 A 
ENDBRANCH  11  13
BRANCH  12  19
ATOM     19  C   UNL A   1      34.599  24.187  25.394  1.00  0.00    -0.006 A 
ATOM     20  C   UNL A   1      34.481  25.153  24.384  1.00  0.00     0.009 A 
ATOM     21  C   UNL A   1      33.608  24.097  26.377  1.00  0.00     0.009 A 
ATOM     22  C   UNL A   1      33.395  26.027  24.370  1.00  0.00     0.001 A 
ATOM     23  C   UNL A   1      32.523  24.974  26.362  1.00  0.00     0.001 A 
ATOM     24  C   UNL A   1      32.420  25.941  25.362  1.00  0.00     0.000 A 
ENDBRANCH  12  19
ENDBRANCH   6   8
ENDBRANCH   5   6
ENDBRANCH   3   5
ENDBRANCH   2   3
ENDBRANCH   1   2
BRANCH   1  25
ATOM     25  C   UNL A   1      42.562  23.460  26.158  1.00  0.00     0.275 C 
BRANCH  25  26
ATOM     26  O   UNL A   1      41.434  24.339  26.247  1.00  0.00    -0.458 OA
BRANCH  26  27
ATOM     27  C   UNL A   1      41.709  25.646  26.024  1.00  0.00     0.338 C 
ATOM     28  O   UNL A   1      41.840  26.185  24.937  1.00  0.00    -0.246 OA
BRANCH  27  29
ATOM     29  C   UNL A   1      41.649  26.390  27.301  1.00  0.00     0.060 A 
ATOM     30  C   UNL A   1      40.644  26.036  28.209  1.00  0.00     0.016 A 
ATOM     31  C   UNL A   1      42.558  27.407  27.618  1.00  0.00     0.016 A 
ATOM     32  C   UNL A   1      40.501  26.743  29.400  1.00  0.00     0.010 A 
ATOM     33  C   UNL A   1      42.416  28.112  28.817  1.00  0.00     0.010 A 
ATOM     34  C   UNL A   1      41.358  27.813  29.691  1.00  0.00    -0.014 A 
BRANCH  34  35
ATOM     35  C   UNL A   1      41.023  28.718  30.817  1.00  0.00     0.031 A 
ATOM     36  C   UNL A   1      41.861  28.652  32.066  1.00  0.00     0.074 A 
ATOM     37  C   UNL A   1      40.030  29.619  30.716  1.00  0.00     0.049 A 
ATOM     38  N   UNL A   1      41.821  29.407  33.133  1.00  0.00    -0.248 NA
ATOM     39  C   UNL A   1      42.880  27.591  32.119  1.00  0.00     0.031 C 
ATOM     40  C   UNL A   1      39.149  29.783  29.561  1.00  0.00     0.029 A 
ATOM     41  N   UNL A   1      39.602  30.574  31.604  1.00  0.00    -0.354 N 
ATOM     42  C   UNL A   1      42.813  28.922  33.976  1.00  0.00     0.074 A 
ATOM     43  C   UNL A   1      43.406  27.778  33.320  1.00  0.00     0.031 C 
ATOM     44  C   UNL A   1      38.288  30.786  29.808  1.00  0.00     0.029 A 
ATOM     45  C   UNL A   1      38.553  31.329  31.140  1.00  0.00     0.049 A 
ATOM     46  H   UNL A   1      40.010  30.706  32.491  1.00  0.00     0.167 HD
ATOM     47  C   UNL A   1      43.209  29.396  35.181  1.00  0.00     0.037 A 
ATOM     48  C   UNL A   1      37.891  32.349  31.721  1.00  0.00     0.037 A 
ATOM     49  C   UNL A   1      42.618  30.532  35.837  1.00  0.00     0.049 A 
ATOM     50  C   UNL A   1      38.327  32.839  33.080  1.00  0.00     0.074 A 
ATOM     51  C   UNL A   1      42.967  31.107  37.045  1.00  0.00     0.029 A 
ATOM     52  N   UNL A   1      41.546  31.260  35.342  1.00  0.00    -0.354 N 
ATOM     53  N   UNL A   1      39.310  32.412  33.837  1.00  0.00    -0.248 NA
ATOM     54  C   UNL A   1      37.573  33.962  33.653  1.00  0.00     0.031 C 
ATOM     55  C   UNL A   1      42.080  32.159  37.302  1.00  0.00     0.029 A 
ATOM     56  C   UNL A   1      41.208  32.266  36.231  1.00  0.00     0.049 A 
ATOM     57  H   UNL A   1      41.094  31.087  34.485  1.00  0.00     0.167 HD
ATOM     58  C   UNL A   1      39.318  33.241  34.955  1.00  0.00     0.074 A 
ATOM     59  C   UNL A   1      38.243  34.194  34.775  1.00  0.00     0.031 C 
ATOM     60  C   UNL A   1      40.145  33.219  36.031  1.00  0.00     0.037 A 
BRANCH  47  61
ATOM     61  C   UNL A   1      44.330  28.672  35.871  1.00  0.00     0.058 A 
ATOM     62  C   UNL A   1      44.087  27.593  36.736  1.00  0.00     0.135 A 
ATOM     63  C   UNL A   1      45.664  29.054  35.656  1.00  0.00     0.135 A 
ATOM     64  F   UNL A   1      42.828  27.202  36.991  1.00  0.00    -0.206 F 
ATOM     65  C   UNL A   1      45.125  26.937  37.389  1.00  0.00     0.059 A 
ATOM     66  C   UNL A   1      46.720  28.395  36.279  1.00  0.00     0.059 A 
ATOM     67  F   UNL A   1      45.951  30.081  34.841  1.00  0.00    -0.206 F 
ATOM     68  C   UNL A   1      46.439  27.348  37.156  1.00  0.00     0.060 A 
BRANCH  68  69
ATOM     69  S   UNL A   1      47.777  26.494  38.016  1.00  0.00     0.124 S 
ATOM     70  O   UNL A   1      48.948  26.995  37.302  1.00  0.00    -0.237 OA
ATOM     71  O   UNL A   1      47.622  26.966  39.387  1.00  0.00    -0.237 OA
ATOM     72  O   UNL A   1      47.470  25.083  37.804  1.00  0.00    -0.744 OA
ENDBRANCH  68  69
ENDBRANCH  47  61
BRANCH  48  73
ATOM     73  C   UNL A   1      36.760  33.004  31.013  1.00  0.00     0.058 A 
ATOM     74  C   UNL A   1      35.430  32.748  31.377  1.00  0.00     0.135 A 
ATOM     75  C   UNL A   1      36.987  33.886  29.945  1.00  0.00     0.135 A 
ATOM     76  F   UNL A   1      35.162  31.904  32.385  1.00  0.00    -0.206 F 
ATOM     77  C   UNL A   1      34.363  33.324  30.696  1.00  0.00     0.059 A 
ATOM     78  C   UNL A   1      35.937  34.492  29.262  1.00  0.00     0.059 A 
ATOM     79  F   UNL A   1      38.241  34.172  29.563  1.00  0.00    -0.206 F 
ATOM     80  C   UNL A   1      34.627  34.195  29.637  1.00  0.00     0.060 A 
BRANCH  80  81
ATOM     81  S   UNL A   1      33.236  34.965  28.778  1.00  0.00     0.124 S 
ATOM     82  O   UNL A   1      32.347  35.283  29.888  1.00  0.00    -0.237 OA
ATOM     83  O   UNL A   1      33.872  36.102  28.121  1.00  0.00    -0.237 OA
ATOM     84  O   UNL A   1      32.775  33.911  27.880  1.00  0.00    -0.744 OA
ENDBRANCH  80  81
ENDBRANCH  48  73
BRANCH  60  85
ATOM     85  C   UNL A   1      39.957  34.287  37.073  1.00  0.00     0.058 A 
ATOM     86  C   UNL A   1      40.575  35.543  36.970  1.00  0.00     0.135 A 
ATOM     87  C   UNL A   1      39.112  34.062  38.173  1.00  0.00     0.135 A 
ATOM     88  F   UNL A   1      41.395  35.810  35.941  1.00  0.00    -0.206 F 
ATOM     89  C   UNL A   1      40.386  36.528  37.936  1.00  0.00     0.059 A 
ATOM     90  C   UNL A   1      38.887  35.040  39.136  1.00  0.00     0.059 A 
ATOM     91  F   UNL A   1      38.484  32.883  38.312  1.00  0.00    -0.206 F 
ATOM     92  C   UNL A   1      39.542  36.266  39.017  1.00  0.00     0.060 A 
BRANCH  92  93
ATOM     93  S   UNL A   1      39.289  37.555  40.256  1.00  0.00     0.124 S 
ATOM     94  O   UNL A   1      40.616  38.154  40.332  1.00  0.00    -0.237 OA
ATOM     95  O   UNL A   1      38.254  38.383  39.641  1.00  0.00    -0.237 OA
ATOM     96  O   UNL A   1      38.865  36.811  41.438  1.00  0.00    -0.744 OA
ENDBRANCH  92  93
ENDBRANCH  60  85
ENDBRANCH  34  35
ENDBRANCH  27  29
ENDBRANCH  26  27
ENDBRANCH  25  26
ENDBRANCH   1  25
TORSDOF 18
ENDMDL
MODEL 3
REMARK VINA RESULT:     -11.4      3.193      9.778
REMARK SMILES O=C(CNc1nc(-c2ccccc2)c(-c2ccccc2)s1)OCCOC(=O)c1ccc(-c2c3nc(c(-c4c(F)cc(S(=O)(=O)[O-])cc4F)c4ccc([nH]4)c(-c4c(F)cc(S(=O)(=O)[O-])cc4F)c4nc(c(-c5c(F)cc(S(=O)(=O)[O-])cc5F)c5ccc2[nH]5)C=C4)C=C3)cc1
REMARK SMILES IDX 23 1 22 2 2 3 1 4 3 5 4 6 5 8 6 9 21 10 7 11 14 12 8 13 9 14
REMARK SMILES IDX 13 15 10 16 12 17 11 18 15 19 16 20 20 21 17 22 19 23 18 24
REMARK SMILES IDX 24 25 25 26 26 27 27 28 28 29 29 30 93 31 30 32 92 33 31 34
REMARK SMILES IDX 32 35 33 36 86 37 34 38 91 39 85 40 87 41 35 42 90 43 84 44
REMARK SMILES IDX 83 45 36 47 70 48 49 49 69 50 50 51 53 52 68 53 88 54 51 55
REMARK SMILES IDX 52 56 67 58 89 59 54 60 37 61 38 62 47 63 39 64 40 65 46 66
REMARK SMILES IDX 48 67 41 68 42 69 43 70 44 71 45 72 71 73 72 74 81 75 73 76
REMARK SMILES IDX 74 77 80 78 82 79 75 80 76 81 77 82 78 83 79 84 55 85 56 86
REMARK SMILES IDX 65 87 57 88 58 89 64 90 66 91 59 92 60 93 61 94 62 95 63 96
REMARK H PARENT 4 7 87 46 53 57
REMARK Flexibility Score: inf
ROOT
ATOM      1  C   UNL A   1      32.205  29.448  25.409  1.00  0.00     0.274 C 
ENDROOT
BRANCH   1   2
ATOM      2  O   UNL A   1      31.124  29.712  24.491  1.00  0.00    -0.461 OA
BRANCH   2   3
ATOM      3  C   UNL A   1      30.604  28.839  23.591  1.00  0.00     0.325 C 
ATOM      4  O   UNL A   1      30.348  29.228  22.451  1.00  0.00    -0.250 OA
BRANCH   3   5
ATOM      5  C   UNL A   1      30.356  27.386  23.991  1.00  0.00     0.238 C 
BRANCH   5   6
ATOM      6  N   UNL A   1      30.653  26.459  22.914  1.00  0.00    -0.351 N 
ATOM      7  H   UNL A   1      30.217  26.575  22.038  1.00  0.00     0.163 HD
BRANCH   6   8
ATOM      8  C   UNL A   1      31.517  25.443  23.097  1.00  0.00     0.184 A 
ATOM      9  N   UNL A   1      31.194  24.173  23.187  1.00  0.00    -0.220 NA
ATOM     10  S   UNL A   1      33.174  25.796  23.369  1.00  0.00    -0.096 S 
ATOM     11  C   UNL A   1      32.306  23.416  23.521  1.00  0.00     0.091 A 
ATOM     12  C   UNL A   1      33.466  24.144  23.732  1.00  0.00     0.064 A 
BRANCH  11  13
ATOM     13  C   UNL A   1      32.245  21.960  23.589  1.00  0.00     0.002 A 
ATOM     14  C   UNL A   1      32.446  21.275  24.795  1.00  0.00     0.010 A 
ATOM     15  C   UNL A   1      32.067  21.228  22.410  1.00  0.00     0.010 A 
ATOM     16  C   UNL A   1      32.528  19.881  24.810  1.00  0.00     0.001 A 
ATOM     17  C   UNL A   1      32.154  19.833  22.425  1.00  0.00     0.001 A 
ATOM     18  C   UNL A   1      32.395  19.161  23.623  1.00  0.00     0.000 A 
ENDBRANCH  11  13
BRANCH  12  19
ATOM     19  C   UNL A   1      34.809  23.734  24.122  1.00  0.00    -0.006 A 
ATOM     20  C   UNL A   1      35.321  24.093  25.377  1.00  0.00     0.009 A 
ATOM     21  C   UNL A   1      35.593  22.966  23.255  1.00  0.00     0.009 A 
ATOM     22  C   UNL A   1      36.606  23.703  25.751  1.00  0.00     0.001 A 
ATOM     23  C   UNL A   1      36.879  22.578  23.630  1.00  0.00     0.001 A 
ATOM     24  C   UNL A   1      37.387  22.950  24.875  1.00  0.00     0.000 A 
ENDBRANCH  12  19
ENDBRANCH   6   8
ENDBRANCH   5   6
ENDBRANCH   3   5
ENDBRANCH   2   3
ENDBRANCH   1   2
BRANCH   1  25
ATOM     25  C   UNL A   1      32.330  30.506  26.504  1.00  0.00     0.275 C 
BRANCH  25  26
ATOM     26  O   UNL A   1      33.440  30.215  27.363  1.00  0.00    -0.458 OA
BRANCH  26  27
ATOM     27  C   UNL A   1      34.181  31.291  27.723  1.00  0.00     0.338 C 
ATOM     28  O   UNL A   1      33.774  32.429  27.885  1.00  0.00    -0.246 OA
BRANCH  27  29
ATOM     29  C   UNL A   1      35.549  30.854  28.079  1.00  0.00     0.060 A 
ATOM     30  C   UNL A   1      35.738  29.499  28.375  1.00  0.00     0.016 A 
ATOM     31  C   UNL A   1      36.631  31.741  28.115  1.00  0.00     0.016 A 
ATOM     32  C   UNL A   1      36.991  29.042  28.776  1.00  0.00     0.010 A 
ATOM     33  C   UNL A   1      37.890  31.280  28.514  1.00  0.00     0.010 A 
ATOM     34  C   UNL A   1      38.063  29.938  28.891  1.00  0.00    -0.014 A 
BRANCH  34  35
ATOM     35  C   UNL A   1      39.301  29.494  29.575  1.00  0.00     0.031 A 
ATOM     36  C   UNL A   1      39.674  30.145  30.881  1.00  0.00     0.074 A 
ATOM     37  C   UNL A   1      40.053  28.496  29.079  1.00  0.00     0.049 A 
ATOM     38  N   UNL A   1      40.648  29.856  31.704  1.00  0.00    -0.248 NA
ATOM     39  C   UNL A   1      38.836  31.275  31.315  1.00  0.00     0.031 C 
ATOM     40  C   UNL A   1      39.798  27.785  27.827  1.00  0.00     0.029 A 
ATOM     41  N   UNL A   1      41.186  27.903  29.578  1.00  0.00    -0.354 N 
ATOM     42  C   UNL A   1      40.533  30.757  32.756  1.00  0.00     0.074 A 
ATOM     43  C   UNL A   1      39.426  31.634  32.444  1.00  0.00     0.031 C 
ATOM     44  C   UNL A   1      40.745  26.844  27.660  1.00  0.00     0.029 A 
ATOM     45  C   UNL A   1      41.674  26.892  28.787  1.00  0.00     0.049 A 
ATOM     46  H   UNL A   1      41.608  28.176  30.425  1.00  0.00     0.167 HD
ATOM     47  C   UNL A   1      41.271  30.837  33.889  1.00  0.00     0.037 A 
ATOM     48  C   UNL A   1      42.744  26.091  28.962  1.00  0.00     0.037 A 
ATOM     49  C   UNL A   1      42.374  29.968  34.198  1.00  0.00     0.049 A 
ATOM     50  C   UNL A   1      43.573  26.221  30.216  1.00  0.00     0.074 A 
ATOM     51  C   UNL A   1      43.166  29.951  35.332  1.00  0.00     0.029 A 
ATOM     52  N   UNL A   1      42.849  28.967  33.363  1.00  0.00    -0.354 N 
ATOM     53  N   UNL A   1      43.413  27.034  31.233  1.00  0.00    -0.248 NA
ATOM     54  C   UNL A   1      44.717  25.309  30.352  1.00  0.00     0.031 C 
ATOM     55  C   UNL A   1      44.146  28.966  35.166  1.00  0.00     0.029 A 
ATOM     56  C   UNL A   1      43.935  28.340  33.948  1.00  0.00     0.049 A 
ATOM     57  H   UNL A   1      42.469  28.736  32.485  1.00  0.00     0.167 HD
ATOM     58  C   UNL A   1      44.409  26.704  32.146  1.00  0.00     0.074 A 
ATOM     59  C   UNL A   1      45.166  25.616  31.561  1.00  0.00     0.031 C 
ATOM     60  C   UNL A   1      44.670  27.247  33.362  1.00  0.00     0.037 A 
BRANCH  47  61
ATOM     61  C   UNL A   1      40.909  31.916  34.870  1.00  0.00     0.058 A 
ATOM     62  C   UNL A   1      39.976  31.696  35.895  1.00  0.00     0.135 A 
ATOM     63  C   UNL A   1      41.512  33.182  34.790  1.00  0.00     0.135 A 
ATOM     64  F   UNL A   1      39.357  30.510  36.003  1.00  0.00    -0.206 F 
ATOM     65  C   UNL A   1      39.629  32.703  36.790  1.00  0.00     0.059 A 
ATOM     66  C   UNL A   1      41.197  34.196  35.690  1.00  0.00     0.059 A 
ATOM     67  F   UNL A   1      42.408  33.446  33.826  1.00  0.00    -0.206 F 
ATOM     68  C   UNL A   1      40.243  33.951  36.677  1.00  0.00     0.060 A 
BRANCH  68  69
ATOM     69  S   UNL A   1      39.778  35.253  37.838  1.00  0.00     0.124 S 
ATOM     70  O   UNL A   1      39.654  36.404  36.950  1.00  0.00    -0.237 OA
ATOM     71  O   UNL A   1      38.528  34.744  38.395  1.00  0.00    -0.237 OA
ATOM     72  O   UNL A   1      40.902  35.295  38.768  1.00  0.00    -0.744 OA
ENDBRANCH  68  69
ENDBRANCH  47  61
BRANCH  48  73
ATOM     73  C   UNL A   1      43.083  25.066  27.939  1.00  0.00     0.058 A 
ATOM     74  C   UNL A   1      42.646  23.740  28.069  1.00  0.00     0.135 A 
ATOM     75  C   UNL A   1      43.868  25.390  26.821  1.00  0.00     0.135 A 
ATOM     76  F   UNL A   1      41.902  23.380  29.126  1.00  0.00    -0.206 F 
ATOM     77  C   UNL A   1      42.990  22.764  27.139  1.00  0.00     0.059 A 
ATOM     78  C   UNL A   1      44.207  24.436  25.866  1.00  0.00     0.059 A 
ATOM     79  F   UNL A   1      44.304  26.646  26.646  1.00  0.00    -0.206 F 
ATOM     80  C   UNL A   1      43.773  23.122  26.040  1.00  0.00     0.060 A 
BRANCH  80  81
ATOM     81  S   UNL A   1      44.189  21.856  24.821  1.00  0.00     0.124 S 
ATOM     82  O   UNL A   1      43.992  22.578  23.570  1.00  0.00    -0.237 OA
ATOM     83  O   UNL A   1      45.571  21.538  25.166  1.00  0.00    -0.237 OA
ATOM     84  O   UNL A   1      43.223  20.797  25.098  1.00  0.00    -0.744 OA
ENDBRANCH  80  81
ENDBRANCH  48  73
BRANCH  60  85
ATOM     85  C   UNL A   1      45.787  26.642  34.168  1.00  0.00     0.058 A 
ATOM     86  C   UNL A   1      47.099  27.136  34.106  1.00  0.00     0.135 A 
ATOM     87  C   UNL A   1      45.529  25.577  35.048  1.00  0.00     0.135 A 
ATOM     88  F   UNL A   1      47.401  28.150  33.280  1.00  0.00    -0.206 F 
ATOM     89  C   UNL A   1      48.124  26.574  34.864  1.00  0.00     0.059 A 
ATOM     90  C   UNL A   1      46.531  25.018  35.834  1.00  0.00     0.059 A 
ATOM     91  F   UNL A   1      44.288  25.077  35.157  1.00  0.00    -0.206 F 
ATOM     92  C   UNL A   1      47.830  25.514  35.723  1.00  0.00     0.060 A 
BRANCH  92  93
ATOM     93  S   UNL A   1      49.161  24.804  36.716  1.00  0.00     0.124 S 
ATOM     94  O   UNL A   1      49.965  24.139  35.697  1.00  0.00    -0.237 OA
ATOM     95  O   UNL A   1      49.763  25.986  37.327  1.00  0.00    -0.237 OA
ATOM     96  O   UNL A   1      48.459  23.918  37.640  1.00  0.00    -0.744 OA
ENDBRANCH  92  93
ENDBRANCH  60  85
ENDBRANCH  34  35
ENDBRANCH  27  29
ENDBRANCH  26  27
ENDBRANCH  25  26
ENDBRANCH   1  25
TORSDOF 18
ENDMDL
