MODEL 1
REMARK VINA RESULT:     -11.5      0.000      0.000
REMARK SMILES C[C@@H](C(=O)OCCOC(=O)c1ccc(-c2c3nc(c(-c4c(F)cc(S(=O)(=O)[O-])cc4F)c4ccc([nH]4)c(-c4c(F)cc(S(=O)(=O)[O-])cc4F)c4nc(c(-c5c(F)cc(S(=O)(=O)[O-])cc5F)c5ccc2[nH]5)C=C4)C=C3)cc1)c1ccc(-c2ccn(C(F)F)c(=O)c2)cc1
REMARK SMILES IDX 6 1 5 2 3 3 4 4 2 5 1 6 77 7 78 8 92 9 79 10 91 11 80 12
REMARK SMILES IDX 81 13 82 14 90 15 83 16 88 17 84 18 89 19 85 20 86 21 87 22
REMARK SMILES IDX 7 23 8 24 9 25 10 26 11 27 12 28 76 29 13 30 75 31 14 32
REMARK SMILES IDX 15 33 16 34 69 35 17 36 74 37 68 38 70 39 18 40 73 41 67 42
REMARK SMILES IDX 66 43 19 45 53 46 32 47 52 48 33 49 36 50 51 51 71 52 34 53
REMARK SMILES IDX 35 54 50 56 72 57 37 58 20 59 21 60 30 61 22 62 23 63 29 64
REMARK SMILES IDX 31 65 24 66 25 67 26 68 27 69 28 70 54 71 55 72 64 73 56 74
REMARK SMILES IDX 57 75 63 76 65 77 58 78 59 79 60 80 61 81 62 82 38 83 39 84
REMARK SMILES IDX 48 85 40 86 41 87 47 88 49 89 42 90 43 91 44 92 45 93 46 94
REMARK H PARENT 70 44 36 55
REMARK Flexibility Score: inf
ROOT
ATOM      1  C   UNL A   1      32.080  27.174  26.589  1.00  0.00     0.274 C 
ENDROOT
BRANCH   1   2
ATOM      2  O   UNL A   1      31.257  27.592  25.481  1.00  0.00    -0.462 OA
BRANCH   2   3
ATOM      3  C   UNL A   1      31.694  27.264  24.233  1.00  0.00     0.313 C 
ATOM      4  O   UNL A   1      32.672  27.773  23.696  1.00  0.00    -0.252 OA
BRANCH   3   5
ATOM      5  C   UNL A   1      30.787  26.235  23.544  1.00  0.00     0.126 C 
ATOM      6  C   UNL A   1      29.330  26.291  24.017  1.00  0.00     0.025 C 
BRANCH   5   7
ATOM      7  C   UNL A   1      31.385  24.831  23.605  1.00  0.00    -0.034 A 
ATOM      8  C   UNL A   1      32.281  24.345  22.645  1.00  0.00     0.005 A 
ATOM      9  C   UNL A   1      30.987  23.959  24.632  1.00  0.00     0.005 A 
ATOM     10  C   UNL A   1      32.750  23.023  22.701  1.00  0.00     0.009 A 
ATOM     11  C   UNL A   1      31.458  22.641  24.687  1.00  0.00     0.009 A 
ATOM     12  C   UNL A   1      32.334  22.146  23.714  1.00  0.00    -0.018 A 
BRANCH  12  13
ATOM     13  C   UNL A   1      32.746  20.717  23.727  1.00  0.00    -0.011 A 
ATOM     14  C   UNL A   1      33.723  20.183  24.666  1.00  0.00     0.027 A 
ATOM     15  C   UNL A   1      32.196  19.863  22.843  1.00  0.00     0.080 A 
ATOM     16  C   UNL A   1      34.042  18.883  24.669  1.00  0.00     0.095 A 
ATOM     17  C   UNL A   1      32.573  18.421  22.802  1.00  0.00     0.255 A 
ATOM     18  N   UNL A   1      33.463  18.004  23.775  1.00  0.00    -0.258 N 
ATOM     19  O   UNL A   1      32.095  17.731  21.910  1.00  0.00    -0.269 OA
BRANCH  18  20
ATOM     20  C   UNL A   1      33.837  16.610  23.778  1.00  0.00     0.451 C 
ATOM     21  F   UNL A   1      34.983  16.403  24.464  1.00  0.00    -0.185 F 
ATOM     22  F   UNL A   1      32.859  15.873  24.365  1.00  0.00    -0.185 F 
ENDBRANCH  18  20
ENDBRANCH  12  13
ENDBRANCH   5   7
ENDBRANCH   3   5
ENDBRANCH   2   3
ENDBRANCH   1   2
BRANCH   1  23
ATOM     23  C   UNL A   1      32.373  28.363  27.498  1.00  0.00     0.275 C 
BRANCH  23  24
ATOM     24  O   UNL A   1      33.797  28.535  27.598  1.00  0.00    -0.458 OA
BRANCH  24  25
ATOM     25  C   UNL A   1      34.234  29.802  27.782  1.00  0.00     0.338 C 
ATOM     26  O   UNL A   1      33.574  30.826  27.718  1.00  0.00    -0.246 OA
BRANCH  25  27
ATOM     27  C   UNL A   1      35.679  29.787  28.081  1.00  0.00     0.060 A 
ATOM     28  C   UNL A   1      36.606  30.120  27.096  1.00  0.00     0.016 A 
ATOM     29  C   UNL A   1      36.118  29.330  29.325  1.00  0.00     0.016 A 
ATOM     30  C   UNL A   1      37.965  29.904  27.326  1.00  0.00     0.010 A 
ATOM     31  C   UNL A   1      37.489  29.195  29.576  1.00  0.00     0.010 A 
ATOM     32  C   UNL A   1      38.432  29.432  28.562  1.00  0.00    -0.014 A 
BRANCH  32  33
ATOM     33  C   UNL A   1      39.881  29.117  28.765  1.00  0.00     0.031 A 
ATOM     34  C   UNL A   1      40.792  30.111  29.449  1.00  0.00     0.074 A 
ATOM     35  C   UNL A   1      40.394  27.929  28.384  1.00  0.00     0.049 A 
ATOM     36  N   UNL A   1      42.098  30.108  29.539  1.00  0.00    -0.248 NA
ATOM     37  C   UNL A   1      40.153  31.268  30.097  1.00  0.00     0.031 C 
ATOM     38  C   UNL A   1      39.644  26.836  27.764  1.00  0.00     0.029 A 
ATOM     39  N   UNL A   1      41.671  27.429  28.496  1.00  0.00    -0.354 N 
ATOM     40  C   UNL A   1      42.442  31.302  30.167  1.00  0.00     0.074 A 
ATOM     41  C   UNL A   1      41.204  31.990  30.464  1.00  0.00     0.031 C 
ATOM     42  C   UNL A   1      40.447  25.769  27.633  1.00  0.00     0.029 A 
ATOM     43  C   UNL A   1      41.792  26.128  28.068  1.00  0.00     0.049 A 
ATOM     44  H   UNL A   1      42.426  27.952  28.849  1.00  0.00     0.167 HD
ATOM     45  C   UNL A   1      43.675  31.794  30.443  1.00  0.00     0.037 A 
ATOM     46  C   UNL A   1      42.864  25.314  28.012  1.00  0.00     0.037 A 
ATOM     47  C   UNL A   1      44.903  31.074  30.223  1.00  0.00     0.049 A 
ATOM     48  C   UNL A   1      44.213  25.833  28.409  1.00  0.00     0.074 A 
ATOM     49  C   UNL A   1      46.208  31.503  30.404  1.00  0.00     0.029 A 
ATOM     50  N   UNL A   1      44.975  29.747  29.831  1.00  0.00    -0.354 N 
ATOM     51  N   UNL A   1      44.525  27.009  28.894  1.00  0.00    -0.248 NA
ATOM     52  C   UNL A   1      45.355  24.926  28.236  1.00  0.00     0.031 C 
ATOM     53  C   UNL A   1      47.067  30.439  30.104  1.00  0.00     0.029 A 
ATOM     54  C   UNL A   1      46.297  29.341  29.759  1.00  0.00     0.049 A 
ATOM     55  H   UNL A   1      44.198  29.175  29.633  1.00  0.00     0.167 HD
ATOM     56  C   UNL A   1      45.907  27.002  29.038  1.00  0.00     0.074 A 
ATOM     57  C   UNL A   1      46.361  25.678  28.662  1.00  0.00     0.031 C 
ATOM     58  C   UNL A   1      46.730  28.014  29.408  1.00  0.00     0.037 A 
BRANCH  45  59
ATOM     59  C   UNL A   1      43.769  33.206  30.953  1.00  0.00     0.058 A 
ATOM     60  C   UNL A   1      43.786  33.516  32.320  1.00  0.00     0.135 A 
ATOM     61  C   UNL A   1      43.881  34.271  30.041  1.00  0.00     0.135 A 
ATOM     62  F   UNL A   1      43.654  32.542  33.234  1.00  0.00    -0.206 F 
ATOM     63  C   UNL A   1      43.895  34.831  32.768  1.00  0.00     0.059 A 
ATOM     64  C   UNL A   1      44.011  35.590  30.465  1.00  0.00     0.059 A 
ATOM     65  F   UNL A   1      43.865  34.034  28.720  1.00  0.00    -0.206 F 
ATOM     66  C   UNL A   1      44.003  35.862  31.832  1.00  0.00     0.060 A 
BRANCH  66  67
ATOM     67  S   UNL A   1      44.145  37.564  32.417  1.00  0.00     0.124 S 
ATOM     68  O   UNL A   1      43.199  37.570  33.529  1.00  0.00    -0.237 OA
ATOM     69  O   UNL A   1      45.554  37.660  32.787  1.00  0.00    -0.237 OA
ATOM     70  O   UNL A   1      43.752  38.356  31.256  1.00  0.00    -0.744 OA
ENDBRANCH  66  67
ENDBRANCH  45  59
BRANCH  46  71
ATOM     71  C   UNL A   1      42.696  23.909  27.563  1.00  0.00     0.058 A 
ATOM     72  C   UNL A   1      42.496  22.887  28.500  1.00  0.00     0.135 A 
ATOM     73  C   UNL A   1      42.684  23.570  26.202  1.00  0.00     0.135 A 
ATOM     74  F   UNL A   1      42.500  23.173  29.812  1.00  0.00    -0.206 F 
ATOM     75  C   UNL A   1      42.286  21.570  28.105  1.00  0.00     0.059 A 
ATOM     76  C   UNL A   1      42.450  22.266  25.781  1.00  0.00     0.059 A 
ATOM     77  F   UNL A   1      42.854  24.520  25.271  1.00  0.00    -0.206 F 
ATOM     78  C   UNL A   1      42.257  21.272  26.741  1.00  0.00     0.060 A 
BRANCH  78  79
ATOM     79  S   UNL A   1      41.877  19.586  26.216  1.00  0.00     0.124 S 
ATOM     80  O   UNL A   1      40.434  19.659  26.024  1.00  0.00    -0.237 OA
ATOM     81  O   UNL A   1      42.678  19.446  25.004  1.00  0.00    -0.237 OA
ATOM     82  O   UNL A   1      42.329  18.783  27.349  1.00  0.00    -0.744 OA
ENDBRANCH  78  79
ENDBRANCH  46  71
BRANCH  58  83
ATOM     83  C   UNL A   1      48.203  27.727  29.422  1.00  0.00     0.058 A 
ATOM     84  C   UNL A   1      48.984  27.891  28.267  1.00  0.00     0.135 A 
ATOM     85  C   UNL A   1      48.845  27.319  30.600  1.00  0.00     0.135 A 
ATOM     86  F   UNL A   1      48.412  28.275  27.115  1.00  0.00    -0.206 F 
ATOM     87  C   UNL A   1      50.351  27.639  28.275  1.00  0.00     0.059 A 
ATOM     88  C   UNL A   1      50.215  27.076  30.634  1.00  0.00     0.059 A 
ATOM     89  F   UNL A   1      48.141  27.150  31.730  1.00  0.00    -0.206 F 
ATOM     90  C   UNL A   1      50.957  27.226  29.462  1.00  0.00     0.060 A 
BRANCH  90  91
ATOM     91  S   UNL A   1      52.735  26.910  29.464  1.00  0.00     0.124 S 
ATOM     92  O   UNL A   1      52.870  26.016  30.610  1.00  0.00    -0.237 OA
ATOM     93  O   UNL A   1      52.950  26.299  28.156  1.00  0.00    -0.237 OA
ATOM     94  O   UNL A   1      53.316  28.238  29.632  1.00  0.00    -0.744 OA
ENDBRANCH  90  91
ENDBRANCH  58  83
ENDBRANCH  32  33
ENDBRANCH  25  27
ENDBRANCH  24  25
ENDBRANCH  23  24
ENDBRANCH   1  23
TORSDOF 17
ENDMDL
MODEL 2
REMARK VINA RESULT:     -11.5      1.483      2.460
REMARK SMILES C[C@@H](C(=O)OCCOC(=O)c1ccc(-c2c3nc(c(-c4c(F)cc(S(=O)(=O)[O-])cc4F)c4ccc([nH]4)c(-c4c(F)cc(S(=O)(=O)[O-])cc4F)c4nc(c(-c5c(F)cc(S(=O)(=O)[O-])cc5F)c5ccc2[nH]5)C=C4)C=C3)cc1)c1ccc(-c2ccn(C(F)F)c(=O)c2)cc1
REMARK SMILES IDX 6 1 5 2 3 3 4 4 2 5 1 6 77 7 78 8 92 9 79 10 91 11 80 12
REMARK SMILES IDX 81 13 82 14 90 15 83 16 88 17 84 18 89 19 85 20 86 21 87 22
REMARK SMILES IDX 7 23 8 24 9 25 10 26 11 27 12 28 76 29 13 30 75 31 14 32
REMARK SMILES IDX 15 33 16 34 69 35 17 36 74 37 68 38 70 39 18 40 73 41 67 42
REMARK SMILES IDX 66 43 19 45 53 46 32 47 52 48 33 49 36 50 51 51 71 52 34 53
REMARK SMILES IDX 35 54 50 56 72 57 37 58 20 59 21 60 30 61 22 62 23 63 29 64
REMARK SMILES IDX 31 65 24 66 25 67 26 68 27 69 28 70 54 71 55 72 64 73 56 74
REMARK SMILES IDX 57 75 63 76 65 77 58 78 59 79 60 80 61 81 62 82 38 83 39 84
REMARK SMILES IDX 48 85 40 86 41 87 47 88 49 89 42 90 43 91 44 92 45 93 46 94
REMARK H PARENT 70 44 36 55
REMARK Flexibility Score: inf
ROOT
ATOM      1  C   UNL A   1      31.912  30.314  26.861  1.00  0.00     0.274 C 
ENDROOT
BRANCH   1   2
ATOM      2  O   UNL A   1      31.878  28.929  26.461  1.00  0.00    -0.462 OA
BRANCH   2   3
ATOM      3  C   UNL A   1      31.902  28.676  25.122  1.00  0.00     0.313 C 
ATOM      4  O   UNL A   1      30.907  28.688  24.406  1.00  0.00    -0.252 OA
BRANCH   3   5
ATOM      5  C   UNL A   1      33.305  28.306  24.618  1.00  0.00     0.126 C 
ATOM      6  C   UNL A   1      33.684  28.999  23.305  1.00  0.00     0.025 C 
BRANCH   5   7
ATOM      7  C   UNL A   1      33.504  26.793  24.579  1.00  0.00    -0.034 A 
ATOM      8  C   UNL A   1      33.564  26.066  23.383  1.00  0.00     0.005 A 
ATOM      9  C   UNL A   1      33.578  26.077  25.785  1.00  0.00     0.005 A 
ATOM     10  C   UNL A   1      33.677  24.667  23.394  1.00  0.00     0.009 A 
ATOM     11  C   UNL A   1      33.693  24.681  25.794  1.00  0.00     0.009 A 
ATOM     12  C   UNL A   1      33.727  23.951  24.600  1.00  0.00    -0.018 A 
BRANCH  12  13
ATOM     13  C   UNL A   1      33.746  22.464  24.624  1.00  0.00    -0.011 A 
ATOM     14  C   UNL A   1      32.541  21.655  24.498  1.00  0.00     0.027 A 
ATOM     15  C   UNL A   1      34.920  21.820  24.760  1.00  0.00     0.080 A 
ATOM     16  C   UNL A   1      32.603  20.318  24.490  1.00  0.00     0.095 A 
ATOM     17  C   UNL A   1      35.002  20.332  24.798  1.00  0.00     0.255 A 
ATOM     18  N   UNL A   1      33.810  19.659  24.609  1.00  0.00    -0.258 N 
ATOM     19  O   UNL A   1      36.097  19.826  25.015  1.00  0.00    -0.269 OA
BRANCH  18  20
ATOM     20  C   UNL A   1      33.853  18.216  24.621  1.00  0.00     0.451 C 
ATOM     21  F   UNL A   1      32.724  17.678  24.108  1.00  0.00    -0.185 F 
ATOM     22  F   UNL A   1      34.900  17.781  23.874  1.00  0.00    -0.185 F 
ENDBRANCH  18  20
ENDBRANCH  12  13
ENDBRANCH   5   7
ENDBRANCH   3   5
ENDBRANCH   2   3
ENDBRANCH   1   2
BRANCH   1  23
ATOM     23  C   UNL A   1      33.357  30.789  26.971  1.00  0.00     0.275 C 
BRANCH  23  24
ATOM     24  O   UNL A   1      34.013  30.055  28.018  1.00  0.00    -0.458 OA
BRANCH  24  25
ATOM     25  C   UNL A   1      34.889  30.752  28.778  1.00  0.00     0.338 C 
ATOM     26  O   UNL A   1      34.659  31.748  29.441  1.00  0.00    -0.246 OA
BRANCH  25  27
ATOM     27  C   UNL A   1      36.222  30.122  28.696  1.00  0.00     0.060 A 
ATOM     28  C   UNL A   1      36.813  29.573  29.832  1.00  0.00     0.016 A 
ATOM     29  C   UNL A   1      36.936  30.178  27.497  1.00  0.00     0.016 A 
ATOM     30  C   UNL A   1      38.147  29.170  29.790  1.00  0.00     0.010 A 
ATOM     31  C   UNL A   1      38.248  29.693  27.443  1.00  0.00     0.010 A 
ATOM     32  C   UNL A   1      38.892  29.228  28.602  1.00  0.00    -0.014 A 
BRANCH  32  33
ATOM     33  C   UNL A   1      40.347  28.879  28.592  1.00  0.00     0.031 A 
ATOM     34  C   UNL A   1      41.375  29.866  29.098  1.00  0.00     0.074 A 
ATOM     35  C   UNL A   1      40.768  27.668  28.173  1.00  0.00     0.049 A 
ATOM     36  N   UNL A   1      42.679  29.829  28.987  1.00  0.00    -0.248 NA
ATOM     37  C   UNL A   1      40.870  31.056  29.800  1.00  0.00     0.031 C 
ATOM     38  C   UNL A   1      39.907  26.580  27.708  1.00  0.00     0.029 A 
ATOM     39  N   UNL A   1      42.035  27.136  28.104  1.00  0.00    -0.354 N 
ATOM     40  C   UNL A   1      43.143  31.030  29.519  1.00  0.00     0.074 A 
ATOM     41  C   UNL A   1      41.981  31.759  29.981  1.00  0.00     0.031 C 
ATOM     42  C   UNL A   1      40.655  25.488  27.489  1.00  0.00     0.029 A 
ATOM     43  C   UNL A   1      42.059  25.821  27.702  1.00  0.00     0.049 A 
ATOM     44  H   UNL A   1      42.847  27.647  28.321  1.00  0.00     0.167 HD
ATOM     45  C   UNL A   1      44.415  31.495  29.589  1.00  0.00     0.037 A 
ATOM     46  C   UNL A   1      43.090  24.976  27.508  1.00  0.00     0.037 A 
ATOM     47  C   UNL A   1      45.577  30.735  29.206  1.00  0.00     0.049 A 
ATOM     48  C   UNL A   1      44.496  25.469  27.679  1.00  0.00     0.074 A 
ATOM     49  C   UNL A   1      46.904  31.132  29.173  1.00  0.00     0.029 A 
ATOM     50  N   UNL A   1      45.557  29.396  28.848  1.00  0.00    -0.354 N 
ATOM     51  N   UNL A   1      44.906  26.648  28.075  1.00  0.00    -0.248 NA
ATOM     52  C   UNL A   1      45.577  24.527  27.361  1.00  0.00     0.031 C 
ATOM     53  C   UNL A   1      47.682  30.038  28.778  1.00  0.00     0.029 A 
ATOM     54  C   UNL A   1      46.843  28.953  28.588  1.00  0.00     0.049 A 
ATOM     55  H   UNL A   1      44.747  28.842  28.788  1.00  0.00     0.167 HD
ATOM     56  C   UNL A   1      46.294  26.607  28.006  1.00  0.00     0.074 A 
ATOM     57  C   UNL A   1      46.653  25.262  27.606  1.00  0.00     0.031 C 
ATOM     58  C   UNL A   1      47.187  27.606  28.215  1.00  0.00     0.037 A 
BRANCH  45  59
ATOM     59  C   UNL A   1      44.619  32.917  30.035  1.00  0.00     0.058 A 
ATOM     60  C   UNL A   1      44.537  34.003  29.153  1.00  0.00     0.135 A 
ATOM     61  C   UNL A   1      44.867  33.194  31.391  1.00  0.00     0.135 A 
ATOM     62  F   UNL A   1      44.330  33.796  27.844  1.00  0.00    -0.206 F 
ATOM     63  C   UNL A   1      44.710  35.314  29.594  1.00  0.00     0.059 A 
ATOM     64  C   UNL A   1      45.023  34.495  31.858  1.00  0.00     0.059 A 
ATOM     65  F   UNL A   1      44.961  32.192  32.280  1.00  0.00    -0.206 F 
ATOM     66  C   UNL A   1      44.955  35.549  30.949  1.00  0.00     0.060 A 
BRANCH  66  67
ATOM     67  S   UNL A   1      45.177  37.249  31.516  1.00  0.00     0.124 S 
ATOM     68  O   UNL A   1      46.408  37.139  32.294  1.00  0.00    -0.237 OA
ATOM     69  O   UNL A   1      45.286  37.993  30.265  1.00  0.00    -0.237 OA
ATOM     70  O   UNL A   1      43.967  37.509  32.290  1.00  0.00    -0.744 OA
ENDBRANCH  66  67
ENDBRANCH  45  59
BRANCH  46  71
ATOM     71  C   UNL A   1      42.823  23.566  27.133  1.00  0.00     0.058 A 
ATOM     72  C   UNL A   1      42.974  23.147  25.804  1.00  0.00     0.135 A 
ATOM     73  C   UNL A   1      42.463  22.606  28.091  1.00  0.00     0.135 A 
ATOM     74  F   UNL A   1      43.318  24.037  24.859  1.00  0.00    -0.206 F 
ATOM     75  C   UNL A   1      42.779  21.822  25.433  1.00  0.00     0.059 A 
ATOM     76  C   UNL A   1      42.289  21.270  27.751  1.00  0.00     0.059 A 
ATOM     77  F   UNL A   1      42.326  22.960  29.378  1.00  0.00    -0.206 F 
ATOM     78  C   UNL A   1      42.444  20.888  26.417  1.00  0.00     0.060 A 
BRANCH  78  79
ATOM     79  S   UNL A   1      42.296  19.147  25.965  1.00  0.00     0.124 S 
ATOM     80  O   UNL A   1      40.860  19.025  25.741  1.00  0.00    -0.237 OA
ATOM     81  O   UNL A   1      43.138  19.057  24.775  1.00  0.00    -0.237 OA
ATOM     82  O   UNL A   1      42.817  18.459  27.142  1.00  0.00    -0.744 OA
ENDBRANCH  78  79
ENDBRANCH  46  71
BRANCH  58  83
ATOM     83  C   UNL A   1      48.637  27.278  28.013  1.00  0.00     0.058 A 
ATOM     84  C   UNL A   1      49.410  26.742  29.055  1.00  0.00     0.135 A 
ATOM     85  C   UNL A   1      49.250  27.468  26.767  1.00  0.00     0.135 A 
ATOM     86  F   UNL A   1      48.868  26.548  30.267  1.00  0.00    -0.206 F 
ATOM     87  C   UNL A   1      50.752  26.424  28.873  1.00  0.00     0.059 A 
ATOM     88  C   UNL A   1      50.587  27.142  26.558  1.00  0.00     0.059 A 
ATOM     89  F   UNL A   1      48.551  27.976  25.739  1.00  0.00    -0.206 F 
ATOM     90  C   UNL A   1      51.333  26.633  27.621  1.00  0.00     0.060 A 
BRANCH  90  91
ATOM     91  S   UNL A   1      53.073  26.210  27.392  1.00  0.00     0.124 S 
ATOM     92  O   UNL A   1      53.538  26.129  28.773  1.00  0.00    -0.237 OA
ATOM     93  O   UNL A   1      52.999  24.941  26.674  1.00  0.00    -0.237 OA
ATOM     94  O   UNL A   1      53.596  27.331  26.617  1.00  0.00    -0.744 OA
ENDBRANCH  90  91
ENDBRANCH  58  83
ENDBRANCH  32  33
ENDBRANCH  25  27
ENDBRANCH  24  25
ENDBRANCH  23  24
ENDBRANCH   1  23
TORSDOF 17
ENDMDL
MODEL 3
REMARK VINA RESULT:     -11.3      3.703      4.523
REMARK SMILES C[C@@H](C(=O)OCCOC(=O)c1ccc(-c2c3nc(c(-c4c(F)cc(S(=O)(=O)[O-])cc4F)c4ccc([nH]4)c(-c4c(F)cc(S(=O)(=O)[O-])cc4F)c4nc(c(-c5c(F)cc(S(=O)(=O)[O-])cc5F)c5ccc2[nH]5)C=C4)C=C3)cc1)c1ccc(-c2ccn(C(F)F)c(=O)c2)cc1
REMARK SMILES IDX 6 1 5 2 3 3 4 4 2 5 1 6 77 7 78 8 92 9 79 10 91 11 80 12
REMARK SMILES IDX 81 13 82 14 90 15 83 16 88 17 84 18 89 19 85 20 86 21 87 22
REMARK SMILES IDX 7 23 8 24 9 25 10 26 11 27 12 28 76 29 13 30 75 31 14 32
REMARK SMILES IDX 15 33 16 34 69 35 17 36 74 37 68 38 70 39 18 40 73 41 67 42
REMARK SMILES IDX 66 43 19 45 53 46 32 47 52 48 33 49 36 50 51 51 71 52 34 53
REMARK SMILES IDX 35 54 50 56 72 57 37 58 20 59 21 60 30 61 22 62 23 63 29 64
REMARK SMILES IDX 31 65 24 66 25 67 26 68 27 69 28 70 54 71 55 72 64 73 56 74
REMARK SMILES IDX 57 75 63 76 65 77 58 78 59 79 60 80 61 81 62 82 38 83 39 84
REMARK SMILES IDX 48 85 40 86 41 87 47 88 49 89 42 90 43 91 44 92 45 93 46 94
REMARK H PARENT 70 44 36 55
REMARK Flexibility Score: inf
ROOT
ATOM      1  C   UNL A   1      31.822  28.914  26.338  1.00  0.00     0.274 C 
ENDROOT
BRANCH   1   2
ATOM      2  O   UNL A   1      31.342  28.711  24.993  1.00  0.00    -0.462 OA
BRANCH   2   3
ATOM      3  C   UNL A   1      32.226  28.191  24.096  1.00  0.00     0.313 C 
ATOM      4  O   UNL A   1      33.135  28.834  23.582  1.00  0.00    -0.252 OA
BRANCH   3   5
ATOM      5  C   UNL A   1      31.918  26.728  23.748  1.00  0.00     0.126 C 
ATOM      6  C   UNL A   1      30.533  26.268  24.215  1.00  0.00     0.025 C 
BRANCH   5   7
ATOM      7  C   UNL A   1      33.042  25.797  24.195  1.00  0.00    -0.034 A 
ATOM      8  C   UNL A   1      33.468  25.705  25.526  1.00  0.00     0.005 A 
ATOM      9  C   UNL A   1      33.727  25.035  23.234  1.00  0.00     0.005 A 
ATOM     10  C   UNL A   1      34.553  24.890  25.881  1.00  0.00     0.009 A 
ATOM     11  C   UNL A   1      34.808  24.219  23.590  1.00  0.00     0.009 A 
ATOM     12  C   UNL A   1      35.250  24.146  24.917  1.00  0.00    -0.018 A 
BRANCH  12  13
ATOM     13  C   UNL A   1      36.463  23.357  25.265  1.00  0.00    -0.011 A 
ATOM     14  C   UNL A   1      36.606  21.944  24.945  1.00  0.00     0.027 A 
ATOM     15  C   UNL A   1      37.485  23.963  25.897  1.00  0.00     0.080 A 
ATOM     16  C   UNL A   1      37.728  21.276  25.245  1.00  0.00     0.095 A 
ATOM     17  C   UNL A   1      38.723  23.224  26.278  1.00  0.00     0.255 A 
ATOM     18  N   UNL A   1      38.784  21.903  25.875  1.00  0.00    -0.258 N 
ATOM     19  O   UNL A   1      39.569  23.825  26.932  1.00  0.00    -0.269 OA
BRANCH  18  20
ATOM     20  C   UNL A   1      39.976  21.161  26.211  1.00  0.00     0.451 C 
ATOM     21  F   UNL A   1      40.183  21.128  27.547  1.00  0.00    -0.185 F 
ATOM     22  F   UNL A   1      39.859  19.881  25.774  1.00  0.00    -0.185 F 
ENDBRANCH  18  20
ENDBRANCH  12  13
ENDBRANCH   5   7
ENDBRANCH   3   5
ENDBRANCH   2   3
ENDBRANCH   1   2
BRANCH   1  23
ATOM     23  C   UNL A   1      32.276  30.359  26.517  1.00  0.00     0.275 C 
BRANCH  23  24
ATOM     24  O   UNL A   1      33.711  30.394  26.581  1.00  0.00    -0.458 OA
BRANCH  24  25
ATOM     25  C   UNL A   1      34.249  31.265  27.466  1.00  0.00     0.338 C 
ATOM     26  O   UNL A   1      33.742  32.289  27.892  1.00  0.00    -0.246 OA
BRANCH  25  27
ATOM     27  C   UNL A   1      35.589  30.796  27.868  1.00  0.00     0.060 A 
ATOM     28  C   UNL A   1      35.820  29.442  28.104  1.00  0.00     0.016 A 
ATOM     29  C   UNL A   1      36.597  31.728  28.117  1.00  0.00     0.016 A 
ATOM     30  C   UNL A   1      37.025  29.037  28.679  1.00  0.00     0.010 A 
ATOM     31  C   UNL A   1      37.835  31.302  28.616  1.00  0.00     0.010 A 
ATOM     32  C   UNL A   1      38.049  29.955  28.954  1.00  0.00    -0.014 A 
BRANCH  32  33
ATOM     33  C   UNL A   1      39.299  29.523  29.654  1.00  0.00     0.031 A 
ATOM     34  C   UNL A   1      39.656  30.096  31.007  1.00  0.00     0.074 A 
ATOM     35  C   UNL A   1      40.108  28.586  29.117  1.00  0.00     0.049 A 
ATOM     36  N   UNL A   1      40.778  30.000  31.674  1.00  0.00    -0.248 NA
ATOM     37  C   UNL A   1      38.626  30.897  31.687  1.00  0.00     0.031 C 
ATOM     38  C   UNL A   1      39.883  27.891  27.850  1.00  0.00     0.029 A 
ATOM     39  N   UNL A   1      41.274  28.032  29.593  1.00  0.00    -0.354 N 
ATOM     40  C   UNL A   1      40.623  30.802  32.803  1.00  0.00     0.074 A 
ATOM     41  C   UNL A   1      39.285  31.351  32.744  1.00  0.00     0.031 C 
ATOM     42  C   UNL A   1      40.822  26.946  27.692  1.00  0.00     0.029 A 
ATOM     43  C   UNL A   1      41.773  27.030  28.796  1.00  0.00     0.049 A 
ATOM     44  H   UNL A   1      41.710  28.325  30.426  1.00  0.00     0.167 HD
ATOM     45  C   UNL A   1      41.521  31.078  33.780  1.00  0.00     0.037 A 
ATOM     46  C   UNL A   1      42.879  26.271  28.920  1.00  0.00     0.037 A 
ATOM     47  C   UNL A   1      42.822  30.466  33.882  1.00  0.00     0.049 A 
ATOM     48  C   UNL A   1      43.824  26.516  30.058  1.00  0.00     0.074 A 
ATOM     49  C   UNL A   1      43.835  30.723  34.792  1.00  0.00     0.029 A 
ATOM     50  N   UNL A   1      43.265  29.427  33.080  1.00  0.00    -0.354 N 
ATOM     51  N   UNL A   1      43.705  27.363  31.050  1.00  0.00    -0.248 NA
ATOM     52  C   UNL A   1      45.057  25.720  30.085  1.00  0.00     0.031 C 
ATOM     53  C   UNL A   1      44.896  29.850  34.527  1.00  0.00     0.029 A 
ATOM     54  C   UNL A   1      44.536  29.034  33.468  1.00  0.00     0.049 A 
ATOM     55  H   UNL A   1      42.752  29.027  32.342  1.00  0.00     0.167 HD
ATOM     56  C   UNL A   1      44.872  27.237  31.794  1.00  0.00     0.074 A 
ATOM     57  C   UNL A   1      45.648  26.178  31.181  1.00  0.00     0.031 C 
ATOM     58  C   UNL A   1      45.283  27.963  32.864  1.00  0.00     0.037 A 
BRANCH  45  59
ATOM     59  C   UNL A   1      41.161  32.137  34.785  1.00  0.00     0.058 A 
ATOM     60  C   UNL A   1      41.466  33.492  34.596  1.00  0.00     0.135 A 
ATOM     61  C   UNL A   1      40.459  31.783  35.952  1.00  0.00     0.135 A 
ATOM     62  F   UNL A   1      42.158  33.884  33.515  1.00  0.00    -0.206 F 
ATOM     63  C   UNL A   1      41.103  34.458  35.532  1.00  0.00     0.059 A 
ATOM     64  C   UNL A   1      40.069  32.732  36.891  1.00  0.00     0.059 A 
ATOM     65  F   UNL A   1      40.145  30.499  36.187  1.00  0.00    -0.206 F 
ATOM     66  C   UNL A   1      40.407  34.068  36.679  1.00  0.00     0.060 A 
BRANCH  66  67
ATOM     67  S   UNL A   1      39.938  35.323  37.889  1.00  0.00     0.124 S 
ATOM     68  O   UNL A   1      38.749  34.722  38.486  1.00  0.00    -0.237 OA
ATOM     69  O   UNL A   1      41.113  35.391  38.752  1.00  0.00    -0.237 OA
ATOM     70  O   UNL A   1      39.698  36.509  37.071  1.00  0.00    -0.744 OA
ENDBRANCH  66  67
ENDBRANCH  45  59
BRANCH  46  71
ATOM     71  C   UNL A   1      43.147  25.196  27.933  1.00  0.00     0.058 A 
ATOM     72  C   UNL A   1      43.845  25.480  26.751  1.00  0.00     0.135 A 
ATOM     73  C   UNL A   1      42.758  23.869  28.168  1.00  0.00     0.135 A 
ATOM     74  F   UNL A   1      44.233  26.738  26.491  1.00  0.00    -0.206 F 
ATOM     75  C   UNL A   1      44.153  24.483  25.833  1.00  0.00     0.059 A 
ATOM     76  C   UNL A   1      43.078  22.850  27.279  1.00  0.00     0.059 A 
ATOM     77  F   UNL A   1      42.104  23.550  29.295  1.00  0.00    -0.206 F 
ATOM     78  C   UNL A   1      43.772  23.168  26.110  1.00  0.00     0.060 A 
BRANCH  78  79
ATOM     79  S   UNL A   1      44.262  21.851  24.977  1.00  0.00     0.124 S 
ATOM     80  O   UNL A   1      44.172  22.527  23.688  1.00  0.00    -0.237 OA
ATOM     81  O   UNL A   1      45.610  21.526  25.435  1.00  0.00    -0.237 OA
ATOM     82  O   UNL A   1      43.261  20.818  25.225  1.00  0.00    -0.744 OA
ENDBRANCH  78  79
ENDBRANCH  46  71
BRANCH  58  83
ATOM     83  C   UNL A   1      46.631  27.634  33.435  1.00  0.00     0.058 A 
ATOM     84  C   UNL A   1      47.789  28.280  32.974  1.00  0.00     0.135 A 
ATOM     85  C   UNL A   1      46.764  26.698  34.470  1.00  0.00     0.135 A 
ATOM     86  F   UNL A   1      47.711  29.179  31.982  1.00  0.00    -0.206 F 
ATOM     87  C   UNL A   1      49.041  27.990  33.506  1.00  0.00     0.059 A 
ATOM     88  C   UNL A   1      48.006  26.404  35.028  1.00  0.00     0.059 A 
ATOM     89  F   UNL A   1      45.685  26.057  34.945  1.00  0.00    -0.206 F 
ATOM     90  C   UNL A   1      49.140  27.046  34.530  1.00  0.00     0.060 A 
BRANCH  90  91
ATOM     91  S   UNL A   1      50.767  26.683  35.221  1.00  0.00     0.124 S 
ATOM     92  O   UNL A   1      51.532  27.852  34.795  1.00  0.00    -0.237 OA
ATOM     93  O   UNL A   1      50.493  26.595  36.651  1.00  0.00    -0.237 OA
ATOM     94  O   UNL A   1      51.135  25.424  34.580  1.00  0.00    -0.744 OA
ENDBRANCH  90  91
ENDBRANCH  58  83
ENDBRANCH  32  33
ENDBRANCH  25  27
ENDBRANCH  24  25
ENDBRANCH  23  24
ENDBRANCH   1  23
TORSDOF 17
ENDMDL
