MODEL 1
REMARK VINA RESULT:     -11.4      0.000      0.000
REMARK SMILES C[C@H](NC(=O)N1CC[C@H](C(=O)OCCOC(=O)c2ccc(-c3c4nc(c(-c5c(F)cc(S(=O)(=O)[O-])cc5F)c5ccc([nH]5)c(-c5c(F)cc(S(=O)(=O)[O-])cc5F)c5nc(c(-c6c(F)cc(S(=O)(=O)[O-])cc6F)c6ccc3[nH]6)C=C5)C=C4)cc2)[C@@H]1C)[C@@H]1CCCO1
REMARK SMILES IDX 13 1 12 2 10 3 11 4 9 5 6 6 7 7 84 8 8 9 85 10 4 11 3 12
REMARK SMILES IDX 5 14 2 15 1 16 86 17 87 18 90 19 88 20 89 21 14 22 15 23
REMARK SMILES IDX 16 24 17 25 18 26 19 27 83 28 20 29 82 30 21 31 22 32 23 33
REMARK SMILES IDX 76 34 24 35 81 36 75 37 77 38 25 39 80 40 74 41 73 42 26 44
REMARK SMILES IDX 60 45 39 46 59 47 40 48 43 49 58 50 78 51 41 52 42 53 57 55
REMARK SMILES IDX 79 56 44 57 27 58 28 59 37 60 29 61 30 62 36 63 38 64 31 65
REMARK SMILES IDX 32 66 33 67 34 68 35 69 61 70 62 71 71 72 63 73 64 74 70 75
REMARK SMILES IDX 72 76 65 77 66 78 67 79 68 80 69 81 45 82 46 83 55 84 47 85
REMARK SMILES IDX 48 86 54 87 56 88 49 89 50 90 51 91 52 92 53 93
REMARK H PARENT 3 13 77 43 43 54
REMARK Flexibility Score: inf
ROOT
ATOM      1  C   UNL A   1      37.113  22.488  25.358  1.00  0.00     0.274 C 
ENDROOT
BRANCH   1   2
ATOM      2  O   UNL A   1      36.365  21.299  25.694  1.00  0.00    -0.462 OA
BRANCH   2   3
ATOM      3  C   UNL A   1      35.080  21.270  25.261  1.00  0.00     0.311 C 
ATOM      4  O   UNL A   1      34.549  20.266  24.797  1.00  0.00    -0.252 OA
BRANCH   3   5
ATOM      5  C   UNL A   1      34.404  22.632  25.240  1.00  0.00     0.123 C 
ATOM      6  N   UNL A   1      32.249  23.261  26.079  1.00  0.00    -0.321 N 
ATOM      7  C   UNL A   1      32.019  22.503  24.886  1.00  0.00     0.122 C 
ATOM      8  C   UNL A   1      33.664  23.206  26.475  1.00  0.00     0.098 C 
ATOM      9  C   UNL A   1      33.324  22.672  24.134  1.00  0.00     0.039 C 
ATOM     10  C   UNL A   1      33.825  22.498  27.815  1.00  0.00     0.032 C 
BRANCH   6  11
ATOM     11  C   UNL A   1      31.192  23.756  26.783  1.00  0.00     0.317 C 
ATOM     12  N   UNL A   1      30.869  25.063  26.603  1.00  0.00    -0.333 N 
ATOM     13  H   UNL A   1      30.470  25.541  27.365  1.00  0.00     0.165 HD
ATOM     14  O   UNL A   1      30.483  23.059  27.503  1.00  0.00    -0.249 OA
BRANCH  12  15
ATOM     15  C   UNL A   1      31.069  25.813  25.367  1.00  0.00     0.109 C 
ATOM     16  C   UNL A   1      29.719  26.145  24.728  1.00  0.00     0.034 C 
BRANCH  15  17
ATOM     17  C   UNL A   1      31.987  27.022  25.589  1.00  0.00     0.140 C 
ATOM     18  C   UNL A   1      33.417  26.742  26.017  1.00  0.00     0.036 C 
ATOM     19  O   UNL A   1      31.433  27.893  26.598  1.00  0.00    -0.376 OA
ATOM     20  C   UNL A   1      33.795  28.071  26.626  1.00  0.00     0.031 C 
ATOM     21  C   UNL A   1      32.517  28.465  27.339  1.00  0.00     0.160 C 
ENDBRANCH  15  17
ENDBRANCH  12  15
ENDBRANCH   6  11
ENDBRANCH   3   5
ENDBRANCH   2   3
ENDBRANCH   1   2
BRANCH   1  22
ATOM     22  C   UNL A   1      38.440  22.530  26.116  1.00  0.00     0.275 C 
BRANCH  22  23
ATOM     23  O   UNL A   1      38.777  23.894  26.415  1.00  0.00    -0.458 OA
BRANCH  23  24
ATOM     24  C   UNL A   1      40.081  24.146  26.671  1.00  0.00     0.338 C 
ATOM     25  O   UNL A   1      41.040  23.602  26.136  1.00  0.00    -0.246 OA
BRANCH  24  26
ATOM     26  C   UNL A   1      40.207  25.202  27.700  1.00  0.00     0.060 A 
ATOM     27  C   UNL A   1      39.279  25.315  28.736  1.00  0.00     0.016 A 
ATOM     28  C   UNL A   1      41.218  26.158  27.587  1.00  0.00     0.016 A 
ATOM     29  C   UNL A   1      39.293  26.427  29.580  1.00  0.00     0.010 A 
ATOM     30  C   UNL A   1      41.302  27.206  28.512  1.00  0.00     0.010 A 
ATOM     31  C   UNL A   1      40.324  27.373  29.507  1.00  0.00    -0.014 A 
BRANCH  31  32
ATOM     32  C   UNL A   1      40.389  28.519  30.464  1.00  0.00     0.031 A 
ATOM     33  C   UNL A   1      41.418  28.540  31.567  1.00  0.00     0.074 A 
ATOM     34  C   UNL A   1      39.511  29.540  30.367  1.00  0.00     0.049 A 
ATOM     35  N   UNL A   1      41.461  29.287  32.642  1.00  0.00    -0.248 NA
ATOM     36  C   UNL A   1      42.532  27.584  31.460  1.00  0.00     0.031 C 
ATOM     37  C   UNL A   1      38.481  29.683  29.335  1.00  0.00     0.029 A 
ATOM     38  N   UNL A   1      39.339  30.654  31.152  1.00  0.00    -0.354 N 
ATOM     39  C   UNL A   1      42.554  28.838  33.376  1.00  0.00     0.074 A 
ATOM     40  C   UNL A   1      43.159  27.766  32.615  1.00  0.00     0.031 C 
ATOM     41  C   UNL A   1      37.820  30.833  29.520  1.00  0.00     0.029 A 
ATOM     42  C   UNL A   1      38.296  31.456  30.748  1.00  0.00     0.049 A 
ATOM     43  H   UNL A   1      39.907  30.860  31.929  1.00  0.00     0.167 HD
ATOM     44  C   UNL A   1      43.001  29.277  34.579  1.00  0.00     0.037 A 
ATOM     45  C   UNL A   1      37.733  32.536  31.324  1.00  0.00     0.037 A 
ATOM     46  C   UNL A   1      42.442  30.399  35.291  1.00  0.00     0.049 A 
ATOM     47  C   UNL A   1      38.244  33.006  32.653  1.00  0.00     0.074 A 
ATOM     48  C   UNL A   1      42.842  30.941  36.501  1.00  0.00     0.029 A 
ATOM     49  N   UNL A   1      41.375  31.169  34.846  1.00  0.00    -0.354 N 
ATOM     50  N   UNL A   1      39.218  32.515  33.379  1.00  0.00    -0.248 NA
ATOM     51  C   UNL A   1      37.556  34.155  33.258  1.00  0.00     0.031 C 
ATOM     52  C   UNL A   1      42.004  32.020  36.800  1.00  0.00     0.029 A 
ATOM     53  C   UNL A   1      41.101  32.173  35.760  1.00  0.00     0.049 A 
ATOM     54  H   UNL A   1      40.887  31.023  34.004  1.00  0.00     0.167 HD
ATOM     55  C   UNL A   1      39.255  33.286  34.533  1.00  0.00     0.074 A 
ATOM     56  C   UNL A   1      38.224  34.296  34.395  1.00  0.00     0.031 C 
ATOM     57  C   UNL A   1      40.061  33.160  35.615  1.00  0.00     0.037 A 
BRANCH  44  58
ATOM     58  C   UNL A   1      44.130  28.524  35.229  1.00  0.00     0.058 A 
ATOM     59  C   UNL A   1      45.473  28.891  35.058  1.00  0.00     0.135 A 
ATOM     60  C   UNL A   1      43.852  27.445  36.086  1.00  0.00     0.135 A 
ATOM     61  F   UNL A   1      45.797  29.907  34.244  1.00  0.00    -0.206 F 
ATOM     62  C   UNL A   1      46.502  28.204  35.697  1.00  0.00     0.059 A 
ATOM     63  C   UNL A   1      44.862  26.758  36.753  1.00  0.00     0.059 A 
ATOM     64  F   UNL A   1      42.584  27.054  36.289  1.00  0.00    -0.206 F 
ATOM     65  C   UNL A   1      46.187  27.137  36.543  1.00  0.00     0.060 A 
BRANCH  65  66
ATOM     66  S   UNL A   1      47.527  26.265  37.385  1.00  0.00     0.124 S 
ATOM     67  O   UNL A   1      47.901  27.229  38.415  1.00  0.00    -0.237 OA
ATOM     68  O   UNL A   1      46.867  25.054  37.861  1.00  0.00    -0.237 OA
ATOM     69  O   UNL A   1      48.515  26.060  36.329  1.00  0.00    -0.744 OA
ENDBRANCH  65  66
ENDBRANCH  44  58
BRANCH  45  70
ATOM     70  C   UNL A   1      36.574  33.194  30.665  1.00  0.00     0.058 A 
ATOM     71  C   UNL A   1      35.277  33.046  31.174  1.00  0.00     0.135 A 
ATOM     72  C   UNL A   1      36.754  34.036  29.557  1.00  0.00     0.135 A 
ATOM     73  F   UNL A   1      35.055  32.242  32.224  1.00  0.00    -0.206 F 
ATOM     74  C   UNL A   1      34.197  33.721  30.614  1.00  0.00     0.059 A 
ATOM     75  C   UNL A   1      35.694  34.741  28.996  1.00  0.00     0.059 A 
ATOM     76  F   UNL A   1      37.979  34.218  29.041  1.00  0.00    -0.206 F 
ATOM     77  C   UNL A   1      34.417  34.575  29.531  1.00  0.00     0.060 A 
BRANCH  77  78
ATOM     78  S   UNL A   1      33.033  35.531  28.873  1.00  0.00     0.124 S 
ATOM     79  O   UNL A   1      33.724  36.642  28.231  1.00  0.00    -0.237 OA
ATOM     80  O   UNL A   1      32.391  34.575  27.977  1.00  0.00    -0.237 OA
ATOM     81  O   UNL A   1      32.265  35.867  30.069  1.00  0.00    -0.744 OA
ENDBRANCH  77  78
ENDBRANCH  45  70
BRANCH  57  82
ATOM     82  C   UNL A   1      39.857  34.143  36.730  1.00  0.00     0.058 A 
ATOM     83  C   UNL A   1      40.505  35.387  36.733  1.00  0.00     0.135 A 
ATOM     84  C   UNL A   1      38.993  33.846  37.796  1.00  0.00     0.135 A 
ATOM     85  F   UNL A   1      41.349  35.711  35.740  1.00  0.00    -0.206 F 
ATOM     86  C   UNL A   1      40.323  36.297  37.768  1.00  0.00     0.059 A 
ATOM     87  C   UNL A   1      38.781  34.749  38.832  1.00  0.00     0.059 A 
ATOM     88  F   UNL A   1      38.347  32.670  37.835  1.00  0.00    -0.206 F 
ATOM     89  C   UNL A   1      39.462  35.967  38.816  1.00  0.00     0.060 A 
BRANCH  89  90
ATOM     90  S   UNL A   1      39.221  37.159  40.151  1.00  0.00     0.124 S 
ATOM     91  O   UNL A   1      38.487  36.361  41.128  1.00  0.00    -0.237 OA
ATOM     92  O   UNL A   1      40.590  37.506  40.516  1.00  0.00    -0.237 OA
ATOM     93  O   UNL A   1      38.460  38.230  39.514  1.00  0.00    -0.744 OA
ENDBRANCH  89  90
ENDBRANCH  57  82
ENDBRANCH  31  32
ENDBRANCH  24  26
ENDBRANCH  23  24
ENDBRANCH  22  23
ENDBRANCH   1  22
TORSDOF 17
ENDMDL
MODEL 2
REMARK VINA RESULT:     -11.3      5.260     10.890
REMARK SMILES C[C@H](NC(=O)N1CC[C@H](C(=O)OCCOC(=O)c2ccc(-c3c4nc(c(-c5c(F)cc(S(=O)(=O)[O-])cc5F)c5ccc([nH]5)c(-c5c(F)cc(S(=O)(=O)[O-])cc5F)c5nc(c(-c6c(F)cc(S(=O)(=O)[O-])cc6F)c6ccc3[nH]6)C=C5)C=C4)cc2)[C@@H]1C)[C@@H]1CCCO1
REMARK SMILES IDX 13 1 12 2 10 3 11 4 9 5 6 6 7 7 84 8 8 9 85 10 4 11 3 12
REMARK SMILES IDX 5 14 2 15 1 16 86 17 87 18 90 19 88 20 89 21 14 22 15 23
REMARK SMILES IDX 16 24 17 25 18 26 19 27 83 28 20 29 82 30 21 31 22 32 23 33
REMARK SMILES IDX 76 34 24 35 81 36 75 37 77 38 25 39 80 40 74 41 73 42 26 44
REMARK SMILES IDX 60 45 39 46 59 47 40 48 43 49 58 50 78 51 41 52 42 53 57 55
REMARK SMILES IDX 79 56 44 57 27 58 28 59 37 60 29 61 30 62 36 63 38 64 31 65
REMARK SMILES IDX 32 66 33 67 34 68 35 69 61 70 62 71 71 72 63 73 64 74 70 75
REMARK SMILES IDX 72 76 65 77 66 78 67 79 68 80 69 81 45 82 46 83 55 84 47 85
REMARK SMILES IDX 48 86 54 87 56 88 49 89 50 90 51 91 52 92 53 93
REMARK H PARENT 3 13 77 43 43 54
REMARK Flexibility Score: inf
ROOT
ATOM      1  C   UNL A   1      33.251  29.376  25.315  1.00  0.00     0.274 C 
ENDROOT
BRANCH   1   2
ATOM      2  O   UNL A   1      32.271  28.668  24.525  1.00  0.00    -0.462 OA
BRANCH   2   3
ATOM      3  C   UNL A   1      31.892  27.456  25.003  1.00  0.00     0.311 C 
ATOM      4  O   UNL A   1      30.753  27.209  25.383  1.00  0.00    -0.252 OA
BRANCH   3   5
ATOM      5  C   UNL A   1      33.043  26.478  25.188  1.00  0.00     0.123 C 
ATOM      6  N   UNL A   1      33.533  24.475  23.966  1.00  0.00    -0.321 N 
ATOM      7  C   UNL A   1      32.407  24.181  24.801  1.00  0.00     0.122 C 
ATOM      8  C   UNL A   1      33.846  25.912  23.990  1.00  0.00     0.098 C 
ATOM      9  C   UNL A   1      32.546  25.205  25.910  1.00  0.00     0.039 C 
ATOM     10  C   UNL A   1      33.639  26.535  22.614  1.00  0.00     0.032 C 
BRANCH   6  11
ATOM     11  C   UNL A   1      34.040  23.513  23.146  1.00  0.00     0.317 C 
ATOM     12  N   UNL A   1      34.851  22.574  23.699  1.00  0.00    -0.333 N 
ATOM     13  H   UNL A   1      35.555  22.189  23.129  1.00  0.00     0.165 HD
ATOM     14  O   UNL A   1      33.735  23.416  21.961  1.00  0.00    -0.249 OA
BRANCH  12  15
ATOM     15  C   UNL A   1      34.758  22.092  25.074  1.00  0.00     0.109 C 
ATOM     16  C   UNL A   1      34.308  20.630  25.091  1.00  0.00     0.034 C 
BRANCH  15  17
ATOM     17  C   UNL A   1      36.049  22.374  25.853  1.00  0.00     0.140 C 
ATOM     18  C   UNL A   1      36.729  23.711  25.617  1.00  0.00     0.036 C 
ATOM     19  O   UNL A   1      37.041  21.366  25.560  1.00  0.00    -0.376 OA
ATOM     20  C   UNL A   1      38.131  23.403  26.085  1.00  0.00     0.031 C 
ATOM     21  C   UNL A   1      38.330  21.991  25.574  1.00  0.00     0.160 C 
ENDBRANCH  15  17
ENDBRANCH  12  15
ENDBRANCH   6  11
ENDBRANCH   3   5
ENDBRANCH   2   3
ENDBRANCH   1   2
BRANCH   1  22
ATOM     22  C   UNL A   1      32.666  29.797  26.663  1.00  0.00     0.275 C 
BRANCH  22  23
ATOM     23  O   UNL A   1      33.584  29.452  27.711  1.00  0.00    -0.458 OA
BRANCH  23  24
ATOM     24  C   UNL A   1      34.363  30.456  28.178  1.00  0.00     0.338 C 
ATOM     25  O   UNL A   1      33.995  31.594  28.439  1.00  0.00    -0.246 OA
BRANCH  24  26
ATOM     26  C   UNL A   1      35.757  29.985  28.350  1.00  0.00     0.060 A 
ATOM     27  C   UNL A   1      36.219  29.534  29.586  1.00  0.00     0.016 A 
ATOM     28  C   UNL A   1      36.651  30.077  27.282  1.00  0.00     0.016 A 
ATOM     29  C   UNL A   1      37.578  29.284  29.784  1.00  0.00     0.010 A 
ATOM     30  C   UNL A   1      37.991  29.706  27.453  1.00  0.00     0.010 A 
ATOM     31  C   UNL A   1      38.482  29.330  28.715  1.00  0.00    -0.014 A 
BRANCH  31  32
ATOM     32  C   UNL A   1      39.922  28.980  28.905  1.00  0.00     0.031 A 
ATOM     33  C   UNL A   1      40.904  30.013  29.401  1.00  0.00     0.074 A 
ATOM     34  C   UNL A   1      40.367  27.739  28.613  1.00  0.00     0.049 A 
ATOM     35  N   UNL A   1      42.213  29.990  29.369  1.00  0.00    -0.248 NA
ATOM     36  C   UNL A   1      40.342  31.240  29.990  1.00  0.00     0.031 C 
ATOM     37  C   UNL A   1      39.537  26.621  28.158  1.00  0.00     0.029 A 
ATOM     38  N   UNL A   1      41.634  27.208  28.650  1.00  0.00    -0.354 N 
ATOM     39  C   UNL A   1      42.628  31.225  29.856  1.00  0.00     0.074 A 
ATOM     40  C   UNL A   1      41.433  31.967  30.194  1.00  0.00     0.031 C 
ATOM     41  C   UNL A   1      40.302  25.531  28.004  1.00  0.00     0.029 A 
ATOM     42  C   UNL A   1      41.693  25.898  28.235  1.00  0.00     0.049 A 
ATOM     43  H   UNL A   1      42.424  27.716  28.944  1.00  0.00     0.167 HD
ATOM     44  C   UNL A   1      43.892  31.696  29.996  1.00  0.00     0.037 A 
ATOM     45  C   UNL A   1      42.744  25.088  28.000  1.00  0.00     0.037 A 
ATOM     46  C   UNL A   1      45.079  30.919  29.734  1.00  0.00     0.049 A 
ATOM     47  C   UNL A   1      44.134  25.627  28.162  1.00  0.00     0.074 A 
ATOM     48  C   UNL A   1      46.405  31.295  29.875  1.00  0.00     0.029 A 
ATOM     49  N   UNL A   1      45.085  29.601  29.301  1.00  0.00    -0.354 N 
ATOM     50  N   UNL A   1      44.511  26.825  28.534  1.00  0.00    -0.248 NA
ATOM     51  C   UNL A   1      45.240  24.715  27.840  1.00  0.00     0.031 C 
ATOM     52  C   UNL A   1      47.211  30.214  29.502  1.00  0.00     0.029 A 
ATOM     53  C   UNL A   1      46.389  29.153  29.162  1.00  0.00     0.049 A 
ATOM     54  H   UNL A   1      44.280  29.063  29.120  1.00  0.00     0.167 HD
ATOM     55  C   UNL A   1      45.898  26.818  28.480  1.00  0.00     0.074 A 
ATOM     56  C   UNL A   1      46.294  25.486  28.068  1.00  0.00     0.031 C 
ATOM     57  C   UNL A   1      46.765  27.829  28.736  1.00  0.00     0.037 A 
BRANCH  44  58
ATOM     58  C   UNL A   1      44.069  33.129  30.418  1.00  0.00     0.058 A 
ATOM     59  C   UNL A   1      44.104  34.184  29.495  1.00  0.00     0.135 A 
ATOM     60  C   UNL A   1      44.151  33.454  31.783  1.00  0.00     0.135 A 
ATOM     61  F   UNL A   1      44.040  33.932  28.179  1.00  0.00    -0.206 F 
ATOM     62  C   UNL A   1      44.232  35.508  29.907  1.00  0.00     0.059 A 
ATOM     63  C   UNL A   1      44.257  34.771  32.220  1.00  0.00     0.059 A 
ATOM     64  F   UNL A   1      44.119  32.484  32.711  1.00  0.00    -0.206 F 
ATOM     65  C   UNL A   1      44.309  35.793  31.272  1.00  0.00     0.060 A 
BRANCH  65  66
ATOM     66  S   UNL A   1      44.454  37.515  31.799  1.00  0.00     0.124 S 
ATOM     67  O   UNL A   1      43.708  37.500  33.054  1.00  0.00    -0.237 OA
ATOM     68  O   UNL A   1      45.897  37.688  31.922  1.00  0.00    -0.237 OA
ATOM     69  O   UNL A   1      43.829  38.257  30.707  1.00  0.00    -0.744 OA
ENDBRANCH  65  66
ENDBRANCH  44  58
BRANCH  45  70
ATOM     70  C   UNL A   1      42.505  23.703  27.517  1.00  0.00     0.058 A 
ATOM     71  C   UNL A   1      42.448  23.417  26.146  1.00  0.00     0.135 A 
ATOM     72  C   UNL A   1      42.397  22.631  28.416  1.00  0.00     0.135 A 
ATOM     73  F   UNL A   1      42.534  24.411  25.249  1.00  0.00    -0.206 F 
ATOM     74  C   UNL A   1      42.305  22.113  25.682  1.00  0.00     0.059 A 
ATOM     75  C   UNL A   1      42.279  21.317  27.976  1.00  0.00     0.059 A 
ATOM     76  F   UNL A   1      42.457  22.853  29.739  1.00  0.00    -0.206 F 
ATOM     77  C   UNL A   1      42.232  21.068  26.605  1.00  0.00     0.060 A 
BRANCH  77  78
ATOM     78  S   UNL A   1      42.153  19.368  25.999  1.00  0.00     0.124 S 
ATOM     79  O   UNL A   1      40.734  19.233  25.693  1.00  0.00    -0.237 OA
ATOM     80  O   UNL A   1      43.053  19.403  24.851  1.00  0.00    -0.237 OA
ATOM     81  O   UNL A   1      42.633  18.588  27.136  1.00  0.00    -0.744 OA
ENDBRANCH  77  78
ENDBRANCH  45  70
BRANCH  57  82
ATOM     82  C   UNL A   1      48.226  27.524  28.577  1.00  0.00     0.058 A 
ATOM     83  C   UNL A   1      48.983  27.015  29.642  1.00  0.00     0.135 A 
ATOM     84  C   UNL A   1      48.869  27.728  27.347  1.00  0.00     0.135 A 
ATOM     85  F   UNL A   1      48.413  26.813  30.841  1.00  0.00    -0.206 F 
ATOM     86  C   UNL A   1      50.338  26.737  29.500  1.00  0.00     0.059 A 
ATOM     87  C   UNL A   1      50.220  27.440  27.177  1.00  0.00     0.059 A 
ATOM     88  F   UNL A   1      48.186  28.210  26.297  1.00  0.00    -0.206 F 
ATOM     89  C   UNL A   1      50.949  26.958  28.264  1.00  0.00     0.060 A 
BRANCH  89  90
ATOM     90  S   UNL A   1      52.706  26.585  28.085  1.00  0.00     0.124 S 
ATOM     91  O   UNL A   1      52.674  25.459  27.156  1.00  0.00    -0.237 OA
ATOM     92  O   UNL A   1      53.242  27.832  27.549  1.00  0.00    -0.237 OA
ATOM     93  O   UNL A   1      53.125  26.266  29.446  1.00  0.00    -0.744 OA
ENDBRANCH  89  90
ENDBRANCH  57  82
ENDBRANCH  31  32
ENDBRANCH  24  26
ENDBRANCH  23  24
ENDBRANCH  22  23
ENDBRANCH   1  22
TORSDOF 17
ENDMDL
MODEL 3
REMARK VINA RESULT:     -11.3      6.628     12.062
REMARK SMILES C[C@H](NC(=O)N1CC[C@H](C(=O)OCCOC(=O)c2ccc(-c3c4nc(c(-c5c(F)cc(S(=O)(=O)[O-])cc5F)c5ccc([nH]5)c(-c5c(F)cc(S(=O)(=O)[O-])cc5F)c5nc(c(-c6c(F)cc(S(=O)(=O)[O-])cc6F)c6ccc3[nH]6)C=C5)C=C4)cc2)[C@@H]1C)[C@@H]1CCCO1
REMARK SMILES IDX 13 1 12 2 10 3 11 4 9 5 6 6 7 7 84 8 8 9 85 10 4 11 3 12
REMARK SMILES IDX 5 14 2 15 1 16 86 17 87 18 90 19 88 20 89 21 14 22 15 23
REMARK SMILES IDX 16 24 17 25 18 26 19 27 83 28 20 29 82 30 21 31 22 32 23 33
REMARK SMILES IDX 76 34 24 35 81 36 75 37 77 38 25 39 80 40 74 41 73 42 26 44
REMARK SMILES IDX 60 45 39 46 59 47 40 48 43 49 58 50 78 51 41 52 42 53 57 55
REMARK SMILES IDX 79 56 44 57 27 58 28 59 37 60 29 61 30 62 36 63 38 64 31 65
REMARK SMILES IDX 32 66 33 67 34 68 35 69 61 70 62 71 71 72 63 73 64 74 70 75
REMARK SMILES IDX 72 76 65 77 66 78 67 79 68 80 69 81 45 82 46 83 55 84 47 85
REMARK SMILES IDX 48 86 54 87 56 88 49 89 50 90 51 91 52 92 53 93
REMARK H PARENT 3 13 77 43 43 54
REMARK Flexibility Score: inf
ROOT
ATOM      1  C   UNL A   1      33.035  29.493  26.783  1.00  0.00     0.274 C 
ENDROOT
BRANCH   1   2
ATOM      2  O   UNL A   1      32.151  30.080  25.804  1.00  0.00    -0.462 OA
BRANCH   2   3
ATOM      3  C   UNL A   1      31.626  29.221  24.894  1.00  0.00     0.311 C 
ATOM      4  O   UNL A   1      30.630  29.475  24.225  1.00  0.00    -0.252 OA
BRANCH   3   5
ATOM      5  C   UNL A   1      32.278  27.847  24.895  1.00  0.00     0.123 C 
ATOM      6  N   UNL A   1      32.750  26.398  23.044  1.00  0.00    -0.321 N 
ATOM      7  C   UNL A   1      31.334  26.347  23.254  1.00  0.00     0.122 C 
ATOM      8  C   UNL A   1      33.368  27.448  23.867  1.00  0.00     0.098 C 
ATOM      9  C   UNL A   1      31.204  26.750  24.709  1.00  0.00     0.039 C 
ATOM     10  C   UNL A   1      33.976  28.537  22.991  1.00  0.00     0.032 C 
BRANCH   6  11
ATOM     11  C   UNL A   1      33.315  25.667  22.044  1.00  0.00     0.317 C 
ATOM     12  N   UNL A   1      34.028  24.564  22.392  1.00  0.00    -0.333 N 
ATOM     13  H   UNL A   1      34.779  24.306  21.810  1.00  0.00     0.165 HD
ATOM     14  O   UNL A   1      33.142  25.915  20.854  1.00  0.00    -0.249 OA
BRANCH  12  15
ATOM     15  C   UNL A   1      33.766  23.732  23.562  1.00  0.00     0.109 C 
ATOM     16  C   UNL A   1      32.902  22.531  23.174  1.00  0.00     0.034 C 
BRANCH  15  17
ATOM     17  C   UNL A   1      35.065  23.375  24.296  1.00  0.00     0.140 C 
ATOM     18  C   UNL A   1      36.233  22.896  23.453  1.00  0.00     0.036 C 
ATOM     19  O   UNL A   1      34.822  22.335  25.267  1.00  0.00    -0.376 OA
ATOM     20  C   UNL A   1      37.055  22.172  24.492  1.00  0.00     0.031 C 
ATOM     21  C   UNL A   1      35.984  21.499  25.326  1.00  0.00     0.160 C 
ENDBRANCH  15  17
ENDBRANCH  12  15
ENDBRANCH   6  11
ENDBRANCH   3   5
ENDBRANCH   2   3
ENDBRANCH   1   2
BRANCH   1  22
ATOM     22  C   UNL A   1      34.047  30.520  27.290  1.00  0.00     0.275 C 
BRANCH  22  23
ATOM     23  O   UNL A   1      35.204  29.839  27.799  1.00  0.00    -0.458 OA
BRANCH  23  24
ATOM     24  C   UNL A   1      35.912  30.491  28.751  1.00  0.00     0.338 C 
ATOM     25  O   UNL A   1      35.455  31.248  29.599  1.00  0.00    -0.246 OA
BRANCH  24  26
ATOM     26  C   UNL A   1      37.350  30.155  28.642  1.00  0.00     0.060 A 
ATOM     27  C   UNL A   1      37.955  29.969  27.399  1.00  0.00     0.016 A 
ATOM     28  C   UNL A   1      38.095  29.933  29.801  1.00  0.00     0.016 A 
ATOM     29  C   UNL A   1      39.252  29.460  27.313  1.00  0.00     0.010 A 
ATOM     30  C   UNL A   1      39.436  29.541  29.710  1.00  0.00     0.010 A 
ATOM     31  C   UNL A   1      40.028  29.271  28.464  1.00  0.00    -0.014 A 
BRANCH  31  32
ATOM     32  C   UNL A   1      41.446  28.807  28.372  1.00  0.00     0.031 A 
ATOM     33  C   UNL A   1      42.585  29.782  28.540  1.00  0.00     0.074 A 
ATOM     34  C   UNL A   1      41.724  27.512  28.113  1.00  0.00     0.049 A 
ATOM     35  N   UNL A   1      43.849  29.637  28.228  1.00  0.00    -0.248 NA
ATOM     36  C   UNL A   1      42.259  31.098  29.113  1.00  0.00     0.031 C 
ATOM     37  C   UNL A   1      40.735  26.441  27.960  1.00  0.00     0.029 A 
ATOM     38  N   UNL A   1      42.926  26.871  27.926  1.00  0.00    -0.354 N 
ATOM     39  C   UNL A   1      44.450  30.864  28.489  1.00  0.00     0.074 A 
ATOM     40  C   UNL A   1      43.417  31.737  29.004  1.00  0.00     0.031 C 
ATOM     41  C   UNL A   1      41.366  25.278  27.752  1.00  0.00     0.029 A 
ATOM     42  C   UNL A   1      42.796  25.532  27.639  1.00  0.00     0.049 A 
ATOM     43  H   UNL A   1      43.796  27.327  27.992  1.00  0.00     0.167 HD
ATOM     44  C   UNL A   1      45.744  31.226  28.306  1.00  0.00     0.037 A 
ATOM     45  C   UNL A   1      43.707  24.614  27.262  1.00  0.00     0.037 A 
ATOM     46  C   UNL A   1      46.783  30.326  27.870  1.00  0.00     0.049 A 
ATOM     47  C   UNL A   1      45.133  25.034  27.066  1.00  0.00     0.074 A 
ATOM     48  C   UNL A   1      48.130  30.589  27.683  1.00  0.00     0.029 A 
ATOM     49  N   UNL A   1      46.597  28.982  27.577  1.00  0.00    -0.354 N 
ATOM     50  N   UNL A   1      45.668  26.219  27.228  1.00  0.00    -0.248 NA
ATOM     51  C   UNL A   1      46.070  24.002  26.603  1.00  0.00     0.031 C 
ATOM     52  C   UNL A   1      48.753  29.413  27.252  1.00  0.00     0.029 A 
ATOM     53  C   UNL A   1      47.801  28.407  27.203  1.00  0.00     0.049 A 
ATOM     54  H   UNL A   1      45.736  28.508  27.628  1.00  0.00     0.167 HD
ATOM     55  C   UNL A   1      47.004  26.081  26.876  1.00  0.00     0.074 A 
ATOM     56  C   UNL A   1      47.202  24.689  26.520  1.00  0.00     0.031 C 
ATOM     57  C   UNL A   1      47.977  27.025  26.838  1.00  0.00     0.037 A 
BRANCH  44  58
ATOM     58  C   UNL A   1      46.113  32.667  28.537  1.00  0.00     0.058 A 
ATOM     59  C   UNL A   1      46.043  33.631  27.521  1.00  0.00     0.135 A 
ATOM     60  C   UNL A   1      46.493  33.096  29.820  1.00  0.00     0.135 A 
ATOM     61  F   UNL A   1      45.695  33.275  26.275  1.00  0.00    -0.206 F 
ATOM     62  C   UNL A   1      46.354  34.967  27.763  1.00  0.00     0.059 A 
ATOM     63  C   UNL A   1      46.787  34.430  30.091  1.00  0.00     0.059 A 
ATOM     64  F   UNL A   1      46.573  32.216  30.831  1.00  0.00    -0.206 F 
ATOM     65  C   UNL A   1      46.726  35.357  29.052  1.00  0.00     0.060 A 
BRANCH  65  66
ATOM     66  S   UNL A   1      47.107  37.096  29.362  1.00  0.00     0.124 S 
ATOM     67  O   UNL A   1      46.004  37.763  28.679  1.00  0.00    -0.237 OA
ATOM     68  O   UNL A   1      47.086  37.170  30.819  1.00  0.00    -0.237 OA
ATOM     69  O   UNL A   1      48.421  37.269  28.749  1.00  0.00    -0.744 OA
ENDBRANCH  65  66
ENDBRANCH  44  58
BRANCH  45  70
ATOM     70  C   UNL A   1      43.267  23.222  26.981  1.00  0.00     0.058 A 
ATOM     71  C   UNL A   1      43.181  22.746  25.665  1.00  0.00     0.135 A 
ATOM     72  C   UNL A   1      42.991  22.324  28.024  1.00  0.00     0.135 A 
ATOM     73  F   UNL A   1      43.423  23.570  24.635  1.00  0.00    -0.206 F 
ATOM     74  C   UNL A   1      42.848  21.422  25.394  1.00  0.00     0.059 A 
ATOM     75  C   UNL A   1      42.681  20.991  27.778  1.00  0.00     0.059 A 
ATOM     76  F   UNL A   1      43.071  22.731  29.300  1.00  0.00    -0.206 F 
ATOM     77  C   UNL A   1      42.610  20.549  26.457  1.00  0.00     0.060 A 
BRANCH  77  78
ATOM     78  S   UNL A   1      42.282  18.808  26.105  1.00  0.00     0.124 S 
ATOM     79  O   UNL A   1      42.615  18.185  27.380  1.00  0.00    -0.237 OA
ATOM     80  O   UNL A   1      40.867  18.822  25.751  1.00  0.00    -0.237 OA
ATOM     81  O   UNL A   1      43.192  18.517  25.001  1.00  0.00    -0.744 OA
ENDBRANCH  77  78
ENDBRANCH  45  70
BRANCH  57  82
ATOM     82  C   UNL A   1      49.339  26.576  26.397  1.00  0.00     0.058 A 
ATOM     83  C   UNL A   1      50.226  25.956  27.289  1.00  0.00     0.135 A 
ATOM     84  C   UNL A   1      49.755  26.753  25.069  1.00  0.00     0.135 A 
ATOM     85  F   UNL A   1      49.875  25.774  28.573  1.00  0.00    -0.206 F 
ATOM     86  C   UNL A   1      51.491  25.544  26.886  1.00  0.00     0.059 A 
ATOM     87  C   UNL A   1      51.010  26.332  24.638  1.00  0.00     0.059 A 
ATOM     88  F   UNL A   1      48.941  27.338  24.177  1.00  0.00    -0.206 F 
ATOM     89  C   UNL A   1      51.876  25.742  25.559  1.00  0.00     0.060 A 
BRANCH  89  90
ATOM     90  S   UNL A   1      53.516  25.195  25.039  1.00  0.00     0.124 S 
ATOM     91  O   UNL A   1      53.447  23.762  25.309  1.00  0.00    -0.237 OA
ATOM     92  O   UNL A   1      53.545  25.574  23.631  1.00  0.00    -0.237 OA
ATOM     93  O   UNL A   1      54.415  25.955  25.903  1.00  0.00    -0.744 OA
ENDBRANCH  89  90
ENDBRANCH  57  82
ENDBRANCH  31  32
ENDBRANCH  24  26
ENDBRANCH  23  24
ENDBRANCH  22  23
ENDBRANCH   1  22
TORSDOF 17
ENDMDL
