MODEL 1
REMARK VINA RESULT:     -12.7      0.000      0.000
REMARK SMILES NS(=O)(=O)c1ccc(-n2nc(C(F)(F)F)cc2-c2ccc(C(=O)OCCOC(=O)c3ccc(-c4c5nc(c(-c6c(F)cc(S(=O)(=O)[O-])cc6F)c6ccc([nH]6)c(-c6c(F)cc(S(=O)(=O)[O-])cc6F)c6nc(c(-c7c(F)cc(S(=O)(=O)[O-])cc7F)c7ccc4[nH]7)C=C6)C=C5)cc3)cc2)cc1
REMARK SMILES IDX 25 1 24 2 22 3 23 4 21 5 18 6 19 7 97 8 20 9 96 10 17 11
REMARK SMILES IDX 9 12 10 13 11 14 16 15 8 16 5 17 6 18 99 19 7 20 98 21 2 22
REMARK SMILES IDX 3 23 4 24 1 25 12 28 13 29 14 30 15 31 26 32 27 33 28 34
REMARK SMILES IDX 29 35 30 36 31 37 95 38 32 39 94 40 33 41 34 42 35 43 88 44
REMARK SMILES IDX 36 45 93 46 87 47 89 48 37 49 92 50 86 51 85 52 38 54 72 55
REMARK SMILES IDX 51 56 71 57 52 58 55 59 70 60 90 61 53 62 54 63 69 65 91 66
REMARK SMILES IDX 56 67 39 68 40 69 49 70 41 71 42 72 48 73 50 74 43 75 44 76
REMARK SMILES IDX 45 77 46 78 47 79 73 80 74 81 83 82 75 83 76 84 82 85 84 86
REMARK SMILES IDX 77 87 78 88 79 89 80 90 81 91 57 92 58 93 67 94 59 95 60 96
REMARK SMILES IDX 66 97 68 98 61 99 62 100 63 101 64 102 65 103
REMARK H PARENT 1 26 1 27 89 53 55 64
REMARK Flexibility Score: inf
ROOT
ATOM      1  C   UNL A   1      40.492  22.390  27.222  1.00  0.00     0.275 C 
ENDROOT
BRANCH   1   2
ATOM      2  O   UNL A   1      39.468  23.052  26.463  1.00  0.00    -0.458 OA
BRANCH   2   3
ATOM      3  C   UNL A   1      38.637  22.230  25.770  1.00  0.00     0.338 C 
ATOM      4  O   UNL A   1      38.800  21.035  25.573  1.00  0.00    -0.246 OA
BRANCH   3   5
ATOM      5  C   UNL A   1      37.424  22.961  25.330  1.00  0.00     0.060 A 
ATOM      6  C   UNL A   1      35.012  24.208  24.629  1.00  0.00     0.000 A 
ATOM      7  C   UNL A   1      35.471  24.251  25.953  1.00  0.00     0.011 A 
ATOM      8  C   UNL A   1      35.801  23.592  23.649  1.00  0.00     0.011 A 
ATOM      9  C   UNL A   1      36.671  23.630  26.302  1.00  0.00     0.016 A 
ATOM     10  C   UNL A   1      37.008  22.979  23.995  1.00  0.00     0.016 A 
BRANCH   6  11
ATOM     11  C   UNL A   1      33.669  24.685  24.299  1.00  0.00     0.075 A 
ATOM     12  N   UNL A   1      32.626  23.925  23.786  1.00  0.00    -0.233 N 
ATOM     13  N   UNL A   1      31.649  24.707  23.251  1.00  0.00    -0.163 NA
ATOM     14  C   UNL A   1      31.976  25.965  23.603  1.00  0.00     0.167 A 
ATOM     15  C   UNL A   1      33.238  25.995  24.239  1.00  0.00     0.064 A 
BRANCH  12  16
ATOM     16  C   UNL A   1      32.507  22.512  23.763  1.00  0.00     0.065 A 
ATOM     17  C   UNL A   1      32.427  19.735  23.673  1.00  0.00     0.082 A 
ATOM     18  C   UNL A   1      32.680  20.379  24.888  1.00  0.00     0.024 A 
ATOM     19  C   UNL A   1      32.197  20.470  22.506  1.00  0.00     0.024 A 
ATOM     20  C   UNL A   1      32.731  21.771  24.932  1.00  0.00     0.030 A 
ATOM     21  C   UNL A   1      32.202  21.866  22.557  1.00  0.00     0.030 A 
BRANCH  17  22
ATOM     22  S   UNL A   1      32.515  17.964  23.617  1.00  0.00     0.238 S 
ATOM     23  O   UNL A   1      31.652  17.436  24.638  1.00  0.00    -0.207 OA
ATOM     24  O   UNL A   1      33.908  17.583  23.488  1.00  0.00    -0.207 OA
BRANCH  22  25
ATOM     25  N   UNL A   1      31.796  17.628  22.138  1.00  0.00    -0.225 NA
ATOM     26  H   UNL A   1      32.328  18.074  21.392  1.00  0.00     0.137 HD
ATOM     27  H   UNL A   1      30.840  17.985  22.136  1.00  0.00     0.137 HD
ENDBRANCH  22  25
ENDBRANCH  17  22
ENDBRANCH  12  16
BRANCH  14  28
ATOM     28  C   UNL A   1      31.114  27.161  23.306  1.00  0.00     0.435 C 
ATOM     29  F   UNL A   1      29.810  26.846  23.091  1.00  0.00    -0.164 F 
ATOM     30  F   UNL A   1      31.144  28.077  24.312  1.00  0.00    -0.164 F 
ATOM     31  F   UNL A   1      31.537  27.818  22.189  1.00  0.00    -0.164 F 
ENDBRANCH  14  28
ENDBRANCH   6  11
ENDBRANCH   3   5
ENDBRANCH   2   3
ENDBRANCH   1   2
BRANCH   1  32
ATOM     32  C   UNL A   1      41.527  21.752  26.306  1.00  0.00     0.275 C 
BRANCH  32  33
ATOM     33  O   UNL A   1      42.779  22.429  26.388  1.00  0.00    -0.458 OA
BRANCH  33  34
ATOM     34  C   UNL A   1      43.044  23.261  25.355  1.00  0.00     0.338 C 
ATOM     35  O   UNL A   1      43.373  22.952  24.222  1.00  0.00    -0.246 OA
BRANCH  34  36
ATOM     36  C   UNL A   1      43.141  24.628  25.865  1.00  0.00     0.060 A 
ATOM     37  C   UNL A   1      44.036  24.867  26.912  1.00  0.00     0.016 A 
ATOM     38  C   UNL A   1      42.125  25.535  25.530  1.00  0.00     0.016 A 
ATOM     39  C   UNL A   1      43.791  25.935  27.748  1.00  0.00     0.010 A 
ATOM     40  C   UNL A   1      41.872  26.584  26.374  1.00  0.00     0.010 A 
ATOM     41  C   UNL A   1      42.659  26.724  27.513  1.00  0.00    -0.014 A 
BRANCH  41  42
ATOM     42  C   UNL A   1      42.386  27.842  28.388  1.00  0.00     0.031 A 
ATOM     43  C   UNL A   1      43.452  28.868  28.304  1.00  0.00     0.074 A 
ATOM     44  C   UNL A   1      41.212  27.969  29.038  1.00  0.00     0.049 A 
ATOM     45  N   UNL A   1      44.284  29.204  29.229  1.00  0.00    -0.248 NA
ATOM     46  C   UNL A   1      43.789  29.414  26.975  1.00  0.00     0.031 C 
ATOM     47  C   UNL A   1      40.037  27.096  28.966  1.00  0.00     0.029 A 
ATOM     48  N   UNL A   1      40.778  28.992  29.825  1.00  0.00    -0.354 N 
ATOM     49  C   UNL A   1      45.068  30.205  28.670  1.00  0.00     0.074 A 
ATOM     50  C   UNL A   1      44.892  30.111  27.247  1.00  0.00     0.031 C 
ATOM     51  C   UNL A   1      38.964  27.745  29.476  1.00  0.00     0.029 A 
ATOM     52  C   UNL A   1      39.393  29.023  30.012  1.00  0.00     0.049 A 
ATOM     53  H   UNL A   1      41.387  29.653  30.226  1.00  0.00     0.167 HD
ATOM     54  C   UNL A   1      45.536  31.223  29.442  1.00  0.00     0.037 A 
ATOM     55  C   UNL A   1      38.685  30.087  30.480  1.00  0.00     0.037 A 
ATOM     56  C   UNL A   1      45.512  30.858  30.838  1.00  0.00     0.049 A 
ATOM     57  C   UNL A   1      39.658  30.942  31.227  1.00  0.00     0.074 A 
ATOM     58  C   UNL A   1      46.059  29.814  31.564  1.00  0.00     0.029 A 
ATOM     59  N   UNL A   1      44.496  31.365  31.615  1.00  0.00    -0.354 N 
ATOM     60  N   UNL A   1      40.250  30.553  32.326  1.00  0.00    -0.248 NA
ATOM     61  C   UNL A   1      40.362  31.969  30.469  1.00  0.00     0.031 C 
ATOM     62  C   UNL A   1      45.039  29.434  32.485  1.00  0.00     0.029 A 
ATOM     63  C   UNL A   1      43.975  30.326  32.345  1.00  0.00     0.049 A 
ATOM     64  H   UNL A   1      44.197  32.303  31.641  1.00  0.00     0.167 HD
ATOM     65  C   UNL A   1      41.574  30.942  32.171  1.00  0.00     0.074 A 
ATOM     66  C   UNL A   1      41.572  31.852  31.025  1.00  0.00     0.031 C 
ATOM     67  C   UNL A   1      42.595  30.264  32.775  1.00  0.00     0.037 A 
BRANCH  54  68
ATOM     68  C   UNL A   1      45.597  32.657  28.974  1.00  0.00     0.058 A 
ATOM     69  C   UNL A   1      46.806  33.365  29.113  1.00  0.00     0.135 A 
ATOM     70  C   UNL A   1      44.464  33.446  28.667  1.00  0.00     0.135 A 
ATOM     71  F   UNL A   1      47.945  32.720  29.415  1.00  0.00    -0.206 F 
ATOM     72  C   UNL A   1      46.870  34.756  29.031  1.00  0.00     0.059 A 
ATOM     73  C   UNL A   1      44.515  34.825  28.526  1.00  0.00     0.059 A 
ATOM     74  F   UNL A   1      43.228  32.940  28.581  1.00  0.00    -0.206 F 
ATOM     75  C   UNL A   1      45.714  35.477  28.748  1.00  0.00     0.060 A 
BRANCH  75  76
ATOM     76  S   UNL A   1      45.776  37.274  28.721  1.00  0.00     0.124 S 
ATOM     77  O   UNL A   1      44.712  37.617  29.656  1.00  0.00    -0.237 OA
ATOM     78  O   UNL A   1      47.138  37.532  29.175  1.00  0.00    -0.237 OA
ATOM     79  O   UNL A   1      45.517  37.597  27.321  1.00  0.00    -0.744 OA
ENDBRANCH  75  76
ENDBRANCH  54  68
BRANCH  55  80
ATOM     80  C   UNL A   1      37.383  30.611  29.961  1.00  0.00     0.058 A 
ATOM     81  C   UNL A   1      36.426  31.191  30.821  1.00  0.00     0.135 A 
ATOM     82  C   UNL A   1      37.162  30.816  28.584  1.00  0.00     0.135 A 
ATOM     83  F   UNL A   1      36.548  31.059  32.150  1.00  0.00    -0.206 F 
ATOM     84  C   UNL A   1      35.364  31.978  30.347  1.00  0.00     0.059 A 
ATOM     85  C   UNL A   1      36.109  31.585  28.089  1.00  0.00     0.059 A 
ATOM     86  F   UNL A   1      38.019  30.353  27.663  1.00  0.00    -0.206 F 
ATOM     87  C   UNL A   1      35.230  32.192  28.976  1.00  0.00     0.060 A 
BRANCH  87  88
ATOM     88  S   UNL A   1      34.001  33.368  28.356  1.00  0.00     0.124 S 
ATOM     89  O   UNL A   1      33.500  33.963  29.590  1.00  0.00    -0.237 OA
ATOM     90  O   UNL A   1      34.806  34.240  27.508  1.00  0.00    -0.237 OA
ATOM     91  O   UNL A   1      33.050  32.518  27.643  1.00  0.00    -0.744 OA
ENDBRANCH  87  88
ENDBRANCH  55  80
BRANCH  67  92
ATOM     92  C   UNL A   1      42.266  29.228  33.820  1.00  0.00     0.058 A 
ATOM     93  C   UNL A   1      41.856  27.909  33.547  1.00  0.00     0.135 A 
ATOM     94  C   UNL A   1      42.556  29.540  35.156  1.00  0.00     0.135 A 
ATOM     95  F   UNL A   1      41.659  27.495  32.288  1.00  0.00    -0.206 F 
ATOM     96  C   UNL A   1      41.708  26.959  34.562  1.00  0.00     0.059 A 
ATOM     97  C   UNL A   1      42.447  28.602  36.178  1.00  0.00     0.059 A 
ATOM     98  F   UNL A   1      43.014  30.762  35.477  1.00  0.00    -0.206 F 
ATOM     99  C   UNL A   1      42.009  27.316  35.876  1.00  0.00     0.060 A 
BRANCH  99 100
ATOM    100  S   UNL A   1      41.886  26.075  37.184  1.00  0.00     0.124 S 
ATOM    101  O   UNL A   1      42.144  24.837  36.458  1.00  0.00    -0.237 OA
ATOM    102  O   UNL A   1      42.928  26.494  38.117  1.00  0.00    -0.237 OA
ATOM    103  O   UNL A   1      40.521  26.235  37.679  1.00  0.00    -0.744 OA
ENDBRANCH  99 100
ENDBRANCH  67  92
ENDBRANCH  41  42
ENDBRANCH  34  36
ENDBRANCH  33  34
ENDBRANCH  32  33
ENDBRANCH   1  32
TORSDOF 19
ENDMDL
MODEL 2
REMARK VINA RESULT:     -12.6      3.126      9.292
REMARK SMILES NS(=O)(=O)c1ccc(-n2nc(C(F)(F)F)cc2-c2ccc(C(=O)OCCOC(=O)c3ccc(-c4c5nc(c(-c6c(F)cc(S(=O)(=O)[O-])cc6F)c6ccc([nH]6)c(-c6c(F)cc(S(=O)(=O)[O-])cc6F)c6nc(c(-c7c(F)cc(S(=O)(=O)[O-])cc7F)c7ccc4[nH]7)C=C6)C=C5)cc3)cc2)cc1
REMARK SMILES IDX 25 1 24 2 22 3 23 4 21 5 18 6 19 7 97 8 20 9 96 10 17 11
REMARK SMILES IDX 9 12 10 13 11 14 16 15 8 16 5 17 6 18 99 19 7 20 98 21 2 22
REMARK SMILES IDX 3 23 4 24 1 25 12 28 13 29 14 30 15 31 26 32 27 33 28 34
REMARK SMILES IDX 29 35 30 36 31 37 95 38 32 39 94 40 33 41 34 42 35 43 88 44
REMARK SMILES IDX 36 45 93 46 87 47 89 48 37 49 92 50 86 51 85 52 38 54 72 55
REMARK SMILES IDX 51 56 71 57 52 58 55 59 70 60 90 61 53 62 54 63 69 65 91 66
REMARK SMILES IDX 56 67 39 68 40 69 49 70 41 71 42 72 48 73 50 74 43 75 44 76
REMARK SMILES IDX 45 77 46 78 47 79 73 80 74 81 83 82 75 83 76 84 82 85 84 86
REMARK SMILES IDX 77 87 78 88 79 89 80 90 81 91 57 92 58 93 67 94 59 95 60 96
REMARK SMILES IDX 66 97 68 98 61 99 62 100 63 101 64 102 65 103
REMARK H PARENT 1 26 1 27 89 53 55 64
REMARK Flexibility Score: inf
ROOT
ATOM      1  C   UNL A   1      35.301  32.882  28.394  1.00  0.00     0.275 C 
ENDROOT
BRANCH   1   2
ATOM      2  O   UNL A   1      34.678  31.586  28.388  1.00  0.00    -0.458 OA
BRANCH   2   3
ATOM      3  C   UNL A   1      33.512  31.508  27.695  1.00  0.00     0.338 C 
ATOM      4  O   UNL A   1      32.764  32.436  27.430  1.00  0.00    -0.246 OA
BRANCH   3   5
ATOM      5  C   UNL A   1      33.283  30.124  27.211  1.00  0.00     0.060 A 
ATOM      6  C   UNL A   1      32.905  27.580  26.094  1.00  0.00     0.000 A 
ATOM      7  C   UNL A   1      34.176  28.172  26.091  1.00  0.00     0.011 A 
ATOM      8  C   UNL A   1      31.841  28.244  26.718  1.00  0.00     0.011 A 
ATOM      9  C   UNL A   1      34.364  29.438  26.646  1.00  0.00     0.016 A 
ATOM     10  C   UNL A   1      32.030  29.508  27.283  1.00  0.00     0.016 A 
BRANCH   6  11
ATOM     11  C   UNL A   1      32.664  26.347  25.345  1.00  0.00     0.075 A 
ATOM     12  N   UNL A   1      31.652  26.127  24.420  1.00  0.00    -0.233 N 
ATOM     13  N   UNL A   1      31.471  24.800  24.177  1.00  0.00    -0.163 NA
ATOM     14  C   UNL A   1      32.501  24.189  24.793  1.00  0.00     0.167 A 
ATOM     15  C   UNL A   1      33.254  25.116  25.548  1.00  0.00     0.064 A 
BRANCH  12  16
ATOM     16  C   UNL A   1      30.843  27.092  23.767  1.00  0.00     0.065 A 
ATOM     17  C   UNL A   1      29.259  29.070  22.623  1.00  0.00     0.082 A 
ATOM     18  C   UNL A   1      30.646  29.114  22.454  1.00  0.00     0.024 A 
ATOM     19  C   UNL A   1      28.656  28.035  23.346  1.00  0.00     0.024 A 
ATOM     20  C   UNL A   1      31.442  28.129  23.037  1.00  0.00     0.030 A 
ATOM     21  C   UNL A   1      29.449  27.022  23.892  1.00  0.00     0.030 A 
BRANCH  17  22
ATOM     22  S   UNL A   1      28.285  30.414  21.999  1.00  0.00     0.238 S 
ATOM     23  O   UNL A   1      27.263  30.717  22.964  1.00  0.00    -0.207 OA
ATOM     24  O   UNL A   1      27.998  30.157  20.602  1.00  0.00    -0.207 OA
BRANCH  22  25
ATOM     25  N   UNL A   1      29.385  31.682  22.029  1.00  0.00    -0.225 NA
ATOM     26  H   UNL A   1      30.330  31.310  22.119  1.00  0.00     0.137 HD
ATOM     27  H   UNL A   1      29.181  32.290  22.822  1.00  0.00     0.137 HD
ENDBRANCH  22  25
ENDBRANCH  17  22
ENDBRANCH  12  16
BRANCH  14  28
ATOM     28  C   UNL A   1      32.760  22.710  24.705  1.00  0.00     0.435 C 
ATOM     29  F   UNL A   1      33.549  22.362  23.656  1.00  0.00    -0.164 F 
ATOM     30  F   UNL A   1      33.352  22.226  25.830  1.00  0.00    -0.164 F 
ATOM     31  F   UNL A   1      31.601  22.007  24.560  1.00  0.00    -0.164 F 
ENDBRANCH  14  28
ENDBRANCH   6  11
ENDBRANCH   3   5
ENDBRANCH   2   3
ENDBRANCH   1   2
BRANCH   1  32
ATOM     32  C   UNL A   1      34.848  33.700  29.594  1.00  0.00     0.275 C 
BRANCH  32  33
ATOM     33  O   UNL A   1      34.420  32.860  30.663  1.00  0.00    -0.458 OA
BRANCH  33  34
ATOM     34  C   UNL A   1      34.860  33.229  31.888  1.00  0.00     0.338 C 
ATOM     35  O   UNL A   1      34.473  34.169  32.561  1.00  0.00    -0.246 OA
BRANCH  34  36
ATOM     36  C   UNL A   1      36.082  32.483  32.193  1.00  0.00     0.060 A 
ATOM     37  C   UNL A   1      37.272  33.207  32.305  1.00  0.00     0.016 A 
ATOM     38  C   UNL A   1      36.067  31.091  32.026  1.00  0.00     0.016 A 
ATOM     39  C   UNL A   1      38.459  32.552  32.059  1.00  0.00     0.010 A 
ATOM     40  C   UNL A   1      37.247  30.446  31.763  1.00  0.00     0.010 A 
ATOM     41  C   UNL A   1      38.416  31.199  31.705  1.00  0.00    -0.014 A 
BRANCH  41  42
ATOM     42  C   UNL A   1      39.655  30.501  31.435  1.00  0.00     0.031 A 
ATOM     43  C   UNL A   1      40.417  30.253  32.681  1.00  0.00     0.074 A 
ATOM     44  C   UNL A   1      39.943  30.005  30.216  1.00  0.00     0.049 A 
ATOM     45  N   UNL A   1      41.552  30.765  33.015  1.00  0.00    -0.248 NA
ATOM     46  C   UNL A   1      39.738  29.545  33.784  1.00  0.00     0.031 C 
ATOM     47  C   UNL A   1      39.111  30.023  29.010  1.00  0.00     0.029 A 
ATOM     48  N   UNL A   1      41.017  29.264  29.828  1.00  0.00    -0.354 N 
ATOM     49  C   UNL A   1      41.850  30.217  34.256  1.00  0.00     0.074 A 
ATOM     50  C   UNL A   1      40.617  29.694  34.776  1.00  0.00     0.031 C 
ATOM     51  C   UNL A   1      39.597  29.131  28.116  1.00  0.00     0.029 A 
ATOM     52  C   UNL A   1      40.830  28.566  28.631  1.00  0.00     0.049 A 
ATOM     53  H   UNL A   1      41.853  29.223  30.346  1.00  0.00     0.167 HD
ATOM     54  C   UNL A   1      43.140  29.957  34.600  1.00  0.00     0.037 A 
ATOM     55  C   UNL A   1      41.602  27.535  28.192  1.00  0.00     0.037 A 
ATOM     56  C   UNL A   1      44.051  30.716  33.778  1.00  0.00     0.049 A 
ATOM     57  C   UNL A   1      42.912  27.661  28.900  1.00  0.00     0.074 A 
ATOM     58  C   UNL A   1      44.203  32.066  33.513  1.00  0.00     0.029 A 
ATOM     59  N   UNL A   1      44.688  30.057  32.752  1.00  0.00    -0.354 N 
ATOM     60  N   UNL A   1      43.731  28.663  28.711  1.00  0.00    -0.248 NA
ATOM     61  C   UNL A   1      43.045  26.981  30.183  1.00  0.00     0.031 C 
ATOM     62  C   UNL A   1      44.473  32.138  32.115  1.00  0.00     0.029 A 
ATOM     63  C   UNL A   1      44.573  30.834  31.626  1.00  0.00     0.049 A 
ATOM     64  H   UNL A   1      45.143  29.186  32.815  1.00  0.00     0.167 HD
ATOM     65  C   UNL A   1      44.156  29.017  29.985  1.00  0.00     0.074 A 
ATOM     66  C   UNL A   1      43.735  27.912  30.848  1.00  0.00     0.031 C 
ATOM     67  C   UNL A   1      44.531  30.296  30.284  1.00  0.00     0.037 A 
BRANCH  54  68
ATOM     68  C   UNL A   1      43.562  28.723  35.361  1.00  0.00     0.058 A 
ATOM     69  C   UNL A   1      44.443  28.865  36.450  1.00  0.00     0.135 A 
ATOM     70  C   UNL A   1      43.374  27.398  34.901  1.00  0.00     0.135 A 
ATOM     71  F   UNL A   1      44.705  30.078  36.963  1.00  0.00    -0.206 F 
ATOM     72  C   UNL A   1      45.143  27.785  36.989  1.00  0.00     0.059 A 
ATOM     73  C   UNL A   1      44.017  26.303  35.458  1.00  0.00     0.059 A 
ATOM     74  F   UNL A   1      42.634  27.100  33.827  1.00  0.00    -0.206 F 
ATOM     75  C   UNL A   1      44.930  26.510  36.476  1.00  0.00     0.060 A 
BRANCH  75  76
ATOM     76  S   UNL A   1      45.889  25.128  37.114  1.00  0.00     0.124 S 
ATOM     77  O   UNL A   1      46.811  25.805  38.018  1.00  0.00    -0.237 OA
ATOM     78  O   UNL A   1      44.855  24.313  37.743  1.00  0.00    -0.237 OA
ATOM     79  O   UNL A   1      46.488  24.552  35.913  1.00  0.00    -0.744 OA
ENDBRANCH  75  76
ENDBRANCH  54  68
BRANCH  55  80
ATOM     80  C   UNL A   1      41.139  26.254  27.572  1.00  0.00     0.058 A 
ATOM     81  C   UNL A   1      41.882  25.616  26.556  1.00  0.00     0.135 A 
ATOM     82  C   UNL A   1      40.114  25.477  28.150  1.00  0.00     0.135 A 
ATOM     83  F   UNL A   1      42.884  26.267  25.945  1.00  0.00    -0.206 F 
ATOM     84  C   UNL A   1      41.666  24.278  26.190  1.00  0.00     0.059 A 
ATOM     85  C   UNL A   1      39.875  24.150  27.797  1.00  0.00     0.059 A 
ATOM     86  F   UNL A   1      39.362  25.950  29.154  1.00  0.00    -0.206 F 
ATOM     87  C   UNL A   1      40.675  23.543  26.838  1.00  0.00     0.060 A 
BRANCH  87  88
ATOM     88  S   UNL A   1      40.517  21.765  26.536  1.00  0.00     0.124 S 
ATOM     89  O   UNL A   1      39.209  21.680  25.896  1.00  0.00    -0.237 OA
ATOM     90  O   UNL A   1      41.665  21.493  25.679  1.00  0.00    -0.237 OA
ATOM     91  O   UNL A   1      40.593  21.185  27.875  1.00  0.00    -0.744 OA
ENDBRANCH  87  88
ENDBRANCH  55  80
BRANCH  67  92
ATOM     92  C   UNL A   1      44.719  31.284  29.161  1.00  0.00     0.058 A 
ATOM     93  C   UNL A   1      45.854  31.354  28.331  1.00  0.00     0.135 A 
ATOM     94  C   UNL A   1      43.618  32.075  28.801  1.00  0.00     0.135 A 
ATOM     95  F   UNL A   1      46.911  30.557  28.539  1.00  0.00    -0.206 F 
ATOM     96  C   UNL A   1      45.901  32.199  27.217  1.00  0.00     0.059 A 
ATOM     97  C   UNL A   1      43.630  32.899  27.680  1.00  0.00     0.059 A 
ATOM     98  F   UNL A   1      42.481  32.008  29.514  1.00  0.00    -0.206 F 
ATOM     99  C   UNL A   1      44.780  32.966  26.899  1.00  0.00     0.060 A 
BRANCH  99 100
ATOM    100  S   UNL A   1      44.808  34.008  25.423  1.00  0.00     0.124 S 
ATOM    101  O   UNL A   1      46.217  34.372  25.330  1.00  0.00    -0.237 OA
ATOM    102  O   UNL A   1      44.315  33.103  24.387  1.00  0.00    -0.237 OA
ATOM    103  O   UNL A   1      43.902  35.103  25.761  1.00  0.00    -0.744 OA
ENDBRANCH  99 100
ENDBRANCH  67  92
ENDBRANCH  41  42
ENDBRANCH  34  36
ENDBRANCH  33  34
ENDBRANCH  32  33
ENDBRANCH   1  32
TORSDOF 19
ENDMDL
MODEL 3
REMARK VINA RESULT:     -12.6      3.297      5.168
REMARK SMILES NS(=O)(=O)c1ccc(-n2nc(C(F)(F)F)cc2-c2ccc(C(=O)OCCOC(=O)c3ccc(-c4c5nc(c(-c6c(F)cc(S(=O)(=O)[O-])cc6F)c6ccc([nH]6)c(-c6c(F)cc(S(=O)(=O)[O-])cc6F)c6nc(c(-c7c(F)cc(S(=O)(=O)[O-])cc7F)c7ccc4[nH]7)C=C6)C=C5)cc3)cc2)cc1
REMARK SMILES IDX 25 1 24 2 22 3 23 4 21 5 18 6 19 7 97 8 20 9 96 10 17 11
REMARK SMILES IDX 9 12 10 13 11 14 16 15 8 16 5 17 6 18 99 19 7 20 98 21 2 22
REMARK SMILES IDX 3 23 4 24 1 25 12 28 13 29 14 30 15 31 26 32 27 33 28 34
REMARK SMILES IDX 29 35 30 36 31 37 95 38 32 39 94 40 33 41 34 42 35 43 88 44
REMARK SMILES IDX 36 45 93 46 87 47 89 48 37 49 92 50 86 51 85 52 38 54 72 55
REMARK SMILES IDX 51 56 71 57 52 58 55 59 70 60 90 61 53 62 54 63 69 65 91 66
REMARK SMILES IDX 56 67 39 68 40 69 49 70 41 71 42 72 48 73 50 74 43 75 44 76
REMARK SMILES IDX 45 77 46 78 47 79 73 80 74 81 83 82 75 83 76 84 82 85 84 86
REMARK SMILES IDX 77 87 78 88 79 89 80 90 81 91 57 92 58 93 67 94 59 95 60 96
REMARK SMILES IDX 66 97 68 98 61 99 62 100 63 101 64 102 65 103
REMARK H PARENT 1 26 1 27 89 53 55 64
REMARK Flexibility Score: inf
ROOT
ATOM      1  C   UNL A   1      36.210  22.939  23.526  1.00  0.00     0.275 C 
ENDROOT
BRANCH   1   2
ATOM      2  O   UNL A   1      34.802  22.654  23.529  1.00  0.00    -0.458 OA
BRANCH   2   3
ATOM      3  C   UNL A   1      34.031  23.533  22.837  1.00  0.00     0.338 C 
ATOM      4  O   UNL A   1      33.544  23.355  21.732  1.00  0.00    -0.246 OA
BRANCH   3   5
ATOM      5  C   UNL A   1      33.775  24.752  23.643  1.00  0.00     0.060 A 
ATOM      6  C   UNL A   1      33.507  27.108  25.140  1.00  0.00     0.000 A 
ATOM      7  C   UNL A   1      33.846  27.169  23.780  1.00  0.00     0.011 A 
ATOM      8  C   UNL A   1      33.241  25.864  25.726  1.00  0.00     0.011 A 
ATOM      9  C   UNL A   1      33.980  25.996  23.036  1.00  0.00     0.016 A 
ATOM     10  C   UNL A   1      33.365  24.689  24.979  1.00  0.00     0.016 A 
BRANCH   6  11
ATOM     11  C   UNL A   1      33.556  28.314  25.966  1.00  0.00     0.075 A 
ATOM     12  N   UNL A   1      32.760  29.444  25.827  1.00  0.00    -0.233 N 
ATOM     13  N   UNL A   1      33.281  30.512  26.489  1.00  0.00    -0.163 NA
ATOM     14  C   UNL A   1      34.300  30.011  27.213  1.00  0.00     0.167 A 
ATOM     15  C   UNL A   1      34.516  28.651  26.899  1.00  0.00     0.064 A 
BRANCH  12  16
ATOM     16  C   UNL A   1      31.549  29.572  25.099  1.00  0.00     0.065 A 
ATOM     17  C   UNL A   1      29.262  29.876  23.548  1.00  0.00     0.082 A 
ATOM     18  C   UNL A   1      29.890  28.628  23.614  1.00  0.00     0.024 A 
ATOM     19  C   UNL A   1      29.760  30.968  24.266  1.00  0.00     0.024 A 
ATOM     20  C   UNL A   1      31.043  28.478  24.382  1.00  0.00     0.030 A 
ATOM     21  C   UNL A   1      30.889  30.808  25.073  1.00  0.00     0.030 A 
BRANCH  17  22
ATOM     22  S   UNL A   1      27.886  30.076  22.447  1.00  0.00     0.238 S 
ATOM     23  O   UNL A   1      28.337  29.807  21.108  1.00  0.00    -0.207 OA
ATOM     24  O   UNL A   1      27.184  31.289  22.814  1.00  0.00    -0.207 OA
BRANCH  22  25
ATOM     25  N   UNL A   1      26.891  28.801  22.900  1.00  0.00    -0.225 NA
ATOM     26  H   UNL A   1      27.321  28.292  23.670  1.00  0.00     0.137 HD
ATOM     27  H   UNL A   1      26.761  28.173  22.106  1.00  0.00     0.137 HD
ENDBRANCH  22  25
ENDBRANCH  17  22
ENDBRANCH  12  16
BRANCH  14  28
ATOM     28  C   UNL A   1      35.108  30.828  28.184  1.00  0.00     0.435 C 
ATOM     29  F   UNL A   1      34.350  31.621  28.984  1.00  0.00    -0.164 F 
ATOM     30  F   UNL A   1      35.870  30.049  28.999  1.00  0.00    -0.164 F 
ATOM     31  F   UNL A   1      35.977  31.657  27.538  1.00  0.00    -0.164 F 
ENDBRANCH  14  28
ENDBRANCH   6  11
ENDBRANCH   3   5
ENDBRANCH   2   3
ENDBRANCH   1   2
BRANCH   1  32
ATOM     32  C   UNL A   1      36.858  22.510  24.834  1.00  0.00     0.275 C 
BRANCH  32  33
ATOM     33  O   UNL A   1      37.721  23.524  25.343  1.00  0.00    -0.458 OA
BRANCH  33  34
ATOM     34  C   UNL A   1      38.817  23.066  25.991  1.00  0.00     0.338 C 
ATOM     35  O   UNL A   1      39.360  21.983  25.851  1.00  0.00    -0.246 OA
BRANCH  34  36
ATOM     36  C   UNL A   1      39.117  23.968  27.102  1.00  0.00     0.060 A 
ATOM     37  C   UNL A   1      38.351  25.131  27.218  1.00  0.00     0.016 A 
ATOM     38  C   UNL A   1      40.337  23.807  27.776  1.00  0.00     0.016 A 
ATOM     39  C   UNL A   1      38.904  26.215  27.865  1.00  0.00     0.010 A 
ATOM     40  C   UNL A   1      40.893  24.892  28.401  1.00  0.00     0.010 A 
ATOM     41  C   UNL A   1      40.204  26.102  28.370  1.00  0.00    -0.014 A 
BRANCH  41  42
ATOM     42  C   UNL A   1      40.801  27.234  29.044  1.00  0.00     0.031 A 
ATOM     43  C   UNL A   1      41.996  27.726  28.319  1.00  0.00     0.074 A 
ATOM     44  C   UNL A   1      40.203  27.836  30.091  1.00  0.00     0.049 A 
ATOM     45  N   UNL A   1      43.220  27.688  28.721  1.00  0.00    -0.248 NA
ATOM     46  C   UNL A   1      41.850  28.082  26.894  1.00  0.00     0.031 C 
ATOM     47  C   UNL A   1      38.903  27.529  30.693  1.00  0.00     0.029 A 
ATOM     48  N   UNL A   1      40.594  28.948  30.773  1.00  0.00    -0.354 N 
ATOM     49  C   UNL A   1      43.959  28.274  27.701  1.00  0.00     0.074 A 
ATOM     50  C   UNL A   1      43.121  28.260  26.534  1.00  0.00     0.031 C 
ATOM     51  C   UNL A   1      38.513  28.564  31.472  1.00  0.00     0.029 A 
ATOM     52  C   UNL A   1      39.576  29.551  31.518  1.00  0.00     0.049 A 
ATOM     53  H   UNL A   1      41.513  29.298  30.743  1.00  0.00     0.167 HD
ATOM     54  C   UNL A   1      45.067  29.007  27.990  1.00  0.00     0.037 A 
ATOM     55  C   UNL A   1      39.613  30.813  32.026  1.00  0.00     0.037 A 
ATOM     56  C   UNL A   1      45.564  28.686  29.307  1.00  0.00     0.049 A 
ATOM     57  C   UNL A   1      41.058  31.188  32.110  1.00  0.00     0.074 A 
ATOM     58  C   UNL A   1      45.960  27.511  29.919  1.00  0.00     0.029 A 
ATOM     59  N   UNL A   1      45.292  29.570  30.325  1.00  0.00    -0.354 N 
ATOM     60  N   UNL A   1      41.904  30.590  32.908  1.00  0.00    -0.248 NA
ATOM     61  C   UNL A   1      41.649  31.831  30.942  1.00  0.00     0.031 C 
ATOM     62  C   UNL A   1      45.427  27.588  31.240  1.00  0.00     0.029 A 
ATOM     63  C   UNL A   1      44.831  28.841  31.393  1.00  0.00     0.049 A 
ATOM     64  H   UNL A   1      45.407  30.547  30.293  1.00  0.00     0.167 HD
ATOM     65  C   UNL A   1      43.041  30.396  32.135  1.00  0.00     0.074 A 
ATOM     66  C   UNL A   1      42.840  31.224  30.945  1.00  0.00     0.031 C 
ATOM     67  C   UNL A   1      43.896  29.357  32.369  1.00  0.00     0.037 A 
BRANCH  54  68
ATOM     68  C   UNL A   1      45.425  30.286  27.272  1.00  0.00     0.058 A 
ATOM     69  C   UNL A   1      46.757  30.486  26.863  1.00  0.00     0.135 A 
ATOM     70  C   UNL A   1      44.596  31.433  27.223  1.00  0.00     0.135 A 
ATOM     71  F   UNL A   1      47.636  29.471  26.879  1.00  0.00    -0.206 F 
ATOM     72  C   UNL A   1      47.248  31.743  26.509  1.00  0.00     0.059 A 
ATOM     73  C   UNL A   1      45.050  32.680  26.820  1.00  0.00     0.059 A 
ATOM     74  F   UNL A   1      43.329  31.433  27.652  1.00  0.00    -0.206 F 
ATOM     75  C   UNL A   1      46.387  32.836  26.503  1.00  0.00     0.060 A 
BRANCH  75  76
ATOM     76  S   UNL A   1      47.034  34.470  26.124  1.00  0.00     0.124 S 
ATOM     77  O   UNL A   1      48.205  34.142  25.319  1.00  0.00    -0.237 OA
ATOM     78  O   UNL A   1      45.914  35.076  25.412  1.00  0.00    -0.237 OA
ATOM     79  O   UNL A   1      47.310  35.036  27.442  1.00  0.00    -0.744 OA
ENDBRANCH  75  76
ENDBRANCH  54  68
BRANCH  55  80
ATOM     80  C   UNL A   1      38.514  31.829  32.015  1.00  0.00     0.058 A 
ATOM     81  C   UNL A   1      37.917  32.257  30.811  1.00  0.00     0.135 A 
ATOM     82  C   UNL A   1      37.829  32.193  33.193  1.00  0.00     0.135 A 
ATOM     83  F   UNL A   1      38.487  31.957  29.634  1.00  0.00    -0.206 F 
ATOM     84  C   UNL A   1      36.690  32.938  30.777  1.00  0.00     0.059 A 
ATOM     85  C   UNL A   1      36.615  32.878  33.185  1.00  0.00     0.059 A 
ATOM     86  F   UNL A   1      38.268  31.813  34.402  1.00  0.00    -0.206 F 
ATOM     87  C   UNL A   1      36.031  33.220  31.973  1.00  0.00     0.060 A 
BRANCH  87  88
ATOM     88  S   UNL A   1      34.356  33.906  31.947  1.00  0.00     0.124 S 
ATOM     89  O   UNL A   1      34.059  33.931  30.520  1.00  0.00    -0.237 OA
ATOM     90  O   UNL A   1      33.610  32.934  32.738  1.00  0.00    -0.237 OA
ATOM     91  O   UNL A   1      34.518  35.218  32.572  1.00  0.00    -0.744 OA
ENDBRANCH  87  88
ENDBRANCH  55  80
BRANCH  67  92
ATOM     92  C   UNL A   1      43.738  28.551  33.634  1.00  0.00     0.058 A 
ATOM     93  C   UNL A   1      44.185  28.953  34.907  1.00  0.00     0.135 A 
ATOM     94  C   UNL A   1      42.935  27.403  33.576  1.00  0.00     0.135 A 
ATOM     95  F   UNL A   1      44.869  30.094  35.069  1.00  0.00    -0.206 F 
ATOM     96  C   UNL A   1      43.878  28.224  36.060  1.00  0.00     0.059 A 
ATOM     97  C   UNL A   1      42.589  26.680  34.714  1.00  0.00     0.059 A 
ATOM     98  F   UNL A   1      42.421  27.001  32.401  1.00  0.00    -0.206 F 
ATOM     99  C   UNL A   1      43.075  27.089  35.952  1.00  0.00     0.060 A 
BRANCH  99 100
ATOM    100  S   UNL A   1      42.616  26.181  37.445  1.00  0.00     0.124 S 
ATOM    101  O   UNL A   1      43.615  26.641  38.404  1.00  0.00    -0.237 OA
ATOM    102  O   UNL A   1      41.248  26.635  37.684  1.00  0.00    -0.237 OA
ATOM    103  O   UNL A   1      42.735  24.782  37.044  1.00  0.00    -0.744 OA
ENDBRANCH  99 100
ENDBRANCH  67  92
ENDBRANCH  41  42
ENDBRANCH  34  36
ENDBRANCH  33  34
ENDBRANCH  32  33
ENDBRANCH   1  32
TORSDOF 19
ENDMDL
