MODEL 1
REMARK VINA RESULT:     -14.0      0.000      0.000
REMARK SMILES Cc1ccccc1C(=O)Nc1cc(C(=O)OCCOC(=O)c2ccc(-c3c4nc(c(-c5c(F)cc(S(=O)(=O)[O-])cc5F)c5ccc([nH]5)c(-c5c(F)cc(S(=O)(=O)[O-])cc5F)c5nc(c(-c6c(F)cc(S(=O)(=O)[O-])cc6F)c6ccc3[nH]6)C=C5)C=C4)cc2)ccc1N1CC[NH+](CC(=O)Nc2ccc(F)cc2)CC1
REMARK SMILES IDX 17 1 16 2 14 3 15 4 13 5 11 6 12 7 90 8 89 9 88 10 10 11
REMARK SMILES IDX 8 12 9 13 7 15 1 16 2 17 3 18 4 19 6 20 5 21 91 22 92 23
REMARK SMILES IDX 107 24 93 25 106 26 94 27 95 29 96 30 97 31 98 32 99 34
REMARK SMILES IDX 100 35 105 36 101 37 104 38 102 39 103 40 18 41 19 42 20 43
REMARK SMILES IDX 21 44 22 45 23 46 87 47 24 48 86 49 25 50 26 51 27 52 80 53
REMARK SMILES IDX 28 54 85 55 79 56 81 57 29 58 84 59 78 60 77 61 30 63 64 64
REMARK SMILES IDX 43 65 63 66 44 67 47 68 62 69 82 70 45 71 46 72 61 74 83 75
REMARK SMILES IDX 48 76 31 77 32 78 41 79 33 80 34 81 40 82 42 83 35 84 36 85
REMARK SMILES IDX 37 86 38 87 39 88 65 89 66 90 75 91 67 92 68 93 74 94 76 95
REMARK SMILES IDX 69 96 70 97 71 98 72 99 73 100 49 101 50 102 59 103 51 104
REMARK SMILES IDX 52 105 58 106 60 107 53 108 54 109 55 110 56 111 57 112
REMARK H PARENT 10 14 94 28 98 33 81 62 47 73
REMARK Flexibility Score: inf
ROOT
ATOM      1  C   UNL A   1      33.842  32.444  27.917  1.00  0.00     0.275 C 
ENDROOT
BRANCH   1   2
ATOM      2  O   UNL A   1      33.245  31.159  27.970  1.00  0.00    -0.458 OA
BRANCH   2   3
ATOM      3  C   UNL A   1      32.517  30.848  26.866  1.00  0.00     0.338 C 
ATOM      4  O   UNL A   1      31.781  31.613  26.273  1.00  0.00    -0.246 OA
BRANCH   3   5
ATOM      5  C   UNL A   1      32.883  29.375  26.601  1.00  0.00     0.062 A 
ATOM      6  C   UNL A   1      31.171  26.998  25.703  1.00  0.00     0.065 A 
ATOM      7  C   UNL A   1      31.287  28.673  26.142  1.00  0.00     0.044 A 
ATOM      8  C   UNL A   1      32.566  25.868  25.727  1.00  0.00     0.061 A 
ATOM      9  C   UNL A   1      34.198  26.378  26.135  1.00  0.00     0.029 A 
ATOM     10  C   UNL A   1      34.478  28.107  26.580  1.00  0.00     0.018 A 
BRANCH   6  11
ATOM     11  N   UNL A   1      29.897  26.472  25.326  1.00  0.00    -0.320 N 
ATOM     12  C   UNL A   1      28.994  26.808  24.311  1.00  0.00     0.255 C 
ATOM     13  O   UNL A   1      27.926  26.197  24.234  1.00  0.00    -0.269 OA
ATOM     14  H   UNL A   1      29.595  25.725  25.892  1.00  0.00     0.170 HD
BRANCH  12  15
ATOM     15  C   UNL A   1      29.301  27.824  23.264  1.00  0.00     0.043 A 
ATOM     16  C   UNL A   1      31.147  26.514  22.213  1.00  0.00     0.045 C 
ATOM     17  C   UNL A   1      30.512  27.802  22.607  1.00  0.00    -0.038 A 
ATOM     18  C   UNL A   1      31.014  29.017  22.160  1.00  0.00     0.004 A 
ATOM     19  C   UNL A   1      30.178  30.075  21.868  1.00  0.00     0.000 A 
ATOM     20  C   UNL A   1      28.399  28.830  22.895  1.00  0.00     0.014 A 
ATOM     21  C   UNL A   1      28.828  29.920  22.119  1.00  0.00     0.001 A 
ENDBRANCH  12  15
ENDBRANCH   6  11
BRANCH   8  22
ATOM     22  N   UNL A   1      32.301  24.515  25.417  1.00  0.00    -0.359 N 
ATOM     23  C   UNL A   1      31.175  23.704  25.952  1.00  0.00     0.178 C 
ATOM     24  C   UNL A   1      33.503  23.721  25.244  1.00  0.00     0.178 C 
ATOM     25  C   UNL A   1      31.093  22.276  25.249  1.00  0.00     0.284 C 
ATOM     26  C   UNL A   1      33.193  22.624  24.212  1.00  0.00     0.284 C 
ATOM     27  N   UNL A   1      32.333  21.611  24.791  1.00  0.00    -0.324 N 
ATOM     28  H   UNL A   1      31.979  20.922  24.127  1.00  0.00     0.348 HD
BRANCH  27  29
ATOM     29  C   UNL A   1      33.077  20.655  25.641  1.00  0.00     0.364 C 
BRANCH  29  30
ATOM     30  C   UNL A   1      33.989  19.597  25.012  1.00  0.00     0.279 C 
ATOM     31  O   UNL A   1      33.458  18.543  24.619  1.00  0.00    -0.268 OA
ATOM     32  N   UNL A   1      35.323  19.704  24.708  1.00  0.00    -0.321 N 
ATOM     33  H   UNL A   1      35.547  19.011  24.046  1.00  0.00     0.170 HD
BRANCH  32  34
ATOM     34  C   UNL A   1      36.501  20.448  24.998  1.00  0.00     0.041 A 
ATOM     35  C   UNL A   1      37.698  19.707  25.016  1.00  0.00     0.029 A 
ATOM     36  C   UNL A   1      36.620  21.780  25.381  1.00  0.00     0.029 A 
ATOM     37  C   UNL A   1      38.931  20.279  25.380  1.00  0.00     0.041 A 
ATOM     38  C   UNL A   1      37.836  22.357  25.794  1.00  0.00     0.041 A 
ATOM     39  C   UNL A   1      38.989  21.604  25.772  1.00  0.00     0.123 A 
ATOM     40  F   UNL A   1      40.152  22.155  26.136  1.00  0.00    -0.207 F 
ENDBRANCH  32  34
ENDBRANCH  29  30
ENDBRANCH  27  29
ENDBRANCH   8  22
ENDBRANCH   3   5
ENDBRANCH   2   3
ENDBRANCH   1   2
BRANCH   1  41
ATOM     41  C   UNL A   1      34.178  32.897  29.349  1.00  0.00     0.275 C 
BRANCH  41  42
ATOM     42  O   UNL A   1      35.574  32.752  29.692  1.00  0.00    -0.458 OA
BRANCH  42  43
ATOM     43  C   UNL A   1      35.985  31.713  30.490  1.00  0.00     0.338 C 
ATOM     44  O   UNL A   1      35.894  31.658  31.701  1.00  0.00    -0.246 OA
BRANCH  43  45
ATOM     45  C   UNL A   1      36.214  30.549  29.571  1.00  0.00     0.060 A 
ATOM     46  C   UNL A   1      36.662  30.832  27.850  1.00  0.00     0.016 A 
ATOM     47  C   UNL A   1      37.000  29.273  30.409  1.00  0.00     0.016 A 
ATOM     48  C   UNL A   1      38.150  29.704  27.026  1.00  0.00     0.010 A 
ATOM     49  C   UNL A   1      38.289  28.339  29.731  1.00  0.00     0.010 A 
ATOM     50  C   UNL A   1      38.993  28.484  28.103  1.00  0.00    -0.014 A 
BRANCH  50  51
ATOM     51  C   UNL A   1      40.486  27.939  28.141  1.00  0.00     0.031 A 
ATOM     52  C   UNL A   1      40.998  26.522  27.906  1.00  0.00     0.074 A 
ATOM     53  C   UNL A   1      41.515  28.846  28.183  1.00  0.00     0.049 A 
ATOM     54  N   UNL A   1      41.837  26.160  26.961  1.00  0.00    -0.248 NA
ATOM     55  C   UNL A   1      40.620  25.388  28.757  1.00  0.00     0.031 C 
ATOM     56  C   UNL A   1      42.958  28.684  27.991  1.00  0.00     0.029 A 
ATOM     57  N   UNL A   1      41.484  30.203  28.545  1.00  0.00    -0.354 N 
ATOM     58  C   UNL A   1      42.082  24.779  27.036  1.00  0.00     0.074 A 
ATOM     59  C   UNL A   1      41.211  24.351  28.138  1.00  0.00     0.031 C 
ATOM     60  C   UNL A   1      43.608  29.673  28.648  1.00  0.00     0.029 A 
ATOM     61  C   UNL A   1      42.600  30.478  29.321  1.00  0.00     0.049 A 
ATOM     62  H   UNL A   1      40.788  30.851  28.290  1.00  0.00     0.167 HD
ATOM     63  C   UNL A   1      43.359  24.279  27.034  1.00  0.00     0.037 A 
ATOM     64  C   UNL A   1      42.388  30.711  30.646  1.00  0.00     0.037 A 
ATOM     65  C   UNL A   1      44.230  25.092  27.841  1.00  0.00     0.049 A 
ATOM     66  C   UNL A   1      42.989  29.555  31.386  1.00  0.00     0.074 A 
ATOM     67  C   UNL A   1      45.198  26.039  27.583  1.00  0.00     0.029 A 
ATOM     68  N   UNL A   1      43.982  25.125  29.201  1.00  0.00    -0.354 N 
ATOM     69  N   UNL A   1      43.098  28.359  30.865  1.00  0.00    -0.248 NA
ATOM     70  C   UNL A   1      43.684  29.682  32.661  1.00  0.00     0.031 C 
ATOM     71  C   UNL A   1      45.423  26.740  28.805  1.00  0.00     0.029 A 
ATOM     72  C   UNL A   1      44.614  26.190  29.792  1.00  0.00     0.049 A 
ATOM     73  H   UNL A   1      43.425  24.470  29.681  1.00  0.00     0.167 HD
ATOM     74  C   UNL A   1      43.977  27.634  31.607  1.00  0.00     0.074 A 
ATOM     75  C   UNL A   1      44.273  28.477  32.753  1.00  0.00     0.031 C 
ATOM     76  C   UNL A   1      44.464  26.422  31.220  1.00  0.00     0.037 A 
BRANCH  63  77
ATOM     77  C   UNL A   1      43.790  23.079  26.198  1.00  0.00     0.058 A 
ATOM     78  C   UNL A   1      43.392  21.766  26.543  1.00  0.00     0.135 A 
ATOM     79  C   UNL A   1      44.638  23.157  25.070  1.00  0.00     0.135 A 
ATOM     80  F   UNL A   1      42.566  21.544  27.576  1.00  0.00    -0.206 F 
ATOM     81  C   UNL A   1      43.833  20.622  25.862  1.00  0.00     0.059 A 
ATOM     82  C   UNL A   1      45.094  22.020  24.369  1.00  0.00     0.059 A 
ATOM     83  F   UNL A   1      45.046  24.348  24.608  1.00  0.00    -0.206 F 
ATOM     84  C   UNL A   1      44.700  20.752  24.786  1.00  0.00     0.060 A 
BRANCH  84  85
ATOM     85  S   UNL A   1      45.317  19.247  23.983  1.00  0.00     0.124 S 
ATOM     86  O   UNL A   1      44.689  19.322  22.667  1.00  0.00    -0.237 OA
ATOM     87  O   UNL A   1      46.762  19.450  24.004  1.00  0.00    -0.237 OA
ATOM     88  O   UNL A   1      44.828  18.171  24.841  1.00  0.00    -0.744 OA
ENDBRANCH  84  85
ENDBRANCH  63  77
BRANCH  64  89
ATOM     89  C   UNL A   1      41.101  31.472  30.878  1.00  0.00     0.058 A 
ATOM     90  C   UNL A   1      40.182  30.902  31.799  1.00  0.00     0.135 A 
ATOM     91  C   UNL A   1      40.917  32.835  30.597  1.00  0.00     0.135 A 
ATOM     92  F   UNL A   1      40.291  29.603  32.127  1.00  0.00    -0.206 F 
ATOM     93  C   UNL A   1      39.238  31.656  32.501  1.00  0.00     0.059 A 
ATOM     94  C   UNL A   1      39.945  33.609  31.269  1.00  0.00     0.059 A 
ATOM     95  F   UNL A   1      41.737  33.464  29.742  1.00  0.00    -0.206 F 
ATOM     96  C   UNL A   1      39.139  33.020  32.249  1.00  0.00     0.060 A 
BRANCH  96  97
ATOM     97  S   UNL A   1      38.059  34.015  33.328  1.00  0.00     0.124 S 
ATOM     98  O   UNL A   1      37.112  34.577  32.374  1.00  0.00    -0.237 OA
ATOM     99  O   UNL A   1      37.508  33.014  34.239  1.00  0.00    -0.237 OA
ATOM    100  O   UNL A   1      38.976  34.972  33.942  1.00  0.00    -0.744 OA
ENDBRANCH  96  97
ENDBRANCH  64  89
BRANCH  76 101
ATOM    101  C   UNL A   1      44.917  25.390  32.211  1.00  0.00     0.058 A 
ATOM    102  C   UNL A   1      44.258  24.158  32.361  1.00  0.00     0.135 A 
ATOM    103  C   UNL A   1      46.123  25.536  32.933  1.00  0.00     0.135 A 
ATOM    104  F   UNL A   1      43.220  23.813  31.587  1.00  0.00    -0.206 F 
ATOM    105  C   UNL A   1      44.666  23.208  33.281  1.00  0.00     0.059 A 
ATOM    106  C   UNL A   1      46.597  24.559  33.798  1.00  0.00     0.059 A 
ATOM    107  F   UNL A   1      46.901  26.621  32.802  1.00  0.00    -0.206 F 
ATOM    108  C   UNL A   1      45.828  23.424  34.007  1.00  0.00     0.060 A 
BRANCH 108 109
ATOM    109  S   UNL A   1      46.328  22.187  35.206  1.00  0.00     0.124 S 
ATOM    110  O   UNL A   1      46.396  22.987  36.424  1.00  0.00    -0.237 OA
ATOM    111  O   UNL A   1      45.231  21.226  35.138  1.00  0.00    -0.237 OA
ATOM    112  O   UNL A   1      47.604  21.710  34.685  1.00  0.00    -0.744 OA
ENDBRANCH 108 109
ENDBRANCH  76 101
ENDBRANCH  50  51
ENDBRANCH  43  45
ENDBRANCH  42  43
ENDBRANCH  41  42
ENDBRANCH   1  41
TORSDOF 20
ENDMDL
MODEL 2
REMARK VINA RESULT:     -13.8      1.511      2.120
REMARK SMILES Cc1ccccc1C(=O)Nc1cc(C(=O)OCCOC(=O)c2ccc(-c3c4nc(c(-c5c(F)cc(S(=O)(=O)[O-])cc5F)c5ccc([nH]5)c(-c5c(F)cc(S(=O)(=O)[O-])cc5F)c5nc(c(-c6c(F)cc(S(=O)(=O)[O-])cc6F)c6ccc3[nH]6)C=C5)C=C4)cc2)ccc1N1CC[NH+](CC(=O)Nc2ccc(F)cc2)CC1
REMARK SMILES IDX 17 1 16 2 14 3 15 4 13 5 11 6 12 7 90 8 89 9 88 10 10 11
REMARK SMILES IDX 8 12 9 13 7 15 1 16 2 17 3 18 4 19 6 20 5 21 91 22 92 23
REMARK SMILES IDX 107 24 93 25 106 26 94 27 95 29 96 30 97 31 98 32 99 34
REMARK SMILES IDX 100 35 105 36 101 37 104 38 102 39 103 40 18 41 19 42 20 43
REMARK SMILES IDX 21 44 22 45 23 46 87 47 24 48 86 49 25 50 26 51 27 52 80 53
REMARK SMILES IDX 28 54 85 55 79 56 81 57 29 58 84 59 78 60 77 61 30 63 64 64
REMARK SMILES IDX 43 65 63 66 44 67 47 68 62 69 82 70 45 71 46 72 61 74 83 75
REMARK SMILES IDX 48 76 31 77 32 78 41 79 33 80 34 81 40 82 42 83 35 84 36 85
REMARK SMILES IDX 37 86 38 87 39 88 65 89 66 90 75 91 67 92 68 93 74 94 76 95
REMARK SMILES IDX 69 96 70 97 71 98 72 99 73 100 49 101 50 102 59 103 51 104
REMARK SMILES IDX 52 105 58 106 60 107 53 108 54 109 55 110 56 111 57 112
REMARK H PARENT 10 14 94 28 98 33 81 62 47 73
REMARK Flexibility Score: inf
ROOT
ATOM      1  C   UNL A   1      33.995  32.286  27.967  1.00  0.00     0.275 C 
ENDROOT
BRANCH   1   2
ATOM      2  O   UNL A   1      33.238  31.088  28.042  1.00  0.00    -0.458 OA
BRANCH   2   3
ATOM      3  C   UNL A   1      32.454  30.868  26.954  1.00  0.00     0.338 C 
ATOM      4  O   UNL A   1      31.650  31.658  26.497  1.00  0.00    -0.246 OA
BRANCH   3   5
ATOM      5  C   UNL A   1      32.863  29.454  26.500  1.00  0.00     0.062 A 
ATOM      6  C   UNL A   1      31.192  27.096  25.481  1.00  0.00     0.065 A 
ATOM      7  C   UNL A   1      31.268  28.719  26.092  1.00  0.00     0.044 A 
ATOM      8  C   UNL A   1      32.635  26.047  25.273  1.00  0.00     0.061 A 
ATOM      9  C   UNL A   1      34.269  26.599  25.606  1.00  0.00     0.029 A 
ATOM     10  C   UNL A   1      34.507  28.283  26.216  1.00  0.00     0.018 A 
BRANCH   6  11
ATOM     11  N   UNL A   1      29.917  26.545  25.149  1.00  0.00    -0.320 N 
ATOM     12  C   UNL A   1      28.947  26.901  24.204  1.00  0.00     0.255 C 
ATOM     13  O   UNL A   1      27.896  26.257  24.154  1.00  0.00    -0.269 OA
ATOM     14  H   UNL A   1      29.672  25.761  25.690  1.00  0.00     0.170 HD
BRANCH  12  15
ATOM     15  C   UNL A   1      29.160  27.979  23.197  1.00  0.00     0.043 A 
ATOM     16  C   UNL A   1      30.998  26.799  21.990  1.00  0.00     0.045 C 
ATOM     17  C   UNL A   1      30.335  28.039  22.481  1.00  0.00    -0.038 A 
ATOM     18  C   UNL A   1      30.766  29.294  22.072  1.00  0.00     0.004 A 
ATOM     19  C   UNL A   1      29.876  30.330  21.877  1.00  0.00     0.000 A 
ATOM     20  C   UNL A   1      28.202  28.963  22.925  1.00  0.00     0.014 A 
ATOM     21  C   UNL A   1      28.548  30.107  22.186  1.00  0.00     0.001 A 
ENDBRANCH  12  15
ENDBRANCH   6  11
BRANCH   8  22
ATOM     22  N   UNL A   1      32.406  24.723  24.836  1.00  0.00    -0.359 N 
ATOM     23  C   UNL A   1      32.081  23.563  25.709  1.00  0.00     0.178 C 
ATOM     24  C   UNL A   1      33.243  24.337  23.716  1.00  0.00     0.178 C 
ATOM     25  C   UNL A   1      31.721  22.267  24.855  1.00  0.00     0.284 C 
ATOM     26  C   UNL A   1      32.450  23.328  22.868  1.00  0.00     0.284 C 
ATOM     27  N   UNL A   1      32.371  22.048  23.543  1.00  0.00    -0.324 N 
ATOM     28  H   UNL A   1      31.749  21.371  23.101  1.00  0.00     0.348 HD
BRANCH  27  29
ATOM     29  C   UNL A   1      33.611  21.254  23.399  1.00  0.00     0.364 C 
BRANCH  29  30
ATOM     30  C   UNL A   1      34.400  20.806  24.633  1.00  0.00     0.279 C 
ATOM     31  O   UNL A   1      35.099  21.661  25.207  1.00  0.00    -0.268 OA
ATOM     32  N   UNL A   1      34.347  19.596  25.277  1.00  0.00    -0.321 N 
ATOM     33  H   UNL A   1      34.707  19.711  26.186  1.00  0.00     0.170 HD
BRANCH  32  34
ATOM     34  C   UNL A   1      33.966  18.235  25.113  1.00  0.00     0.041 A 
ATOM     35  C   UNL A   1      32.734  17.874  25.693  1.00  0.00     0.029 A 
ATOM     36  C   UNL A   1      34.694  17.185  24.561  1.00  0.00     0.029 A 
ATOM     37  C   UNL A   1      32.266  16.548  25.701  1.00  0.00     0.041 A 
ATOM     38  C   UNL A   1      34.263  15.845  24.601  1.00  0.00     0.041 A 
ATOM     39  C   UNL A   1      33.040  15.539  25.155  1.00  0.00     0.123 A 
ATOM     40  F   UNL A   1      32.612  14.272  25.170  1.00  0.00    -0.207 F 
ENDBRANCH  32  34
ENDBRANCH  29  30
ENDBRANCH  27  29
ENDBRANCH   8  22
ENDBRANCH   3   5
ENDBRANCH   2   3
ENDBRANCH   1   2
BRANCH   1  41
ATOM     41  C   UNL A   1      34.309  32.766  29.394  1.00  0.00     0.275 C 
BRANCH  41  42
ATOM     42  O   UNL A   1      35.682  32.552  29.791  1.00  0.00    -0.458 OA
BRANCH  42  43
ATOM     43  C   UNL A   1      36.006  31.512  30.627  1.00  0.00     0.338 C 
ATOM     44  O   UNL A   1      35.817  31.471  31.828  1.00  0.00    -0.246 OA
BRANCH  43  45
ATOM     45  C   UNL A   1      36.281  30.335  29.739  1.00  0.00     0.060 A 
ATOM     46  C   UNL A   1      36.655  30.588  27.995  1.00  0.00     0.016 A 
ATOM     47  C   UNL A   1      37.175  29.142  30.591  1.00  0.00     0.016 A 
ATOM     48  C   UNL A   1      38.188  29.531  27.159  1.00  0.00     0.010 A 
ATOM     49  C   UNL A   1      38.500  28.270  29.900  1.00  0.00     0.010 A 
ATOM     50  C   UNL A   1      39.143  28.405  28.245  1.00  0.00    -0.014 A 
BRANCH  50  51
ATOM     51  C   UNL A   1      40.668  27.959  28.251  1.00  0.00     0.031 A 
ATOM     52  C   UNL A   1      41.262  26.565  28.075  1.00  0.00     0.074 A 
ATOM     53  C   UNL A   1      41.636  28.930  28.197  1.00  0.00     0.049 A 
ATOM     54  N   UNL A   1      42.086  26.202  27.117  1.00  0.00    -0.248 NA
ATOM     55  C   UNL A   1      40.994  25.462  29.004  1.00  0.00     0.031 C 
ATOM     56  C   UNL A   1      43.079  28.849  27.954  1.00  0.00     0.029 A 
ATOM     57  N   UNL A   1      41.531  30.301  28.482  1.00  0.00    -0.354 N 
ATOM     58  C   UNL A   1      42.424  24.846  27.261  1.00  0.00     0.074 A 
ATOM     59  C   UNL A   1      41.627  24.429  28.421  1.00  0.00     0.031 C 
ATOM     60  C   UNL A   1      43.687  29.914  28.525  1.00  0.00     0.029 A 
ATOM     61  C   UNL A   1      42.655  30.692  29.193  1.00  0.00     0.049 A 
ATOM     62  H   UNL A   1      40.783  30.887  28.221  1.00  0.00     0.167 HD
ATOM     63  C   UNL A   1      43.731  24.428  27.232  1.00  0.00     0.037 A 
ATOM     64  C   UNL A   1      42.480  30.990  30.510  1.00  0.00     0.037 A 
ATOM     65  C   UNL A   1      44.576  25.342  27.954  1.00  0.00     0.049 A 
ATOM     66  C   UNL A   1      43.183  29.920  31.289  1.00  0.00     0.074 A 
ATOM     67  C   UNL A   1      45.469  26.330  27.602  1.00  0.00     0.029 A 
ATOM     68  N   UNL A   1      44.380  25.439  29.319  1.00  0.00    -0.354 N 
ATOM     69  N   UNL A   1      43.350  28.705  30.833  1.00  0.00    -0.248 NA
ATOM     70  C   UNL A   1      43.917  30.167  32.523  1.00  0.00     0.031 C 
ATOM     71  C   UNL A   1      45.695  27.116  28.771  1.00  0.00     0.029 A 
ATOM     72  C   UNL A   1      44.963  26.576  29.821  1.00  0.00     0.049 A 
ATOM     73  H   UNL A   1      43.887  24.781  29.859  1.00  0.00     0.167 HD
ATOM     74  C   UNL A   1      44.304  28.082  31.577  1.00  0.00     0.074 A 
ATOM     75  C   UNL A   1      44.587  29.009  32.659  1.00  0.00     0.031 C 
ATOM     76  C   UNL A   1      44.853  26.883  31.239  1.00  0.00     0.037 A 
BRANCH  63  77
ATOM     77  C   UNL A   1      44.207  23.210  26.448  1.00  0.00     0.058 A 
ATOM     78  C   UNL A   1      43.287  22.273  25.922  1.00  0.00     0.135 A 
ATOM     79  C   UNL A   1      45.564  22.888  26.224  1.00  0.00     0.135 A 
ATOM     80  F   UNL A   1      41.964  22.464  26.038  1.00  0.00    -0.206 F 
ATOM     81  C   UNL A   1      43.675  21.092  25.272  1.00  0.00     0.059 A 
ATOM     82  C   UNL A   1      45.978  21.707  25.573  1.00  0.00     0.059 A 
ATOM     83  F   UNL A   1      46.536  23.720  26.627  1.00  0.00    -0.206 F 
ATOM     84  C   UNL A   1      45.023  20.803  25.117  1.00  0.00     0.060 A 
BRANCH  84  85
ATOM     85  S   UNL A   1      45.488  19.227  24.349  1.00  0.00     0.124 S 
ATOM     86  O   UNL A   1      44.978  18.254  25.311  1.00  0.00    -0.237 OA
ATOM     87  O   UNL A   1      44.781  19.279  23.072  1.00  0.00    -0.237 OA
ATOM     88  O   UNL A   1      46.943  19.302  24.257  1.00  0.00    -0.744 OA
ENDBRANCH  84  85
ENDBRANCH  63  77
BRANCH  64  89
ATOM     89  C   UNL A   1      41.155  31.680  30.753  1.00  0.00     0.058 A 
ATOM     90  C   UNL A   1      40.283  31.070  31.693  1.00  0.00     0.135 A 
ATOM     91  C   UNL A   1      40.891  33.027  30.461  1.00  0.00     0.135 A 
ATOM     92  F   UNL A   1      40.469  29.783  32.034  1.00  0.00    -0.206 F 
ATOM     93  C   UNL A   1      39.308  31.778  32.401  1.00  0.00     0.059 A 
ATOM     94  C   UNL A   1      39.887  33.753  31.139  1.00  0.00     0.059 A 
ATOM     95  F   UNL A   1      41.663  33.691  29.588  1.00  0.00    -0.206 F 
ATOM     96  C   UNL A   1      39.129  33.131  32.137  1.00  0.00     0.060 A 
BRANCH  96  97
ATOM     97  S   UNL A   1      38.010  34.076  33.221  1.00  0.00     0.124 S 
ATOM     98  O   UNL A   1      38.914  35.060  33.804  1.00  0.00    -0.237 OA
ATOM     99  O   UNL A   1      37.029  34.611  32.280  1.00  0.00    -0.237 OA
ATOM    100  O   UNL A   1      37.497  33.069  34.145  1.00  0.00    -0.744 OA
ENDBRANCH  96  97
ENDBRANCH  64  89
BRANCH  76 101
ATOM    101  C   UNL A   1      45.412  25.943  32.267  1.00  0.00     0.058 A 
ATOM    102  C   UNL A   1      44.602  25.025  32.958  1.00  0.00     0.135 A 
ATOM    103  C   UNL A   1      46.803  25.820  32.481  1.00  0.00     0.135 A 
ATOM    104  F   UNL A   1      43.293  24.900  32.697  1.00  0.00    -0.206 F 
ATOM    105  C   UNL A   1      45.110  24.163  33.915  1.00  0.00     0.059 A 
ATOM    106  C   UNL A   1      47.342  24.902  33.373  1.00  0.00     0.059 A 
ATOM    107  F   UNL A   1      47.693  26.564  31.808  1.00  0.00    -0.206 F 
ATOM    108  C   UNL A   1      46.481  24.120  34.127  1.00  0.00     0.060 A 
BRANCH 108 109
ATOM    109  S   UNL A   1      47.115  23.008  35.384  1.00  0.00     0.124 S 
ATOM    110  O   UNL A   1      46.619  23.647  36.599  1.00  0.00    -0.237 OA
ATOM    111  O   UNL A   1      46.481  21.743  35.028  1.00  0.00    -0.237 OA
ATOM    112  O   UNL A   1      48.558  23.060  35.180  1.00  0.00    -0.744 OA
ENDBRANCH 108 109
ENDBRANCH  76 101
ENDBRANCH  50  51
ENDBRANCH  43  45
ENDBRANCH  42  43
ENDBRANCH  41  42
ENDBRANCH   1  41
TORSDOF 20
ENDMDL
MODEL 3
REMARK VINA RESULT:     -12.2      6.119      9.832
REMARK SMILES Cc1ccccc1C(=O)Nc1cc(C(=O)OCCOC(=O)c2ccc(-c3c4nc(c(-c5c(F)cc(S(=O)(=O)[O-])cc5F)c5ccc([nH]5)c(-c5c(F)cc(S(=O)(=O)[O-])cc5F)c5nc(c(-c6c(F)cc(S(=O)(=O)[O-])cc6F)c6ccc3[nH]6)C=C5)C=C4)cc2)ccc1N1CC[NH+](CC(=O)Nc2ccc(F)cc2)CC1
REMARK SMILES IDX 17 1 16 2 14 3 15 4 13 5 11 6 12 7 90 8 89 9 88 10 10 11
REMARK SMILES IDX 8 12 9 13 7 15 1 16 2 17 3 18 4 19 6 20 5 21 91 22 92 23
REMARK SMILES IDX 107 24 93 25 106 26 94 27 95 29 96 30 97 31 98 32 99 34
REMARK SMILES IDX 100 35 105 36 101 37 104 38 102 39 103 40 18 41 19 42 20 43
REMARK SMILES IDX 21 44 22 45 23 46 87 47 24 48 86 49 25 50 26 51 27 52 80 53
REMARK SMILES IDX 28 54 85 55 79 56 81 57 29 58 84 59 78 60 77 61 30 63 64 64
REMARK SMILES IDX 43 65 63 66 44 67 47 68 62 69 82 70 45 71 46 72 61 74 83 75
REMARK SMILES IDX 48 76 31 77 32 78 41 79 33 80 34 81 40 82 42 83 35 84 36 85
REMARK SMILES IDX 37 86 38 87 39 88 65 89 66 90 75 91 67 92 68 93 74 94 76 95
REMARK SMILES IDX 69 96 70 97 71 98 72 99 73 100 49 101 50 102 59 103 51 104
REMARK SMILES IDX 52 105 58 106 60 107 53 108 54 109 55 110 56 111 57 112
REMARK H PARENT 10 14 94 28 98 33 81 62 47 73
REMARK Flexibility Score: inf
ROOT
ATOM      1  C   UNL A   1      33.437  32.867  27.576  1.00  0.00     0.275 C 
ENDROOT
BRANCH   1   2
ATOM      2  O   UNL A   1      32.913  31.556  27.711  1.00  0.00    -0.458 OA
BRANCH   2   3
ATOM      3  C   UNL A   1      32.121  31.175  26.674  1.00  0.00     0.338 C 
ATOM      4  O   UNL A   1      31.275  31.870  26.145  1.00  0.00    -0.246 OA
BRANCH   3   5
ATOM      5  C   UNL A   1      32.585  29.734  26.382  1.00  0.00     0.062 A 
ATOM      6  C   UNL A   1      31.031  27.256  25.471  1.00  0.00     0.065 A 
ATOM      7  C   UNL A   1      31.036  28.929  25.933  1.00  0.00     0.044 A 
ATOM      8  C   UNL A   1      32.502  26.227  25.461  1.00  0.00     0.061 A 
ATOM      9  C   UNL A   1      34.100  26.844  25.855  1.00  0.00     0.029 A 
ATOM     10  C   UNL A   1      34.265  28.582  26.321  1.00  0.00     0.018 A 
BRANCH   6  11
ATOM     11  N   UNL A   1      29.792  26.647  25.103  1.00  0.00    -0.320 N 
ATOM     12  C   UNL A   1      28.837  26.956  24.128  1.00  0.00     0.255 C 
ATOM     13  O   UNL A   1      27.818  26.266  24.049  1.00  0.00    -0.269 OA
ATOM     14  H   UNL A   1      29.566  25.855  25.641  1.00  0.00     0.170 HD
BRANCH  12  15
ATOM     15  C   UNL A   1      29.032  28.038  23.121  1.00  0.00     0.043 A 
ATOM     16  C   UNL A   1      31.018  26.983  22.039  1.00  0.00     0.045 C 
ATOM     17  C   UNL A   1      30.241  28.176  22.475  1.00  0.00    -0.038 A 
ATOM     18  C   UNL A   1      30.605  29.456  22.077  1.00  0.00     0.004 A 
ATOM     19  C   UNL A   1      29.657  30.424  21.817  1.00  0.00     0.000 A 
ATOM     20  C   UNL A   1      28.025  28.949  22.782  1.00  0.00     0.014 A 
ATOM     21  C   UNL A   1      28.332  30.109  22.051  1.00  0.00     0.001 A 
ENDBRANCH  12  15
ENDBRANCH   6  11
BRANCH   8  22
ATOM     22  N   UNL A   1      32.328  24.863  25.133  1.00  0.00    -0.359 N 
ATOM     23  C   UNL A   1      32.353  23.727  26.094  1.00  0.00     0.178 C 
ATOM     24  C   UNL A   1      32.912  24.502  23.855  1.00  0.00     0.178 C 
ATOM     25  C   UNL A   1      31.949  22.355  25.392  1.00  0.00     0.284 C 
ATOM     26  C   UNL A   1      32.060  23.371  23.256  1.00  0.00     0.284 C 
ATOM     27  N   UNL A   1      32.289  22.130  23.969  1.00  0.00    -0.324 N 
ATOM     28  H   UNL A   1      31.661  21.369  23.713  1.00  0.00     0.348 HD
BRANCH  27  29
ATOM     29  C   UNL A   1      33.541  21.459  23.553  1.00  0.00     0.364 C 
BRANCH  29  30
ATOM     30  C   UNL A   1      34.518  20.912  24.598  1.00  0.00     0.279 C 
ATOM     31  O   UNL A   1      35.343  21.708  25.083  1.00  0.00    -0.268 OA
ATOM     32  N   UNL A   1      34.533  19.666  25.171  1.00  0.00    -0.321 N 
ATOM     33  H   UNL A   1      35.053  19.713  26.005  1.00  0.00     0.170 HD
BRANCH  32  34
ATOM     34  C   UNL A   1      34.073  18.329  25.002  1.00  0.00     0.041 A 
ATOM     35  C   UNL A   1      32.896  17.999  25.700  1.00  0.00     0.029 A 
ATOM     36  C   UNL A   1      34.689  17.273  24.339  1.00  0.00     0.029 A 
ATOM     37  C   UNL A   1      32.370  16.694  25.712  1.00  0.00     0.041 A 
ATOM     38  C   UNL A   1      34.204  15.952  24.378  1.00  0.00     0.041 A 
ATOM     39  C   UNL A   1      33.034  15.676  25.052  1.00  0.00     0.123 A 
ATOM     40  F   UNL A   1      32.552  14.428  25.069  1.00  0.00    -0.207 F 
ENDBRANCH  32  34
ENDBRANCH  29  30
ENDBRANCH  27  29
ENDBRANCH   8  22
ENDBRANCH   3   5
ENDBRANCH   2   3
ENDBRANCH   1   2
BRANCH   1  41
ATOM     41  C   UNL A   1      33.803  33.402  28.972  1.00  0.00     0.275 C 
BRANCH  41  42
ATOM     42  O   UNL A   1      34.996  32.805  29.528  1.00  0.00    -0.458 OA
BRANCH  42  43
ATOM     43  C   UNL A   1      36.162  32.786  28.803  1.00  0.00     0.338 C 
ATOM     44  O   UNL A   1      36.297  33.150  27.651  1.00  0.00    -0.246 OA
BRANCH  43  45
ATOM     45  C   UNL A   1      37.266  32.589  29.800  1.00  0.00     0.060 A 
ATOM     46  C   UNL A   1      38.588  31.413  29.461  1.00  0.00     0.016 A 
ATOM     47  C   UNL A   1      37.687  34.087  30.527  1.00  0.00     0.016 A 
ATOM     48  C   UNL A   1      40.514  31.964  29.853  1.00  0.00     0.010 A 
ATOM     49  C   UNL A   1      39.319  34.577  30.826  1.00  0.00     0.010 A 
ATOM     50  C   UNL A   1      40.806  33.658  30.489  1.00  0.00    -0.014 A 
BRANCH  50  51
ATOM     51  C   UNL A   1      42.008  34.681  30.301  1.00  0.00     0.031 A 
ATOM     52  C   UNL A   1      42.346  35.555  29.098  1.00  0.00     0.074 A 
ATOM     53  C   UNL A   1      42.757  35.022  31.399  1.00  0.00     0.049 A 
ATOM     54  N   UNL A   1      42.405  36.868  29.101  1.00  0.00    -0.248 NA
ATOM     55  C   UNL A   1      42.684  35.002  27.781  1.00  0.00     0.031 C 
ATOM     56  C   UNL A   1      43.747  36.082  31.605  1.00  0.00     0.029 A 
ATOM     57  N   UNL A   1      42.872  34.361  32.632  1.00  0.00    -0.354 N 
ATOM     58  C   UNL A   1      42.737  37.339  27.819  1.00  0.00     0.074 A 
ATOM     59  C   UNL A   1      42.810  36.106  27.025  1.00  0.00     0.031 C 
ATOM     60  C   UNL A   1      44.597  35.712  32.592  1.00  0.00     0.029 A 
ATOM     61  C   UNL A   1      44.203  34.379  33.020  1.00  0.00     0.049 A 
ATOM     62  H   UNL A   1      42.131  33.952  33.137  1.00  0.00     0.167 HD
ATOM     63  C   UNL A   1      43.745  38.250  27.632  1.00  0.00     0.037 A 
ATOM     64  C   UNL A   1      44.875  33.195  32.974  1.00  0.00     0.037 A 
ATOM     65  C   UNL A   1      44.871  37.949  28.475  1.00  0.00     0.049 A 
ATOM     66  C   UNL A   1      45.890  33.322  31.878  1.00  0.00     0.074 A 
ATOM     67  C   UNL A   1      45.379  38.466  29.647  1.00  0.00     0.029 A 
ATOM     68  N   UNL A   1      45.553  36.773  28.222  1.00  0.00    -0.354 N 
ATOM     69  N   UNL A   1      45.722  34.106  30.844  1.00  0.00    -0.248 NA
ATOM     70  C   UNL A   1      47.230  32.753  31.945  1.00  0.00     0.031 C 
ATOM     71  C   UNL A   1      46.287  37.496  30.167  1.00  0.00     0.029 A 
ATOM     72  C   UNL A   1      46.341  36.420  29.290  1.00  0.00     0.049 A 
ATOM     73  H   UNL A   1      45.483  36.257  27.387  1.00  0.00     0.167 HD
ATOM     74  C   UNL A   1      46.920  34.281  30.225  1.00  0.00     0.074 A 
ATOM     75  C   UNL A   1      47.822  33.371  30.909  1.00  0.00     0.031 C 
ATOM     76  C   UNL A   1      47.127  35.197  29.239  1.00  0.00     0.037 A 
BRANCH  63  77
ATOM     77  C   UNL A   1      43.621  39.465  26.719  1.00  0.00     0.058 A 
ATOM     78  C   UNL A   1      42.355  39.974  26.348  1.00  0.00     0.135 A 
ATOM     79  C   UNL A   1      44.718  40.142  26.141  1.00  0.00     0.135 A 
ATOM     80  F   UNL A   1      41.226  39.446  26.842  1.00  0.00    -0.206 F 
ATOM     81  C   UNL A   1      42.184  41.032  25.442  1.00  0.00     0.059 A 
ATOM     82  C   UNL A   1      44.571  41.208  25.228  1.00  0.00     0.059 A 
ATOM     83  F   UNL A   1      45.974  39.791  26.452  1.00  0.00    -0.206 F 
ATOM     84  C   UNL A   1      43.295  41.634  24.868  1.00  0.00     0.060 A 
BRANCH  84  85
ATOM     85  S   UNL A   1      43.034  42.940  23.637  1.00  0.00     0.124 S 
ATOM     86  O   UNL A   1      41.580  42.955  23.509  1.00  0.00    -0.237 OA
ATOM     87  O   UNL A   1      43.621  44.107  24.288  1.00  0.00    -0.237 OA
ATOM     88  O   UNL A   1      43.754  42.457  22.462  1.00  0.00    -0.744 OA
ENDBRANCH  84  85
ENDBRANCH  63  77
BRANCH  64  89
ATOM     89  C   UNL A   1      43.988  32.035  33.371  1.00  0.00     0.058 A 
ATOM     90  C   UNL A   1      43.629  31.949  34.742  1.00  0.00     0.135 A 
ATOM     91  C   UNL A   1      43.182  31.306  32.483  1.00  0.00     0.135 A 
ATOM     92  F   UNL A   1      44.345  32.622  35.660  1.00  0.00    -0.206 F 
ATOM     93  C   UNL A   1      42.473  31.304  35.190  1.00  0.00     0.059 A 
ATOM     94  C   UNL A   1      42.030  30.616  32.918  1.00  0.00     0.059 A 
ATOM     95  F   UNL A   1      43.440  31.328  31.167  1.00  0.00    -0.206 F 
ATOM     96  C   UNL A   1      41.660  30.656  34.266  1.00  0.00     0.060 A 
BRANCH  96  97
ATOM     97  S   UNL A   1      40.054  30.014  34.840  1.00  0.00     0.124 S 
ATOM     98  O   UNL A   1      39.209  31.199  34.761  1.00  0.00    -0.237 OA
ATOM     99  O   UNL A   1      39.758  28.971  33.862  1.00  0.00    -0.237 OA
ATOM    100  O   UNL A   1      40.338  29.535  36.189  1.00  0.00    -0.744 OA
ENDBRANCH  96  97
ENDBRANCH  64  89
BRANCH  76 101
ATOM    101  C   UNL A   1      48.182  35.012  28.186  1.00  0.00     0.058 A 
ATOM    102  C   UNL A   1      49.413  35.688  28.236  1.00  0.00     0.135 A 
ATOM    103  C   UNL A   1      48.058  34.031  27.178  1.00  0.00     0.135 A 
ATOM    104  F   UNL A   1      49.736  36.495  29.257  1.00  0.00    -0.206 F 
ATOM    105  C   UNL A   1      50.385  35.529  27.264  1.00  0.00     0.059 A 
ATOM    106  C   UNL A   1      49.056  33.794  26.241  1.00  0.00     0.059 A 
ATOM    107  F   UNL A   1      46.976  33.244  27.082  1.00  0.00    -0.206 F 
ATOM    108  C   UNL A   1      50.191  34.591  26.260  1.00  0.00     0.060 A 
BRANCH 108 109
ATOM    109  S   UNL A   1      51.455  34.414  25.000  1.00  0.00     0.124 S 
ATOM    110  O   UNL A   1      51.112  33.112  24.439  1.00  0.00    -0.237 OA
ATOM    111  O   UNL A   1      51.199  35.564  24.139  1.00  0.00    -0.237 OA
ATOM    112  O   UNL A   1      52.698  34.472  25.761  1.00  0.00    -0.744 OA
ENDBRANCH 108 109
ENDBRANCH  76 101
ENDBRANCH  50  51
ENDBRANCH  43  45
ENDBRANCH  42  43
ENDBRANCH  41  42
ENDBRANCH   1  41
TORSDOF 20
ENDMDL
