MODEL 1
REMARK VINA RESULT:     -13.0      0.000      0.000
REMARK SMILES Cc1c(C(=O)OCCOC(=O)c2ccc(-c3c4nc(c(-c5c(F)cc(S(=O)(=O)[O-])cc5F)c5ccc([nH]5)c(-c5c(F)cc(S(=O)(=O)[O-])cc5F)c5nc(c(-c6c(F)cc(S(=O)(=O)[O-])cc6F)c6ccc3[nH]6)C=C5)C=C4)cc2)sc2c1=C(CSc1nncn1-c1ccccc1)CC(=O)N=2
REMARK SMILES IDX 7 1 6 2 4 3 5 4 3 5 1 6 2 7 80 8 78 9 79 10 81 11 98 12
REMARK SMILES IDX 95 13 96 14 97 15 82 16 83 17 84 18 85 19 88 20 86 21 87 22
REMARK SMILES IDX 89 23 90 24 94 25 91 26 93 27 92 28 8 29 9 30 10 31 11 32
REMARK SMILES IDX 12 33 13 34 77 35 14 36 76 37 15 38 16 39 17 40 70 41 18 42
REMARK SMILES IDX 75 43 69 44 71 45 19 46 74 47 68 48 67 49 20 51 54 52 33 53
REMARK SMILES IDX 53 54 34 55 37 56 52 57 72 58 35 59 36 60 51 62 73 63 38 64
REMARK SMILES IDX 21 65 22 66 31 67 23 68 24 69 30 70 32 71 25 72 26 73 27 74
REMARK SMILES IDX 28 75 29 76 55 77 56 78 65 79 57 80 58 81 64 82 66 83 59 84
REMARK SMILES IDX 60 85 61 86 62 87 63 88 39 89 40 90 49 91 41 92 42 93 48 94
REMARK SMILES IDX 50 95 43 96 44 97 45 98 46 99 47 100
REMARK H PARENT 71 50 37 61
REMARK Flexibility Score: inf
ROOT
ATOM      1  C   UNL A   1      33.201  29.753  25.233  1.00  0.00     0.275 C 
ENDROOT
BRANCH   1   2
ATOM      2  O   UNL A   1      32.223  29.137  24.378  1.00  0.00    -0.458 OA
BRANCH   2   3
ATOM      3  C   UNL A   1      32.631  28.032  23.702  1.00  0.00     0.348 C 
ATOM      4  O   UNL A   1      33.272  28.059  22.659  1.00  0.00    -0.245 OA
BRANCH   3   5
ATOM      5  C   UNL A   1      32.234  26.770  24.394  1.00  0.00     0.118 A 
ATOM      6  C   UNL A   1      33.536  24.915  23.177  1.00  0.00     0.047 C 
ATOM      7  C   UNL A   1      32.662  25.500  24.238  1.00  0.00    -0.016 A 
ATOM      8  C   UNL A   1      31.969  24.557  25.097  1.00  0.00     0.016 A 
ATOM      9  S   UNL A   1      30.900  26.910  25.540  1.00  0.00    -0.108 S 
ATOM     10  C   UNL A   1      30.828  25.184  25.825  1.00  0.00     0.128 A 
ATOM     11  C   UNL A   1      32.354  23.462  25.783  1.00  0.00    -0.040 C 
ATOM     12  N   UNL A   1      29.977  24.640  26.622  1.00  0.00    -0.202 NA
ATOM     13  C   UNL A   1      31.195  22.530  26.087  1.00  0.00     0.135 C 
ATOM     14  C   UNL A   1      30.111  23.285  26.849  1.00  0.00     0.251 C 
ATOM     15  O   UNL A   1      29.388  22.672  27.633  1.00  0.00    -0.272 OA
BRANCH  11  16
ATOM     16  C   UNL A   1      33.404  23.403  26.885  1.00  0.00     0.110 C 
BRANCH  16  17
ATOM     17  S   UNL A   1      34.135  21.812  27.270  1.00  0.00    -0.081 SA
BRANCH  17  18
ATOM     18  C   UNL A   1      35.399  21.729  26.085  1.00  0.00     0.195 A 
ATOM     19  N   UNL A   1      36.541  22.374  26.170  1.00  0.00    -0.123 NA
ATOM     20  N   UNL A   1      35.447  20.806  25.057  1.00  0.00    -0.277 N 
ATOM     21  N   UNL A   1      37.397  21.837  25.245  1.00  0.00    -0.138 NA
ATOM     22  C   UNL A   1      36.748  20.881  24.619  1.00  0.00     0.231 A 
BRANCH  20  23
ATOM     23  C   UNL A   1      34.461  19.882  24.625  1.00  0.00     0.049 A 
ATOM     24  C   UNL A   1      34.708  18.503  24.661  1.00  0.00     0.027 A 
ATOM     25  C   UNL A   1      33.267  20.359  24.067  1.00  0.00     0.027 A 
ATOM     26  C   UNL A   1      33.812  17.617  24.067  1.00  0.00     0.002 A 
ATOM     27  C   UNL A   1      32.385  19.465  23.458  1.00  0.00     0.002 A 
ATOM     28  C   UNL A   1      32.663  18.099  23.447  1.00  0.00     0.000 A 
ENDBRANCH  20  23
ENDBRANCH  17  18
ENDBRANCH  16  17
ENDBRANCH  11  16
ENDBRANCH   3   5
ENDBRANCH   2   3
ENDBRANCH   1   2
BRANCH   1  29
ATOM     29  C   UNL A   1      32.548  30.425  26.434  1.00  0.00     0.275 C 
BRANCH  29  30
ATOM     30  O   UNL A   1      33.345  30.344  27.617  1.00  0.00    -0.458 OA
BRANCH  30  31
ATOM     31  C   UNL A   1      34.090  31.446  27.868  1.00  0.00     0.338 C 
ATOM     32  O   UNL A   1      33.713  32.606  27.837  1.00  0.00    -0.246 OA
BRANCH  31  33
ATOM     33  C   UNL A   1      35.505  31.063  27.985  1.00  0.00     0.060 A 
ATOM     34  C   UNL A   1      35.828  29.713  27.835  1.00  0.00     0.016 A 
ATOM     35  C   UNL A   1      36.458  31.994  28.427  1.00  0.00     0.016 A 
ATOM     36  C   UNL A   1      37.092  29.280  28.195  1.00  0.00     0.010 A 
ATOM     37  C   UNL A   1      37.720  31.559  28.791  1.00  0.00     0.010 A 
ATOM     38  C   UNL A   1      38.018  30.199  28.705  1.00  0.00    -0.014 A 
BRANCH  38  39
ATOM     39  C   UNL A   1      39.357  29.718  29.005  1.00  0.00     0.031 A 
ATOM     40  C   UNL A   1      39.670  29.645  30.455  1.00  0.00     0.074 A 
ATOM     41  C   UNL A   1      40.201  29.225  28.078  1.00  0.00     0.049 A 
ATOM     42  N   UNL A   1      40.598  30.268  31.103  1.00  0.00    -0.248 NA
ATOM     43  C   UNL A   1      38.761  28.860  31.307  1.00  0.00     0.031 C 
ATOM     44  C   UNL A   1      39.914  28.952  26.669  1.00  0.00     0.029 A 
ATOM     45  N   UNL A   1      41.469  28.750  28.238  1.00  0.00    -0.354 N 
ATOM     46  C   UNL A   1      40.531  29.786  32.406  1.00  0.00     0.074 A 
ATOM     47  C   UNL A   1      39.293  29.058  32.512  1.00  0.00     0.031 C 
ATOM     48  C   UNL A   1      40.892  28.166  26.166  1.00  0.00     0.029 A 
ATOM     49  C   UNL A   1      41.920  27.976  27.177  1.00  0.00     0.049 A 
ATOM     50  H   UNL A   1      42.017  28.940  29.034  1.00  0.00     0.167 HD
ATOM     51  C   UNL A   1      41.612  29.809  33.231  1.00  0.00     0.037 A 
ATOM     52  C   UNL A   1      43.011  27.169  27.166  1.00  0.00     0.037 A 
ATOM     53  C   UNL A   1      42.602  30.758  32.792  1.00  0.00     0.049 A 
ATOM     54  C   UNL A   1      43.918  27.623  28.251  1.00  0.00     0.074 A 
ATOM     55  C   UNL A   1      42.597  32.114  32.524  1.00  0.00     0.029 A 
ATOM     56  N   UNL A   1      43.756  30.274  32.227  1.00  0.00    -0.354 N 
ATOM     57  N   UNL A   1      44.565  28.755  28.246  1.00  0.00    -0.248 NA
ATOM     58  C   UNL A   1      43.822  26.974  29.551  1.00  0.00     0.031 C 
ATOM     59  C   UNL A   1      43.485  32.281  31.422  1.00  0.00     0.029 A 
ATOM     60  C   UNL A   1      44.012  31.028  31.111  1.00  0.00     0.049 A 
ATOM     61  H   UNL A   1      44.299  29.524  32.563  1.00  0.00     0.167 HD
ATOM     62  C   UNL A   1      44.569  29.169  29.568  1.00  0.00     0.074 A 
ATOM     63  C   UNL A   1      44.215  27.980  30.336  1.00  0.00     0.031 C 
ATOM     64  C   UNL A   1      44.582  30.496  29.892  1.00  0.00     0.037 A 
BRANCH  51  65
ATOM     65  C   UNL A   1      41.918  28.704  34.214  1.00  0.00     0.058 A 
ATOM     66  C   UNL A   1      41.981  28.993  35.590  1.00  0.00     0.135 A 
ATOM     67  C   UNL A   1      42.431  27.444  33.829  1.00  0.00     0.135 A 
ATOM     68  F   UNL A   1      41.542  30.171  36.062  1.00  0.00    -0.206 F 
ATOM     69  C   UNL A   1      42.569  28.120  36.508  1.00  0.00     0.059 A 
ATOM     70  C   UNL A   1      42.966  26.536  34.734  1.00  0.00     0.059 A 
ATOM     71  F   UNL A   1      42.533  27.075  32.545  1.00  0.00    -0.206 F 
ATOM     72  C   UNL A   1      43.073  26.901  36.064  1.00  0.00     0.060 A 
BRANCH  72  73
ATOM     73  S   UNL A   1      43.939  25.824  37.217  1.00  0.00     0.124 S 
ATOM     74  O   UNL A   1      43.532  24.507  36.741  1.00  0.00    -0.237 OA
ATOM     75  O   UNL A   1      45.333  26.187  36.986  1.00  0.00    -0.237 OA
ATOM     76  O   UNL A   1      43.402  26.223  38.515  1.00  0.00    -0.744 OA
ENDBRANCH  72  73
ENDBRANCH  51  65
BRANCH  52  77
ATOM     77  C   UNL A   1      43.176  25.854  26.490  1.00  0.00     0.058 A 
ATOM     78  C   UNL A   1      44.135  25.678  25.475  1.00  0.00     0.135 A 
ATOM     79  C   UNL A   1      42.604  24.674  27.011  1.00  0.00     0.135 A 
ATOM     80  F   UNL A   1      44.745  26.741  24.930  1.00  0.00    -0.206 F 
ATOM     81  C   UNL A   1      44.548  24.412  25.049  1.00  0.00     0.059 A 
ATOM     82  C   UNL A   1      42.986  23.403  26.588  1.00  0.00     0.059 A 
ATOM     83  F   UNL A   1      41.725  24.712  28.022  1.00  0.00    -0.206 F 
ATOM     84  C   UNL A   1      43.982  23.278  25.630  1.00  0.00     0.060 A 
BRANCH  84  85
ATOM     85  S   UNL A   1      44.649  21.644  25.238  1.00  0.00     0.124 S 
ATOM     86  O   UNL A   1      43.729  20.764  25.950  1.00  0.00    -0.237 OA
ATOM     87  O   UNL A   1      44.560  21.616  23.781  1.00  0.00    -0.237 OA
ATOM     88  O   UNL A   1      46.006  21.696  25.774  1.00  0.00    -0.744 OA
ENDBRANCH  84  85
ENDBRANCH  52  77
BRANCH  64  89
ATOM     89  C   UNL A   1      44.993  31.483  28.830  1.00  0.00     0.058 A 
ATOM     90  C   UNL A   1      44.161  31.943  27.794  1.00  0.00     0.135 A 
ATOM     91  C   UNL A   1      46.270  32.059  28.925  1.00  0.00     0.135 A 
ATOM     92  F   UNL A   1      42.885  31.541  27.700  1.00  0.00    -0.206 F 
ATOM     93  C   UNL A   1      44.605  32.873  26.853  1.00  0.00     0.059 A 
ATOM     94  C   UNL A   1      46.721  33.017  28.020  1.00  0.00     0.059 A 
ATOM     95  F   UNL A   1      47.093  31.715  29.931  1.00  0.00    -0.206 F 
ATOM     96  C   UNL A   1      45.891  33.400  26.969  1.00  0.00     0.060 A 
BRANCH  96  97
ATOM     97  S   UNL A   1      46.452  34.627  25.770  1.00  0.00     0.124 S 
ATOM     98  O   UNL A   1      46.235  35.879  26.489  1.00  0.00    -0.237 OA
ATOM     99  O   UNL A   1      47.848  34.252  25.559  1.00  0.00    -0.237 OA
ATOM    100  O   UNL A   1      45.577  34.408  24.621  1.00  0.00    -0.744 OA
ENDBRANCH  96  97
ENDBRANCH  64  89
ENDBRANCH  38  39
ENDBRANCH  31  33
ENDBRANCH  30  31
ENDBRANCH  29  30
ENDBRANCH   1  29
TORSDOF 18
ENDMDL
MODEL 2
REMARK VINA RESULT:     -12.9      1.470      2.189
REMARK SMILES Cc1c(C(=O)OCCOC(=O)c2ccc(-c3c4nc(c(-c5c(F)cc(S(=O)(=O)[O-])cc5F)c5ccc([nH]5)c(-c5c(F)cc(S(=O)(=O)[O-])cc5F)c5nc(c(-c6c(F)cc(S(=O)(=O)[O-])cc6F)c6ccc3[nH]6)C=C5)C=C4)cc2)sc2c1=C(CSc1nncn1-c1ccccc1)CC(=O)N=2
REMARK SMILES IDX 7 1 6 2 4 3 5 4 3 5 1 6 2 7 80 8 78 9 79 10 81 11 98 12
REMARK SMILES IDX 95 13 96 14 97 15 82 16 83 17 84 18 85 19 88 20 86 21 87 22
REMARK SMILES IDX 89 23 90 24 94 25 91 26 93 27 92 28 8 29 9 30 10 31 11 32
REMARK SMILES IDX 12 33 13 34 77 35 14 36 76 37 15 38 16 39 17 40 70 41 18 42
REMARK SMILES IDX 75 43 69 44 71 45 19 46 74 47 68 48 67 49 20 51 54 52 33 53
REMARK SMILES IDX 53 54 34 55 37 56 52 57 72 58 35 59 36 60 51 62 73 63 38 64
REMARK SMILES IDX 21 65 22 66 31 67 23 68 24 69 30 70 32 71 25 72 26 73 27 74
REMARK SMILES IDX 28 75 29 76 55 77 56 78 65 79 57 80 58 81 64 82 66 83 59 84
REMARK SMILES IDX 60 85 61 86 62 87 63 88 39 89 40 90 49 91 41 92 42 93 48 94
REMARK SMILES IDX 50 95 43 96 44 97 45 98 46 99 47 100
REMARK H PARENT 71 50 37 61
REMARK Flexibility Score: inf
ROOT
ATOM      1  C   UNL A   1      31.528  30.504  25.698  1.00  0.00     0.275 C 
ENDROOT
BRANCH   1   2
ATOM      2  O   UNL A   1      32.227  29.665  24.763  1.00  0.00    -0.458 OA
BRANCH   2   3
ATOM      3  C   UNL A   1      31.559  28.564  24.332  1.00  0.00     0.348 C 
ATOM      4  O   UNL A   1      30.394  28.567  23.954  1.00  0.00    -0.245 OA
BRANCH   3   5
ATOM      5  C   UNL A   1      32.420  27.344  24.340  1.00  0.00     0.118 A 
ATOM      6  C   UNL A   1      33.300  27.175  26.751  1.00  0.00     0.047 C 
ATOM      7  C   UNL A   1      33.070  26.724  25.346  1.00  0.00    -0.016 A 
ATOM      8  C   UNL A   1      33.841  25.576  24.903  1.00  0.00     0.016 A 
ATOM      9  S   UNL A   1      32.755  26.631  22.761  1.00  0.00    -0.108 S 
ATOM     10  C   UNL A   1      33.873  25.454  23.416  1.00  0.00     0.128 A 
ATOM     11  C   UNL A   1      34.093  24.361  25.429  1.00  0.00    -0.040 C 
ATOM     12  N   UNL A   1      34.495  24.596  22.686  1.00  0.00    -0.202 NA
ATOM     13  C   UNL A   1      35.354  23.733  24.863  1.00  0.00     0.135 C 
ATOM     14  C   UNL A   1      35.251  23.647  23.344  1.00  0.00     0.251 C 
ATOM     15  O   UNL A   1      35.843  22.746  22.751  1.00  0.00    -0.272 OA
BRANCH  11  16
ATOM     16  C   UNL A   1      33.066  23.294  25.786  1.00  0.00     0.110 C 
BRANCH  16  17
ATOM     17  S   UNL A   1      33.539  21.574  25.604  1.00  0.00    -0.081 SA
BRANCH  17  18
ATOM     18  C   UNL A   1      32.661  21.135  24.174  1.00  0.00     0.195 A 
ATOM     19  N   UNL A   1      32.163  21.996  23.314  1.00  0.00    -0.123 NA
ATOM     20  N   UNL A   1      32.594  19.854  23.660  1.00  0.00    -0.277 N 
ATOM     21  N   UNL A   1      31.825  21.307  22.178  1.00  0.00    -0.138 NA
ATOM     22  C   UNL A   1      32.123  20.045  22.382  1.00  0.00     0.231 A 
BRANCH  20  23
ATOM     23  C   UNL A   1      33.034  18.629  24.225  1.00  0.00     0.049 A 
ATOM     24  C   UNL A   1      33.880  17.773  23.508  1.00  0.00     0.027 A 
ATOM     25  C   UNL A   1      32.539  18.230  25.473  1.00  0.00     0.027 A 
ATOM     26  C   UNL A   1      34.158  16.497  23.992  1.00  0.00     0.002 A 
ATOM     27  C   UNL A   1      32.806  16.942  25.941  1.00  0.00     0.002 A 
ATOM     28  C   UNL A   1      33.603  16.074  25.197  1.00  0.00     0.000 A 
ENDBRANCH  20  23
ENDBRANCH  17  18
ENDBRANCH  16  17
ENDBRANCH  11  16
ENDBRANCH   3   5
ENDBRANCH   2   3
ENDBRANCH   1   2
BRANCH   1  29
ATOM     29  C   UNL A   1      32.263  30.589  27.029  1.00  0.00     0.275 C 
BRANCH  29  30
ATOM     30  O   UNL A   1      33.671  30.770  26.877  1.00  0.00    -0.458 OA
BRANCH  30  31
ATOM     31  C   UNL A   1      34.230  31.611  27.778  1.00  0.00     0.338 C 
ATOM     32  O   UNL A   1      33.861  32.743  28.048  1.00  0.00    -0.246 OA
BRANCH  31  33
ATOM     33  C   UNL A   1      35.499  31.043  28.256  1.00  0.00     0.060 A 
ATOM     34  C   UNL A   1      36.470  31.929  28.729  1.00  0.00     0.016 A 
ATOM     35  C   UNL A   1      35.789  29.685  28.058  1.00  0.00     0.016 A 
ATOM     36  C   UNL A   1      37.757  31.466  28.938  1.00  0.00     0.010 A 
ATOM     37  C   UNL A   1      37.077  29.224  28.263  1.00  0.00     0.010 A 
ATOM     38  C   UNL A   1      38.061  30.126  28.668  1.00  0.00    -0.014 A 
BRANCH  38  39
ATOM     39  C   UNL A   1      39.407  29.661  28.969  1.00  0.00     0.031 A 
ATOM     40  C   UNL A   1      39.720  29.594  30.418  1.00  0.00     0.074 A 
ATOM     41  C   UNL A   1      40.256  29.178  28.042  1.00  0.00     0.049 A 
ATOM     42  N   UNL A   1      40.640  30.229  31.066  1.00  0.00    -0.248 NA
ATOM     43  C   UNL A   1      38.821  28.799  31.271  1.00  0.00     0.031 C 
ATOM     44  C   UNL A   1      39.973  28.899  26.634  1.00  0.00     0.029 A 
ATOM     45  N   UNL A   1      41.530  28.718  28.203  1.00  0.00    -0.354 N 
ATOM     46  C   UNL A   1      40.579  29.748  32.370  1.00  0.00     0.074 A 
ATOM     47  C   UNL A   1      39.351  29.005  32.477  1.00  0.00     0.031 C 
ATOM     48  C   UNL A   1      40.960  28.124  26.131  1.00  0.00     0.029 A 
ATOM     49  C   UNL A   1      41.990  27.948  27.143  1.00  0.00     0.049 A 
ATOM     50  H   UNL A   1      42.075  28.915  28.999  1.00  0.00     0.167 HD
ATOM     51  C   UNL A   1      41.660  29.785  33.195  1.00  0.00     0.037 A 
ATOM     52  C   UNL A   1      43.091  27.154  27.133  1.00  0.00     0.037 A 
ATOM     53  C   UNL A   1      42.639  30.745  32.754  1.00  0.00     0.049 A 
ATOM     54  C   UNL A   1      43.993  27.621  28.218  1.00  0.00     0.074 A 
ATOM     55  C   UNL A   1      42.617  32.100  32.484  1.00  0.00     0.029 A 
ATOM     56  N   UNL A   1      43.799  30.274  32.190  1.00  0.00    -0.354 N 
ATOM     57  N   UNL A   1      44.626  28.760  28.211  1.00  0.00    -0.248 NA
ATOM     58  C   UNL A   1      43.904  26.972  29.518  1.00  0.00     0.031 C 
ATOM     59  C   UNL A   1      43.504  32.277  31.382  1.00  0.00     0.029 A 
ATOM     60  C   UNL A   1      44.045  31.030  31.073  1.00  0.00     0.049 A 
ATOM     61  H   UNL A   1      44.351  29.531  32.527  1.00  0.00     0.167 HD
ATOM     62  C   UNL A   1      44.624  29.176  29.532  1.00  0.00     0.074 A 
ATOM     63  C   UNL A   1      44.285  27.984  30.302  1.00  0.00     0.031 C 
ATOM     64  C   UNL A   1      44.622  30.503  29.855  1.00  0.00     0.037 A 
BRANCH  51  65
ATOM     65  C   UNL A   1      41.980  28.685  34.179  1.00  0.00     0.058 A 
ATOM     66  C   UNL A   1      42.027  28.974  35.556  1.00  0.00     0.135 A 
ATOM     67  C   UNL A   1      42.518  27.435  33.797  1.00  0.00     0.135 A 
ATOM     68  F   UNL A   1      41.563  30.144  36.025  1.00  0.00    -0.206 F 
ATOM     69  C   UNL A   1      42.624  28.112  36.477  1.00  0.00     0.059 A 
ATOM     70  C   UNL A   1      43.064  26.536  34.705  1.00  0.00     0.059 A 
ATOM     71  F   UNL A   1      42.636  27.069  32.514  1.00  0.00    -0.206 F 
ATOM     72  C   UNL A   1      43.155  26.902  36.036  1.00  0.00     0.060 A 
BRANCH  72  73
ATOM     73  S   UNL A   1      44.032  25.840  37.195  1.00  0.00     0.124 S 
ATOM     74  O   UNL A   1      45.420  26.155  36.879  1.00  0.00    -0.237 OA
ATOM     75  O   UNL A   1      43.542  26.323  38.482  1.00  0.00    -0.237 OA
ATOM     76  O   UNL A   1      43.585  24.501  36.824  1.00  0.00    -0.744 OA
ENDBRANCH  72  73
ENDBRANCH  51  65
BRANCH  52  77
ATOM     77  C   UNL A   1      43.272  25.841  26.459  1.00  0.00     0.058 A 
ATOM     78  C   UNL A   1      44.218  25.680  25.429  1.00  0.00     0.135 A 
ATOM     79  C   UNL A   1      42.732  24.652  26.992  1.00  0.00     0.135 A 
ATOM     80  F   UNL A   1      44.798  26.754  24.871  1.00  0.00    -0.206 F 
ATOM     81  C   UNL A   1      44.650  24.421  25.001  1.00  0.00     0.059 A 
ATOM     82  C   UNL A   1      43.133  23.387  26.567  1.00  0.00     0.059 A 
ATOM     83  F   UNL A   1      41.867  24.675  28.017  1.00  0.00    -0.206 F 
ATOM     84  C   UNL A   1      44.116  23.278  25.595  1.00  0.00     0.060 A 
BRANCH  84  85
ATOM     85  S   UNL A   1      44.809  21.657  25.197  1.00  0.00     0.124 S 
ATOM     86  O   UNL A   1      46.117  21.722  25.840  1.00  0.00    -0.237 OA
ATOM     87  O   UNL A   1      43.842  20.749  25.806  1.00  0.00    -0.237 OA
ATOM     88  O   UNL A   1      44.831  21.648  23.736  1.00  0.00    -0.744 OA
ENDBRANCH  84  85
ENDBRANCH  52  77
BRANCH  64  89
ATOM     89  C   UNL A   1      45.021  31.494  28.792  1.00  0.00     0.058 A 
ATOM     90  C   UNL A   1      44.173  31.968  27.775  1.00  0.00     0.135 A 
ATOM     91  C   UNL A   1      46.304  32.058  28.866  1.00  0.00     0.135 A 
ATOM     92  F   UNL A   1      42.892  31.577  27.702  1.00  0.00    -0.206 F 
ATOM     93  C   UNL A   1      44.607  32.900  26.832  1.00  0.00     0.059 A 
ATOM     94  C   UNL A   1      46.746  33.018  27.958  1.00  0.00     0.059 A 
ATOM     95  F   UNL A   1      47.143  31.701  29.853  1.00  0.00    -0.206 F 
ATOM     96  C   UNL A   1      45.899  33.415  26.926  1.00  0.00     0.060 A 
BRANCH  96  97
ATOM     97  S   UNL A   1      46.448  34.646  25.725  1.00  0.00     0.124 S 
ATOM     98  O   UNL A   1      47.841  34.266  25.512  1.00  0.00    -0.237 OA
ATOM     99  O   UNL A   1      45.549  34.415  24.597  1.00  0.00    -0.237 OA
ATOM    100  O   UNL A   1      46.248  35.916  26.419  1.00  0.00    -0.744 OA
ENDBRANCH  96  97
ENDBRANCH  64  89
ENDBRANCH  38  39
ENDBRANCH  31  33
ENDBRANCH  30  31
ENDBRANCH  29  30
ENDBRANCH   1  29
TORSDOF 18
ENDMDL
MODEL 3
REMARK VINA RESULT:     -12.8      2.507      9.186
REMARK SMILES Cc1c(C(=O)OCCOC(=O)c2ccc(-c3c4nc(c(-c5c(F)cc(S(=O)(=O)[O-])cc5F)c5ccc([nH]5)c(-c5c(F)cc(S(=O)(=O)[O-])cc5F)c5nc(c(-c6c(F)cc(S(=O)(=O)[O-])cc6F)c6ccc3[nH]6)C=C5)C=C4)cc2)sc2c1=C(CSc1nncn1-c1ccccc1)CC(=O)N=2
REMARK SMILES IDX 7 1 6 2 4 3 5 4 3 5 1 6 2 7 80 8 78 9 79 10 81 11 98 12
REMARK SMILES IDX 95 13 96 14 97 15 82 16 83 17 84 18 85 19 88 20 86 21 87 22
REMARK SMILES IDX 89 23 90 24 94 25 91 26 93 27 92 28 8 29 9 30 10 31 11 32
REMARK SMILES IDX 12 33 13 34 77 35 14 36 76 37 15 38 16 39 17 40 70 41 18 42
REMARK SMILES IDX 75 43 69 44 71 45 19 46 74 47 68 48 67 49 20 51 54 52 33 53
REMARK SMILES IDX 53 54 34 55 37 56 52 57 72 58 35 59 36 60 51 62 73 63 38 64
REMARK SMILES IDX 21 65 22 66 31 67 23 68 24 69 30 70 32 71 25 72 26 73 27 74
REMARK SMILES IDX 28 75 29 76 55 77 56 78 65 79 57 80 58 81 64 82 66 83 59 84
REMARK SMILES IDX 60 85 61 86 62 87 63 88 39 89 40 90 49 91 41 92 42 93 48 94
REMARK SMILES IDX 50 95 43 96 44 97 45 98 46 99 47 100
REMARK H PARENT 71 50 37 61
REMARK Flexibility Score: inf
ROOT
ATOM      1  C   UNL A   1      39.154  20.967  26.126  1.00  0.00     0.275 C 
ENDROOT
BRANCH   1   2
ATOM      2  O   UNL A   1      38.207  21.328  25.105  1.00  0.00    -0.458 OA
BRANCH   2   3
ATOM      3  C   UNL A   1      37.031  20.648  25.113  1.00  0.00     0.348 C 
ATOM      4  O   UNL A   1      36.933  19.438  24.959  1.00  0.00    -0.245 OA
BRANCH   3   5
ATOM      5  C   UNL A   1      35.865  21.545  25.363  1.00  0.00     0.118 A 
ATOM      6  C   UNL A   1      36.727  23.911  24.835  1.00  0.00     0.047 C 
ATOM      7  C   UNL A   1      35.708  22.872  25.174  1.00  0.00    -0.016 A 
ATOM      8  C   UNL A   1      34.407  23.357  25.597  1.00  0.00     0.016 A 
ATOM      9  S   UNL A   1      34.473  20.794  26.145  1.00  0.00    -0.108 S 
ATOM     10  C   UNL A   1      33.611  22.310  26.301  1.00  0.00     0.128 A 
ATOM     11  C   UNL A   1      33.551  24.279  25.111  1.00  0.00    -0.040 C 
ATOM     12  N   UNL A   1      32.451  22.404  26.847  1.00  0.00    -0.202 NA
ATOM     13  C   UNL A   1      32.597  24.800  26.170  1.00  0.00     0.135 C 
ATOM     14  C   UNL A   1      31.833  23.637  26.794  1.00  0.00     0.251 C 
ATOM     15  O   UNL A   1      30.700  23.829  27.236  1.00  0.00    -0.272 OA
BRANCH  11  16
ATOM     16  C   UNL A   1      32.890  24.270  23.738  1.00  0.00     0.110 C 
BRANCH  16  17
ATOM     17  S   UNL A   1      31.874  25.676  23.283  1.00  0.00    -0.081 SA
BRANCH  17  18
ATOM     18  C   UNL A   1      33.085  26.835  22.840  1.00  0.00     0.195 A 
ATOM     19  N   UNL A   1      33.607  26.943  21.637  1.00  0.00    -0.123 NA
ATOM     20  N   UNL A   1      33.459  27.912  23.621  1.00  0.00    -0.277 N 
ATOM     21  N   UNL A   1      34.277  28.137  21.577  1.00  0.00    -0.138 NA
ATOM     22  C   UNL A   1      34.147  28.720  22.746  1.00  0.00     0.231 A 
BRANCH  20  23
ATOM     23  C   UNL A   1      33.112  28.220  24.962  1.00  0.00     0.049 A 
ATOM     24  C   UNL A   1      34.100  28.336  25.948  1.00  0.00     0.027 A 
ATOM     25  C   UNL A   1      31.760  28.312  25.319  1.00  0.00     0.027 A 
ATOM     26  C   UNL A   1      33.740  28.456  27.289  1.00  0.00     0.002 A 
ATOM     27  C   UNL A   1      31.409  28.413  26.667  1.00  0.00     0.002 A 
ATOM     28  C   UNL A   1      32.396  28.472  27.649  1.00  0.00     0.000 A 
ENDBRANCH  20  23
ENDBRANCH  17  18
ENDBRANCH  16  17
ENDBRANCH  11  16
ENDBRANCH   3   5
ENDBRANCH   2   3
ENDBRANCH   1   2
BRANCH   1  29
ATOM     29  C   UNL A   1      40.197  19.990  25.601  1.00  0.00     0.275 C 
BRANCH  29  30
ATOM     30  O   UNL A   1      41.380  19.958  26.400  1.00  0.00    -0.458 OA
BRANCH  30  31
ATOM     31  C   UNL A   1      42.459  20.540  25.827  1.00  0.00     0.338 C 
ATOM     32  O   UNL A   1      43.303  19.994  25.134  1.00  0.00    -0.246 OA
BRANCH  31  33
ATOM     33  C   UNL A   1      42.599  21.915  26.329  1.00  0.00     0.060 A 
ATOM     34  C   UNL A   1      42.814  22.087  27.699  1.00  0.00     0.016 A 
ATOM     35  C   UNL A   1      42.328  23.008  25.492  1.00  0.00     0.016 A 
ATOM     36  C   UNL A   1      42.689  23.353  28.243  1.00  0.00     0.010 A 
ATOM     37  C   UNL A   1      42.199  24.272  26.039  1.00  0.00     0.010 A 
ATOM     38  C   UNL A   1      42.346  24.431  27.417  1.00  0.00    -0.014 A 
BRANCH  38  39
ATOM     39  C   UNL A   1      42.294  25.756  28.016  1.00  0.00     0.031 A 
ATOM     40  C   UNL A   1      43.446  26.627  27.672  1.00  0.00     0.074 A 
ATOM     41  C   UNL A   1      41.231  26.230  28.693  1.00  0.00     0.049 A 
ATOM     42  N   UNL A   1      44.311  27.158  28.471  1.00  0.00    -0.248 NA
ATOM     43  C   UNL A   1      43.733  26.841  26.244  1.00  0.00     0.031 C 
ATOM     44  C   UNL A   1      39.918  25.602  28.843  1.00  0.00     0.029 A 
ATOM     45  N   UNL A   1      41.069  27.444  29.294  1.00  0.00    -0.354 N 
ATOM     46  C   UNL A   1      45.122  27.954  27.668  1.00  0.00     0.074 A 
ATOM     47  C   UNL A   1      44.830  27.595  26.305  1.00  0.00     0.031 C 
ATOM     48  C   UNL A   1      39.039  26.524  29.295  1.00  0.00     0.029 A 
ATOM     49  C   UNL A   1      39.746  27.764  29.570  1.00  0.00     0.049 A 
ATOM     50  H   UNL A   1      41.822  28.040  29.512  1.00  0.00     0.167 HD
ATOM     51  C   UNL A   1      45.793  29.024  28.172  1.00  0.00     0.037 A 
ATOM     52  C   UNL A   1      39.260  28.984  29.914  1.00  0.00     0.037 A 
ATOM     53  C   UNL A   1      45.938  28.941  29.603  1.00  0.00     0.049 A 
ATOM     54  C   UNL A   1      40.393  29.788  30.441  1.00  0.00     0.074 A 
ATOM     55  C   UNL A   1      46.476  28.011  30.473  1.00  0.00     0.029 A 
ATOM     56  N   UNL A   1      45.174  29.776  30.380  1.00  0.00    -0.354 N 
ATOM     57  N   UNL A   1      41.007  29.547  31.565  1.00  0.00    -0.248 NA
ATOM     58  C   UNL A   1      41.108  30.663  29.523  1.00  0.00     0.031 C 
ATOM     59  C   UNL A   1      45.637  28.047  31.625  1.00  0.00     0.029 A 
ATOM     60  C   UNL A   1      44.666  29.024  31.408  1.00  0.00     0.049 A 
ATOM     61  H   UNL A   1      45.019  30.736  30.227  1.00  0.00     0.167 HD
ATOM     62  C   UNL A   1      42.334  29.862  31.320  1.00  0.00     0.074 A 
ATOM     63  C   UNL A   1      42.312  30.659  30.098  1.00  0.00     0.031 C 
ATOM     64  C   UNL A   1      43.346  29.213  31.969  1.00  0.00     0.037 A 
BRANCH  51  65
ATOM     65  C   UNL A   1      45.981  30.311  27.405  1.00  0.00     0.058 A 
ATOM     66  C   UNL A   1      47.249  30.922  27.368  1.00  0.00     0.135 A 
ATOM     67  C   UNL A   1      44.905  31.107  26.950  1.00  0.00     0.135 A 
ATOM     68  F   UNL A   1      48.337  30.263  27.799  1.00  0.00    -0.206 F 
ATOM     69  C   UNL A   1      47.425  32.248  26.969  1.00  0.00     0.059 A 
ATOM     70  C   UNL A   1      45.066  32.409  26.494  1.00  0.00     0.059 A 
ATOM     71  F   UNL A   1      43.632  30.698  27.025  1.00  0.00    -0.206 F 
ATOM     72  C   UNL A   1      46.322  32.987  26.550  1.00  0.00     0.060 A 
BRANCH  72  73
ATOM     73  S   UNL A   1      46.520  34.730  26.149  1.00  0.00     0.124 S 
ATOM     74  O   UNL A   1      47.286  35.204  27.295  1.00  0.00    -0.237 OA
ATOM     75  O   UNL A   1      47.236  34.672  24.878  1.00  0.00    -0.237 OA
ATOM     76  O   UNL A   1      45.144  35.211  26.063  1.00  0.00    -0.744 OA
ENDBRANCH  72  73
ENDBRANCH  51  65
BRANCH  52  77
ATOM     77  C   UNL A   1      37.960  29.598  29.531  1.00  0.00     0.058 A 
ATOM     78  C   UNL A   1      37.091  30.120  30.507  1.00  0.00     0.135 A 
ATOM     79  C   UNL A   1      37.667  29.943  28.195  1.00  0.00     0.135 A 
ATOM     80  F   UNL A   1      37.300  29.859  31.807  1.00  0.00    -0.206 F 
ATOM     81  C   UNL A   1      36.038  30.982  30.186  1.00  0.00     0.059 A 
ATOM     82  C   UNL A   1      36.611  30.783  27.850  1.00  0.00     0.059 A 
ATOM     83  F   UNL A   1      38.457  29.555  27.184  1.00  0.00    -0.206 F 
ATOM     84  C   UNL A   1      35.820  31.326  28.852  1.00  0.00     0.060 A 
BRANCH  84  85
ATOM     85  S   UNL A   1      34.598  32.593  28.444  1.00  0.00     0.124 S 
ATOM     86  O   UNL A   1      35.392  33.541  27.671  1.00  0.00    -0.237 OA
ATOM     87  O   UNL A   1      33.603  31.832  27.695  1.00  0.00    -0.237 OA
ATOM     88  O   UNL A   1      34.155  33.069  29.753  1.00  0.00    -0.744 OA
ENDBRANCH  84  85
ENDBRANCH  52  77
BRANCH  64  89
ATOM     89  C   UNL A   1      43.010  28.450  33.225  1.00  0.00     0.058 A 
ATOM     90  C   UNL A   1      42.902  27.051  33.312  1.00  0.00     0.135 A 
ATOM     91  C   UNL A   1      42.880  29.174  34.421  1.00  0.00     0.135 A 
ATOM     92  F   UNL A   1      43.133  26.271  32.245  1.00  0.00    -0.206 F 
ATOM     93  C   UNL A   1      42.604  26.410  34.515  1.00  0.00     0.059 A 
ATOM     94  C   UNL A   1      42.620  28.553  35.640  1.00  0.00     0.059 A 
ATOM     95  F   UNL A   1      43.039  30.509  34.423  1.00  0.00    -0.206 F 
ATOM     96  C   UNL A   1      42.457  27.170  35.674  1.00  0.00     0.060 A 
BRANCH  96  97
ATOM     97  S   UNL A   1      42.103  26.336  37.236  1.00  0.00     0.124 S 
ATOM     98  O   UNL A   1      42.200  24.929  36.861  1.00  0.00    -0.237 OA
ATOM     99  O   UNL A   1      43.161  26.835  38.111  1.00  0.00    -0.237 OA
ATOM    100  O   UNL A   1      40.759  26.799  37.574  1.00  0.00    -0.744 OA
ENDBRANCH  96  97
ENDBRANCH  64  89
ENDBRANCH  38  39
ENDBRANCH  31  33
ENDBRANCH  30  31
ENDBRANCH  29  30
ENDBRANCH   1  29
TORSDOF 18
ENDMDL
