MODEL 1
REMARK VINA RESULT:     -10.9      0.000      0.000
REMARK SMILES CC[C@@](C)([NH2+]CC(=O)N[C@@H](C)c1ccc(F)cc1)C(=O)OCCOC(=O)c1ccc(-c2c3nc(c(-c4c(F)cc(S(=O)(=O)[O-])cc4F)c4ccc([nH]4)c(-c4c(F)cc(S(=O)(=O)[O-])cc4F)c4nc(c(-c5c(F)cc(S(=O)(=O)[O-])cc5F)c5ccc2[nH]5)C=C4)C=C3)cc1
REMARK SMILES IDX 22 1 21 2 19 3 20 4 3 5 4 6 2 7 1 8 5 9 6 12 7 13 8 14 9 15
REMARK SMILES IDX 10 17 11 18 12 19 13 20 18 21 14 22 17 23 15 24 16 25 23 26
REMARK SMILES IDX 24 27 25 28 26 29 27 30 28 31 92 32 29 33 91 34 30 35 31 36
REMARK SMILES IDX 32 37 85 38 33 39 90 40 84 41 86 42 34 43 89 44 83 45 82 46
REMARK SMILES IDX 35 48 69 49 48 50 68 51 49 52 52 53 67 54 87 55 50 56 51 57
REMARK SMILES IDX 66 59 88 60 53 61 36 62 37 63 46 64 38 65 39 66 45 67 47 68
REMARK SMILES IDX 40 69 41 70 42 71 43 72 44 73 70 74 71 75 80 76 72 77 73 78
REMARK SMILES IDX 79 79 81 80 74 81 75 82 76 83 77 84 78 85 54 86 55 87 64 88
REMARK SMILES IDX 56 89 57 90 63 91 65 92 58 93 59 94 60 95 61 96 62 97
REMARK H PARENT 5 10 5 11 9 16 86 47 52 58
REMARK Flexibility Score: inf
ROOT
ATOM      1  C   UNL A   1      36.183  21.434  25.368  1.00  0.00     0.274 C 
ENDROOT
BRANCH   1   2
ATOM      2  O   UNL A   1      34.869  22.036  25.387  1.00  0.00    -0.457 OA
BRANCH   2   3
ATOM      3  C   UNL A   1      33.885  21.422  26.118  1.00  0.00     0.367 C 
ATOM      4  O   UNL A   1      33.999  21.133  27.303  1.00  0.00    -0.245 OA
BRANCH   3   5
ATOM      5  C   UNL A   1      32.626  21.106  25.243  1.00  0.00     0.191 C 
ATOM      6  C   UNL A   1      32.666  21.542  23.770  1.00  0.00     0.092 C 
BRANCH   5   7
ATOM      7  C   UNL A   1      32.552  19.546  25.214  1.00  0.00     0.077 C 
ATOM      8  C   UNL A   1      33.745  18.900  24.478  1.00  0.00     0.011 C 
ENDBRANCH   5   7
BRANCH   5   9
ATOM      9  N   UNL A   1      31.404  21.732  25.832  1.00  0.00    -0.325 N 
ATOM     10  H   UNL A   1      31.504  21.694  26.847  1.00  0.00     0.347 HD
ATOM     11  H   UNL A   1      30.630  21.194  25.442  1.00  0.00     0.347 HD
BRANCH   9  12
ATOM     12  C   UNL A   1      31.097  23.145  25.470  1.00  0.00     0.362 C 
BRANCH  12  13
ATOM     13  C   UNL A   1      30.492  24.056  26.555  1.00  0.00     0.275 C 
ATOM     14  O   UNL A   1      29.625  23.627  27.323  1.00  0.00    -0.268 OA
ATOM     15  N   UNL A   1      30.940  25.346  26.747  1.00  0.00    -0.345 N 
ATOM     16  H   UNL A   1      30.839  25.701  27.660  1.00  0.00     0.164 HD
BRANCH  15  17
ATOM     17  C   UNL A   1      31.546  26.258  25.777  1.00  0.00     0.109 C 
ATOM     18  C   UNL A   1      30.497  26.691  24.738  1.00  0.00     0.036 C 
BRANCH  17  19
ATOM     19  C   UNL A   1      32.332  27.432  26.344  1.00  0.00    -0.026 A 
ATOM     20  C   UNL A   1      31.654  28.587  26.800  1.00  0.00     0.009 A 
ATOM     21  C   UNL A   1      33.731  27.481  26.273  1.00  0.00     0.009 A 
ATOM     22  C   UNL A   1      32.345  29.728  27.206  1.00  0.00     0.039 A 
ATOM     23  C   UNL A   1      34.424  28.629  26.672  1.00  0.00     0.039 A 
ATOM     24  C   UNL A   1      33.727  29.739  27.137  1.00  0.00     0.123 A 
ATOM     25  F   UNL A   1      34.397  30.837  27.505  1.00  0.00    -0.207 F 
ENDBRANCH  17  19
ENDBRANCH  15  17
ENDBRANCH  12  13
ENDBRANCH   9  12
ENDBRANCH   5   9
ENDBRANCH   3   5
ENDBRANCH   2   3
ENDBRANCH   1   2
BRANCH   1  26
ATOM     26  C   UNL A   1      37.135  22.314  24.556  1.00  0.00     0.275 C 
BRANCH  26  27
ATOM     27  O   UNL A   1      37.680  23.282  25.461  1.00  0.00    -0.458 OA
BRANCH  27  28
ATOM     28  C   UNL A   1      38.874  22.985  26.013  1.00  0.00     0.338 C 
ATOM     29  O   UNL A   1      39.552  21.979  25.857  1.00  0.00    -0.246 OA
BRANCH  28  30
ATOM     30  C   UNL A   1      39.305  24.194  26.723  1.00  0.00     0.060 A 
ATOM     31  C   UNL A   1      38.864  24.351  28.038  1.00  0.00     0.016 A 
ATOM     32  C   UNL A   1      40.110  25.157  26.130  1.00  0.00     0.016 A 
ATOM     33  C   UNL A   1      39.201  25.477  28.764  1.00  0.00     0.010 A 
ATOM     34  C   UNL A   1      40.509  26.263  26.891  1.00  0.00     0.010 A 
ATOM     35  C   UNL A   1      40.056  26.427  28.214  1.00  0.00    -0.014 A 
BRANCH  35  36
ATOM     36  C   UNL A   1      40.450  27.598  29.029  1.00  0.00     0.031 A 
ATOM     37  C   UNL A   1      41.733  27.548  29.800  1.00  0.00     0.074 A 
ATOM     38  C   UNL A   1      39.684  28.708  29.049  1.00  0.00     0.049 A 
ATOM     39  N   UNL A   1      42.130  28.310  30.781  1.00  0.00    -0.248 NA
ATOM     40  C   UNL A   1      42.696  26.501  29.418  1.00  0.00     0.031 C 
ATOM     41  C   UNL A   1      38.483  28.929  28.236  1.00  0.00     0.029 A 
ATOM     42  N   UNL A   1      39.796  29.860  29.785  1.00  0.00    -0.354 N 
ATOM     43  C   UNL A   1      43.357  27.799  31.178  1.00  0.00     0.074 A 
ATOM     44  C   UNL A   1      43.657  26.679  30.315  1.00  0.00     0.031 C 
ATOM     45  C   UNL A   1      37.974  30.138  28.519  1.00  0.00     0.029 A 
ATOM     46  C   UNL A   1      38.740  30.726  29.610  1.00  0.00     0.049 A 
ATOM     47  H   UNL A   1      40.557  30.050  30.381  1.00  0.00     0.167 HD
ATOM     48  C   UNL A   1      44.140  28.227  32.191  1.00  0.00     0.037 A 
ATOM     49  C   UNL A   1      38.378  31.820  30.308  1.00  0.00     0.037 A 
ATOM     50  C   UNL A   1      43.833  29.375  33.002  1.00  0.00     0.049 A 
ATOM     51  C   UNL A   1      39.209  32.218  31.496  1.00  0.00     0.074 A 
ATOM     52  C   UNL A   1      44.550  29.891  34.065  1.00  0.00     0.029 A 
ATOM     53  N   UNL A   1      42.724  30.189  32.829  1.00  0.00    -0.354 N 
ATOM     54  N   UNL A   1      40.319  31.676  31.938  1.00  0.00    -0.248 NA
ATOM     55  C   UNL A   1      38.723  33.343  32.306  1.00  0.00     0.031 C 
ATOM     56  C   UNL A   1      43.852  30.996  34.561  1.00  0.00     0.029 A 
ATOM     57  C   UNL A   1      42.723  31.192  33.780  1.00  0.00     0.049 A 
ATOM     58  H   UNL A   1      42.039  30.072  32.131  1.00  0.00     0.167 HD
ATOM     59  C   UNL A   1      40.663  32.392  33.077  1.00  0.00     0.074 A 
ATOM     60  C   UNL A   1      39.657  33.420  33.246  1.00  0.00     0.031 C 
ATOM     61  C   UNL A   1      41.711  32.208  33.916  1.00  0.00     0.037 A 
BRANCH  48  62
ATOM     62  C   UNL A   1      45.371  27.441  32.524  1.00  0.00     0.058 A 
ATOM     63  C   UNL A   1      45.292  26.377  33.438  1.00  0.00     0.135 A 
ATOM     64  C   UNL A   1      46.636  27.794  32.032  1.00  0.00     0.135 A 
ATOM     65  F   UNL A   1      44.101  25.990  33.923  1.00  0.00    -0.206 F 
ATOM     66  C   UNL A   1      46.429  25.715  33.883  1.00  0.00     0.059 A 
ATOM     67  C   UNL A   1      47.787  27.131  32.450  1.00  0.00     0.059 A 
ATOM     68  F   UNL A   1      46.758  28.783  31.133  1.00  0.00    -0.206 F 
ATOM     69  C   UNL A   1      47.674  26.108  33.392  1.00  0.00     0.060 A 
BRANCH  69  70
ATOM     70  S   UNL A   1      49.143  25.254  34.002  1.00  0.00     0.124 S 
ATOM     71  O   UNL A   1      48.566  24.060  34.609  1.00  0.00    -0.237 OA
ATOM     72  O   UNL A   1      49.904  25.040  32.776  1.00  0.00    -0.237 OA
ATOM     73  O   UNL A   1      49.730  26.213  34.935  1.00  0.00    -0.744 OA
ENDBRANCH  69  70
ENDBRANCH  48  62
BRANCH  49  74
ATOM     74  C   UNL A   1      37.114  32.532  29.976  1.00  0.00     0.058 A 
ATOM     75  C   UNL A   1      37.113  33.640  29.111  1.00  0.00     0.135 A 
ATOM     76  C   UNL A   1      35.887  32.133  30.522  1.00  0.00     0.135 A 
ATOM     77  F   UNL A   1      38.260  34.065  28.559  1.00  0.00    -0.206 F 
ATOM     78  C   UNL A   1      35.950  34.344  28.824  1.00  0.00     0.059 A 
ATOM     79  C   UNL A   1      34.702  32.803  30.226  1.00  0.00     0.059 A 
ATOM     80  F   UNL A   1      35.831  31.069  31.339  1.00  0.00    -0.206 F 
ATOM     81  C   UNL A   1      34.747  33.918  29.390  1.00  0.00     0.060 A 
BRANCH  81  82
ATOM     82  S   UNL A   1      33.244  34.835  28.992  1.00  0.00     0.124 S 
ATOM     83  O   UNL A   1      32.637  33.974  27.981  1.00  0.00    -0.237 OA
ATOM     84  O   UNL A   1      32.559  34.880  30.280  1.00  0.00    -0.237 OA
ATOM     85  O   UNL A   1      33.749  36.115  28.510  1.00  0.00    -0.744 OA
ENDBRANCH  81  82
ENDBRANCH  49  74
BRANCH  61  86
ATOM     86  C   UNL A   1      41.840  33.136  35.086  1.00  0.00     0.058 A 
ATOM     87  C   UNL A   1      42.566  34.330  34.967  1.00  0.00     0.135 A 
ATOM     88  C   UNL A   1      41.354  32.777  36.351  1.00  0.00     0.135 A 
ATOM     89  F   UNL A   1      43.052  34.712  33.774  1.00  0.00    -0.206 F 
ATOM     90  C   UNL A   1      42.843  35.120  36.075  1.00  0.00     0.059 A 
ATOM     91  C   UNL A   1      41.601  33.564  37.471  1.00  0.00     0.059 A 
ATOM     92  F   UNL A   1      40.642  31.650  36.507  1.00  0.00    -0.206 F 
ATOM     93  C   UNL A   1      42.368  34.720  37.326  1.00  0.00     0.060 A 
BRANCH  93  94
ATOM     94  S   UNL A   1      42.774  35.736  38.761  1.00  0.00     0.124 S 
ATOM     95  O   UNL A   1      43.253  36.963  38.133  1.00  0.00    -0.237 OA
ATOM     96  O   UNL A   1      41.487  35.833  39.444  1.00  0.00    -0.237 OA
ATOM     97  O   UNL A   1      43.787  34.948  39.457  1.00  0.00    -0.744 OA
ENDBRANCH  93  94
ENDBRANCH  61  86
ENDBRANCH  35  36
ENDBRANCH  28  30
ENDBRANCH  27  28
ENDBRANCH  26  27
ENDBRANCH   1  26
TORSDOF 20
ENDMDL
MODEL 2
REMARK VINA RESULT:     -10.7      4.794     11.111
REMARK SMILES CC[C@@](C)([NH2+]CC(=O)N[C@@H](C)c1ccc(F)cc1)C(=O)OCCOC(=O)c1ccc(-c2c3nc(c(-c4c(F)cc(S(=O)(=O)[O-])cc4F)c4ccc([nH]4)c(-c4c(F)cc(S(=O)(=O)[O-])cc4F)c4nc(c(-c5c(F)cc(S(=O)(=O)[O-])cc5F)c5ccc2[nH]5)C=C4)C=C3)cc1
REMARK SMILES IDX 22 1 21 2 19 3 20 4 3 5 4 6 2 7 1 8 5 9 6 12 7 13 8 14 9 15
REMARK SMILES IDX 10 17 11 18 12 19 13 20 18 21 14 22 17 23 15 24 16 25 23 26
REMARK SMILES IDX 24 27 25 28 26 29 27 30 28 31 92 32 29 33 91 34 30 35 31 36
REMARK SMILES IDX 32 37 85 38 33 39 90 40 84 41 86 42 34 43 89 44 83 45 82 46
REMARK SMILES IDX 35 48 69 49 48 50 68 51 49 52 52 53 67 54 87 55 50 56 51 57
REMARK SMILES IDX 66 59 88 60 53 61 36 62 37 63 46 64 38 65 39 66 45 67 47 68
REMARK SMILES IDX 40 69 41 70 42 71 43 72 44 73 70 74 71 75 80 76 72 77 73 78
REMARK SMILES IDX 79 79 81 80 74 81 75 82 76 83 77 84 78 85 54 86 55 87 64 88
REMARK SMILES IDX 56 89 57 90 63 91 65 92 58 93 59 94 60 95 61 96 62 97
REMARK H PARENT 5 10 5 11 9 16 86 47 52 58
REMARK Flexibility Score: inf
ROOT
ATOM      1  C   UNL A   1      33.901  34.020  27.968  1.00  0.00     0.274 C 
ENDROOT
BRANCH   1   2
ATOM      2  O   UNL A   1      35.103  34.403  28.674  1.00  0.00    -0.457 OA
BRANCH   2   3
ATOM      3  C   UNL A   1      35.087  34.376  30.045  1.00  0.00     0.367 C 
ATOM      4  O   UNL A   1      34.216  34.906  30.726  1.00  0.00    -0.245 OA
BRANCH   3   5
ATOM      5  C   UNL A   1      36.333  33.626  30.623  1.00  0.00     0.191 C 
ATOM      6  C   UNL A   1      36.082  32.281  31.323  1.00  0.00     0.092 C 
BRANCH   5   7
ATOM      7  C   UNL A   1      37.202  33.288  29.371  1.00  0.00     0.077 C 
ATOM      8  C   UNL A   1      38.394  34.252  29.186  1.00  0.00     0.011 C 
ENDBRANCH   5   7
BRANCH   5   9
ATOM      9  N   UNL A   1      37.052  34.485  31.612  1.00  0.00    -0.325 N 
ATOM     10  H   UNL A   1      36.391  35.190  31.937  1.00  0.00     0.347 HD
ATOM     11  H   UNL A   1      37.862  34.838  31.100  1.00  0.00     0.347 HD
BRANCH   9  12
ATOM     12  C   UNL A   1      37.631  33.830  32.820  1.00  0.00     0.362 C 
BRANCH  12  13
ATOM     13  C   UNL A   1      39.162  33.859  32.996  1.00  0.00     0.275 C 
ATOM     14  O   UNL A   1      39.866  34.544  32.249  1.00  0.00    -0.268 OA
ATOM     15  N   UNL A   1      39.783  33.181  34.023  1.00  0.00    -0.345 N 
ATOM     16  H   UNL A   1      40.640  33.560  34.327  1.00  0.00     0.164 HD
BRANCH  15  17
ATOM     17  C   UNL A   1      39.341  31.975  34.723  1.00  0.00     0.109 C 
ATOM     18  C   UNL A   1      38.080  32.280  35.549  1.00  0.00     0.036 C 
BRANCH  17  19
ATOM     19  C   UNL A   1      39.206  30.711  33.885  1.00  0.00    -0.026 A 
ATOM     20  C   UNL A   1      37.924  30.218  33.546  1.00  0.00     0.009 A 
ATOM     21  C   UNL A   1      40.316  29.913  33.575  1.00  0.00     0.009 A 
ATOM     22  C   UNL A   1      37.759  28.998  32.891  1.00  0.00     0.039 A 
ATOM     23  C   UNL A   1      40.150  28.686  32.924  1.00  0.00     0.039 A 
ATOM     24  C   UNL A   1      38.877  28.241  32.586  1.00  0.00     0.123 A 
ATOM     25  F   UNL A   1      38.727  27.060  31.975  1.00  0.00    -0.207 F 
ENDBRANCH  17  19
ENDBRANCH  15  17
ENDBRANCH  12  13
ENDBRANCH   9  12
ENDBRANCH   5   9
ENDBRANCH   3   5
ENDBRANCH   2   3
ENDBRANCH   1   2
BRANCH   1  26
ATOM     26  C   UNL A   1      33.617  32.537  28.212  1.00  0.00     0.275 C 
BRANCH  26  27
ATOM     27  O   UNL A   1      34.661  31.802  27.563  1.00  0.00    -0.458 OA
BRANCH  27  28
ATOM     28  C   UNL A   1      34.608  30.458  27.669  1.00  0.00     0.338 C 
ATOM     29  O   UNL A   1      33.691  29.709  27.362  1.00  0.00    -0.246 OA
BRANCH  28  30
ATOM     30  C   UNL A   1      35.951  30.029  28.073  1.00  0.00     0.060 A 
ATOM     31  C   UNL A   1      36.977  30.187  27.141  1.00  0.00     0.016 A 
ATOM     32  C   UNL A   1      36.212  29.480  29.322  1.00  0.00     0.016 A 
ATOM     33  C   UNL A   1      38.264  29.778  27.433  1.00  0.00     0.010 A 
ATOM     34  C   UNL A   1      37.530  29.133  29.643  1.00  0.00     0.010 A 
ATOM     35  C   UNL A   1      38.564  29.282  28.698  1.00  0.00    -0.014 A 
BRANCH  35  36
ATOM     36  C   UNL A   1      39.961  28.903  29.010  1.00  0.00     0.031 A 
ATOM     37  C   UNL A   1      40.877  29.929  29.602  1.00  0.00     0.074 A 
ATOM     38  C   UNL A   1      40.391  27.643  28.799  1.00  0.00     0.049 A 
ATOM     39  N   UNL A   1      42.177  29.915  29.685  1.00  0.00    -0.248 NA
ATOM     40  C   UNL A   1      40.245  31.130  30.175  1.00  0.00     0.031 C 
ATOM     41  C   UNL A   1      39.559  26.520  28.353  1.00  0.00     0.029 A 
ATOM     42  N   UNL A   1      41.642  27.091  28.924  1.00  0.00    -0.354 N 
ATOM     43  C   UNL A   1      42.528  31.128  30.259  1.00  0.00     0.074 A 
ATOM     44  C   UNL A   1      41.304  31.846  30.533  1.00  0.00     0.031 C 
ATOM     45  C   UNL A   1      40.320  25.421  28.245  1.00  0.00     0.029 A 
ATOM     46  C   UNL A   1      41.708  25.784  28.498  1.00  0.00     0.049 A 
ATOM     47  H   UNL A   1      42.416  27.583  29.283  1.00  0.00     0.167 HD
ATOM     48  C   UNL A   1      43.771  31.595  30.508  1.00  0.00     0.037 A 
ATOM     49  C   UNL A   1      42.772  24.995  28.251  1.00  0.00     0.037 A 
ATOM     50  C   UNL A   1      44.967  30.835  30.266  1.00  0.00     0.049 A 
ATOM     51  C   UNL A   1      44.148  25.571  28.437  1.00  0.00     0.074 A 
ATOM     52  C   UNL A   1      46.281  31.216  30.469  1.00  0.00     0.029 A 
ATOM     53  N   UNL A   1      44.993  29.537  29.779  1.00  0.00    -0.354 N 
ATOM     54  N   UNL A   1      44.487  26.756  28.885  1.00  0.00    -0.248 NA
ATOM     55  C   UNL A   1      45.285  24.726  28.047  1.00  0.00     0.031 C 
ATOM     56  C   UNL A   1      47.104  30.159  30.067  1.00  0.00     0.029 A 
ATOM     57  C   UNL A   1      46.301  29.108  29.652  1.00  0.00     0.049 A 
ATOM     58  H   UNL A   1      44.198  29.001  29.557  1.00  0.00     0.167 HD
ATOM     59  C   UNL A   1      45.873  26.801  28.829  1.00  0.00     0.074 A 
ATOM     60  C   UNL A   1      46.314  25.517  28.325  1.00  0.00     0.031 C 
ATOM     61  C   UNL A   1      46.707  27.818  29.156  1.00  0.00     0.037 A 
BRANCH  48  62
ATOM     62  C   UNL A   1      43.919  32.996  31.019  1.00  0.00     0.058 A 
ATOM     63  C   UNL A   1      43.854  33.244  32.400  1.00  0.00     0.135 A 
ATOM     64  C   UNL A   1      44.020  34.096  30.156  1.00  0.00     0.135 A 
ATOM     65  F   UNL A   1      43.775  32.221  33.267  1.00  0.00    -0.206 F 
ATOM     66  C   UNL A   1      43.843  34.537  32.906  1.00  0.00     0.059 A 
ATOM     67  C   UNL A   1      44.029  35.401  30.643  1.00  0.00     0.059 A 
ATOM     68  F   UNL A   1      44.117  33.908  28.831  1.00  0.00    -0.206 F 
ATOM     69  C   UNL A   1      43.918  35.610  32.018  1.00  0.00     0.060 A 
BRANCH  69  70
ATOM     70  S   UNL A   1      43.875  37.284  32.693  1.00  0.00     0.124 S 
ATOM     71  O   UNL A   1      42.788  37.191  33.661  1.00  0.00    -0.237 OA
ATOM     72  O   UNL A   1      45.216  37.423  33.254  1.00  0.00    -0.237 OA
ATOM     73  O   UNL A   1      43.606  38.115  31.522  1.00  0.00    -0.744 OA
ENDBRANCH  69  70
ENDBRANCH  48  62
BRANCH  49  74
ATOM     74  C   UNL A   1      42.574  23.632  27.687  1.00  0.00     0.058 A 
ATOM     75  C   UNL A   1      42.462  22.511  28.526  1.00  0.00     0.135 A 
ATOM     76  C   UNL A   1      42.507  23.417  26.303  1.00  0.00     0.135 A 
ATOM     77  F   UNL A   1      42.520  22.658  29.859  1.00  0.00    -0.206 F 
ATOM     78  C   UNL A   1      42.322  21.226  28.017  1.00  0.00     0.059 A 
ATOM     79  C   UNL A   1      42.336  22.143  25.768  1.00  0.00     0.059 A 
ATOM     80  F   UNL A   1      42.589  24.458  25.460  1.00  0.00    -0.206 F 
ATOM     81  C   UNL A   1      42.262  21.051  26.634  1.00  0.00     0.060 A 
BRANCH  81  82
ATOM     82  S   UNL A   1      42.062  19.376  25.991  1.00  0.00     0.124 S 
ATOM     83  O   UNL A   1      42.560  18.575  27.104  1.00  0.00    -0.237 OA
ATOM     84  O   UNL A   1      40.624  19.306  25.752  1.00  0.00    -0.237 OA
ATOM     85  O   UNL A   1      42.894  19.376  24.792  1.00  0.00    -0.744 OA
ENDBRANCH  81  82
ENDBRANCH  49  74
BRANCH  61  86
ATOM     86  C   UNL A   1      48.180  27.592  28.992  1.00  0.00     0.058 A 
ATOM     87  C   UNL A   1      48.942  27.086  30.055  1.00  0.00     0.135 A 
ATOM     88  C   UNL A   1      48.850  27.999  27.830  1.00  0.00     0.135 A 
ATOM     89  F   UNL A   1      48.342  26.685  31.189  1.00  0.00    -0.206 F 
ATOM     90  C   UNL A   1      50.328  27.028  29.987  1.00  0.00     0.059 A 
ATOM     91  C   UNL A   1      50.235  27.930  27.731  1.00  0.00     0.059 A 
ATOM     92  F   UNL A   1      48.158  28.476  26.783  1.00  0.00    -0.206 F 
ATOM     93  C   UNL A   1      50.966  27.466  28.825  1.00  0.00     0.060 A 
BRANCH  93  94
ATOM     94  S   UNL A   1      52.769  27.424  28.770  1.00  0.00     0.124 S 
ATOM     95  O   UNL A   1      53.073  26.376  29.739  1.00  0.00    -0.237 OA
ATOM     96  O   UNL A   1      53.028  27.091  27.373  1.00  0.00    -0.237 OA
ATOM     97  O   UNL A   1      53.152  28.776  29.167  1.00  0.00    -0.744 OA
ENDBRANCH  93  94
ENDBRANCH  61  86
ENDBRANCH  35  36
ENDBRANCH  28  30
ENDBRANCH  27  28
ENDBRANCH  26  27
ENDBRANCH   1  26
TORSDOF 20
ENDMDL
MODEL 3
REMARK VINA RESULT:     -10.3      5.809     11.431
REMARK SMILES CC[C@@](C)([NH2+]CC(=O)N[C@@H](C)c1ccc(F)cc1)C(=O)OCCOC(=O)c1ccc(-c2c3nc(c(-c4c(F)cc(S(=O)(=O)[O-])cc4F)c4ccc([nH]4)c(-c4c(F)cc(S(=O)(=O)[O-])cc4F)c4nc(c(-c5c(F)cc(S(=O)(=O)[O-])cc5F)c5ccc2[nH]5)C=C4)C=C3)cc1
REMARK SMILES IDX 22 1 21 2 19 3 20 4 3 5 4 6 2 7 1 8 5 9 6 12 7 13 8 14 9 15
REMARK SMILES IDX 10 17 11 18 12 19 13 20 18 21 14 22 17 23 15 24 16 25 23 26
REMARK SMILES IDX 24 27 25 28 26 29 27 30 28 31 92 32 29 33 91 34 30 35 31 36
REMARK SMILES IDX 32 37 85 38 33 39 90 40 84 41 86 42 34 43 89 44 83 45 82 46
REMARK SMILES IDX 35 48 69 49 48 50 68 51 49 52 52 53 67 54 87 55 50 56 51 57
REMARK SMILES IDX 66 59 88 60 53 61 36 62 37 63 46 64 38 65 39 66 45 67 47 68
REMARK SMILES IDX 40 69 41 70 42 71 43 72 44 73 70 74 71 75 80 76 72 77 73 78
REMARK SMILES IDX 79 79 81 80 74 81 75 82 76 83 77 84 78 85 54 86 55 87 64 88
REMARK SMILES IDX 56 89 57 90 63 91 65 92 58 93 59 94 60 95 61 96 62 97
REMARK H PARENT 5 10 5 11 9 16 86 47 52 58
REMARK Flexibility Score: inf
ROOT
ATOM      1  C   UNL A   1      37.549  32.165  34.956  1.00  0.00     0.274 C 
ENDROOT
BRANCH   1   2
ATOM      2  O   UNL A   1      36.308  32.760  34.513  1.00  0.00    -0.457 OA
BRANCH   2   3
ATOM      3  C   UNL A   1      36.354  34.004  33.938  1.00  0.00     0.367 C 
ATOM      4  O   UNL A   1      37.030  34.930  34.371  1.00  0.00    -0.245 OA
BRANCH   3   5
ATOM      5  C   UNL A   1      35.409  34.101  32.693  1.00  0.00     0.191 C 
ATOM      6  C   UNL A   1      34.743  32.801  32.214  1.00  0.00     0.092 C 
BRANCH   5   7
ATOM      7  C   UNL A   1      34.238  35.021  33.162  1.00  0.00     0.077 C 
ATOM      8  C   UNL A   1      34.406  36.487  32.710  1.00  0.00     0.011 C 
ENDBRANCH   5   7
BRANCH   5   9
ATOM      9  N   UNL A   1      36.145  34.654  31.516  1.00  0.00    -0.325 N 
ATOM     10  H   UNL A   1      36.463  35.589  31.770  1.00  0.00     0.347 HD
ATOM     11  H   UNL A   1      35.471  34.607  30.751  1.00  0.00     0.347 HD
BRANCH   9  12
ATOM     12  C   UNL A   1      37.330  33.902  31.015  1.00  0.00     0.362 C 
BRANCH  12  13
ATOM     13  C   UNL A   1      37.688  34.026  29.520  1.00  0.00     0.275 C 
ATOM     14  O   UNL A   1      38.716  34.613  29.168  1.00  0.00    -0.268 OA
ATOM     15  N   UNL A   1      36.917  33.435  28.542  1.00  0.00    -0.345 N 
ATOM     16  H   UNL A   1      37.392  33.191  27.715  1.00  0.00     0.164 HD
BRANCH  15  17
ATOM     17  C   UNL A   1      35.488  33.122  28.568  1.00  0.00     0.109 C 
ATOM     18  C   UNL A   1      34.685  34.289  27.970  1.00  0.00     0.036 C 
BRANCH  17  19
ATOM     19  C   UNL A   1      35.077  31.771  27.999  1.00  0.00    -0.026 A 
ATOM     20  C   UNL A   1      33.737  31.545  27.604  1.00  0.00     0.009 A 
ATOM     21  C   UNL A   1      35.948  30.673  28.010  1.00  0.00     0.009 A 
ATOM     22  C   UNL A   1      33.296  30.286  27.200  1.00  0.00     0.039 A 
ATOM     23  C   UNL A   1      35.503  29.408  27.612  1.00  0.00     0.039 A 
ATOM     24  C   UNL A   1      34.186  29.226  27.208  1.00  0.00     0.123 A 
ATOM     25  F   UNL A   1      33.765  28.009  26.842  1.00  0.00    -0.207 F 
ENDBRANCH  17  19
ENDBRANCH  15  17
ENDBRANCH  12  13
ENDBRANCH   9  12
ENDBRANCH   5   9
ENDBRANCH   3   5
ENDBRANCH   2   3
ENDBRANCH   1   2
BRANCH   1  26
ATOM     26  C   UNL A   1      37.791  30.864  34.190  1.00  0.00     0.275 C 
BRANCH  26  27
ATOM     27  O   UNL A   1      37.705  31.180  32.795  1.00  0.00    -0.458 OA
BRANCH  27  28
ATOM     28  C   UNL A   1      37.406  30.160  31.964  1.00  0.00     0.338 C 
ATOM     29  O   UNL A   1      36.307  29.687  31.710  1.00  0.00    -0.246 OA
BRANCH  28  30
ATOM     30  C   UNL A   1      38.653  29.823  31.271  1.00  0.00     0.060 A 
ATOM     31  C   UNL A   1      38.799  30.284  29.963  1.00  0.00     0.016 A 
ATOM     32  C   UNL A   1      39.656  29.070  31.869  1.00  0.00     0.016 A 
ATOM     33  C   UNL A   1      39.931  29.981  29.230  1.00  0.00     0.010 A 
ATOM     34  C   UNL A   1      40.833  28.826  31.151  1.00  0.00     0.010 A 
ATOM     35  C   UNL A   1      40.977  29.282  29.827  1.00  0.00    -0.014 A 
BRANCH  35  36
ATOM     36  C   UNL A   1      42.205  29.017  29.044  1.00  0.00     0.031 A 
ATOM     37  C   UNL A   1      42.400  27.664  28.433  1.00  0.00     0.074 A 
ATOM     38  C   UNL A   1      43.117  29.992  28.853  1.00  0.00     0.049 A 
ATOM     39  N   UNL A   1      43.492  27.126  27.967  1.00  0.00    -0.248 NA
ATOM     40  C   UNL A   1      41.209  26.803  28.334  1.00  0.00     0.031 C 
ATOM     41  C   UNL A   1      42.978  31.387  29.283  1.00  0.00     0.029 A 
ATOM     42  N   UNL A   1      44.351  29.958  28.252  1.00  0.00    -0.354 N 
ATOM     43  C   UNL A   1      43.139  25.842  27.579  1.00  0.00     0.074 A 
ATOM     44  C   UNL A   1      41.724  25.687  27.834  1.00  0.00     0.031 C 
ATOM     45  C   UNL A   1      44.077  32.071  28.931  1.00  0.00     0.029 A 
ATOM     46  C   UNL A   1      45.044  31.142  28.359  1.00  0.00     0.049 A 
ATOM     47  H   UNL A   1      44.705  29.164  27.789  1.00  0.00     0.167 HD
ATOM     48  C   UNL A   1      43.943  24.881  27.075  1.00  0.00     0.037 A 
ATOM     49  C   UNL A   1      46.337  31.427  28.111  1.00  0.00     0.037 A 
ATOM     50  C   UNL A   1      45.338  25.083  26.789  1.00  0.00     0.049 A 
ATOM     51  C   UNL A   1      47.238  30.316  27.649  1.00  0.00     0.074 A 
ATOM     52  C   UNL A   1      46.252  24.174  26.289  1.00  0.00     0.029 A 
ATOM     53  N   UNL A   1      46.015  26.280  26.967  1.00  0.00    -0.354 N 
ATOM     54  N   UNL A   1      46.930  29.071  27.376  1.00  0.00    -0.248 NA
ATOM     55  C   UNL A   1      48.666  30.630  27.501  1.00  0.00     0.031 C 
ATOM     56  C   UNL A   1      47.493  24.812  26.202  1.00  0.00     0.029 A 
ATOM     57  C   UNL A   1      47.341  26.129  26.610  1.00  0.00     0.049 A 
ATOM     58  H   UNL A   1      45.610  27.115  27.299  1.00  0.00     0.167 HD
ATOM     59  C   UNL A   1      48.123  28.452  27.026  1.00  0.00     0.074 A 
ATOM     60  C   UNL A   1      49.157  29.463  27.101  1.00  0.00     0.031 C 
ATOM     61  C   UNL A   1      48.345  27.160  26.685  1.00  0.00     0.037 A 
BRANCH  48  62
ATOM     62  C   UNL A   1      43.369  23.516  26.844  1.00  0.00     0.058 A 
ATOM     63  C   UNL A   1      43.107  22.677  27.939  1.00  0.00     0.135 A 
ATOM     64  C   UNL A   1      43.176  22.999  25.555  1.00  0.00     0.135 A 
ATOM     65  F   UNL A   1      43.260  23.134  29.192  1.00  0.00    -0.206 F 
ATOM     66  C   UNL A   1      42.711  21.357  27.764  1.00  0.00     0.059 A 
ATOM     67  C   UNL A   1      42.761  21.684  25.357  1.00  0.00     0.059 A 
ATOM     68  F   UNL A   1      43.382  23.773  24.479  1.00  0.00    -0.206 F 
ATOM     69  C   UNL A   1      42.553  20.866  26.468  1.00  0.00     0.060 A 
BRANCH  69  70
ATOM     70  S   UNL A   1      42.064  19.140  26.261  1.00  0.00     0.124 S 
ATOM     71  O   UNL A   1      43.006  18.681  25.246  1.00  0.00    -0.237 OA
ATOM     72  O   UNL A   1      42.263  18.602  27.603  1.00  0.00    -0.237 OA
ATOM     73  O   UNL A   1      40.671  19.232  25.831  1.00  0.00    -0.744 OA
ENDBRANCH  69  70
ENDBRANCH  48  62
BRANCH  49  74
ATOM     74  C   UNL A   1      46.874  32.782  28.414  1.00  0.00     0.058 A 
ATOM     75  C   UNL A   1      46.896  33.788  27.433  1.00  0.00     0.135 A 
ATOM     76  C   UNL A   1      47.386  33.098  29.680  1.00  0.00     0.135 A 
ATOM     77  F   UNL A   1      46.418  33.540  26.204  1.00  0.00    -0.206 F 
ATOM     78  C   UNL A   1      47.434  35.044  27.684  1.00  0.00     0.059 A 
ATOM     79  C   UNL A   1      47.902  34.360  29.966  1.00  0.00     0.059 A 
ATOM     80  F   UNL A   1      47.370  32.178  30.658  1.00  0.00    -0.206 F 
ATOM     81  C   UNL A   1      47.938  35.320  28.955  1.00  0.00     0.060 A 
BRANCH  81  82
ATOM     82  S   UNL A   1      48.616  36.964  29.268  1.00  0.00     0.124 S 
ATOM     83  O   UNL A   1      48.697  37.507  27.916  1.00  0.00    -0.237 OA
ATOM     84  O   UNL A   1      47.600  37.558  30.131  1.00  0.00    -0.237 OA
ATOM     85  O   UNL A   1      49.894  36.682  29.912  1.00  0.00    -0.744 OA
ENDBRANCH  81  82
ENDBRANCH  49  74
BRANCH  61  86
ATOM     86  C   UNL A   1      49.751  26.757  26.355  1.00  0.00     0.058 A 
ATOM     87  C   UNL A   1      50.233  26.878  25.043  1.00  0.00     0.135 A 
ATOM     88  C   UNL A   1      50.569  26.136  27.309  1.00  0.00     0.135 A 
ATOM     89  F   UNL A   1      49.482  27.465  24.096  1.00  0.00    -0.206 F 
ATOM     90  C   UNL A   1      51.467  26.356  24.677  1.00  0.00     0.059 A 
ATOM     91  C   UNL A   1      51.817  25.626  26.969  1.00  0.00     0.059 A 
ATOM     92  F   UNL A   1      50.152  26.014  28.579  1.00  0.00    -0.206 F 
ATOM     93  C   UNL A   1      52.246  25.720  25.645  1.00  0.00     0.060 A 
BRANCH  93  94
ATOM     94  S   UNL A   1      53.827  25.010  25.142  1.00  0.00     0.124 S 
ATOM     95  O   UNL A   1      54.017  25.610  23.825  1.00  0.00    -0.237 OA
ATOM     96  O   UNL A   1      54.725  25.484  26.191  1.00  0.00    -0.237 OA
ATOM     97  O   UNL A   1      53.570  23.573  25.147  1.00  0.00    -0.744 OA
ENDBRANCH  93  94
ENDBRANCH  61  86
ENDBRANCH  35  36
ENDBRANCH  28  30
ENDBRANCH  27  28
ENDBRANCH  26  27
ENDBRANCH   1  26
TORSDOF 20
ENDMDL
