MODEL 1
REMARK VINA RESULT:     -11.8      0.000      0.000
REMARK SMILES N#CCOc1ccc2[nH]cc([C@H](C(=O)OCCOC(=O)c3ccc(-c4c5nc(c(-c6c(F)cc(S(=O)(=O)[O-])cc6F)c6ccc([nH]6)c(-c6c(F)cc(S(=O)(=O)[O-])cc6F)c6nc(c(-c7c(F)cc(S(=O)(=O)[O-])cc7F)c7ccc4[nH]7)C=C6)C=C5)cc3)[NH+]3CC[NH+]([C@@H]4CCS(=O)(=O)C4)CC3)c2c1
REMARK SMILES IDX 16 1 15 2 13 3 14 4 12 5 11 6 5 7 6 8 101 9 7 10 100 11 8 12
REMARK SMILES IDX 9 13 10 14 4 16 3 17 2 18 1 19 87 20 88 21 99 22 89 24 98 25
REMARK SMILES IDX 90 26 91 28 92 29 97 30 93 31 94 32 95 33 96 34 17 35 18 36
REMARK SMILES IDX 19 37 20 38 21 39 22 40 86 41 23 42 85 43 24 44 25 45 26 46
REMARK SMILES IDX 79 47 27 48 84 49 78 50 80 51 28 52 83 53 77 54 76 55 29 57
REMARK SMILES IDX 63 58 42 59 62 60 43 61 46 62 61 63 81 64 44 65 45 66 60 68
REMARK SMILES IDX 82 69 47 70 30 71 31 72 40 73 32 74 33 75 39 76 41 77 34 78
REMARK SMILES IDX 35 79 36 80 37 81 38 82 64 83 65 84 74 85 66 86 67 87 73 88
REMARK SMILES IDX 75 89 68 90 69 91 70 92 71 93 72 94 48 95 49 96 58 97 50 98
REMARK SMILES IDX 51 99 57 100 59 101 52 102 53 103 54 104 55 105 56 106
REMARK H PARENT 9 15 87 23 90 27 80 56 46 67
REMARK Flexibility Score: inf
ROOT
ATOM      1  C   UNL A   1      32.913  29.928  27.359  1.00  0.00     0.274 C 
ENDROOT
BRANCH   1   2
ATOM      2  O   UNL A   1      32.623  28.892  26.407  1.00  0.00    -0.457 OA
BRANCH   2   3
ATOM      3  C   UNL A   1      31.743  27.940  26.834  1.00  0.00     0.370 C 
ATOM      4  O   UNL A   1      31.365  27.850  28.001  1.00  0.00    -0.245 OA
BRANCH   3   5
ATOM      5  C   UNL A   1      31.240  27.019  25.707  1.00  0.00     0.328 C 
BRANCH   5   6
ATOM      6  C   UNL A   1      31.445  27.605  24.320  1.00  0.00     0.046 A 
ATOM      7  C   UNL A   1      28.635  29.701  22.726  1.00  0.00     0.121 A 
ATOM      8  C   UNL A   1      29.437  30.238  21.721  1.00  0.00     0.048 A 
ATOM      9  C   UNL A   1      29.188  28.806  23.640  1.00  0.00     0.057 A 
ATOM     10  C   UNL A   1      30.743  29.786  21.513  1.00  0.00     0.030 A 
ATOM     11  C   UNL A   1      30.538  28.392  23.520  1.00  0.00     0.013 A 
ATOM     12  C   UNL A   1      31.262  28.863  22.423  1.00  0.00     0.046 A 
ATOM     13  N   UNL A   1      32.506  28.286  22.466  1.00  0.00    -0.361 N 
ATOM     14  C   UNL A   1      32.624  27.516  23.588  1.00  0.00     0.094 A 
ATOM     15  H   UNL A   1      33.210  28.409  21.790  1.00  0.00     0.166 HD
BRANCH   7  16
ATOM     16  O   UNL A   1      27.349  30.133  22.972  1.00  0.00    -0.479 OA
BRANCH  16  17
ATOM     17  C   UNL A   1      27.245  31.285  23.850  1.00  0.00     0.349 C 
BRANCH  17  18
ATOM     18  C   UNL A   1      27.874  32.495  23.178  1.00  0.00     0.104 C 
ATOM     19  N   UNL A   1      28.395  33.500  22.622  1.00  0.00    -0.195 NA
ENDBRANCH  17  18
ENDBRANCH  16  17
ENDBRANCH   7  16
ENDBRANCH   5   6
BRANCH   5  20
ATOM     20  N   UNL A   1      31.678  25.609  25.803  1.00  0.00    -0.310 N 
ATOM     21  C   UNL A   1      31.010  24.528  25.082  1.00  0.00     0.325 C 
ATOM     22  C   UNL A   1      33.087  25.349  26.113  1.00  0.00     0.325 C 
ATOM     23  H   UNL A   1      31.156  25.521  26.676  1.00  0.00     0.349 HD
ATOM     24  C   UNL A   1      31.874  23.845  24.018  1.00  0.00     0.324 C 
ATOM     25  C   UNL A   1      33.891  24.627  24.994  1.00  0.00     0.324 C 
ATOM     26  N   UNL A   1      33.167  23.430  24.569  1.00  0.00    -0.322 N 
ATOM     27  H   UNL A   1      33.084  22.889  25.430  1.00  0.00     0.348 HD
BRANCH  26  28
ATOM     28  C   UNL A   1      33.824  22.411  23.752  1.00  0.00     0.200 C 
ATOM     29  C   UNL A   1      33.301  21.067  24.311  1.00  0.00     0.082 C 
ATOM     30  C   UNL A   1      35.348  22.280  23.859  1.00  0.00     0.201 C 
ATOM     31  C   UNL A   1      33.963  20.915  25.683  1.00  0.00     0.143 C 
ATOM     32  S   UNL A   1      35.650  21.447  25.409  1.00  0.00     0.156 S 
ATOM     33  O   UNL A   1      36.025  22.424  26.413  1.00  0.00    -0.229 OA
ATOM     34  O   UNL A   1      36.476  20.286  25.147  1.00  0.00    -0.229 OA
ENDBRANCH  26  28
ENDBRANCH   5  20
ENDBRANCH   3   5
ENDBRANCH   2   3
ENDBRANCH   1   2
BRANCH   1  35
ATOM     35  C   UNL A   1      34.411  30.260  27.351  1.00  0.00     0.275 C 
BRANCH  35  36
ATOM     36  O   UNL A   1      35.197  29.464  28.256  1.00  0.00    -0.458 OA
BRANCH  36  37
ATOM     37  C   UNL A   1      35.923  30.142  29.175  1.00  0.00     0.338 C 
ATOM     38  O   UNL A   1      35.499  30.952  29.981  1.00  0.00    -0.246 OA
BRANCH  37  39
ATOM     39  C   UNL A   1      37.350  29.869  28.910  1.00  0.00     0.060 A 
ATOM     40  C   UNL A   1      38.197  29.720  30.005  1.00  0.00     0.016 A 
ATOM     41  C   UNL A   1      37.877  29.838  27.615  1.00  0.00     0.016 A 
ATOM     42  C   UNL A   1      39.573  29.599  29.808  1.00  0.00     0.010 A 
ATOM     43  C   UNL A   1      39.248  29.587  27.423  1.00  0.00     0.010 A 
ATOM     44  C   UNL A   1      40.120  29.449  28.518  1.00  0.00    -0.014 A 
BRANCH  44  45
ATOM     45  C   UNL A   1      41.555  29.034  28.357  1.00  0.00     0.031 A 
ATOM     46  C   UNL A   1      42.714  29.996  28.494  1.00  0.00     0.074 A 
ATOM     47  C   UNL A   1      41.830  27.742  28.065  1.00  0.00     0.049 A 
ATOM     48  N   UNL A   1      43.985  29.800  28.234  1.00  0.00    -0.248 NA
ATOM     49  C   UNL A   1      42.416  31.351  28.981  1.00  0.00     0.031 C 
ATOM     50  C   UNL A   1      40.831  26.681  27.899  1.00  0.00     0.029 A 
ATOM     51  N   UNL A   1      43.025  27.088  27.871  1.00  0.00    -0.354 N 
ATOM     52  C   UNL A   1      44.631  31.007  28.480  1.00  0.00     0.074 A 
ATOM     53  C   UNL A   1      43.608  31.936  28.920  1.00  0.00     0.031 C 
ATOM     54  C   UNL A   1      41.448  25.509  27.717  1.00  0.00     0.029 A 
ATOM     55  C   UNL A   1      42.880  25.746  27.601  1.00  0.00     0.049 A 
ATOM     56  H   UNL A   1      43.899  27.537  27.920  1.00  0.00     0.167 HD
ATOM     57  C   UNL A   1      45.947  31.315  28.342  1.00  0.00     0.037 A 
ATOM     58  C   UNL A   1      43.769  24.804  27.232  1.00  0.00     0.037 A 
ATOM     59  C   UNL A   1      46.974  30.380  27.938  1.00  0.00     0.049 A 
ATOM     60  C   UNL A   1      45.203  25.179  27.036  1.00  0.00     0.074 A 
ATOM     61  C   UNL A   1      48.334  30.608  27.795  1.00  0.00     0.029 A 
ATOM     62  N   UNL A   1      46.765  29.047  27.616  1.00  0.00    -0.354 N 
ATOM     63  N   UNL A   1      45.778  26.342  27.215  1.00  0.00    -0.248 NA
ATOM     64  C   UNL A   1      46.105  24.122  26.559  1.00  0.00     0.031 C 
ATOM     65  C   UNL A   1      48.938  29.429  27.341  1.00  0.00     0.029 A 
ATOM     66  C   UNL A   1      47.965  28.449  27.255  1.00  0.00     0.049 A 
ATOM     67  H   UNL A   1      45.893  28.590  27.641  1.00  0.00     0.167 HD
ATOM     68  C   UNL A   1      47.111  26.159  26.874  1.00  0.00     0.074 A 
ATOM     69  C   UNL A   1      47.262  24.768  26.499  1.00  0.00     0.031 C 
ATOM     70  C   UNL A   1      48.116  27.069  26.869  1.00  0.00     0.037 A 
BRANCH  57  71
ATOM     71  C   UNL A   1      46.379  32.738  28.593  1.00  0.00     0.058 A 
ATOM     72  C   UNL A   1      46.852  33.169  29.843  1.00  0.00     0.135 A 
ATOM     73  C   UNL A   1      46.411  33.661  27.532  1.00  0.00     0.135 A 
ATOM     74  F   UNL A   1      46.835  32.335  30.895  1.00  0.00    -0.206 F 
ATOM     75  C   UNL A   1      47.325  34.465  30.034  1.00  0.00     0.059 A 
ATOM     76  C   UNL A   1      46.903  34.953  27.694  1.00  0.00     0.059 A 
ATOM     77  F   UNL A   1      45.978  33.302  26.313  1.00  0.00    -0.206 F 
ATOM     78  C   UNL A   1      47.350  35.349  28.953  1.00  0.00     0.060 A 
BRANCH  78  79
ATOM     79  S   UNL A   1      47.982  37.022  29.213  1.00  0.00     0.124 S 
ATOM     80  O   UNL A   1      48.828  36.831  30.387  1.00  0.00    -0.237 OA
ATOM     81  O   UNL A   1      48.684  37.288  27.961  1.00  0.00    -0.237 OA
ATOM     82  O   UNL A   1      46.775  37.813  29.432  1.00  0.00    -0.744 OA
ENDBRANCH  78  79
ENDBRANCH  57  71
BRANCH  58  83
ATOM     83  C   UNL A   1      43.288  23.425  26.948  1.00  0.00     0.058 A 
ATOM     84  C   UNL A   1      43.116  22.972  25.633  1.00  0.00     0.135 A 
ATOM     85  C   UNL A   1      43.055  22.514  27.992  1.00  0.00     0.135 A 
ATOM     86  F   UNL A   1      43.311  23.810  24.604  1.00  0.00    -0.206 F 
ATOM     87  C   UNL A   1      42.741  21.661  25.362  1.00  0.00     0.059 A 
ATOM     88  C   UNL A   1      42.716  21.190  27.745  1.00  0.00     0.059 A 
ATOM     89  F   UNL A   1      43.219  22.898  29.268  1.00  0.00    -0.206 F 
ATOM     90  C   UNL A   1      42.556  20.774  26.425  1.00  0.00     0.060 A 
BRANCH  90  91
ATOM     91  S   UNL A   1      42.161  19.050  26.063  1.00  0.00     0.124 S 
ATOM     92  O   UNL A   1      42.962  18.814  24.867  1.00  0.00    -0.237 OA
ATOM     93  O   UNL A   1      42.609  18.371  27.275  1.00  0.00    -0.237 OA
ATOM     94  O   UNL A   1      40.716  19.074  25.862  1.00  0.00    -0.744 OA
ENDBRANCH  90  91
ENDBRANCH  58  83
BRANCH  70  95
ATOM     95  C   UNL A   1      49.480  26.576  26.471  1.00  0.00     0.058 A 
ATOM     96  C   UNL A   1      50.291  25.853  27.359  1.00  0.00     0.135 A 
ATOM     97  C   UNL A   1      49.981  26.829  25.185  1.00  0.00     0.135 A 
ATOM     98  F   UNL A   1      49.865  25.594  28.605  1.00  0.00    -0.206 F 
ATOM     99  C   UNL A   1      51.564  25.425  26.996  1.00  0.00     0.059 A 
ATOM    100  C   UNL A   1      51.241  26.391  24.792  1.00  0.00     0.059 A 
ATOM    101  F   UNL A   1      49.244  27.513  24.295  1.00  0.00    -0.206 F 
ATOM    102  C   UNL A   1      52.032  25.702  25.710  1.00  0.00     0.060 A 
BRANCH 102 103
ATOM    103  S   UNL A   1      53.684  25.139  25.248  1.00  0.00     0.124 S 
ATOM    104  O   UNL A   1      53.596  23.710  25.526  1.00  0.00    -0.237 OA
ATOM    105  O   UNL A   1      53.758  25.507  23.837  1.00  0.00    -0.237 OA
ATOM    106  O   UNL A   1      54.562  25.897  26.134  1.00  0.00    -0.744 OA
ENDBRANCH 102 103
ENDBRANCH  70  95
ENDBRANCH  44  45
ENDBRANCH  37  39
ENDBRANCH  36  37
ENDBRANCH  35  36
ENDBRANCH   1  35
TORSDOF 20
ENDMDL
MODEL 2
REMARK VINA RESULT:     -11.2      5.124      8.947
REMARK SMILES N#CCOc1ccc2[nH]cc([C@H](C(=O)OCCOC(=O)c3ccc(-c4c5nc(c(-c6c(F)cc(S(=O)(=O)[O-])cc6F)c6ccc([nH]6)c(-c6c(F)cc(S(=O)(=O)[O-])cc6F)c6nc(c(-c7c(F)cc(S(=O)(=O)[O-])cc7F)c7ccc4[nH]7)C=C6)C=C5)cc3)[NH+]3CC[NH+]([C@@H]4CCS(=O)(=O)C4)CC3)c2c1
REMARK SMILES IDX 16 1 15 2 13 3 14 4 12 5 11 6 5 7 6 8 101 9 7 10 100 11 8 12
REMARK SMILES IDX 9 13 10 14 4 16 3 17 2 18 1 19 87 20 88 21 99 22 89 24 98 25
REMARK SMILES IDX 90 26 91 28 92 29 97 30 93 31 94 32 95 33 96 34 17 35 18 36
REMARK SMILES IDX 19 37 20 38 21 39 22 40 86 41 23 42 85 43 24 44 25 45 26 46
REMARK SMILES IDX 79 47 27 48 84 49 78 50 80 51 28 52 83 53 77 54 76 55 29 57
REMARK SMILES IDX 63 58 42 59 62 60 43 61 46 62 61 63 81 64 44 65 45 66 60 68
REMARK SMILES IDX 82 69 47 70 30 71 31 72 40 73 32 74 33 75 39 76 41 77 34 78
REMARK SMILES IDX 35 79 36 80 37 81 38 82 64 83 65 84 74 85 66 86 67 87 73 88
REMARK SMILES IDX 75 89 68 90 69 91 70 92 71 93 72 94 48 95 49 96 58 97 50 98
REMARK SMILES IDX 51 99 57 100 59 101 52 102 53 103 54 104 55 105 56 106
REMARK H PARENT 9 15 87 23 90 27 80 56 46 67
REMARK Flexibility Score: inf
ROOT
ATOM      1  C   UNL A   1      31.830  30.045  26.270  1.00  0.00     0.274 C 
ENDROOT
BRANCH   1   2
ATOM      2  O   UNL A   1      32.410  28.737  26.401  1.00  0.00    -0.457 OA
BRANCH   2   3
ATOM      3  C   UNL A   1      31.550  27.758  26.806  1.00  0.00     0.370 C 
ATOM      4  O   UNL A   1      31.156  27.648  27.966  1.00  0.00    -0.245 OA
BRANCH   3   5
ATOM      5  C   UNL A   1      31.091  26.833  25.663  1.00  0.00     0.328 C 
BRANCH   5   6
ATOM      6  C   UNL A   1      31.315  27.430  24.285  1.00  0.00     0.046 A 
ATOM      7  C   UNL A   1      28.578  29.647  22.726  1.00  0.00     0.121 A 
ATOM      8  C   UNL A   1      29.398  30.169  21.726  1.00  0.00     0.048 A 
ATOM      9  C   UNL A   1      29.101  28.720  23.626  1.00  0.00     0.057 A 
ATOM     10  C   UNL A   1      30.686  29.674  21.509  1.00  0.00     0.030 A 
ATOM     11  C   UNL A   1      30.435  28.260  23.497  1.00  0.00     0.013 A 
ATOM     12  C   UNL A   1      31.173  28.720  22.405  1.00  0.00     0.046 A 
ATOM     13  N   UNL A   1      32.396  28.099  22.438  1.00  0.00    -0.361 N 
ATOM     14  C   UNL A   1      32.489  27.310  23.549  1.00  0.00     0.094 A 
ATOM     15  H   UNL A   1      33.103  28.206  21.762  1.00  0.00     0.166 HD
BRANCH   7  16
ATOM     16  O   UNL A   1      27.309  30.120  22.980  1.00  0.00    -0.479 OA
BRANCH  16  17
ATOM     17  C   UNL A   1      27.251  31.291  23.837  1.00  0.00     0.349 C 
BRANCH  17  18
ATOM     18  C   UNL A   1      27.869  32.479  23.118  1.00  0.00     0.104 C 
ATOM     19  N   UNL A   1      28.382  33.465  22.522  1.00  0.00    -0.195 NA
ENDBRANCH  17  18
ENDBRANCH  16  17
ENDBRANCH   7  16
ENDBRANCH   5   6
BRANCH   5  20
ATOM     20  N   UNL A   1      31.556  25.432  25.763  1.00  0.00    -0.310 N 
ATOM     21  C   UNL A   1      30.887  24.332  25.073  1.00  0.00     0.325 C 
ATOM     22  C   UNL A   1      32.977  25.199  26.035  1.00  0.00     0.325 C 
ATOM     23  H   UNL A   1      31.061  25.345  26.651  1.00  0.00     0.349 HD
ATOM     24  C   UNL A   1      31.732  23.651  23.991  1.00  0.00     0.324 C 
ATOM     25  C   UNL A   1      33.762  24.477  24.901  1.00  0.00     0.324 C 
ATOM     26  N   UNL A   1      33.047  23.265  24.510  1.00  0.00    -0.322 N 
ATOM     27  H   UNL A   1      32.998  22.732  25.379  1.00  0.00     0.348 HD
BRANCH  26  28
ATOM     28  C   UNL A   1      33.698  22.247  23.686  1.00  0.00     0.200 C 
ATOM     29  C   UNL A   1      33.131  20.904  24.204  1.00  0.00     0.082 C 
ATOM     30  C   UNL A   1      35.216  22.078  23.823  1.00  0.00     0.201 C 
ATOM     31  C   UNL A   1      33.759  20.708  25.587  1.00  0.00     0.143 C 
ATOM     32  S   UNL A   1      35.464  21.205  25.361  1.00  0.00     0.156 S 
ATOM     33  O   UNL A   1      35.839  22.152  26.394  1.00  0.00    -0.229 OA
ATOM     34  O   UNL A   1      36.268  20.031  25.092  1.00  0.00    -0.229 OA
ENDBRANCH  26  28
ENDBRANCH   5  20
ENDBRANCH   3   5
ENDBRANCH   2   3
ENDBRANCH   1   2
BRANCH   1  35
ATOM     35  C   UNL A   1      32.603  31.063  27.120  1.00  0.00     0.275 C 
BRANCH  35  36
ATOM     36  O   UNL A   1      34.019  30.815  27.193  1.00  0.00    -0.458 OA
BRANCH  36  37
ATOM     37  C   UNL A   1      34.777  31.815  27.700  1.00  0.00     0.338 C 
ATOM     38  O   UNL A   1      34.586  33.011  27.562  1.00  0.00    -0.246 OA
BRANCH  37  39
ATOM     39  C   UNL A   1      35.984  31.207  28.295  1.00  0.00     0.060 A 
ATOM     40  C   UNL A   1      37.138  31.982  28.357  1.00  0.00     0.016 A 
ATOM     41  C   UNL A   1      36.019  29.873  28.715  1.00  0.00     0.016 A 
ATOM     42  C   UNL A   1      38.339  31.409  28.782  1.00  0.00     0.010 A 
ATOM     43  C   UNL A   1      37.202  29.342  29.262  1.00  0.00     0.010 A 
ATOM     44  C   UNL A   1      38.381  30.107  29.318  1.00  0.00    -0.014 A 
BRANCH  44  45
ATOM     45  C   UNL A   1      39.617  29.630  30.027  1.00  0.00     0.031 A 
ATOM     46  C   UNL A   1      40.511  28.538  29.485  1.00  0.00     0.074 A 
ATOM     47  C   UNL A   1      39.944  30.192  31.214  1.00  0.00     0.049 A 
ATOM     48  N   UNL A   1      41.520  27.931  30.067  1.00  0.00    -0.248 NA
ATOM     49  C   UNL A   1      40.245  28.059  28.121  1.00  0.00     0.031 C 
ATOM     50  C   UNL A   1      39.191  31.259  31.881  1.00  0.00     0.029 A 
ATOM     51  N   UNL A   1      40.999  29.965  32.068  1.00  0.00    -0.354 N 
ATOM     52  C   UNL A   1      41.980  26.976  29.166  1.00  0.00     0.074 A 
ATOM     53  C   UNL A   1      41.141  27.086  27.989  1.00  0.00     0.031 C 
ATOM     54  C   UNL A   1      39.844  31.649  32.980  1.00  0.00     0.029 A 
ATOM     55  C   UNL A   1      40.983  30.765  33.187  1.00  0.00     0.049 A 
ATOM     56  H   UNL A   1      41.697  29.292  31.895  1.00  0.00     0.167 HD
ATOM     57  C   UNL A   1      42.996  26.086  29.311  1.00  0.00     0.037 A 
ATOM     58  C   UNL A   1      41.742  30.768  34.300  1.00  0.00     0.037 A 
ATOM     59  C   UNL A   1      43.856  25.999  30.471  1.00  0.00     0.049 A 
ATOM     60  C   UNL A   1      42.821  29.744  34.459  1.00  0.00     0.074 A 
ATOM     61  C   UNL A   1      44.922  25.139  30.687  1.00  0.00     0.029 A 
ATOM     62  N   UNL A   1      43.759  26.793  31.605  1.00  0.00    -0.354 N 
ATOM     63  N   UNL A   1      43.195  28.811  33.619  1.00  0.00    -0.248 NA
ATOM     64  C   UNL A   1      43.560  29.752  35.728  1.00  0.00     0.031 C 
ATOM     65  C   UNL A   1      45.436  25.379  31.967  1.00  0.00     0.029 A 
ATOM     66  C   UNL A   1      44.729  26.428  32.528  1.00  0.00     0.049 A 
ATOM     67  H   UNL A   1      43.099  27.512  31.735  1.00  0.00     0.167 HD
ATOM     68  C   UNL A   1      44.217  28.120  34.258  1.00  0.00     0.074 A 
ATOM     69  C   UNL A   1      44.416  28.757  35.544  1.00  0.00     0.031 C 
ATOM     70  C   UNL A   1      44.920  27.050  33.814  1.00  0.00     0.037 A 
BRANCH  57  71
ATOM     71  C   UNL A   1      43.236  25.088  28.206  1.00  0.00     0.058 A 
ATOM     72  C   UNL A   1      44.183  25.304  27.193  1.00  0.00     0.135 A 
ATOM     73  C   UNL A   1      42.573  23.848  28.222  1.00  0.00     0.135 A 
ATOM     74  F   UNL A   1      44.840  26.473  27.121  1.00  0.00    -0.206 F 
ATOM     75  C   UNL A   1      44.451  24.335  26.228  1.00  0.00     0.059 A 
ATOM     76  C   UNL A   1      42.842  22.855  27.284  1.00  0.00     0.059 A 
ATOM     77  F   UNL A   1      41.662  23.582  29.173  1.00  0.00    -0.206 F 
ATOM     78  C   UNL A   1      43.778  23.113  26.284  1.00  0.00     0.060 A 
BRANCH  78  79
ATOM     79  S   UNL A   1      44.148  21.860  25.036  1.00  0.00     0.124 S 
ATOM     80  O   UNL A   1      43.909  22.601  23.802  1.00  0.00    -0.237 OA
ATOM     81  O   UNL A   1      45.543  21.537  25.322  1.00  0.00    -0.237 OA
ATOM     82  O   UNL A   1      43.190  20.797  25.324  1.00  0.00    -0.744 OA
ENDBRANCH  78  79
ENDBRANCH  57  71
BRANCH  58  83
ATOM     83  C   UNL A   1      41.436  31.740  35.384  1.00  0.00     0.058 A 
ATOM     84  C   UNL A   1      42.174  32.923  35.527  1.00  0.00     0.135 A 
ATOM     85  C   UNL A   1      40.355  31.530  36.255  1.00  0.00     0.135 A 
ATOM     86  F   UNL A   1      43.225  33.159  34.728  1.00  0.00    -0.206 F 
ATOM     87  C   UNL A   1      41.843  33.870  36.490  1.00  0.00     0.059 A 
ATOM     88  C   UNL A   1      39.983  32.478  37.199  1.00  0.00     0.059 A 
ATOM     89  F   UNL A   1      39.611  30.417  36.148  1.00  0.00    -0.206 F 
ATOM     90  C   UNL A   1      40.737  33.644  37.313  1.00  0.00     0.060 A 
BRANCH  90  91
ATOM     91  S   UNL A   1      40.257  34.920  38.496  1.00  0.00     0.124 S 
ATOM     92  O   UNL A   1      40.922  36.094  37.943  1.00  0.00    -0.237 OA
ATOM     93  O   UNL A   1      38.801  34.903  38.392  1.00  0.00    -0.237 OA
ATOM     94  O   UNL A   1      40.795  34.422  39.759  1.00  0.00    -0.744 OA
ENDBRANCH  90  91
ENDBRANCH  58  83
BRANCH  70  95
ATOM     95  C   UNL A   1      45.996  26.518  34.720  1.00  0.00     0.058 A 
ATOM     96  C   UNL A   1      47.309  27.013  34.677  1.00  0.00     0.135 A 
ATOM     97  C   UNL A   1      45.709  25.502  35.645  1.00  0.00     0.135 A 
ATOM     98  F   UNL A   1      47.640  27.976  33.802  1.00  0.00    -0.206 F 
ATOM     99  C   UNL A   1      48.308  26.497  35.496  1.00  0.00     0.059 A 
ATOM    100  C   UNL A   1      46.686  24.987  36.491  1.00  0.00     0.059 A 
ATOM    101  F   UNL A   1      44.469  24.996  35.731  1.00  0.00    -0.206 F 
ATOM    102  C   UNL A   1      47.987  25.480  36.398  1.00  0.00     0.060 A 
BRANCH 102 103
ATOM    103  S   UNL A   1      49.289  24.820  37.460  1.00  0.00     0.124 S 
ATOM    104  O   UNL A   1      50.319  25.846  37.335  1.00  0.00    -0.237 OA
ATOM    105  O   UNL A   1      48.626  24.743  38.759  1.00  0.00    -0.237 OA
ATOM    106  O   UNL A   1      49.608  23.533  36.848  1.00  0.00    -0.744 OA
ENDBRANCH 102 103
ENDBRANCH  70  95
ENDBRANCH  44  45
ENDBRANCH  37  39
ENDBRANCH  36  37
ENDBRANCH  35  36
ENDBRANCH   1  35
TORSDOF 20
ENDMDL
MODEL 3
REMARK VINA RESULT:     -10.7      1.553      2.134
REMARK SMILES N#CCOc1ccc2[nH]cc([C@H](C(=O)OCCOC(=O)c3ccc(-c4c5nc(c(-c6c(F)cc(S(=O)(=O)[O-])cc6F)c6ccc([nH]6)c(-c6c(F)cc(S(=O)(=O)[O-])cc6F)c6nc(c(-c7c(F)cc(S(=O)(=O)[O-])cc7F)c7ccc4[nH]7)C=C6)C=C5)cc3)[NH+]3CC[NH+]([C@@H]4CCS(=O)(=O)C4)CC3)c2c1
REMARK SMILES IDX 16 1 15 2 13 3 14 4 12 5 11 6 5 7 6 8 101 9 7 10 100 11 8 12
REMARK SMILES IDX 9 13 10 14 4 16 3 17 2 18 1 19 87 20 88 21 99 22 89 24 98 25
REMARK SMILES IDX 90 26 91 28 92 29 97 30 93 31 94 32 95 33 96 34 17 35 18 36
REMARK SMILES IDX 19 37 20 38 21 39 22 40 86 41 23 42 85 43 24 44 25 45 26 46
REMARK SMILES IDX 79 47 27 48 84 49 78 50 80 51 28 52 83 53 77 54 76 55 29 57
REMARK SMILES IDX 63 58 42 59 62 60 43 61 46 62 61 63 81 64 44 65 45 66 60 68
REMARK SMILES IDX 82 69 47 70 30 71 31 72 40 73 32 74 33 75 39 76 41 77 34 78
REMARK SMILES IDX 35 79 36 80 37 81 38 82 64 83 65 84 74 85 66 86 67 87 73 88
REMARK SMILES IDX 75 89 68 90 69 91 70 92 71 93 72 94 48 95 49 96 58 97 50 98
REMARK SMILES IDX 51 99 57 100 59 101 52 102 53 103 54 104 55 105 56 106
REMARK H PARENT 9 15 87 23 90 27 80 56 46 67
REMARK Flexibility Score: inf
ROOT
ATOM      1  C   UNL A   1      33.610  27.924  26.298  1.00  0.00     0.274 C 
ENDROOT
BRANCH   1   2
ATOM      2  O   UNL A   1      32.842  26.738  26.560  1.00  0.00    -0.457 OA
BRANCH   2   3
ATOM      3  C   UNL A   1      31.495  26.929  26.666  1.00  0.00     0.370 C 
ATOM      4  O   UNL A   1      30.973  27.520  27.610  1.00  0.00    -0.245 OA
BRANCH   3   5
ATOM      5  C   UNL A   1      30.700  26.371  25.470  1.00  0.00     0.328 C 
BRANCH   5   6
ATOM      6  C   UNL A   1      31.036  27.056  24.157  1.00  0.00     0.046 A 
ATOM      7  C   UNL A   1      28.550  29.592  22.665  1.00  0.00     0.121 A 
ATOM      8  C   UNL A   1      29.455  30.126  21.750  1.00  0.00     0.048 A 
ATOM      9  C   UNL A   1      28.959  28.559  23.509  1.00  0.00     0.057 A 
ATOM     10  C   UNL A   1      30.714  29.553  21.550  1.00  0.00     0.030 A 
ATOM     11  C   UNL A   1      30.260  28.010  23.402  1.00  0.00     0.013 A 
ATOM     12  C   UNL A   1      31.084  28.497  22.386  1.00  0.00     0.046 A 
ATOM     13  N   UNL A   1      32.256  27.783  22.422  1.00  0.00    -0.361 N 
ATOM     14  C   UNL A   1      32.234  26.904  23.467  1.00  0.00     0.094 A 
ATOM     15  H   UNL A   1      33.002  27.889  21.789  1.00  0.00     0.166 HD
BRANCH   7  16
ATOM     16  O   UNL A   1      27.308  30.139  22.900  1.00  0.00    -0.479 OA
BRANCH  16  17
ATOM     17  C   UNL A   1      27.299  31.274  23.807  1.00  0.00     0.349 C 
BRANCH  17  18
ATOM     18  C   UNL A   1      27.891  32.487  23.110  1.00  0.00     0.104 C 
ATOM     19  N   UNL A   1      28.383  33.495  22.532  1.00  0.00    -0.195 NA
ENDBRANCH  17  18
ENDBRANCH  16  17
ENDBRANCH   7  16
ENDBRANCH   5   6
BRANCH   5  20
ATOM     20  N   UNL A   1      30.684  24.895  25.359  1.00  0.00    -0.310 N 
ATOM     21  C   UNL A   1      30.912  24.201  24.094  1.00  0.00     0.325 C 
ATOM     22  C   UNL A   1      31.036  24.115  26.549  1.00  0.00     0.325 C 
ATOM     23  H   UNL A   1      29.666  24.924  25.307  1.00  0.00     0.349 HD
ATOM     24  C   UNL A   1      32.186  23.351  24.056  1.00  0.00     0.324 C 
ATOM     25  C   UNL A   1      32.326  23.255  26.423  1.00  0.00     0.324 C 
ATOM     26  N   UNL A   1      32.256  22.447  25.208  1.00  0.00    -0.322 N 
ATOM     27  H   UNL A   1      31.407  21.897  25.342  1.00  0.00     0.348 HD
BRANCH  26  28
ATOM     28  C   UNL A   1      33.184  21.338  24.995  1.00  0.00     0.200 C 
ATOM     29  C   UNL A   1      33.529  20.837  26.417  1.00  0.00     0.082 C 
ATOM     30  C   UNL A   1      34.553  21.657  24.381  1.00  0.00     0.201 C 
ATOM     31  C   UNL A   1      34.407  21.933  27.029  1.00  0.00     0.143 C 
ATOM     32  S   UNL A   1      35.507  22.399  25.695  1.00  0.00     0.156 S 
ATOM     33  O   UNL A   1      35.501  23.841  25.537  1.00  0.00    -0.229 OA
ATOM     34  O   UNL A   1      36.748  21.664  25.826  1.00  0.00    -0.229 OA
ENDBRANCH  26  28
ENDBRANCH   5  20
ENDBRANCH   3   5
ENDBRANCH   2   3
ENDBRANCH   1   2
BRANCH   1  35
ATOM     35  C   UNL A   1      33.722  28.781  27.566  1.00  0.00     0.275 C 
BRANCH  35  36
ATOM     36  O   UNL A   1      34.266  30.095  27.344  1.00  0.00    -0.458 OA
BRANCH  36  37
ATOM     37  C   UNL A   1      34.780  30.722  28.427  1.00  0.00     0.338 C 
ATOM     38  O   UNL A   1      34.246  31.606  29.075  1.00  0.00    -0.246 OA
BRANCH  37  39
ATOM     39  C   UNL A   1      36.180  30.279  28.580  1.00  0.00     0.060 A 
ATOM     40  C   UNL A   1      37.001  30.320  27.457  1.00  0.00     0.016 A 
ATOM     41  C   UNL A   1      36.671  29.754  29.780  1.00  0.00     0.016 A 
ATOM     42  C   UNL A   1      38.288  29.784  27.516  1.00  0.00     0.010 A 
ATOM     43  C   UNL A   1      38.012  29.334  29.864  1.00  0.00     0.010 A 
ATOM     44  C   UNL A   1      38.850  29.355  28.735  1.00  0.00    -0.014 A 
BRANCH  44  45
ATOM     45  C   UNL A   1      40.320  29.058  28.818  1.00  0.00     0.031 A 
ATOM     46  C   UNL A   1      41.348  30.086  29.234  1.00  0.00     0.074 A 
ATOM     47  C   UNL A   1      40.753  27.817  28.497  1.00  0.00     0.049 A 
ATOM     48  N   UNL A   1      42.658  30.004  29.203  1.00  0.00    -0.248 NA
ATOM     49  C   UNL A   1      40.852  31.372  29.745  1.00  0.00     0.031 C 
ATOM     50  C   UNL A   1      39.895  26.705  28.076  1.00  0.00     0.029 A 
ATOM     51  N   UNL A   1      42.015  27.269  28.487  1.00  0.00    -0.354 N 
ATOM     52  C   UNL A   1      43.142  31.231  29.646  1.00  0.00     0.074 A 
ATOM     53  C   UNL A   1      41.981  32.044  29.948  1.00  0.00     0.031 C 
ATOM     54  C   UNL A   1      40.633  25.599  27.935  1.00  0.00     0.029 A 
ATOM     55  C   UNL A   1      42.037  25.946  28.105  1.00  0.00     0.049 A 
ATOM     56  H   UNL A   1      42.824  27.774  28.728  1.00  0.00     0.167 HD
ATOM     57  C   UNL A   1      44.431  31.642  29.778  1.00  0.00     0.037 A 
ATOM     58  C   UNL A   1      43.055  25.103  27.847  1.00  0.00     0.037 A 
ATOM     59  C   UNL A   1      45.590  30.819  29.512  1.00  0.00     0.049 A 
ATOM     60  C   UNL A   1      44.464  25.595  27.948  1.00  0.00     0.074 A 
ATOM     61  C   UNL A   1      46.929  31.155  29.641  1.00  0.00     0.029 A 
ATOM     62  N   UNL A   1      45.558  29.505  29.068  1.00  0.00    -0.354 N 
ATOM     63  N   UNL A   1      44.894  26.779  28.309  1.00  0.00    -0.248 NA
ATOM     64  C   UNL A   1      45.524  24.649  27.579  1.00  0.00     0.031 C 
ATOM     65  C   UNL A   1      47.703  30.063  29.231  1.00  0.00     0.029 A 
ATOM     66  C   UNL A   1      46.850  29.026  28.898  1.00  0.00     0.049 A 
ATOM     67  H   UNL A   1      44.738  28.987  28.898  1.00  0.00     0.167 HD
ATOM     68  C   UNL A   1      46.278  26.720  28.212  1.00  0.00     0.074 A 
ATOM     69  C   UNL A   1      46.613  25.378  27.780  1.00  0.00     0.031 C 
ATOM     70  C   UNL A   1      47.185  27.697  28.456  1.00  0.00     0.037 A 
BRANCH  57  71
ATOM     71  C   UNL A   1      44.686  33.067  30.200  1.00  0.00     0.058 A 
ATOM     72  C   UNL A   1      44.718  34.127  29.280  1.00  0.00     0.135 A 
ATOM     73  C   UNL A   1      44.804  33.387  31.564  1.00  0.00     0.135 A 
ATOM     74  F   UNL A   1      44.621  33.881  27.963  1.00  0.00    -0.206 F 
ATOM     75  C   UNL A   1      44.872  35.448  29.696  1.00  0.00     0.059 A 
ATOM     76  C   UNL A   1      44.933  34.701  32.005  1.00  0.00     0.059 A 
ATOM     77  F   UNL A   1      44.773  32.415  32.490  1.00  0.00    -0.206 F 
ATOM     78  C   UNL A   1      44.976  35.726  31.060  1.00  0.00     0.060 A 
BRANCH  78  79
ATOM     79  S   UNL A   1      45.158  37.444  31.586  1.00  0.00     0.124 S 
ATOM     80  O   UNL A   1      43.918  37.653  32.327  1.00  0.00    -0.237 OA
ATOM     81  O   UNL A   1      46.377  37.399  32.388  1.00  0.00    -0.237 OA
ATOM     82  O   UNL A   1      45.267  38.177  30.328  1.00  0.00    -0.744 OA
ENDBRANCH  78  79
ENDBRANCH  57  71
BRANCH  58  83
ATOM     83  C   UNL A   1      42.753  23.721  27.386  1.00  0.00     0.058 A 
ATOM     84  C   UNL A   1      42.725  23.400  26.023  1.00  0.00     0.135 A 
ATOM     85  C   UNL A   1      42.552  22.682  28.310  1.00  0.00     0.135 A 
ATOM     86  F   UNL A   1      42.896  24.362  25.103  1.00  0.00    -0.206 F 
ATOM     87  C   UNL A   1      42.520  22.095  25.590  1.00  0.00     0.059 A 
ATOM     88  C   UNL A   1      42.382  21.366  27.903  1.00  0.00     0.059 A 
ATOM     89  F   UNL A   1      42.582  22.939  29.628  1.00  0.00    -0.206 F 
ATOM     90  C   UNL A   1      42.362  21.082  26.539  1.00  0.00     0.060 A 
BRANCH  90  91
ATOM     91  S   UNL A   1      42.190  19.376  25.974  1.00  0.00     0.124 S 
ATOM     92  O   UNL A   1      43.055  19.372  24.799  1.00  0.00    -0.237 OA
ATOM     93  O   UNL A   1      42.673  18.620  27.125  1.00  0.00    -0.237 OA
ATOM     94  O   UNL A   1      40.760  19.257  25.707  1.00  0.00    -0.744 OA
ENDBRANCH  90  91
ENDBRANCH  58  83
BRANCH  70  95
ATOM     95  C   UNL A   1      48.636  27.337  28.288  1.00  0.00     0.058 A 
ATOM     96  C   UNL A   1      49.397  26.825  29.351  1.00  0.00     0.135 A 
ATOM     97  C   UNL A   1      49.272  27.505  27.048  1.00  0.00     0.135 A 
ATOM     98  F   UNL A   1      48.840  26.656  30.560  1.00  0.00    -0.206 F 
ATOM     99  C   UNL A   1      50.746  26.522  29.199  1.00  0.00     0.059 A 
ATOM    100  C   UNL A   1      50.614  27.186  26.867  1.00  0.00     0.059 A 
ATOM    101  F   UNL A   1      48.589  27.987  25.998  1.00  0.00    -0.206 F 
ATOM    102  C   UNL A   1      51.348  26.710  27.952  1.00  0.00     0.060 A 
BRANCH 102 103
ATOM    103  S   UNL A   1      53.098  26.310  27.764  1.00  0.00     0.124 S 
ATOM    104  O   UNL A   1      53.628  27.556  27.222  1.00  0.00    -0.237 OA
ATOM    105  O   UNL A   1      53.496  25.994  29.133  1.00  0.00    -0.237 OA
ATOM    106  O   UNL A   1      53.091  25.178  26.843  1.00  0.00    -0.744 OA
ENDBRANCH 102 103
ENDBRANCH  70  95
ENDBRANCH  44  45
ENDBRANCH  37  39
ENDBRANCH  36  37
ENDBRANCH  35  36
ENDBRANCH   1  35
TORSDOF 20
ENDMDL
