MODEL 1
REMARK VINA RESULT:     -12.7      0.000      0.000
REMARK SMILES Cc1cccc(O[C@H](C)C(=O)NNC(=O)[C@H]2[C@@H]3CC[C@@H](C3)[C@@H]2C(=O)OCCOC(=O)c2ccc(-c3c4nc(c(-c5c(F)cc(S(=O)(=O)[O-])cc5F)c5ccc([nH]5)c(-c5c(F)cc(S(=O)(=O)[O-])cc5F)c5nc(c(-c6c(F)cc(S(=O)(=O)[O-])cc6F)c6ccc3[nH]6)C=C5)C=C4)cc2)c1
REMARK SMILES IDX 26 1 25 2 23 3 24 4 22 5 16 6 17 7 18 8 21 9 20 10 19 11
REMARK SMILES IDX 14 12 13 13 15 15 12 16 10 17 11 18 8 20 9 21 7 22 6 23 1 24
REMARK SMILES IDX 2 25 3 26 97 27 4 28 5 29 27 30 28 31 29 32 30 33 31 34
REMARK SMILES IDX 32 35 96 36 33 37 95 38 34 39 35 40 36 41 89 42 37 43 94 44
REMARK SMILES IDX 88 45 90 46 38 47 93 48 87 49 86 50 39 52 73 53 52 54 72 55
REMARK SMILES IDX 53 56 56 57 71 58 91 59 54 60 55 61 70 63 92 64 57 65 40 66
REMARK SMILES IDX 41 67 50 68 42 69 43 70 49 71 51 72 44 73 45 74 46 75 47 76
REMARK SMILES IDX 48 77 74 78 75 79 84 80 76 81 77 82 83 83 85 84 78 85 79 86
REMARK SMILES IDX 80 87 81 88 82 89 58 90 59 91 68 92 60 93 61 94 67 95 69 96
REMARK SMILES IDX 62 97 63 98 64 99 65 100 66 101
REMARK H PARENT 13 14 12 19 90 51 56 62
REMARK Flexibility Score: inf
ROOT
ATOM      1  C   UNL A   1      31.512  30.214  25.452  1.00  0.00     0.274 C 
ENDROOT
BRANCH   1   2
ATOM      2  O   UNL A   1      31.926  29.352  24.379  1.00  0.00    -0.462 OA
BRANCH   2   3
ATOM      3  C   UNL A   1      30.893  28.557  23.914  1.00  0.00     0.310 C 
ATOM      4  O   UNL A   1      29.838  28.996  23.531  1.00  0.00    -0.252 OA
BRANCH   3   5
ATOM      5  C   UNL A   1      31.143  27.070  24.111  1.00  0.00     0.115 C 
ATOM      6  C   UNL A   1      32.592  26.672  24.390  1.00  0.00     0.098 C 
ATOM      7  C   UNL A   1      32.819  25.461  23.445  1.00  0.00     0.003 C 
ATOM      8  C   UNL A   1      32.938  25.971  21.993  1.00  0.00     0.005 C 
ATOM      9  C   UNL A   1      31.445  24.800  23.391  1.00  0.00     0.009 C 
ATOM     10  C   UNL A   1      30.745  26.093  22.954  1.00  0.00     0.004 C 
ATOM     11  C   UNL A   1      31.494  26.345  21.643  1.00  0.00     0.005 C 
BRANCH   6  12
ATOM     12  C   UNL A   1      32.930  26.343  25.848  1.00  0.00     0.242 C 
ATOM     13  N   UNL A   1      31.902  26.189  26.759  1.00  0.00    -0.267 N 
ATOM     14  H   UNL A   1      31.763  26.864  27.461  1.00  0.00     0.191 HD
ATOM     15  O   UNL A   1      34.101  26.220  26.217  1.00  0.00    -0.273 OA
BRANCH  13  16
ATOM     16  N   UNL A   1      31.059  25.079  26.684  1.00  0.00    -0.264 N 
ATOM     17  C   UNL A   1      31.335  23.763  26.853  1.00  0.00     0.279 C 
ATOM     18  O   UNL A   1      30.338  23.045  27.044  1.00  0.00    -0.269 OA
ATOM     19  H   UNL A   1      30.118  25.284  26.478  1.00  0.00     0.191 HD
BRANCH  17  20
ATOM     20  C   UNL A   1      32.719  23.089  26.713  1.00  0.00     0.260 C 
ATOM     21  C   UNL A   1      33.189  22.554  28.072  1.00  0.00     0.064 C 
BRANCH  20  22
ATOM     22  O   UNL A   1      33.218  22.395  25.593  1.00  0.00    -0.481 OA
BRANCH  22  23
ATOM     23  C   UNL A   1      34.413  22.632  25.001  1.00  0.00     0.120 A 
ATOM     24  C   UNL A   1      37.695  24.007  26.374  1.00  0.00     0.044 C 
ATOM     25  C   UNL A   1      36.664  23.467  25.430  1.00  0.00    -0.047 A 
ATOM     26  C   UNL A   1      36.936  23.401  24.063  1.00  0.00     0.003 A 
ATOM     27  C   UNL A   1      35.401  23.073  25.888  1.00  0.00     0.049 A 
ATOM     28  C   UNL A   1      35.966  22.938  23.178  1.00  0.00     0.004 A 
ATOM     29  C   UNL A   1      34.711  22.544  23.645  1.00  0.00     0.046 A 
ENDBRANCH  22  23
ENDBRANCH  20  22
ENDBRANCH  17  20
ENDBRANCH  13  16
ENDBRANCH   6  12
ENDBRANCH   3   5
ENDBRANCH   2   3
ENDBRANCH   1   2
BRANCH   1  30
ATOM     30  C   UNL A   1      31.915  29.844  26.890  1.00  0.00     0.275 C 
BRANCH  30  31
ATOM     31  O   UNL A   1      33.313  29.916  27.267  1.00  0.00    -0.458 OA
BRANCH  31  32
ATOM     32  C   UNL A   1      33.996  31.014  27.681  1.00  0.00     0.338 C 
ATOM     33  O   UNL A   1      33.444  32.052  28.020  1.00  0.00    -0.246 OA
BRANCH  32  34
ATOM     34  C   UNL A   1      35.459  30.951  27.564  1.00  0.00     0.060 A 
ATOM     35  C   UNL A   1      35.982  29.705  27.254  1.00  0.00     0.016 A 
ATOM     36  C   UNL A   1      36.271  31.965  28.059  1.00  0.00     0.016 A 
ATOM     37  C   UNL A   1      37.213  29.371  27.790  1.00  0.00     0.010 A 
ATOM     38  C   UNL A   1      37.496  31.611  28.608  1.00  0.00     0.010 A 
ATOM     39  C   UNL A   1      37.884  30.268  28.622  1.00  0.00    -0.014 A 
BRANCH  39  40
ATOM     40  C   UNL A   1      39.062  29.904  29.410  1.00  0.00     0.031 A 
ATOM     41  C   UNL A   1      39.541  28.498  29.307  1.00  0.00     0.074 A 
ATOM     42  C   UNL A   1      39.791  30.780  30.157  1.00  0.00     0.049 A 
ATOM     43  N   UNL A   1      40.539  28.002  29.962  1.00  0.00    -0.248 NA
ATOM     44  C   UNL A   1      38.839  27.476  28.514  1.00  0.00     0.031 C 
ATOM     45  C   UNL A   1      41.243  30.740  30.260  1.00  0.00     0.029 A 
ATOM     46  N   UNL A   1      39.461  31.818  31.029  1.00  0.00    -0.354 N 
ATOM     47  C   UNL A   1      40.858  26.828  29.319  1.00  0.00     0.074 A 
ATOM     48  C   UNL A   1      39.642  26.427  28.684  1.00  0.00     0.031 C 
ATOM     49  C   UNL A   1      41.648  31.549  31.248  1.00  0.00     0.029 A 
ATOM     50  C   UNL A   1      40.477  32.006  31.974  1.00  0.00     0.049 A 
ATOM     51  H   UNL A   1      38.631  32.345  30.986  1.00  0.00     0.167 HD
ATOM     52  C   UNL A   1      42.177  26.526  29.139  1.00  0.00     0.037 A 
ATOM     53  C   UNL A   1      40.339  31.993  33.343  1.00  0.00     0.037 A 
ATOM     54  C   UNL A   1      43.007  27.330  30.043  1.00  0.00     0.049 A 
ATOM     55  C   UNL A   1      41.200  30.910  33.988  1.00  0.00     0.074 A 
ATOM     56  C   UNL A   1      43.861  28.412  29.901  1.00  0.00     0.029 A 
ATOM     57  N   UNL A   1      42.766  27.228  31.403  1.00  0.00    -0.354 N 
ATOM     58  N   UNL A   1      41.941  30.086  33.296  1.00  0.00    -0.248 NA
ATOM     59  C   UNL A   1      41.266  30.601  35.416  1.00  0.00     0.031 C 
ATOM     60  C   UNL A   1      44.134  28.940  31.200  1.00  0.00     0.029 A 
ATOM     61  C   UNL A   1      43.467  28.166  32.131  1.00  0.00     0.049 A 
ATOM     62  H   UNL A   1      42.162  26.561  31.803  1.00  0.00     0.167 HD
ATOM     63  C   UNL A   1      42.526  29.154  34.103  1.00  0.00     0.074 A 
ATOM     64  C   UNL A   1      42.055  29.508  35.430  1.00  0.00     0.031 C 
ATOM     65  C   UNL A   1      43.318  28.164  33.583  1.00  0.00     0.037 A 
BRANCH  52  66
ATOM     66  C   UNL A   1      42.714  25.729  27.951  1.00  0.00     0.058 A 
ATOM     67  C   UNL A   1      42.604  24.320  27.941  1.00  0.00     0.135 A 
ATOM     68  C   UNL A   1      43.427  26.247  26.844  1.00  0.00     0.135 A 
ATOM     69  F   UNL A   1      41.917  23.665  28.887  1.00  0.00    -0.206 F 
ATOM     70  C   UNL A   1      43.201  23.507  26.970  1.00  0.00     0.059 A 
ATOM     71  C   UNL A   1      44.044  25.457  25.871  1.00  0.00     0.059 A 
ATOM     72  F   UNL A   1      43.561  27.553  26.609  1.00  0.00    -0.206 F 
ATOM     73  C   UNL A   1      43.935  24.083  25.944  1.00  0.00     0.060 A 
BRANCH  73  74
ATOM     74  S   UNL A   1      44.714  23.036  24.708  1.00  0.00     0.124 S 
ATOM     75  O   UNL A   1      45.247  21.948  25.523  1.00  0.00    -0.237 OA
ATOM     76  O   UNL A   1      43.588  22.695  23.845  1.00  0.00    -0.237 OA
ATOM     77  O   UNL A   1      45.719  23.907  24.104  1.00  0.00    -0.744 OA
ENDBRANCH  73  74
ENDBRANCH  52  66
BRANCH  53  78
ATOM     78  C   UNL A   1      39.118  32.636  33.933  1.00  0.00     0.058 A 
ATOM     79  C   UNL A   1      38.981  34.029  33.785  1.00  0.00     0.135 A 
ATOM     80  C   UNL A   1      37.982  31.959  34.398  1.00  0.00     0.135 A 
ATOM     81  F   UNL A   1      40.059  34.783  33.510  1.00  0.00    -0.206 F 
ATOM     82  C   UNL A   1      37.744  34.669  33.811  1.00  0.00     0.059 A 
ATOM     83  C   UNL A   1      36.714  32.574  34.409  1.00  0.00     0.059 A 
ATOM     84  F   UNL A   1      38.054  30.663  34.733  1.00  0.00    -0.206 F 
ATOM     85  C   UNL A   1      36.599  33.909  34.012  1.00  0.00     0.060 A 
BRANCH  85  86
ATOM     86  S   UNL A   1      35.008  34.569  33.415  1.00  0.00     0.124 S 
ATOM     87  O   UNL A   1      35.288  34.834  32.011  1.00  0.00    -0.237 OA
ATOM     88  O   UNL A   1      34.079  33.470  33.680  1.00  0.00    -0.237 OA
ATOM     89  O   UNL A   1      34.801  35.743  34.256  1.00  0.00    -0.744 OA
ENDBRANCH  85  86
ENDBRANCH  53  78
BRANCH  65  90
ATOM     90  C   UNL A   1      43.987  27.067  34.382  1.00  0.00     0.058 A 
ATOM     91  C   UNL A   1      45.375  26.981  34.564  1.00  0.00     0.135 A 
ATOM     92  C   UNL A   1      43.242  25.987  34.925  1.00  0.00     0.135 A 
ATOM     93  F   UNL A   1      46.205  27.856  33.976  1.00  0.00    -0.206 F 
ATOM     94  C   UNL A   1      45.968  25.969  35.324  1.00  0.00     0.059 A 
ATOM     95  C   UNL A   1      43.815  24.942  35.639  1.00  0.00     0.059 A 
ATOM     96  F   UNL A   1      41.912  25.900  34.806  1.00  0.00    -0.206 F 
ATOM     97  C   UNL A   1      45.176  24.960  35.868  1.00  0.00     0.060 A 
BRANCH  97  98
ATOM     98  S   UNL A   1      45.937  23.659  36.849  1.00  0.00     0.124 S 
ATOM     99  O   UNL A   1      45.442  23.953  38.191  1.00  0.00    -0.237 OA
ATOM    100  O   UNL A   1      45.389  22.462  36.219  1.00  0.00    -0.237 OA
ATOM    101  O   UNL A   1      47.367  23.872  36.654  1.00  0.00    -0.744 OA
ENDBRANCH  97  98
ENDBRANCH  65  90
ENDBRANCH  39  40
ENDBRANCH  32  34
ENDBRANCH  31  32
ENDBRANCH  30  31
ENDBRANCH   1  30
TORSDOF 19
ENDMDL
MODEL 2
REMARK VINA RESULT:     -12.3      1.630      2.107
REMARK SMILES Cc1cccc(O[C@H](C)C(=O)NNC(=O)[C@H]2[C@@H]3CC[C@@H](C3)[C@@H]2C(=O)OCCOC(=O)c2ccc(-c3c4nc(c(-c5c(F)cc(S(=O)(=O)[O-])cc5F)c5ccc([nH]5)c(-c5c(F)cc(S(=O)(=O)[O-])cc5F)c5nc(c(-c6c(F)cc(S(=O)(=O)[O-])cc6F)c6ccc3[nH]6)C=C5)C=C4)cc2)c1
REMARK SMILES IDX 26 1 25 2 23 3 24 4 22 5 16 6 17 7 18 8 21 9 20 10 19 11
REMARK SMILES IDX 14 12 13 13 15 15 12 16 10 17 11 18 8 20 9 21 7 22 6 23 1 24
REMARK SMILES IDX 2 25 3 26 97 27 4 28 5 29 27 30 28 31 29 32 30 33 31 34
REMARK SMILES IDX 32 35 96 36 33 37 95 38 34 39 35 40 36 41 89 42 37 43 94 44
REMARK SMILES IDX 88 45 90 46 38 47 93 48 87 49 86 50 39 52 73 53 52 54 72 55
REMARK SMILES IDX 53 56 56 57 71 58 91 59 54 60 55 61 70 63 92 64 57 65 40 66
REMARK SMILES IDX 41 67 50 68 42 69 43 70 49 71 51 72 44 73 45 74 46 75 47 76
REMARK SMILES IDX 48 77 74 78 75 79 84 80 76 81 77 82 83 83 85 84 78 85 79 86
REMARK SMILES IDX 80 87 81 88 82 89 58 90 59 91 68 92 60 93 61 94 67 95 69 96
REMARK SMILES IDX 62 97 63 98 64 99 65 100 66 101
REMARK H PARENT 13 14 12 19 90 51 56 62
REMARK Flexibility Score: inf
ROOT
ATOM      1  C   UNL A   1      32.950  28.865  26.738  1.00  0.00     0.274 C 
ENDROOT
BRANCH   1   2
ATOM      2  O   UNL A   1      33.870  28.066  25.973  1.00  0.00    -0.462 OA
BRANCH   2   3
ATOM      3  C   UNL A   1      33.638  28.155  24.612  1.00  0.00     0.310 C 
ATOM      4  O   UNL A   1      34.094  29.028  23.917  1.00  0.00    -0.252 OA
BRANCH   3   5
ATOM      5  C   UNL A   1      32.601  27.161  24.112  1.00  0.00     0.115 C 
ATOM      6  C   UNL A   1      32.546  26.967  22.597  1.00  0.00     0.098 C 
ATOM      7  C   UNL A   1      31.025  27.028  22.285  1.00  0.00     0.003 C 
ATOM      8  C   UNL A   1      30.545  28.490  22.403  1.00  0.00     0.005 C 
ATOM      9  C   UNL A   1      30.390  26.428  23.536  1.00  0.00     0.009 C 
ATOM     10  C   UNL A   1      31.099  27.414  24.473  1.00  0.00     0.004 C 
ATOM     11  C   UNL A   1      30.540  28.725  23.918  1.00  0.00     0.005 C 
BRANCH   6  12
ATOM     12  C   UNL A   1      33.199  25.691  22.058  1.00  0.00     0.242 C 
ATOM     13  N   UNL A   1      33.738  24.782  22.949  1.00  0.00    -0.267 N 
ATOM     14  H   UNL A   1      34.714  24.668  23.004  1.00  0.00     0.191 HD
ATOM     15  O   UNL A   1      33.254  25.468  20.846  1.00  0.00    -0.273 OA
BRANCH  13  16
ATOM     16  N   UNL A   1      32.902  24.028  23.774  1.00  0.00    -0.264 N 
ATOM     17  C   UNL A   1      32.992  23.766  25.101  1.00  0.00     0.279 C 
ATOM     18  O   UNL A   1      31.944  23.340  25.618  1.00  0.00    -0.269 OA
ATOM     19  H   UNL A   1      32.126  23.624  23.322  1.00  0.00     0.191 HD
BRANCH  17  20
ATOM     20  C   UNL A   1      34.273  23.834  25.965  1.00  0.00     0.260 C 
ATOM     21  C   UNL A   1      34.116  22.956  27.214  1.00  0.00     0.064 C 
BRANCH  20  22
ATOM     22  O   UNL A   1      35.596  23.999  25.514  1.00  0.00    -0.481 OA
BRANCH  22  23
ATOM     23  C   UNL A   1      36.544  23.031  25.513  1.00  0.00     0.120 A 
ATOM     24  C   UNL A   1      40.133  22.999  26.804  1.00  0.00     0.044 C 
ATOM     25  C   UNL A   1      38.847  22.567  26.167  1.00  0.00    -0.047 A 
ATOM     26  C   UNL A   1      38.771  21.334  25.516  1.00  0.00     0.003 A 
ATOM     27  C   UNL A   1      37.725  23.403  26.165  1.00  0.00     0.049 A 
ATOM     28  C   UNL A   1      37.590  20.947  24.887  1.00  0.00     0.004 A 
ATOM     29  C   UNL A   1      36.476  21.787  24.894  1.00  0.00     0.046 A 
ENDBRANCH  22  23
ENDBRANCH  20  22
ENDBRANCH  17  20
ENDBRANCH  13  16
ENDBRANCH   6  12
ENDBRANCH   3   5
ENDBRANCH   2   3
ENDBRANCH   1   2
BRANCH   1  30
ATOM     30  C   UNL A   1      33.106  30.395  26.708  1.00  0.00     0.275 C 
BRANCH  30  31
ATOM     31  O   UNL A   1      33.823  31.049  27.786  1.00  0.00    -0.458 OA
BRANCH  31  32
ATOM     32  C   UNL A   1      35.137  31.393  27.807  1.00  0.00     0.338 C 
ATOM     33  O   UNL A   1      35.531  32.528  27.574  1.00  0.00    -0.246 OA
BRANCH  32  34
ATOM     34  C   UNL A   1      36.093  30.293  27.982  1.00  0.00     0.060 A 
ATOM     35  C   UNL A   1      36.050  29.650  29.210  1.00  0.00     0.016 A 
ATOM     36  C   UNL A   1      37.180  30.132  27.129  1.00  0.00     0.016 A 
ATOM     37  C   UNL A   1      37.239  29.168  29.728  1.00  0.00     0.010 A 
ATOM     38  C   UNL A   1      38.369  29.663  27.669  1.00  0.00     0.010 A 
ATOM     39  C   UNL A   1      38.433  29.342  29.028  1.00  0.00    -0.014 A 
BRANCH  39  40
ATOM     40  C   UNL A   1      39.749  29.076  29.609  1.00  0.00     0.031 A 
ATOM     41  C   UNL A   1      40.294  27.699  29.458  1.00  0.00     0.074 A 
ATOM     42  C   UNL A   1      40.535  30.020  30.199  1.00  0.00     0.049 A 
ATOM     43  N   UNL A   1      41.418  27.286  29.942  1.00  0.00    -0.248 NA
ATOM     44  C   UNL A   1      39.535  26.610  28.821  1.00  0.00     0.031 C 
ATOM     45  C   UNL A   1      41.984  30.070  30.052  1.00  0.00     0.029 A 
ATOM     46  N   UNL A   1      40.292  31.065  31.090  1.00  0.00    -0.354 N 
ATOM     47  C   UNL A   1      41.699  26.113  29.281  1.00  0.00     0.074 A 
ATOM     48  C   UNL A   1      40.421  25.618  28.874  1.00  0.00     0.031 C 
ATOM     49  C   UNL A   1      42.498  30.935  30.936  1.00  0.00     0.029 A 
ATOM     50  C   UNL A   1      41.441  31.345  31.842  1.00  0.00     0.049 A 
ATOM     51  H   UNL A   1      39.434  31.539  31.179  1.00  0.00     0.167 HD
ATOM     52  C   UNL A   1      42.985  25.884  28.884  1.00  0.00     0.037 A 
ATOM     53  C   UNL A   1      41.538  31.370  33.214  1.00  0.00     0.037 A 
ATOM     54  C   UNL A   1      43.902  26.767  29.612  1.00  0.00     0.049 A 
ATOM     55  C   UNL A   1      42.566  30.363  33.726  1.00  0.00     0.074 A 
ATOM     56  C   UNL A   1      44.648  27.893  29.300  1.00  0.00     0.029 A 
ATOM     57  N   UNL A   1      43.904  26.697  30.995  1.00  0.00    -0.354 N 
ATOM     58  N   UNL A   1      43.230  29.562  32.936  1.00  0.00    -0.248 NA
ATOM     59  C   UNL A   1      42.895  30.108  35.128  1.00  0.00     0.031 C 
ATOM     60  C   UNL A   1      45.104  28.481  30.521  1.00  0.00     0.029 A 
ATOM     61  C   UNL A   1      44.656  27.699  31.570  1.00  0.00     0.049 A 
ATOM     62  H   UNL A   1      43.422  26.009  31.509  1.00  0.00     0.167 HD
ATOM     63  C   UNL A   1      44.004  28.695  33.651  1.00  0.00     0.074 A 
ATOM     64  C   UNL A   1      43.743  29.065  35.031  1.00  0.00     0.031 C 
ATOM     65  C   UNL A   1      44.758  27.738  33.026  1.00  0.00     0.037 A 
BRANCH  52  66
ATOM     66  C   UNL A   1      43.362  25.081  27.639  1.00  0.00     0.058 A 
ATOM     67  C   UNL A   1      43.843  23.759  27.774  1.00  0.00     0.135 A 
ATOM     68  C   UNL A   1      43.377  25.554  26.305  1.00  0.00     0.135 A 
ATOM     69  F   UNL A   1      43.852  23.135  28.959  1.00  0.00    -0.206 F 
ATOM     70  C   UNL A   1      44.351  23.012  26.705  1.00  0.00     0.059 A 
ATOM     71  C   UNL A   1      43.892  24.833  25.225  1.00  0.00     0.059 A 
ATOM     72  F   UNL A   1      42.875  26.736  25.945  1.00  0.00    -0.206 F 
ATOM     73  C   UNL A   1      44.388  23.563  25.433  1.00  0.00     0.060 A 
BRANCH  73  74
ATOM     74  S   UNL A   1      45.057  22.606  24.066  1.00  0.00     0.124 S 
ATOM     75  O   UNL A   1      46.164  23.446  23.619  1.00  0.00    -0.237 OA
ATOM     76  O   UNL A   1      45.427  21.357  24.722  1.00  0.00    -0.237 OA
ATOM     77  O   UNL A   1      43.937  22.510  23.133  1.00  0.00    -0.744 OA
ENDBRANCH  73  74
ENDBRANCH  52  66
BRANCH  53  78
ATOM     78  C   UNL A   1      40.397  31.959  33.990  1.00  0.00     0.058 A 
ATOM     79  C   UNL A   1      40.194  33.348  33.895  1.00  0.00     0.135 A 
ATOM     80  C   UNL A   1      39.365  31.233  34.601  1.00  0.00     0.135 A 
ATOM     81  F   UNL A   1      41.194  34.146  33.483  1.00  0.00    -0.206 F 
ATOM     82  C   UNL A   1      38.953  33.942  34.117  1.00  0.00     0.059 A 
ATOM     83  C   UNL A   1      38.093  31.801  34.812  1.00  0.00     0.059 A 
ATOM     84  F   UNL A   1      39.529  29.934  34.893  1.00  0.00    -0.206 F 
ATOM     85  C   UNL A   1      37.876  33.137  34.466  1.00  0.00     0.060 A 
BRANCH  85  86
ATOM     86  S   UNL A   1      36.194  33.750  34.123  1.00  0.00     0.124 S 
ATOM     87  O   UNL A   1      35.615  32.658  33.354  1.00  0.00    -0.237 OA
ATOM     88  O   UNL A   1      35.639  33.945  35.463  1.00  0.00    -0.237 OA
ATOM     89  O   UNL A   1      36.435  34.988  33.390  1.00  0.00    -0.744 OA
ENDBRANCH  85  86
ENDBRANCH  53  78
BRANCH  65  90
ATOM     90  C   UNL A   1      45.623  26.710  33.723  1.00  0.00     0.058 A 
ATOM     91  C   UNL A   1      47.005  26.862  33.906  1.00  0.00     0.135 A 
ATOM     92  C   UNL A   1      45.093  25.467  34.155  1.00  0.00     0.135 A 
ATOM     93  F   UNL A   1      47.657  27.925  33.410  1.00  0.00    -0.206 F 
ATOM     94  C   UNL A   1      47.780  25.908  34.572  1.00  0.00     0.059 A 
ATOM     95  C   UNL A   1      45.853  24.481  34.771  1.00  0.00     0.059 A 
ATOM     96  F   UNL A   1      43.799  25.150  34.018  1.00  0.00    -0.206 F 
ATOM     97  C   UNL A   1      47.191  24.725  35.012  1.00  0.00     0.060 A 
BRANCH  97  98
ATOM     98  S   UNL A   1      48.185  23.498  35.871  1.00  0.00     0.124 S 
ATOM     99  O   UNL A   1      48.007  23.879  37.269  1.00  0.00    -0.237 OA
ATOM    100  O   UNL A   1      47.531  22.258  35.464  1.00  0.00    -0.237 OA
ATOM    101  O   UNL A   1      49.526  23.705  35.336  1.00  0.00    -0.744 OA
ENDBRANCH  97  98
ENDBRANCH  65  90
ENDBRANCH  39  40
ENDBRANCH  32  34
ENDBRANCH  31  32
ENDBRANCH  30  31
ENDBRANCH   1  30
TORSDOF 19
ENDMDL
MODEL 3
REMARK VINA RESULT:     -12.0      1.912      2.427
REMARK SMILES Cc1cccc(O[C@H](C)C(=O)NNC(=O)[C@H]2[C@@H]3CC[C@@H](C3)[C@@H]2C(=O)OCCOC(=O)c2ccc(-c3c4nc(c(-c5c(F)cc(S(=O)(=O)[O-])cc5F)c5ccc([nH]5)c(-c5c(F)cc(S(=O)(=O)[O-])cc5F)c5nc(c(-c6c(F)cc(S(=O)(=O)[O-])cc6F)c6ccc3[nH]6)C=C5)C=C4)cc2)c1
REMARK SMILES IDX 26 1 25 2 23 3 24 4 22 5 16 6 17 7 18 8 21 9 20 10 19 11
REMARK SMILES IDX 14 12 13 13 15 15 12 16 10 17 11 18 8 20 9 21 7 22 6 23 1 24
REMARK SMILES IDX 2 25 3 26 97 27 4 28 5 29 27 30 28 31 29 32 30 33 31 34
REMARK SMILES IDX 32 35 96 36 33 37 95 38 34 39 35 40 36 41 89 42 37 43 94 44
REMARK SMILES IDX 88 45 90 46 38 47 93 48 87 49 86 50 39 52 73 53 52 54 72 55
REMARK SMILES IDX 53 56 56 57 71 58 91 59 54 60 55 61 70 63 92 64 57 65 40 66
REMARK SMILES IDX 41 67 50 68 42 69 43 70 49 71 51 72 44 73 45 74 46 75 47 76
REMARK SMILES IDX 48 77 74 78 75 79 84 80 76 81 77 82 83 83 85 84 78 85 79 86
REMARK SMILES IDX 80 87 81 88 82 89 58 90 59 91 68 92 60 93 61 94 67 95 69 96
REMARK SMILES IDX 62 97 63 98 64 99 65 100 66 101
REMARK H PARENT 13 14 12 19 90 51 56 62
REMARK Flexibility Score: inf
ROOT
ATOM      1  C   UNL A   1      32.035  28.729  26.153  1.00  0.00     0.274 C 
ENDROOT
BRANCH   1   2
ATOM      2  O   UNL A   1      32.368  27.333  26.064  1.00  0.00    -0.462 OA
BRANCH   2   3
ATOM      3  C   UNL A   1      31.381  26.595  25.435  1.00  0.00     0.310 C 
ATOM      4  O   UNL A   1      30.326  26.322  25.951  1.00  0.00    -0.252 OA
BRANCH   3   5
ATOM      5  C   UNL A   1      31.827  26.000  24.109  1.00  0.00     0.115 C 
ATOM      6  C   UNL A   1      33.337  25.956  23.876  1.00  0.00     0.098 C 
ATOM      7  C   UNL A   1      33.491  26.493  22.427  1.00  0.00     0.003 C 
ATOM      8  C   UNL A   1      33.247  28.017  22.426  1.00  0.00     0.005 C 
ATOM      9  C   UNL A   1      32.217  26.010  21.740  1.00  0.00     0.009 C 
ATOM     10  C   UNL A   1      31.304  26.659  22.789  1.00  0.00     0.004 C 
ATOM     11  C   UNL A   1      31.729  28.119  22.613  1.00  0.00     0.005 C 
BRANCH   6  12
ATOM     12  C   UNL A   1      34.007  24.591  24.065  1.00  0.00     0.242 C 
ATOM     13  N   UNL A   1      34.552  24.273  25.294  1.00  0.00    -0.267 N 
ATOM     14  H   UNL A   1      35.529  24.214  25.399  1.00  0.00     0.191 HD
ATOM     15  O   UNL A   1      34.072  23.781  23.137  1.00  0.00    -0.273 OA
BRANCH  13  16
ATOM     16  N   UNL A   1      33.719  24.036  26.390  1.00  0.00    -0.264 N 
ATOM     17  C   UNL A   1      32.980  22.943  26.701  1.00  0.00     0.279 C 
ATOM     18  O   UNL A   1      32.599  22.895  27.884  1.00  0.00    -0.269 OA
ATOM     19  H   UNL A   1      33.661  24.776  27.036  1.00  0.00     0.191 HD
BRANCH  17  20
ATOM     20  C   UNL A   1      32.487  21.857  25.717  1.00  0.00     0.260 C 
ATOM     21  C   UNL A   1      31.024  22.116  25.332  1.00  0.00     0.064 C 
BRANCH  20  22
ATOM     22  O   UNL A   1      33.249  21.179  24.747  1.00  0.00    -0.481 OA
BRANCH  22  23
ATOM     23  C   UNL A   1      32.953  19.959  24.239  1.00  0.00     0.120 A 
ATOM     24  C   UNL A   1      33.618  16.439  25.548  1.00  0.00     0.044 C 
ATOM     25  C   UNL A   1      33.171  17.569  24.671  1.00  0.00    -0.047 A 
ATOM     26  C   UNL A   1      32.659  17.304  23.400  1.00  0.00     0.003 A 
ATOM     27  C   UNL A   1      33.306  18.900  25.082  1.00  0.00     0.049 A 
ATOM     28  C   UNL A   1      32.281  18.353  22.566  1.00  0.00     0.004 A 
ATOM     29  C   UNL A   1      32.417  19.677  22.987  1.00  0.00     0.046 A 
ENDBRANCH  22  23
ENDBRANCH  20  22
ENDBRANCH  17  20
ENDBRANCH  13  16
ENDBRANCH   6  12
ENDBRANCH   3   5
ENDBRANCH   2   3
ENDBRANCH   1   2
BRANCH   1  30
ATOM     30  C   UNL A   1      32.674  29.567  27.273  1.00  0.00     0.275 C 
BRANCH  30  31
ATOM     31  O   UNL A   1      33.494  30.708  26.915  1.00  0.00    -0.458 OA
BRANCH  31  32
ATOM     32  C   UNL A   1      34.612  31.148  27.549  1.00  0.00     0.338 C 
ATOM     33  O   UNL A   1      34.814  32.329  27.797  1.00  0.00    -0.246 OA
BRANCH  32  34
ATOM     34  C   UNL A   1      35.654  30.143  27.798  1.00  0.00     0.060 A 
ATOM     35  C   UNL A   1      35.709  29.643  29.090  1.00  0.00     0.016 A 
ATOM     36  C   UNL A   1      36.713  29.962  26.915  1.00  0.00     0.016 A 
ATOM     37  C   UNL A   1      36.950  29.307  29.599  1.00  0.00     0.010 A 
ATOM     38  C   UNL A   1      37.955  29.641  27.444  1.00  0.00     0.010 A 
ATOM     39  C   UNL A   1      38.098  29.483  28.826  1.00  0.00    -0.014 A 
BRANCH  39  40
ATOM     40  C   UNL A   1      39.453  29.376  29.367  1.00  0.00     0.031 A 
ATOM     41  C   UNL A   1      40.105  28.039  29.313  1.00  0.00     0.074 A 
ATOM     42  C   UNL A   1      40.180  30.429  29.836  1.00  0.00     0.049 A 
ATOM     43  N   UNL A   1      41.278  27.763  29.779  1.00  0.00    -0.248 NA
ATOM     44  C   UNL A   1      39.416  26.840  28.809  1.00  0.00     0.031 C 
ATOM     45  C   UNL A   1      41.613  30.581  29.619  1.00  0.00     0.029 A 
ATOM     46  N   UNL A   1      39.885  31.528  30.643  1.00  0.00    -0.354 N 
ATOM     47  C   UNL A   1      41.630  26.561  29.211  1.00  0.00     0.074 A 
ATOM     48  C   UNL A   1      40.383  25.931  28.908  1.00  0.00     0.031 C 
ATOM     49  C   UNL A   1      42.086  31.562  30.399  1.00  0.00     0.029 A 
ATOM     50  C   UNL A   1      41.034  31.966  31.314  1.00  0.00     0.049 A 
ATOM     51  H   UNL A   1      38.995  31.939  30.728  1.00  0.00     0.167 HD
ATOM     52  C   UNL A   1      42.914  26.400  28.777  1.00  0.00     0.037 A 
ATOM     53  C   UNL A   1      41.182  32.124  32.672  1.00  0.00     0.037 A 
ATOM     54  C   UNL A   1      43.782  27.416  29.383  1.00  0.00     0.049 A 
ATOM     55  C   UNL A   1      42.309  31.253  33.223  1.00  0.00     0.074 A 
ATOM     56  C   UNL A   1      44.419  28.564  28.940  1.00  0.00     0.029 A 
ATOM     57  N   UNL A   1      43.843  27.472  30.765  1.00  0.00    -0.354 N 
ATOM     58  N   UNL A   1      43.006  30.439  32.477  1.00  0.00    -0.248 NA
ATOM     59  C   UNL A   1      42.711  31.153  34.626  1.00  0.00     0.031 C 
ATOM     60  C   UNL A   1      44.870  29.295  30.082  1.00  0.00     0.029 A 
ATOM     61  C   UNL A   1      44.530  28.579  31.215  1.00  0.00     0.049 A 
ATOM     62  H   UNL A   1      43.440  26.798  31.359  1.00  0.00     0.167 HD
ATOM     63  C   UNL A   1      43.877  29.705  33.229  1.00  0.00     0.074 A 
ATOM     64  C   UNL A   1      43.640  30.177  34.581  1.00  0.00     0.031 C 
ATOM     65  C   UNL A   1      44.684  28.758  32.656  1.00  0.00     0.037 A 
BRANCH  52  66
ATOM     66  C   UNL A   1      43.310  25.520  27.592  1.00  0.00     0.058 A 
ATOM     67  C   UNL A   1      43.444  24.124  27.766  1.00  0.00     0.135 A 
ATOM     68  C   UNL A   1      43.666  25.964  26.296  1.00  0.00     0.135 A 
ATOM     69  F   UNL A   1      43.101  23.526  28.915  1.00  0.00    -0.206 F 
ATOM     70  C   UNL A   1      43.946  23.269  26.778  1.00  0.00     0.059 A 
ATOM     71  C   UNL A   1      44.183  25.134  25.299  1.00  0.00     0.059 A 
ATOM     72  F   UNL A   1      43.520  27.226  25.892  1.00  0.00    -0.206 F 
ATOM     73  C   UNL A   1      44.330  23.785  25.549  1.00  0.00     0.060 A 
BRANCH  73  74
ATOM     74  S   UNL A   1      44.991  22.686  24.288  1.00  0.00     0.124 S 
ATOM     75  O   UNL A   1      46.099  23.471  23.752  1.00  0.00    -0.237 OA
ATOM     76  O   UNL A   1      45.360  21.512  25.072  1.00  0.00    -0.237 OA
ATOM     77  O   UNL A   1      43.867  22.496  23.375  1.00  0.00    -0.744 OA
ENDBRANCH  73  74
ENDBRANCH  52  66
BRANCH  53  78
ATOM     78  C   UNL A   1      40.026  32.688  33.446  1.00  0.00     0.058 A 
ATOM     79  C   UNL A   1      39.701  34.041  33.235  1.00  0.00     0.135 A 
ATOM     80  C   UNL A   1      39.084  31.941  34.168  1.00  0.00     0.135 A 
ATOM     81  F   UNL A   1      40.612  34.875  32.705  1.00  0.00    -0.206 F 
ATOM     82  C   UNL A   1      38.423  34.550  33.461  1.00  0.00     0.059 A 
ATOM     83  C   UNL A   1      37.778  32.421  34.386  1.00  0.00     0.059 A 
ATOM     84  F   UNL A   1      39.371  30.693  34.568  1.00  0.00    -0.206 F 
ATOM     85  C   UNL A   1      37.434  33.696  33.931  1.00  0.00     0.060 A 
BRANCH  85  86
ATOM     86  S   UNL A   1      35.693  34.135  33.614  1.00  0.00     0.124 S 
ATOM     87  O   UNL A   1      35.731  35.590  33.628  1.00  0.00    -0.237 OA
ATOM     88  O   UNL A   1      35.435  33.520  32.312  1.00  0.00    -0.237 OA
ATOM     89  O   UNL A   1      34.986  33.505  34.724  1.00  0.00    -0.744 OA
ENDBRANCH  85  86
ENDBRANCH  53  78
BRANCH  65  90
ATOM     90  C   UNL A   1      45.658  27.871  33.400  1.00  0.00     0.058 A 
ATOM     91  C   UNL A   1      47.041  28.098  33.429  1.00  0.00     0.135 A 
ATOM     92  C   UNL A   1      45.231  26.681  34.045  1.00  0.00     0.135 A 
ATOM     93  F   UNL A   1      47.592  29.104  32.733  1.00  0.00    -0.206 F 
ATOM     94  C   UNL A   1      47.919  27.275  34.140  1.00  0.00     0.059 A 
ATOM     95  C   UNL A   1      46.091  25.819  34.714  1.00  0.00     0.059 A 
ATOM     96  F   UNL A   1      43.948  26.301  34.076  1.00  0.00    -0.206 F 
ATOM     97  C   UNL A   1      47.431  26.144  34.791  1.00  0.00     0.060 A 
BRANCH  97  98
ATOM     98  S   UNL A   1      48.558  25.086  35.710  1.00  0.00     0.124 S 
ATOM     99  O   UNL A   1      48.843  25.891  36.893  1.00  0.00    -0.237 OA
ATOM    100  O   UNL A   1      47.732  23.904  35.930  1.00  0.00    -0.237 OA
ATOM    101  O   UNL A   1      49.682  24.905  34.797  1.00  0.00    -0.744 OA
ENDBRANCH  97  98
ENDBRANCH  65  90
ENDBRANCH  39  40
ENDBRANCH  32  34
ENDBRANCH  31  32
ENDBRANCH  30  31
ENDBRANCH   1  30
TORSDOF 19
ENDMDL
