MODEL 1
REMARK VINA RESULT:     -11.7      0.000      0.000
REMARK SMILES C[C@@H]1C[C@@H](C)CN(C(=O)Cn2cccc2C(=O)OCCOC(=O)c2ccc(-c3c4nc(c(-c5c(F)cc(S(=O)(=O)[O-])cc5F)c5ccc([nH]5)c(-c5c(F)cc(S(=O)(=O)[O-])cc5F)c5nc(c(-c6c(F)cc(S(=O)(=O)[O-])cc6F)c6ccc3[nH]6)C=C5)C=C4)cc2)C1
REMARK SMILES IDX 20 1 19 2 18 3 16 4 17 5 15 6 11 7 12 8 13 9 14 10 10 11
REMARK SMILES IDX 8 12 1 13 2 14 3 15 90 16 4 17 7 18 6 19 5 20 9 21 21 22
REMARK SMILES IDX 22 23 23 24 24 25 25 26 89 27 26 28 88 29 27 30 28 31 29 32
REMARK SMILES IDX 82 33 30 34 87 35 81 36 83 37 31 38 86 39 80 40 79 41 32 43
REMARK SMILES IDX 66 44 45 45 65 46 46 47 49 48 64 49 84 50 47 51 48 52 63 54
REMARK SMILES IDX 85 55 50 56 33 57 34 58 43 59 35 60 36 61 42 62 44 63 37 64
REMARK SMILES IDX 38 65 39 66 40 67 41 68 67 69 68 70 77 71 69 72 70 73 76 74
REMARK SMILES IDX 78 75 71 76 72 77 73 78 74 79 75 80 51 81 52 82 61 83 53 84
REMARK SMILES IDX 54 85 60 86 62 87 55 88 56 89 57 90 58 91 59 92
REMARK H PARENT 83 42 49 53
REMARK Flexibility Score: inf
ROOT
ATOM      1  C   UNL A   1      39.488  20.182  25.554  1.00  0.00     0.275 C 
ENDROOT
BRANCH   1   2
ATOM      2  C   UNL A   1      39.011  21.591  25.866  1.00  0.00     0.275 C 
BRANCH   2   3
ATOM      3  O   UNL A   1      37.880  21.975  25.064  1.00  0.00    -0.457 OA
BRANCH   3   4
ATOM      4  C   UNL A   1      36.939  22.784  25.637  1.00  0.00     0.355 C 
ATOM      5  O   UNL A   1      37.197  23.818  26.229  1.00  0.00    -0.244 OA
BRANCH   4   6
ATOM      6  C   UNL A   1      35.605  22.219  25.504  1.00  0.00     0.128 A 
ATOM      7  N   UNL A   1      34.371  22.844  25.592  1.00  0.00    -0.333 N 
ATOM      8  C   UNL A   1      33.372  21.908  25.412  1.00  0.00     0.087 A 
ATOM      9  C   UNL A   1      33.951  20.694  25.135  1.00  0.00     0.020 A 
ATOM     10  C   UNL A   1      35.346  20.892  25.174  1.00  0.00     0.035 A 
BRANCH   7  11
ATOM     11  C   UNL A   1      34.075  24.249  25.850  1.00  0.00     0.222 C 
BRANCH  11  12
ATOM     12  C   UNL A   1      33.567  25.017  24.635  1.00  0.00     0.242 C 
ATOM     13  C   UNL A   1      33.960  28.371  23.750  1.00  0.00     0.009 C 
ATOM     14  C   UNL A   1      32.445  28.158  23.827  1.00  0.00     0.006 C 
ATOM     15  C   UNL A   1      31.879  28.655  25.177  1.00  0.00     0.010 C 
ATOM     16  C   UNL A   1      32.090  26.679  23.583  1.00  0.00     0.122 C 
ATOM     17  C   UNL A   1      32.230  27.711  26.342  1.00  0.00     0.006 C 
ATOM     18  N   UNL A   1      32.477  25.879  24.736  1.00  0.00    -0.341 N 
ATOM     19  C   UNL A   1      31.795  26.293  25.952  1.00  0.00     0.122 C 
ATOM     20  C   UNL A   1      31.607  28.179  27.660  1.00  0.00     0.009 C 
ATOM     21  O   UNL A   1      34.115  24.819  23.542  1.00  0.00    -0.273 OA
ENDBRANCH  11  12
ENDBRANCH   7  11
ENDBRANCH   4   6
ENDBRANCH   3   4
ENDBRANCH   2   3
ENDBRANCH   1   2
BRANCH   1  22
ATOM     22  O   UNL A   1      40.335  19.695  26.588  1.00  0.00    -0.458 OA
BRANCH  22  23
ATOM     23  C   UNL A   1      41.589  19.448  26.152  1.00  0.00     0.338 C 
ATOM     24  O   UNL A   1      42.025  18.412  25.669  1.00  0.00    -0.246 OA
BRANCH  23  25
ATOM     25  C   UNL A   1      42.465  20.552  26.479  1.00  0.00     0.060 A 
ATOM     26  C   UNL A   1      42.459  20.974  27.811  1.00  0.00     0.016 A 
ATOM     27  C   UNL A   1      42.855  21.364  25.411  1.00  0.00     0.016 A 
ATOM     28  C   UNL A   1      42.672  22.308  28.056  1.00  0.00     0.010 A 
ATOM     29  C   UNL A   1      43.017  22.704  25.652  1.00  0.00     0.010 A 
ATOM     30  C   UNL A   1      42.881  23.163  26.964  1.00  0.00    -0.014 A 
BRANCH  30  31
ATOM     31  C   UNL A   1      43.192  24.557  27.262  1.00  0.00     0.031 A 
ATOM     32  C   UNL A   1      41.844  25.282  27.496  1.00  0.00     0.074 A 
ATOM     33  C   UNL A   1      44.522  24.900  27.178  1.00  0.00     0.049 A 
ATOM     34  N   UNL A   1      41.489  26.469  27.134  1.00  0.00    -0.248 NA
ATOM     35  C   UNL A   1      40.663  24.554  28.069  1.00  0.00     0.031 C 
ATOM     36  C   UNL A   1      45.653  23.958  26.939  1.00  0.00     0.029 A 
ATOM     37  N   UNL A   1      45.216  26.090  27.268  1.00  0.00    -0.354 N 
ATOM     38  C   UNL A   1      40.203  26.721  27.664  1.00  0.00     0.074 A 
ATOM     39  C   UNL A   1      39.678  25.457  28.065  1.00  0.00     0.031 C 
ATOM     40  C   UNL A   1      46.830  24.618  26.799  1.00  0.00     0.029 A 
ATOM     41  C   UNL A   1      46.614  26.043  26.962  1.00  0.00     0.049 A 
ATOM     42  H   UNL A   1      44.771  26.928  27.528  1.00  0.00     0.167 HD
ATOM     43  C   UNL A   1      39.756  27.989  27.900  1.00  0.00     0.037 A 
ATOM     44  C   UNL A   1      47.493  27.095  26.809  1.00  0.00     0.037 A 
ATOM     45  C   UNL A   1      40.812  28.898  27.591  1.00  0.00     0.049 A 
ATOM     46  C   UNL A   1      46.709  28.259  27.245  1.00  0.00     0.074 A 
ATOM     47  C   UNL A   1      41.373  29.237  26.387  1.00  0.00     0.029 A 
ATOM     48  N   UNL A   1      41.702  29.151  28.614  1.00  0.00    -0.354 N 
ATOM     49  N   UNL A   1      46.368  28.505  28.475  1.00  0.00    -0.248 NA
ATOM     50  C   UNL A   1      46.156  29.144  26.213  1.00  0.00     0.031 C 
ATOM     51  C   UNL A   1      42.746  29.151  26.675  1.00  0.00     0.029 A 
ATOM     52  C   UNL A   1      42.953  29.160  28.061  1.00  0.00     0.049 A 
ATOM     53  H   UNL A   1      41.479  29.297  29.562  1.00  0.00     0.167 HD
ATOM     54  C   UNL A   1      45.290  29.336  28.306  1.00  0.00     0.074 A 
ATOM     55  C   UNL A   1      45.429  29.939  26.991  1.00  0.00     0.031 C 
ATOM     56  C   UNL A   1      44.112  29.020  28.909  1.00  0.00     0.037 A 
BRANCH  43  57
ATOM     57  C   UNL A   1      38.594  28.573  28.644  1.00  0.00     0.058 A 
ATOM     58  C   UNL A   1      37.926  29.663  28.030  1.00  0.00     0.135 A 
ATOM     59  C   UNL A   1      38.359  28.387  30.011  1.00  0.00     0.135 A 
ATOM     60  F   UNL A   1      38.041  29.882  26.708  1.00  0.00    -0.206 F 
ATOM     61  C   UNL A   1      37.205  30.602  28.753  1.00  0.00     0.059 A 
ATOM     62  C   UNL A   1      37.594  29.297  30.752  1.00  0.00     0.059 A 
ATOM     63  F   UNL A   1      38.930  27.373  30.675  1.00  0.00    -0.206 F 
ATOM     64  C   UNL A   1      37.069  30.427  30.123  1.00  0.00     0.060 A 
BRANCH  64  65
ATOM     65  S   UNL A   1      36.214  31.717  31.050  1.00  0.00     0.124 S 
ATOM     66  O   UNL A   1      35.869  31.023  32.285  1.00  0.00    -0.237 OA
ATOM     67  O   UNL A   1      37.248  32.741  31.169  1.00  0.00    -0.237 OA
ATOM     68  O   UNL A   1      35.093  32.069  30.184  1.00  0.00    -0.744 OA
ENDBRANCH  64  65
ENDBRANCH  43  57
BRANCH  44  69
ATOM     69  C   UNL A   1      48.877  27.434  26.252  1.00  0.00     0.058 A 
ATOM     70  C   UNL A   1      49.366  27.166  24.969  1.00  0.00     0.135 A 
ATOM     71  C   UNL A   1      49.760  28.249  27.033  1.00  0.00     0.135 A 
ATOM     72  F   UNL A   1      48.742  26.286  24.172  1.00  0.00    -0.206 F 
ATOM     73  C   UNL A   1      50.522  27.805  24.449  1.00  0.00     0.059 A 
ATOM     74  C   UNL A   1      50.854  28.947  26.527  1.00  0.00     0.059 A 
ATOM     75  F   UNL A   1      49.577  28.437  28.347  1.00  0.00    -0.206 F 
ATOM     76  C   UNL A   1      51.211  28.751  25.212  1.00  0.00     0.060 A 
BRANCH  76  77
ATOM     77  S   UNL A   1      52.471  29.828  24.480  1.00  0.00     0.124 S 
ATOM     78  O   UNL A   1      51.733  30.490  23.412  1.00  0.00    -0.237 OA
ATOM     79  O   UNL A   1      52.854  30.669  25.609  1.00  0.00    -0.237 OA
ATOM     80  O   UNL A   1      53.504  28.890  24.041  1.00  0.00    -0.744 OA
ENDBRANCH  76  77
ENDBRANCH  44  69
BRANCH  56  81
ATOM     81  C   UNL A   1      44.216  28.261  30.225  1.00  0.00     0.058 A 
ATOM     82  C   UNL A   1      44.918  28.836  31.299  1.00  0.00     0.135 A 
ATOM     83  C   UNL A   1      43.700  26.974  30.464  1.00  0.00     0.135 A 
ATOM     84  F   UNL A   1      45.435  30.068  31.176  1.00  0.00    -0.206 F 
ATOM     85  C   UNL A   1      45.087  28.186  32.526  1.00  0.00     0.059 A 
ATOM     86  C   UNL A   1      43.857  26.296  31.683  1.00  0.00     0.059 A 
ATOM     87  F   UNL A   1      43.013  26.333  29.518  1.00  0.00    -0.206 F 
ATOM     88  C   UNL A   1      44.545  26.917  32.716  1.00  0.00     0.060 A 
BRANCH  88  89
ATOM     89  S   UNL A   1      44.700  26.136  34.341  1.00  0.00     0.124 S 
ATOM     90  O   UNL A   1      43.589  25.192  34.346  1.00  0.00    -0.237 OA
ATOM     91  O   UNL A   1      46.031  25.542  34.266  1.00  0.00    -0.237 OA
ATOM     92  O   UNL A   1      44.570  27.252  35.276  1.00  0.00    -0.744 OA
ENDBRANCH  88  89
ENDBRANCH  56  81
ENDBRANCH  30  31
ENDBRANCH  23  25
ENDBRANCH  22  23
ENDBRANCH   1  22
TORSDOF 16
ENDMDL
MODEL 2
REMARK VINA RESULT:     -11.7      3.196      9.166
REMARK SMILES C[C@@H]1C[C@@H](C)CN(C(=O)Cn2cccc2C(=O)OCCOC(=O)c2ccc(-c3c4nc(c(-c5c(F)cc(S(=O)(=O)[O-])cc5F)c5ccc([nH]5)c(-c5c(F)cc(S(=O)(=O)[O-])cc5F)c5nc(c(-c6c(F)cc(S(=O)(=O)[O-])cc6F)c6ccc3[nH]6)C=C5)C=C4)cc2)C1
REMARK SMILES IDX 20 1 19 2 18 3 16 4 17 5 15 6 11 7 12 8 13 9 14 10 10 11
REMARK SMILES IDX 8 12 1 13 2 14 3 15 90 16 4 17 7 18 6 19 5 20 9 21 21 22
REMARK SMILES IDX 22 23 23 24 24 25 25 26 89 27 26 28 88 29 27 30 28 31 29 32
REMARK SMILES IDX 82 33 30 34 87 35 81 36 83 37 31 38 86 39 80 40 79 41 32 43
REMARK SMILES IDX 66 44 45 45 65 46 46 47 49 48 64 49 84 50 47 51 48 52 63 54
REMARK SMILES IDX 85 55 50 56 33 57 34 58 43 59 35 60 36 61 42 62 44 63 37 64
REMARK SMILES IDX 38 65 39 66 40 67 41 68 67 69 68 70 77 71 69 72 70 73 76 74
REMARK SMILES IDX 78 75 71 76 72 77 73 78 74 79 75 80 51 81 52 82 61 83 53 84
REMARK SMILES IDX 54 85 60 86 62 87 55 88 56 89 57 90 58 91 59 92
REMARK H PARENT 83 42 49 53
REMARK Flexibility Score: inf
ROOT
ATOM      1  C   UNL A   1      34.661  30.606  27.657  1.00  0.00     0.275 C 
ENDROOT
BRANCH   1   2
ATOM      2  C   UNL A   1      33.891  29.373  27.213  1.00  0.00     0.275 C 
BRANCH   2   3
ATOM      3  O   UNL A   1      32.467  29.560  27.293  1.00  0.00    -0.457 OA
BRANCH   3   4
ATOM      4  C   UNL A   1      31.670  28.466  27.097  1.00  0.00     0.355 C 
ATOM      5  O   UNL A   1      31.024  27.925  27.977  1.00  0.00    -0.244 OA
BRANCH   4   6
ATOM      6  C   UNL A   1      31.746  27.999  25.721  1.00  0.00     0.128 A 
ATOM      7  N   UNL A   1      32.485  26.955  25.185  1.00  0.00    -0.333 N 
ATOM      8  C   UNL A   1      32.254  26.885  23.825  1.00  0.00     0.087 A 
ATOM      9  C   UNL A   1      31.316  27.828  23.489  1.00  0.00     0.020 A 
ATOM     10  C   UNL A   1      30.984  28.512  24.676  1.00  0.00     0.035 A 
BRANCH   7  11
ATOM     11  C   UNL A   1      33.399  26.041  25.861  1.00  0.00     0.222 C 
BRANCH  11  12
ATOM     12  C   UNL A   1      33.078  24.565  25.654  1.00  0.00     0.242 C 
ATOM     13  C   UNL A   1      34.030  21.760  27.501  1.00  0.00     0.009 C 
ATOM     14  C   UNL A   1      34.554  21.498  26.086  1.00  0.00     0.006 C 
ATOM     15  C   UNL A   1      36.057  21.845  25.974  1.00  0.00     0.010 C 
ATOM     16  C   UNL A   1      33.724  22.271  25.045  1.00  0.00     0.122 C 
ATOM     17  C   UNL A   1      36.307  23.364  25.955  1.00  0.00     0.006 C 
ATOM     18  N   UNL A   1      34.027  23.693  25.125  1.00  0.00    -0.341 N 
ATOM     19  C   UNL A   1      35.428  23.977  24.858  1.00  0.00     0.122 C 
ATOM     20  C   UNL A   1      37.791  23.694  25.776  1.00  0.00     0.009 C 
ATOM     21  O   UNL A   1      31.936  24.168  25.920  1.00  0.00    -0.273 OA
ENDBRANCH  11  12
ENDBRANCH   7  11
ENDBRANCH   4   6
ENDBRANCH   3   4
ENDBRANCH   2   3
ENDBRANCH   1   2
BRANCH   1  22
ATOM     22  O   UNL A   1      36.035  30.498  27.306  1.00  0.00    -0.458 OA
BRANCH  22  23
ATOM     23  C   UNL A   1      36.846  30.539  28.384  1.00  0.00     0.338 C 
ATOM     24  O   UNL A   1      36.926  31.418  29.230  1.00  0.00    -0.246 OA
BRANCH  23  25
ATOM     25  C   UNL A   1      37.787  29.439  28.352  1.00  0.00     0.060 A 
ATOM     26  C   UNL A   1      37.731  28.544  29.423  1.00  0.00     0.016 A 
ATOM     27  C   UNL A   1      38.921  29.624  27.556  1.00  0.00     0.016 A 
ATOM     28  C   UNL A   1      38.904  27.954  29.821  1.00  0.00     0.010 A 
ATOM     29  C   UNL A   1      40.101  29.075  27.985  1.00  0.00     0.010 A 
ATOM     30  C   UNL A   1      40.084  28.283  29.136  1.00  0.00    -0.014 A 
BRANCH  30  31
ATOM     31  C   UNL A   1      41.297  27.574  29.525  1.00  0.00     0.031 A 
ATOM     32  C   UNL A   1      41.425  26.346  28.589  1.00  0.00     0.074 A 
ATOM     33  C   UNL A   1      41.953  28.077  30.625  1.00  0.00     0.049 A 
ATOM     34  N   UNL A   1      41.819  25.150  28.871  1.00  0.00    -0.248 NA
ATOM     35  C   UNL A   1      40.903  26.389  27.182  1.00  0.00     0.031 C 
ATOM     36  C   UNL A   1      41.602  29.331  31.351  1.00  0.00     0.029 A 
ATOM     37  N   UNL A   1      43.038  27.663  31.371  1.00  0.00    -0.354 N 
ATOM     38  C   UNL A   1      41.862  24.410  27.667  1.00  0.00     0.074 A 
ATOM     39  C   UNL A   1      41.120  25.158  26.707  1.00  0.00     0.031 C 
ATOM     40  C   UNL A   1      42.369  29.497  32.459  1.00  0.00     0.029 A 
ATOM     41  C   UNL A   1      43.318  28.405  32.563  1.00  0.00     0.049 A 
ATOM     42  H   UNL A   1      43.590  26.896  31.098  1.00  0.00     0.167 HD
ATOM     43  C   UNL A   1      42.674  23.323  27.518  1.00  0.00     0.037 A 
ATOM     44  C   UNL A   1      44.220  28.109  33.564  1.00  0.00     0.037 A 
ATOM     45  C   UNL A   1      43.445  23.175  28.710  1.00  0.00     0.049 A 
ATOM     46  C   UNL A   1      44.975  26.973  33.017  1.00  0.00     0.074 A 
ATOM     47  C   UNL A   1      43.066  22.814  29.978  1.00  0.00     0.029 A 
ATOM     48  N   UNL A   1      44.620  23.895  28.757  1.00  0.00    -0.354 N 
ATOM     49  N   UNL A   1      45.830  27.051  32.041  1.00  0.00    -0.248 NA
ATOM     50  C   UNL A   1      44.653  25.628  33.510  1.00  0.00     0.031 C 
ATOM     51  C   UNL A   1      43.709  23.790  30.759  1.00  0.00     0.029 A 
ATOM     52  C   UNL A   1      44.718  24.419  30.017  1.00  0.00     0.049 A 
ATOM     53  H   UNL A   1      45.266  24.011  28.023  1.00  0.00     0.167 HD
ATOM     54  C   UNL A   1      45.856  25.757  31.587  1.00  0.00     0.074 A 
ATOM     55  C   UNL A   1      45.418  24.918  32.688  1.00  0.00     0.031 C 
ATOM     56  C   UNL A   1      45.621  25.516  30.268  1.00  0.00     0.037 A 
BRANCH  43  57
ATOM     57  C   UNL A   1      43.121  22.495  26.351  1.00  0.00     0.058 A 
ATOM     58  C   UNL A   1      42.673  21.150  26.314  1.00  0.00     0.135 A 
ATOM     59  C   UNL A   1      44.206  22.816  25.527  1.00  0.00     0.135 A 
ATOM     60  F   UNL A   1      41.598  20.765  27.024  1.00  0.00    -0.206 F 
ATOM     61  C   UNL A   1      43.356  20.153  25.634  1.00  0.00     0.059 A 
ATOM     62  C   UNL A   1      44.881  21.833  24.792  1.00  0.00     0.059 A 
ATOM     63  F   UNL A   1      44.688  24.065  25.479  1.00  0.00    -0.206 F 
ATOM     64  C   UNL A   1      44.480  20.499  24.897  1.00  0.00     0.060 A 
BRANCH  64  65
ATOM     65  S   UNL A   1      45.405  19.166  24.107  1.00  0.00     0.124 S 
ATOM     66  O   UNL A   1      45.196  18.062  25.037  1.00  0.00    -0.237 OA
ATOM     67  O   UNL A   1      44.724  19.045  22.820  1.00  0.00    -0.237 OA
ATOM     68  O   UNL A   1      46.764  19.693  24.040  1.00  0.00    -0.744 OA
ENDBRANCH  64  65
ENDBRANCH  43  57
BRANCH  44  69
ATOM     69  C   UNL A   1      44.578  28.472  35.007  1.00  0.00     0.058 A 
ATOM     70  C   UNL A   1      43.742  28.421  36.128  1.00  0.00     0.135 A 
ATOM     71  C   UNL A   1      45.943  28.758  35.334  1.00  0.00     0.135 A 
ATOM     72  F   UNL A   1      42.413  28.327  35.983  1.00  0.00    -0.206 F 
ATOM     73  C   UNL A   1      44.249  28.456  37.453  1.00  0.00     0.059 A 
ATOM     74  C   UNL A   1      46.477  28.722  36.620  1.00  0.00     0.059 A 
ATOM     75  F   UNL A   1      46.850  29.060  34.394  1.00  0.00    -0.206 F 
ATOM     76  C   UNL A   1      45.625  28.529  37.684  1.00  0.00     0.060 A 
BRANCH  76  77
ATOM     77  S   UNL A   1      46.331  28.239  39.327  1.00  0.00     0.124 S 
ATOM     78  O   UNL A   1      45.378  28.912  40.199  1.00  0.00    -0.237 OA
ATOM     79  O   UNL A   1      46.348  26.781  39.403  1.00  0.00    -0.237 OA
ATOM     80  O   UNL A   1      47.652  28.860  39.241  1.00  0.00    -0.744 OA
ENDBRANCH  76  77
ENDBRANCH  44  69
BRANCH  56  81
ATOM     81  C   UNL A   1      46.048  26.610  29.301  1.00  0.00     0.058 A 
ATOM     82  C   UNL A   1      47.395  27.013  29.265  1.00  0.00     0.135 A 
ATOM     83  C   UNL A   1      45.188  27.317  28.440  1.00  0.00     0.135 A 
ATOM     84  F   UNL A   1      48.299  26.389  30.037  1.00  0.00    -0.206 F 
ATOM     85  C   UNL A   1      47.858  28.035  28.430  1.00  0.00     0.059 A 
ATOM     86  C   UNL A   1      45.622  28.348  27.594  1.00  0.00     0.059 A 
ATOM     87  F   UNL A   1      43.889  27.019  28.387  1.00  0.00    -0.206 F 
ATOM     88  C   UNL A   1      46.966  28.695  27.587  1.00  0.00     0.060 A 
BRANCH  88  89
ATOM     89  S   UNL A   1      47.605  29.950  26.452  1.00  0.00     0.124 S 
ATOM     90  O   UNL A   1      47.538  31.166  27.255  1.00  0.00    -0.237 OA
ATOM     91  O   UNL A   1      48.949  29.452  26.174  1.00  0.00    -0.237 OA
ATOM     92  O   UNL A   1      46.679  29.901  25.323  1.00  0.00    -0.744 OA
ENDBRANCH  88  89
ENDBRANCH  56  81
ENDBRANCH  30  31
ENDBRANCH  23  25
ENDBRANCH  22  23
ENDBRANCH   1  22
TORSDOF 16
ENDMDL
MODEL 3
REMARK VINA RESULT:     -11.6      4.190     10.503
REMARK SMILES C[C@@H]1C[C@@H](C)CN(C(=O)Cn2cccc2C(=O)OCCOC(=O)c2ccc(-c3c4nc(c(-c5c(F)cc(S(=O)(=O)[O-])cc5F)c5ccc([nH]5)c(-c5c(F)cc(S(=O)(=O)[O-])cc5F)c5nc(c(-c6c(F)cc(S(=O)(=O)[O-])cc6F)c6ccc3[nH]6)C=C5)C=C4)cc2)C1
REMARK SMILES IDX 20 1 19 2 18 3 16 4 17 5 15 6 11 7 12 8 13 9 14 10 10 11
REMARK SMILES IDX 8 12 1 13 2 14 3 15 90 16 4 17 7 18 6 19 5 20 9 21 21 22
REMARK SMILES IDX 22 23 23 24 24 25 25 26 89 27 26 28 88 29 27 30 28 31 29 32
REMARK SMILES IDX 82 33 30 34 87 35 81 36 83 37 31 38 86 39 80 40 79 41 32 43
REMARK SMILES IDX 66 44 45 45 65 46 46 47 49 48 64 49 84 50 47 51 48 52 63 54
REMARK SMILES IDX 85 55 50 56 33 57 34 58 43 59 35 60 36 61 42 62 44 63 37 64
REMARK SMILES IDX 38 65 39 66 40 67 41 68 67 69 68 70 77 71 69 72 70 73 76 74
REMARK SMILES IDX 78 75 71 76 72 77 73 78 74 79 75 80 51 81 52 82 61 83 53 84
REMARK SMILES IDX 54 85 60 86 62 87 55 88 56 89 57 90 58 91 59 92
REMARK H PARENT 83 42 49 53
REMARK Flexibility Score: inf
ROOT
ATOM      1  C   UNL A   1      34.478  31.254  27.661  1.00  0.00     0.275 C 
ENDROOT
BRANCH   1   2
ATOM      2  C   UNL A   1      34.163  32.481  28.501  1.00  0.00     0.275 C 
BRANCH   2   3
ATOM      3  O   UNL A   1      34.590  32.332  29.867  1.00  0.00    -0.457 OA
BRANCH   3   4
ATOM      4  C   UNL A   1      35.361  33.325  30.404  1.00  0.00     0.355 C 
ATOM      5  O   UNL A   1      34.959  34.452  30.634  1.00  0.00    -0.244 OA
BRANCH   4   6
ATOM      6  C   UNL A   1      36.732  32.881  30.601  1.00  0.00     0.128 A 
ATOM      7  N   UNL A   1      37.286  32.174  31.659  1.00  0.00    -0.333 N 
ATOM      8  C   UNL A   1      38.633  31.984  31.424  1.00  0.00     0.087 A 
ATOM      9  C   UNL A   1      38.941  32.498  30.189  1.00  0.00     0.020 A 
ATOM     10  C   UNL A   1      37.751  33.041  29.666  1.00  0.00     0.035 A 
BRANCH   7  11
ATOM     11  C   UNL A   1      36.637  31.688  32.872  1.00  0.00     0.222 C 
BRANCH  11  12
ATOM     12  C   UNL A   1      36.653  32.678  34.031  1.00  0.00     0.242 C 
ATOM     13  C   UNL A   1      39.165  34.838  35.130  1.00  0.00     0.009 C 
ATOM     14  C   UNL A   1      38.856  33.946  36.336  1.00  0.00     0.006 C 
ATOM     15  C   UNL A   1      39.887  32.800  36.462  1.00  0.00     0.010 C 
ATOM     16  C   UNL A   1      37.419  33.398  36.255  1.00  0.00     0.122 C 
ATOM     17  C   UNL A   1      39.677  31.705  35.399  1.00  0.00     0.006 C 
ATOM     18  N   UNL A   1      37.332  32.386  35.213  1.00  0.00    -0.341 N 
ATOM     19  C   UNL A   1      38.212  31.256  35.463  1.00  0.00     0.122 C 
ATOM     20  C   UNL A   1      40.660  30.545  35.576  1.00  0.00     0.009 C 
ATOM     21  O   UNL A   1      36.006  33.727  33.920  1.00  0.00    -0.273 OA
ENDBRANCH  11  12
ENDBRANCH   7  11
ENDBRANCH   4   6
ENDBRANCH   3   4
ENDBRANCH   2   3
ENDBRANCH   1   2
BRANCH   1  22
ATOM     22  O   UNL A   1      35.882  31.042  27.583  1.00  0.00    -0.458 OA
BRANCH  22  23
ATOM     23  C   UNL A   1      36.215  29.742  27.739  1.00  0.00     0.338 C 
ATOM     24  O   UNL A   1      35.533  28.758  27.492  1.00  0.00    -0.246 OA
BRANCH  23  25
ATOM     25  C   UNL A   1      37.486  29.624  28.421  1.00  0.00     0.060 A 
ATOM     26  C   UNL A   1      38.629  29.816  27.639  1.00  0.00     0.016 A 
ATOM     27  C   UNL A   1      37.478  28.898  29.615  1.00  0.00     0.016 A 
ATOM     28  C   UNL A   1      39.753  29.102  27.971  1.00  0.00     0.010 A 
ATOM     29  C   UNL A   1      38.585  28.147  29.915  1.00  0.00     0.010 A 
ATOM     30  C   UNL A   1      39.691  28.227  29.065  1.00  0.00    -0.014 A 
BRANCH  30  31
ATOM     31  C   UNL A   1      40.925  27.550  29.446  1.00  0.00     0.031 A 
ATOM     32  C   UNL A   1      41.066  26.312  28.526  1.00  0.00     0.074 A 
ATOM     33  C   UNL A   1      41.587  28.083  30.529  1.00  0.00     0.049 A 
ATOM     34  N   UNL A   1      41.490  25.128  28.818  1.00  0.00    -0.248 NA
ATOM     35  C   UNL A   1      40.522  26.323  27.127  1.00  0.00     0.031 C 
ATOM     36  C   UNL A   1      41.219  29.339  31.243  1.00  0.00     0.029 A 
ATOM     37  N   UNL A   1      42.691  27.703  31.264  1.00  0.00    -0.354 N 
ATOM     38  C   UNL A   1      41.531  24.372  27.624  1.00  0.00     0.074 A 
ATOM     39  C   UNL A   1      40.759  25.091  26.665  1.00  0.00     0.031 C 
ATOM     40  C   UNL A   1      41.999  29.537  32.336  1.00  0.00     0.029 A 
ATOM     41  C   UNL A   1      42.973  28.468  32.441  1.00  0.00     0.049 A 
ATOM     42  H   UNL A   1      43.255  26.944  30.993  1.00  0.00     0.167 HD
ATOM     43  C   UNL A   1      42.364  23.301  27.478  1.00  0.00     0.037 A 
ATOM     44  C   UNL A   1      43.895  28.205  33.432  1.00  0.00     0.037 A 
ATOM     45  C   UNL A   1      43.155  23.187  28.661  1.00  0.00     0.049 A 
ATOM     46  C   UNL A   1      44.666  27.078  32.889  1.00  0.00     0.074 A 
ATOM     47  C   UNL A   1      42.803  22.837  29.939  1.00  0.00     0.029 A 
ATOM     48  N   UNL A   1      44.315  23.933  28.679  1.00  0.00    -0.354 N 
ATOM     49  N   UNL A   1      45.505  27.160  31.900  1.00  0.00    -0.248 NA
ATOM     50  C   UNL A   1      44.381  25.734  33.407  1.00  0.00     0.031 C 
ATOM     51  C   UNL A   1      43.436  23.837  30.697  1.00  0.00     0.029 A 
ATOM     52  C   UNL A   1      44.420  24.477  29.930  1.00  0.00     0.049 A 
ATOM     53  H   UNL A   1      44.947  24.052  27.934  1.00  0.00     0.167 HD
ATOM     54  C   UNL A   1      45.553  25.861  31.464  1.00  0.00     0.074 A 
ATOM     55  C   UNL A   1      45.149  25.029  32.584  1.00  0.00     0.031 C 
ATOM     56  C   UNL A   1      45.303  25.597  30.153  1.00  0.00     0.037 A 
BRANCH  43  57
ATOM     57  C   UNL A   1      42.811  22.467  26.316  1.00  0.00     0.058 A 
ATOM     58  C   UNL A   1      42.513  21.082  26.373  1.00  0.00     0.135 A 
ATOM     59  C   UNL A   1      43.790  22.858  25.396  1.00  0.00     0.135 A 
ATOM     60  F   UNL A   1      41.542  20.621  27.182  1.00  0.00    -0.206 F 
ATOM     61  C   UNL A   1      43.249  20.129  25.685  1.00  0.00     0.059 A 
ATOM     62  C   UNL A   1      44.513  21.916  24.653  1.00  0.00     0.059 A 
ATOM     63  F   UNL A   1      44.126  24.147  25.255  1.00  0.00    -0.206 F 
ATOM     64  C   UNL A   1      44.270  20.554  24.846  1.00  0.00     0.060 A 
BRANCH  64  65
ATOM     65  S   UNL A   1      45.275  19.288  24.044  1.00  0.00     0.124 S 
ATOM     66  O   UNL A   1      44.975  18.110  24.850  1.00  0.00    -0.237 OA
ATOM     67  O   UNL A   1      44.729  19.281  22.689  1.00  0.00    -0.237 OA
ATOM     68  O   UNL A   1      46.632  19.811  24.161  1.00  0.00    -0.744 OA
ENDBRANCH  64  65
ENDBRANCH  43  57
BRANCH  44  69
ATOM     69  C   UNL A   1      44.266  28.597  34.865  1.00  0.00     0.058 A 
ATOM     70  C   UNL A   1      43.580  28.270  36.039  1.00  0.00     0.135 A 
ATOM     71  C   UNL A   1      45.524  29.239  35.106  1.00  0.00     0.135 A 
ATOM     72  F   UNL A   1      42.320  27.816  35.988  1.00  0.00    -0.206 F 
ATOM     73  C   UNL A   1      44.173  28.394  37.322  1.00  0.00     0.059 A 
ATOM     74  C   UNL A   1      46.159  29.303  36.344  1.00  0.00     0.059 A 
ATOM     75  F   UNL A   1      46.226  29.818  34.122  1.00  0.00    -0.206 F 
ATOM     76  C   UNL A   1      45.491  28.838  37.454  1.00  0.00     0.060 A 
BRANCH  76  77
ATOM     77  S   UNL A   1      46.394  28.691  39.018  1.00  0.00     0.124 S 
ATOM     78  O   UNL A   1      47.314  27.596  38.745  1.00  0.00    -0.237 OA
ATOM     79  O   UNL A   1      46.996  30.014  39.154  1.00  0.00    -0.237 OA
ATOM     80  O   UNL A   1      45.340  28.400  39.990  1.00  0.00    -0.744 OA
ENDBRANCH  76  77
ENDBRANCH  44  69
BRANCH  56  81
ATOM     81  C   UNL A   1      45.692  26.685  29.163  1.00  0.00     0.058 A 
ATOM     82  C   UNL A   1      47.022  27.141  29.126  1.00  0.00     0.135 A 
ATOM     83  C   UNL A   1      44.809  27.338  28.283  1.00  0.00     0.135 A 
ATOM     84  F   UNL A   1      47.945  26.570  29.916  1.00  0.00    -0.206 F 
ATOM     85  C   UNL A   1      47.449  28.162  28.271  1.00  0.00     0.059 A 
ATOM     86  C   UNL A   1      45.207  28.368  27.417  1.00  0.00     0.059 A 
ATOM     87  F   UNL A   1      43.524  26.988  28.230  1.00  0.00    -0.206 F 
ATOM     88  C   UNL A   1      46.536  28.767  27.409  1.00  0.00     0.060 A 
BRANCH  88  89
ATOM     89  S   UNL A   1      47.132  30.022  26.250  1.00  0.00     0.124 S 
ATOM     90  O   UNL A   1      46.650  31.261  26.850  1.00  0.00    -0.237 OA
ATOM     91  O   UNL A   1      48.576  29.819  26.299  1.00  0.00    -0.237 OA
ATOM     92  O   UNL A   1      46.495  29.658  24.986  1.00  0.00    -0.744 OA
ENDBRANCH  88  89
ENDBRANCH  56  81
ENDBRANCH  30  31
ENDBRANCH  23  25
ENDBRANCH  22  23
ENDBRANCH   1  22
TORSDOF 16
ENDMDL
