MODEL 1
REMARK VINA RESULT:     -12.0      0.000      0.000
REMARK SMILES O=C(OCCOC(=O)[C@@H]1C=C[C@H](NC(=O)[C@@H]2Cc3ccccc3O2)C1)c1ccc(-c2c3nc(c(-c4c(F)cc(S(=O)(=O)[O-])cc4F)c4ccc([nH]4)c(-c4c(F)cc(S(=O)(=O)[O-])cc4F)c4nc(c(-c5c(F)cc(S(=O)(=O)[O-])cc5F)c5ccc2[nH]5)C=C4)C=C3)cc1
REMARK SMILES IDX 4 1 3 2 2 3 1 4 26 5 27 6 91 7 28 8 90 9 29 10 30 11 31 12
REMARK SMILES IDX 84 13 32 14 89 15 83 16 85 17 33 18 88 19 82 20 81 21 34 23
REMARK SMILES IDX 68 24 47 25 67 26 48 27 51 28 66 29 86 30 49 31 50 32 65 34
REMARK SMILES IDX 87 35 52 36 35 37 36 38 45 39 37 40 38 41 44 42 46 43 39 44
REMARK SMILES IDX 40 45 41 46 42 47 43 48 69 49 70 50 79 51 71 52 72 53 78 54
REMARK SMILES IDX 80 55 73 56 74 57 75 58 76 59 77 60 53 61 54 62 63 63 55 64
REMARK SMILES IDX 56 65 62 66 64 67 57 68 58 69 59 70 60 71 61 72 5 73 6 74
REMARK SMILES IDX 7 75 8 76 9 77 10 78 25 79 11 80 12 81 13 82 14 83 15 85
REMARK SMILES IDX 16 86 17 87 24 88 18 89 23 90 19 91 22 92 20 93 21 94
REMARK H PARENT 85 22 51 33 13 84
REMARK Flexibility Score: inf
ROOT
ATOM      1  C   UNL A   1      34.438  29.890  27.103  1.00  0.00     0.275 C 
ENDROOT
BRANCH   1   2
ATOM      2  O   UNL A   1      35.536  29.342  27.898  1.00  0.00    -0.458 OA
BRANCH   2   3
ATOM      3  C   UNL A   1      36.193  29.961  28.931  1.00  0.00     0.338 C 
ATOM      4  O   UNL A   1      35.658  30.888  29.533  1.00  0.00    -0.246 OA
BRANCH   3   5
ATOM      5  C   UNL A   1      37.679  29.747  29.108  1.00  0.00     0.060 A 
ATOM      6  C   UNL A   1      38.519  29.706  28.032  1.00  0.00     0.016 A 
ATOM      7  C   UNL A   1      38.324  29.629  30.356  1.00  0.00     0.016 A 
ATOM      8  C   UNL A   1      39.921  29.621  28.170  1.00  0.00     0.010 A 
ATOM      9  C   UNL A   1      39.762  29.483  30.482  1.00  0.00     0.010 A 
ATOM     10  C   UNL A   1      40.597  29.482  29.361  1.00  0.00    -0.014 A 
BRANCH  10  11
ATOM     11  C   UNL A   1      42.058  29.124  29.140  1.00  0.00     0.031 A 
ATOM     12  C   UNL A   1      42.373  27.752  28.575  1.00  0.00     0.074 A 
ATOM     13  C   UNL A   1      43.013  30.073  28.936  1.00  0.00     0.049 A 
ATOM     14  N   UNL A   1      43.469  27.312  28.005  1.00  0.00    -0.248 NA
ATOM     15  C   UNL A   1      41.281  26.772  28.603  1.00  0.00     0.031 C 
ATOM     16  C   UNL A   1      42.844  31.499  29.190  1.00  0.00     0.029 A 
ATOM     17  N   UNL A   1      44.273  30.008  28.356  1.00  0.00    -0.354 N 
ATOM     18  C   UNL A   1      43.199  26.005  27.620  1.00  0.00     0.074 A 
ATOM     19  C   UNL A   1      41.816  25.745  27.962  1.00  0.00     0.031 C 
ATOM     20  C   UNL A   1      43.876  32.178  28.656  1.00  0.00     0.029 A 
ATOM     21  C   UNL A   1      44.885  31.237  28.171  1.00  0.00     0.049 A 
ATOM     22  H   UNL A   1      44.695  29.158  28.096  1.00  0.00     0.167 HD
ATOM     23  C   UNL A   1      44.035  25.074  27.097  1.00  0.00     0.037 A 
ATOM     24  C   UNL A   1      46.126  31.583  27.737  1.00  0.00     0.037 A 
ATOM     25  C   UNL A   1      45.440  25.266  26.857  1.00  0.00     0.049 A 
ATOM     26  C   UNL A   1      47.117  30.488  27.413  1.00  0.00     0.074 A 
ATOM     27  C   UNL A   1      46.391  24.315  26.521  1.00  0.00     0.029 A 
ATOM     28  N   UNL A   1      46.111  26.471  26.963  1.00  0.00    -0.354 N 
ATOM     29  N   UNL A   1      46.899  29.208  27.230  1.00  0.00    -0.248 NA
ATOM     30  C   UNL A   1      48.536  30.870  27.314  1.00  0.00     0.031 C 
ATOM     31  C   UNL A   1      47.650  24.928  26.526  1.00  0.00     0.029 A 
ATOM     32  C   UNL A   1      47.471  26.278  26.768  1.00  0.00     0.049 A 
ATOM     33  H   UNL A   1      45.685  27.340  27.149  1.00  0.00     0.167 HD
ATOM     34  C   UNL A   1      48.149  28.635  27.017  1.00  0.00     0.074 A 
ATOM     35  C   UNL A   1      49.118  29.707  27.052  1.00  0.00     0.031 C 
ATOM     36  C   UNL A   1      48.457  27.328  26.823  1.00  0.00     0.037 A 
BRANCH  23  37
ATOM     37  C   UNL A   1      43.483  23.684  26.958  1.00  0.00     0.058 A 
ATOM     38  C   UNL A   1      43.304  22.817  28.043  1.00  0.00     0.135 A 
ATOM     39  C   UNL A   1      43.134  23.223  25.676  1.00  0.00     0.135 A 
ATOM     40  F   UNL A   1      43.651  23.200  29.282  1.00  0.00    -0.206 F 
ATOM     41  C   UNL A   1      42.805  21.529  27.860  1.00  0.00     0.059 A 
ATOM     42  C   UNL A   1      42.615  21.953  25.474  1.00  0.00     0.059 A 
ATOM     43  F   UNL A   1      43.305  24.015  24.605  1.00  0.00    -0.206 F 
ATOM     44  C   UNL A   1      42.465  21.107  26.570  1.00  0.00     0.060 A 
BRANCH  44  45
ATOM     45  S   UNL A   1      41.835  19.433  26.338  1.00  0.00     0.124 S 
ATOM     46  O   UNL A   1      42.508  19.035  25.105  1.00  0.00    -0.237 OA
ATOM     47  O   UNL A   1      42.284  18.761  27.553  1.00  0.00    -0.237 OA
ATOM     48  O   UNL A   1      40.392  19.624  26.228  1.00  0.00    -0.744 OA
ENDBRANCH  44  45
ENDBRANCH  23  37
BRANCH  24  49
ATOM     49  C   UNL A   1      46.593  33.013  27.759  1.00  0.00     0.058 A 
ATOM     50  C   UNL A   1      46.435  33.892  26.669  1.00  0.00     0.135 A 
ATOM     51  C   UNL A   1      47.289  33.514  28.873  1.00  0.00     0.135 A 
ATOM     52  F   UNL A   1      45.846  33.465  25.542  1.00  0.00    -0.206 F 
ATOM     53  C   UNL A   1      46.914  35.205  26.702  1.00  0.00     0.059 A 
ATOM     54  C   UNL A   1      47.730  34.831  28.949  1.00  0.00     0.059 A 
ATOM     55  F   UNL A   1      47.536  32.719  29.926  1.00  0.00    -0.206 F 
ATOM     56  C   UNL A   1      47.542  35.671  27.858  1.00  0.00     0.060 A 
BRANCH  56  57
ATOM     57  S   UNL A   1      48.068  37.398  27.958  1.00  0.00     0.124 S 
ATOM     58  O   UNL A   1      49.510  37.282  27.786  1.00  0.00    -0.237 OA
ATOM     59  O   UNL A   1      47.336  38.007  26.852  1.00  0.00    -0.237 OA
ATOM     60  O   UNL A   1      47.621  37.804  29.288  1.00  0.00    -0.744 OA
ENDBRANCH  56  57
ENDBRANCH  24  49
BRANCH  36  61
ATOM     61  C   UNL A   1      49.905  26.967  26.611  1.00  0.00     0.058 A 
ATOM     62  C   UNL A   1      50.475  26.884  25.329  1.00  0.00     0.135 A 
ATOM     63  C   UNL A   1      50.743  26.718  27.711  1.00  0.00     0.135 A 
ATOM     64  F   UNL A   1      49.724  27.113  24.240  1.00  0.00    -0.206 F 
ATOM     65  C   UNL A   1      51.809  26.528  25.145  1.00  0.00     0.059 A 
ATOM     66  C   UNL A   1      52.086  26.388  27.551  1.00  0.00     0.059 A 
ATOM     67  F   UNL A   1      50.260  26.796  28.960  1.00  0.00    -0.206 F 
ATOM     68  C   UNL A   1      52.605  26.274  26.263  1.00  0.00     0.060 A 
BRANCH  68  69
ATOM     69  S   UNL A   1      54.329  25.797  26.015  1.00  0.00     0.124 S 
ATOM     70  O   UNL A   1      54.675  25.254  27.325  1.00  0.00    -0.237 OA
ATOM     71  O   UNL A   1      54.234  24.826  24.930  1.00  0.00    -0.237 OA
ATOM     72  O   UNL A   1      54.983  27.055  25.666  1.00  0.00    -0.744 OA
ENDBRANCH  68  69
ENDBRANCH  36  61
ENDBRANCH  10  11
ENDBRANCH   3   5
ENDBRANCH   2   3
ENDBRANCH   1   2
BRANCH   1  73
ATOM     73  C   UNL A   1      33.307  28.854  26.966  1.00  0.00     0.274 C 
BRANCH  73  74
ATOM     74  O   UNL A   1      33.440  28.142  25.733  1.00  0.00    -0.462 OA
BRANCH  74  75
ATOM     75  C   UNL A   1      32.889  28.650  24.605  1.00  0.00     0.312 C 
ATOM     76  O   UNL A   1      33.525  29.067  23.634  1.00  0.00    -0.252 OA
BRANCH  75  77
ATOM     77  C   UNL A   1      31.362  28.623  24.686  1.00  0.00     0.124 C 
ATOM     78  C   UNL A   1      30.740  27.296  24.931  1.00  0.00    -0.014 C 
ATOM     79  C   UNL A   1      30.739  28.914  23.328  1.00  0.00     0.048 C 
ATOM     80  C   UNL A   1      30.295  26.733  23.793  1.00  0.00    -0.006 C 
ATOM     81  C   UNL A   1      30.560  27.565  22.544  1.00  0.00     0.106 C 
BRANCH  81  82
ATOM     82  N   UNL A   1      31.673  26.890  21.764  1.00  0.00    -0.347 N 
ATOM     83  C   UNL A   1      32.806  26.123  21.930  1.00  0.00     0.261 C 
ATOM     84  H   UNL A   1      31.538  27.060  20.804  1.00  0.00     0.164 HD
ATOM     85  O   UNL A   1      33.770  26.643  21.323  1.00  0.00    -0.271 OA
BRANCH  83  86
ATOM     86  C   UNL A   1      33.158  24.623  22.576  1.00  0.00     0.266 C 
ATOM     87  C   UNL A   1      33.241  24.781  24.131  1.00  0.00     0.095 C 
ATOM     88  O   UNL A   1      34.091  23.572  22.282  1.00  0.00    -0.480 OA
ATOM     89  C   UNL A   1      34.586  24.216  24.416  1.00  0.00    -0.002 A 
ATOM     90  C   UNL A   1      34.987  23.489  23.321  1.00  0.00     0.123 A 
ATOM     91  C   UNL A   1      35.408  24.311  25.529  1.00  0.00     0.008 A 
ATOM     92  C   UNL A   1      36.221  22.852  23.274  1.00  0.00     0.047 A 
ATOM     93  C   UNL A   1      36.681  23.723  25.483  1.00  0.00     0.001 A 
ATOM     94  C   UNL A   1      37.093  23.005  24.353  1.00  0.00     0.004 A 
ENDBRANCH  83  86
ENDBRANCH  81  82
ENDBRANCH  75  77
ENDBRANCH  74  75
ENDBRANCH  73  74
ENDBRANCH   1  73
TORSDOF 16
ENDMDL
MODEL 2
REMARK VINA RESULT:     -11.8      7.079     12.049
REMARK SMILES O=C(OCCOC(=O)[C@@H]1C=C[C@H](NC(=O)[C@@H]2Cc3ccccc3O2)C1)c1ccc(-c2c3nc(c(-c4c(F)cc(S(=O)(=O)[O-])cc4F)c4ccc([nH]4)c(-c4c(F)cc(S(=O)(=O)[O-])cc4F)c4nc(c(-c5c(F)cc(S(=O)(=O)[O-])cc5F)c5ccc2[nH]5)C=C4)C=C3)cc1
REMARK SMILES IDX 4 1 3 2 2 3 1 4 26 5 27 6 91 7 28 8 90 9 29 10 30 11 31 12
REMARK SMILES IDX 84 13 32 14 89 15 83 16 85 17 33 18 88 19 82 20 81 21 34 23
REMARK SMILES IDX 68 24 47 25 67 26 48 27 51 28 66 29 86 30 49 31 50 32 65 34
REMARK SMILES IDX 87 35 52 36 35 37 36 38 45 39 37 40 38 41 44 42 46 43 39 44
REMARK SMILES IDX 40 45 41 46 42 47 43 48 69 49 70 50 79 51 71 52 72 53 78 54
REMARK SMILES IDX 80 55 73 56 74 57 75 58 76 59 77 60 53 61 54 62 63 63 55 64
REMARK SMILES IDX 56 65 62 66 64 67 57 68 58 69 59 70 60 71 61 72 5 73 6 74
REMARK SMILES IDX 7 75 8 76 9 77 10 78 25 79 11 80 12 81 13 82 14 83 15 85
REMARK SMILES IDX 16 86 17 87 24 88 18 89 23 90 19 91 22 92 20 93 21 94
REMARK H PARENT 85 22 51 33 13 84
REMARK Flexibility Score: inf
ROOT
ATOM      1  C   UNL A   1      37.834  23.258  26.007  1.00  0.00     0.275 C 
ENDROOT
BRANCH   1   2
ATOM      2  O   UNL A   1      38.381  24.476  26.602  1.00  0.00    -0.458 OA
BRANCH   2   3
ATOM      3  C   UNL A   1      39.701  24.843  26.662  1.00  0.00     0.338 C 
ATOM      4  O   UNL A   1      40.566  24.107  26.195  1.00  0.00    -0.246 OA
BRANCH   3   5
ATOM      5  C   UNL A   1      40.127  25.960  27.586  1.00  0.00     0.060 A 
ATOM      6  C   UNL A   1      39.601  26.077  28.842  1.00  0.00     0.016 A 
ATOM      7  C   UNL A   1      41.110  26.922  27.275  1.00  0.00     0.016 A 
ATOM      8  C   UNL A   1      40.059  27.040  29.767  1.00  0.00     0.010 A 
ATOM      9  C   UNL A   1      41.529  27.944  28.215  1.00  0.00     0.010 A 
ATOM     10  C   UNL A   1      40.997  28.011  29.506  1.00  0.00    -0.014 A 
BRANCH  10  11
ATOM     11  C   UNL A   1      41.044  29.059  30.607  1.00  0.00     0.031 A 
ATOM     12  C   UNL A   1      39.890  30.039  30.702  1.00  0.00     0.074 A 
ATOM     13  C   UNL A   1      41.742  28.865  31.760  1.00  0.00     0.049 A 
ATOM     14  N   UNL A   1      39.522  30.805  31.700  1.00  0.00    -0.248 NA
ATOM     15  C   UNL A   1      39.003  30.111  29.536  1.00  0.00     0.031 C 
ATOM     16  C   UNL A   1      42.741  27.822  31.970  1.00  0.00     0.029 A 
ATOM     17  N   UNL A   1      41.640  29.454  33.013  1.00  0.00    -0.354 N 
ATOM     18  C   UNL A   1      38.371  31.456  31.275  1.00  0.00     0.074 A 
ATOM     19  C   UNL A   1      38.065  30.945  29.955  1.00  0.00     0.031 C 
ATOM     20  C   UNL A   1      43.054  27.754  33.277  1.00  0.00     0.029 A 
ATOM     21  C   UNL A   1      42.422  28.862  33.993  1.00  0.00     0.049 A 
ATOM     22  H   UNL A   1      41.059  30.228  33.192  1.00  0.00     0.167 HD
ATOM     23  C   UNL A   1      37.666  32.440  31.885  1.00  0.00     0.037 A 
ATOM     24  C   UNL A   1      42.669  29.193  35.287  1.00  0.00     0.037 A 
ATOM     25  C   UNL A   1      38.013  33.049  33.142  1.00  0.00     0.049 A 
ATOM     26  C   UNL A   1      42.058  30.458  35.846  1.00  0.00     0.074 A 
ATOM     27  C   UNL A   1      37.468  34.182  33.726  1.00  0.00     0.029 A 
ATOM     28  N   UNL A   1      39.013  32.611  33.992  1.00  0.00    -0.354 N 
ATOM     29  N   UNL A   1      41.089  31.191  35.355  1.00  0.00    -0.248 NA
ATOM     30  C   UNL A   1      42.629  30.987  37.097  1.00  0.00     0.031 C 
ATOM     31  C   UNL A   1      38.209  34.485  34.875  1.00  0.00     0.029 A 
ATOM     32  C   UNL A   1      39.149  33.488  35.058  1.00  0.00     0.049 A 
ATOM     33  H   UNL A   1      39.550  31.796  33.859  1.00  0.00     0.167 HD
ATOM     34  C   UNL A   1      40.950  32.272  36.221  1.00  0.00     0.074 A 
ATOM     35  C   UNL A   1      41.904  32.082  37.290  1.00  0.00     0.031 C 
ATOM     36  C   UNL A   1      40.110  33.332  36.122  1.00  0.00     0.037 A 
BRANCH  23  37
ATOM     37  C   UNL A   1      36.565  33.070  31.082  1.00  0.00     0.058 A 
ATOM     38  C   UNL A   1      35.206  32.812  31.308  1.00  0.00     0.135 A 
ATOM     39  C   UNL A   1      36.908  33.959  30.049  1.00  0.00     0.135 A 
ATOM     40  F   UNL A   1      34.830  31.947  32.263  1.00  0.00    -0.206 F 
ATOM     41  C   UNL A   1      34.221  33.407  30.523  1.00  0.00     0.059 A 
ATOM     42  C   UNL A   1      35.942  34.580  29.269  1.00  0.00     0.059 A 
ATOM     43  F   UNL A   1      38.198  34.223  29.787  1.00  0.00    -0.206 F 
ATOM     44  C   UNL A   1      34.601  34.289  29.506  1.00  0.00     0.060 A 
BRANCH  44  45
ATOM     45  S   UNL A   1      33.321  35.045  28.483  1.00  0.00     0.124 S 
ATOM     46  O   UNL A   1      34.120  35.841  27.556  1.00  0.00    -0.237 OA
ATOM     47  O   UNL A   1      32.655  33.881  27.909  1.00  0.00    -0.237 OA
ATOM     48  O   UNL A   1      32.528  35.809  29.440  1.00  0.00    -0.744 OA
ENDBRANCH  44  45
ENDBRANCH  23  37
BRANCH  24  49
ATOM     49  C   UNL A   1      43.682  28.442  36.108  1.00  0.00     0.058 A 
ATOM     50  C   UNL A   1      43.348  27.355  36.939  1.00  0.00     0.135 A 
ATOM     51  C   UNL A   1      45.025  28.859  36.130  1.00  0.00     0.135 A 
ATOM     52  F   UNL A   1      42.073  26.945  37.027  1.00  0.00    -0.206 F 
ATOM     53  C   UNL A   1      44.304  26.700  37.722  1.00  0.00     0.059 A 
ATOM     54  C   UNL A   1      46.003  28.192  36.861  1.00  0.00     0.059 A 
ATOM     55  F   UNL A   1      45.411  29.927  35.415  1.00  0.00    -0.206 F 
ATOM     56  C   UNL A   1      45.635  27.115  37.658  1.00  0.00     0.060 A 
BRANCH  56  57
ATOM     57  S   UNL A   1      46.900  26.208  38.577  1.00  0.00     0.124 S 
ATOM     58  O   UNL A   1      47.365  25.251  37.582  1.00  0.00    -0.237 OA
ATOM     59  O   UNL A   1      47.838  27.266  38.937  1.00  0.00    -0.237 OA
ATOM     60  O   UNL A   1      46.153  25.641  39.698  1.00  0.00    -0.744 OA
ENDBRANCH  56  57
ENDBRANCH  24  49
BRANCH  36  61
ATOM     61  C   UNL A   1      40.158  34.376  37.207  1.00  0.00     0.058 A 
ATOM     62  C   UNL A   1      41.011  35.490  37.136  1.00  0.00     0.135 A 
ATOM     63  C   UNL A   1      39.321  34.271  38.331  1.00  0.00     0.135 A 
ATOM     64  F   UNL A   1      41.832  35.646  36.086  1.00  0.00    -0.206 F 
ATOM     65  C   UNL A   1      41.062  36.437  38.157  1.00  0.00     0.059 A 
ATOM     66  C   UNL A   1      39.335  35.219  39.349  1.00  0.00     0.059 A 
ATOM     67  F   UNL A   1      38.474  33.236  38.448  1.00  0.00    -0.206 F 
ATOM     68  C   UNL A   1      40.225  36.288  39.264  1.00  0.00     0.060 A 
BRANCH  68  69
ATOM     69  S   UNL A   1      40.309  37.511  40.591  1.00  0.00     0.124 S 
ATOM     70  O   UNL A   1      41.113  38.561  39.971  1.00  0.00    -0.237 OA
ATOM     71  O   UNL A   1      38.903  37.835  40.810  1.00  0.00    -0.237 OA
ATOM     72  O   UNL A   1      40.958  36.787  41.680  1.00  0.00    -0.744 OA
ENDBRANCH  68  69
ENDBRANCH  36  61
ENDBRANCH  10  11
ENDBRANCH   3   5
ENDBRANCH   2   3
ENDBRANCH   1   2
BRANCH   1  73
ATOM     73  C   UNL A   1      36.861  23.608  24.866  1.00  0.00     0.274 C 
BRANCH  73  74
ATOM     74  O   UNL A   1      35.527  23.703  25.371  1.00  0.00    -0.462 OA
BRANCH  74  75
ATOM     75  C   UNL A   1      34.872  22.577  25.743  1.00  0.00     0.312 C 
ATOM     76  O   UNL A   1      34.559  22.292  26.902  1.00  0.00    -0.252 OA
BRANCH  75  77
ATOM     77  C   UNL A   1      34.551  21.708  24.526  1.00  0.00     0.124 C 
ATOM     78  C   UNL A   1      33.705  22.333  23.477  1.00  0.00    -0.014 C 
ATOM     79  C   UNL A   1      33.626  20.560  24.905  1.00  0.00     0.048 C 
ATOM     80  C   UNL A   1      32.416  21.961  23.586  1.00  0.00    -0.006 C 
ATOM     81  C   UNL A   1      32.135  21.031  24.759  1.00  0.00     0.106 C 
BRANCH  81  82
ATOM     82  N   UNL A   1      31.396  21.829  25.818  1.00  0.00    -0.347 N 
ATOM     83  C   UNL A   1      31.327  23.084  26.381  1.00  0.00     0.261 C 
ATOM     84  H   UNL A   1      30.735  21.244  26.254  1.00  0.00     0.164 HD
ATOM     85  O   UNL A   1      31.406  23.000  27.628  1.00  0.00    -0.271 OA
BRANCH  83  86
ATOM     86  C   UNL A   1      30.997  24.629  25.838  1.00  0.00     0.266 C 
ATOM     87  C   UNL A   1      32.250  25.134  25.048  1.00  0.00     0.095 C 
ATOM     88  O   UNL A   1      30.442  25.822  26.412  1.00  0.00    -0.480 OA
ATOM     89  C   UNL A   1      32.543  26.416  25.742  1.00  0.00    -0.002 A 
ATOM     90  C   UNL A   1      31.433  26.773  26.469  1.00  0.00     0.123 A 
ATOM     91  C   UNL A   1      33.672  27.220  25.752  1.00  0.00     0.008 A 
ATOM     92  C   UNL A   1      31.405  27.923  27.250  1.00  0.00     0.047 A 
ATOM     93  C   UNL A   1      33.688  28.356  26.576  1.00  0.00     0.001 A 
ATOM     94  C   UNL A   1      32.561  28.700  27.334  1.00  0.00     0.004 A 
ENDBRANCH  83  86
ENDBRANCH  81  82
ENDBRANCH  75  77
ENDBRANCH  74  75
ENDBRANCH  73  74
ENDBRANCH   1  73
TORSDOF 16
ENDMDL
MODEL 3
REMARK VINA RESULT:     -11.6      2.401      8.517
REMARK SMILES O=C(OCCOC(=O)[C@@H]1C=C[C@H](NC(=O)[C@@H]2Cc3ccccc3O2)C1)c1ccc(-c2c3nc(c(-c4c(F)cc(S(=O)(=O)[O-])cc4F)c4ccc([nH]4)c(-c4c(F)cc(S(=O)(=O)[O-])cc4F)c4nc(c(-c5c(F)cc(S(=O)(=O)[O-])cc5F)c5ccc2[nH]5)C=C4)C=C3)cc1
REMARK SMILES IDX 4 1 3 2 2 3 1 4 26 5 27 6 91 7 28 8 90 9 29 10 30 11 31 12
REMARK SMILES IDX 84 13 32 14 89 15 83 16 85 17 33 18 88 19 82 20 81 21 34 23
REMARK SMILES IDX 68 24 47 25 67 26 48 27 51 28 66 29 86 30 49 31 50 32 65 34
REMARK SMILES IDX 87 35 52 36 35 37 36 38 45 39 37 40 38 41 44 42 46 43 39 44
REMARK SMILES IDX 40 45 41 46 42 47 43 48 69 49 70 50 79 51 71 52 72 53 78 54
REMARK SMILES IDX 80 55 73 56 74 57 75 58 76 59 77 60 53 61 54 62 63 63 55 64
REMARK SMILES IDX 56 65 62 66 64 67 57 68 58 69 59 70 60 71 61 72 5 73 6 74
REMARK SMILES IDX 7 75 8 76 9 77 10 78 25 79 11 80 12 81 13 82 14 83 15 85
REMARK SMILES IDX 16 86 17 87 24 88 18 89 23 90 19 91 22 92 20 93 21 94
REMARK H PARENT 85 22 51 33 13 84
REMARK Flexibility Score: inf
ROOT
ATOM      1  C   UNL A   1      32.196  29.223  27.133  1.00  0.00     0.275 C 
ENDROOT
BRANCH   1   2
ATOM      2  O   UNL A   1      33.593  29.099  27.546  1.00  0.00    -0.458 OA
BRANCH   2   3
ATOM      3  C   UNL A   1      34.382  30.081  28.087  1.00  0.00     0.338 C 
ATOM      4  O   UNL A   1      33.984  31.242  28.120  1.00  0.00    -0.246 OA
BRANCH   3   5
ATOM      5  C   UNL A   1      35.851  29.815  28.326  1.00  0.00     0.060 A 
ATOM      6  C   UNL A   1      36.784  30.093  27.367  1.00  0.00     0.016 A 
ATOM      7  C   UNL A   1      36.386  29.324  29.535  1.00  0.00     0.016 A 
ATOM      8  C   UNL A   1      38.170  29.962  27.601  1.00  0.00     0.010 A 
ATOM      9  C   UNL A   1      37.810  29.138  29.741  1.00  0.00     0.010 A 
ATOM     10  C   UNL A   1      38.740  29.468  28.751  1.00  0.00    -0.014 A 
BRANCH  10  11
ATOM     11  C   UNL A   1      40.223  29.184  28.566  1.00  0.00     0.031 A 
ATOM     12  C   UNL A   1      41.210  30.068  29.303  1.00  0.00     0.074 A 
ATOM     13  C   UNL A   1      40.685  27.949  28.225  1.00  0.00     0.049 A 
ATOM     14  N   UNL A   1      42.477  29.863  29.574  1.00  0.00    -0.248 NA
ATOM     15  C   UNL A   1      40.676  31.316  29.857  1.00  0.00     0.031 C 
ATOM     16  C   UNL A   1      39.862  26.859  27.713  1.00  0.00     0.029 A 
ATOM     17  N   UNL A   1      41.933  27.357  28.366  1.00  0.00    -0.354 N 
ATOM     18  C   UNL A   1      42.889  30.961  30.319  1.00  0.00     0.074 A 
ATOM     19  C   UNL A   1      41.721  31.797  30.512  1.00  0.00     0.031 C 
ATOM     20  C   UNL A   1      40.575  25.718  27.712  1.00  0.00     0.029 A 
ATOM     21  C   UNL A   1      41.968  26.008  28.051  1.00  0.00     0.049 A 
ATOM     22  H   UNL A   1      42.727  27.855  28.666  1.00  0.00     0.167 HD
ATOM     23  C   UNL A   1      44.132  31.292  30.746  1.00  0.00     0.037 A 
ATOM     24  C   UNL A   1      42.990  25.117  27.969  1.00  0.00     0.037 A 
ATOM     25  C   UNL A   1      45.328  30.541  30.469  1.00  0.00     0.049 A 
ATOM     26  C   UNL A   1      44.403  25.602  28.202  1.00  0.00     0.074 A 
ATOM     27  C   UNL A   1      46.645  30.913  30.693  1.00  0.00     0.029 A 
ATOM     28  N   UNL A   1      45.368  29.293  29.875  1.00  0.00    -0.354 N 
ATOM     29  N   UNL A   1      44.808  26.728  28.738  1.00  0.00    -0.248 NA
ATOM     30  C   UNL A   1      45.500  24.731  27.746  1.00  0.00     0.031 C 
ATOM     31  C   UNL A   1      47.479  29.934  30.139  1.00  0.00     0.029 A 
ATOM     32  C   UNL A   1      46.684  28.910  29.660  1.00  0.00     0.049 A 
ATOM     33  H   UNL A   1      44.577  28.754  29.639  1.00  0.00     0.167 HD
ATOM     34  C   UNL A   1      46.198  26.708  28.664  1.00  0.00     0.074 A 
ATOM     35  C   UNL A   1      46.572  25.444  28.070  1.00  0.00     0.031 C 
ATOM     36  C   UNL A   1      47.079  27.666  29.047  1.00  0.00     0.037 A 
BRANCH  23  37
ATOM     37  C   UNL A   1      44.284  32.646  31.376  1.00  0.00     0.058 A 
ATOM     38  C   UNL A   1      44.227  32.860  32.760  1.00  0.00     0.135 A 
ATOM     39  C   UNL A   1      44.489  33.758  30.542  1.00  0.00     0.135 A 
ATOM     40  F   UNL A   1      44.003  31.834  33.595  1.00  0.00    -0.206 F 
ATOM     41  C   UNL A   1      44.356  34.139  33.296  1.00  0.00     0.059 A 
ATOM     42  C   UNL A   1      44.642  35.038  31.055  1.00  0.00     0.059 A 
ATOM     43  F   UNL A   1      44.534  33.602  29.209  1.00  0.00    -0.206 F 
ATOM     44  C   UNL A   1      44.562  35.221  32.433  1.00  0.00     0.060 A 
BRANCH  44  45
ATOM     45  S   UNL A   1      44.712  36.877  33.133  1.00  0.00     0.124 S 
ATOM     46  O   UNL A   1      45.971  36.772  33.866  1.00  0.00    -0.237 OA
ATOM     47  O   UNL A   1      44.740  37.717  31.940  1.00  0.00    -0.237 OA
ATOM     48  O   UNL A   1      43.517  37.008  33.960  1.00  0.00    -0.744 OA
ENDBRANCH  44  45
ENDBRANCH  23  37
BRANCH  24  49
ATOM     49  C   UNL A   1      42.770  23.716  27.465  1.00  0.00     0.058 A 
ATOM     50  C   UNL A   1      42.721  23.388  26.096  1.00  0.00     0.135 A 
ATOM     51  C   UNL A   1      42.523  22.668  28.370  1.00  0.00     0.135 A 
ATOM     52  F   UNL A   1      42.874  24.347  25.170  1.00  0.00    -0.206 F 
ATOM     53  C   UNL A   1      42.476  22.083  25.655  1.00  0.00     0.059 A 
ATOM     54  C   UNL A   1      42.326  21.355  27.958  1.00  0.00     0.059 A 
ATOM     55  F   UNL A   1      42.488  22.913  29.689  1.00  0.00    -0.206 F 
ATOM     56  C   UNL A   1      42.300  21.069  26.598  1.00  0.00     0.060 A 
BRANCH  56  57
ATOM     57  S   UNL A   1      42.092  19.360  26.046  1.00  0.00     0.124 S 
ATOM     58  O   UNL A   1      40.658  19.299  25.798  1.00  0.00    -0.237 OA
ATOM     59  O   UNL A   1      42.951  19.310  24.867  1.00  0.00    -0.237 OA
ATOM     60  O   UNL A   1      42.570  18.583  27.188  1.00  0.00    -0.744 OA
ENDBRANCH  56  57
ENDBRANCH  24  49
BRANCH  36  61
ATOM     61  C   UNL A   1      48.549  27.391  28.859  1.00  0.00     0.058 A 
ATOM     62  C   UNL A   1      49.288  26.622  29.773  1.00  0.00     0.135 A 
ATOM     63  C   UNL A   1      49.226  27.890  27.734  1.00  0.00     0.135 A 
ATOM     64  F   UNL A   1      48.695  26.117  30.866  1.00  0.00    -0.206 F 
ATOM     65  C   UNL A   1      50.651  26.393  29.600  1.00  0.00     0.059 A 
ATOM     66  C   UNL A   1      50.581  27.650  27.526  1.00  0.00     0.059 A 
ATOM     67  F   UNL A   1      48.569  28.619  26.818  1.00  0.00    -0.206 F 
ATOM     68  C   UNL A   1      51.291  26.919  28.476  1.00  0.00     0.060 A 
BRANCH  68  69
ATOM     69  S   UNL A   1      53.062  26.631  28.267  1.00  0.00     0.124 S 
ATOM     70  O   UNL A   1      53.515  27.931  27.783  1.00  0.00    -0.237 OA
ATOM     71  O   UNL A   1      53.484  26.274  29.618  1.00  0.00    -0.237 OA
ATOM     72  O   UNL A   1      53.118  25.546  27.292  1.00  0.00    -0.744 OA
ENDBRANCH  68  69
ENDBRANCH  36  61
ENDBRANCH  10  11
ENDBRANCH   3   5
ENDBRANCH   2   3
ENDBRANCH   1   2
BRANCH   1  73
ATOM     73  C   UNL A   1      31.477  27.867  27.259  1.00  0.00     0.274 C 
BRANCH  73  74
ATOM     74  O   UNL A   1      31.021  27.433  25.975  1.00  0.00    -0.462 OA
BRANCH  74  75
ATOM     75  C   UNL A   1      30.596  26.157  25.814  1.00  0.00     0.312 C 
ATOM     76  O   UNL A   1      30.799  25.238  26.611  1.00  0.00    -0.252 OA
BRANCH  75  77
ATOM     77  C   UNL A   1      29.806  26.008  24.512  1.00  0.00     0.124 C 
ATOM     78  C   UNL A   1      30.247  24.924  23.596  1.00  0.00    -0.014 C 
ATOM     79  C   UNL A   1      30.049  27.194  23.589  1.00  0.00     0.048 C 
ATOM     80  C   UNL A   1      31.028  25.393  22.605  1.00  0.00    -0.006 C 
ATOM     81  C   UNL A   1      31.293  26.891  22.680  1.00  0.00     0.106 C 
BRANCH  81  82
ATOM     82  N   UNL A   1      32.730  27.088  23.126  1.00  0.00    -0.347 N 
ATOM     83  C   UNL A   1      33.614  26.741  24.124  1.00  0.00     0.261 C 
ATOM     84  H   UNL A   1      33.191  27.663  22.474  1.00  0.00     0.164 HD
ATOM     85  O   UNL A   1      34.162  27.768  24.588  1.00  0.00    -0.271 OA
BRANCH  83  86
ATOM     86  C   UNL A   1      34.247  25.319  24.730  1.00  0.00     0.266 C 
ATOM     87  C   UNL A   1      34.427  24.328  23.531  1.00  0.00     0.095 C 
ATOM     88  O   UNL A   1      33.967  24.465  25.849  1.00  0.00    -0.480 OA
ATOM     89  C   UNL A   1      33.674  23.140  24.012  1.00  0.00    -0.002 A 
ATOM     90  C   UNL A   1      33.492  23.267  25.368  1.00  0.00     0.123 A 
ATOM     91  C   UNL A   1      33.184  22.029  23.344  1.00  0.00     0.008 A 
ATOM     92  C   UNL A   1      32.799  22.317  26.108  1.00  0.00     0.047 A 
ATOM     93  C   UNL A   1      32.432  21.085  24.060  1.00  0.00     0.001 A 
ATOM     94  C   UNL A   1      32.228  21.234  25.437  1.00  0.00     0.004 A 
ENDBRANCH  83  86
ENDBRANCH  81  82
ENDBRANCH  75  77
ENDBRANCH  74  75
ENDBRANCH  73  74
ENDBRANCH   1  73
TORSDOF 16
ENDMDL
