MODEL 1
REMARK VINA RESULT:     -10.0      0.000      0.000
REMARK SMILES Cc1cc(O[C@@H](C)C(=O)NCCC(=O)OCCOC(=O)c2ccc(-c3c4nc(c(-c5c(F)cc(S(=O)(=O)[O-])cc5F)c5ccc([nH]5)c(-c5c(F)cc(S(=O)(=O)[O-])cc5F)c5nc(c(-c6c(F)cc(S(=O)(=O)[O-])cc6F)c6ccc3[nH]6)C=C5)C=C4)cc2)c2c3c(c(=O)oc2c1)CCCC3
REMARK SMILES IDX 16 1 15 2 13 3 14 4 12 5 11 6 10 7 8 8 9 9 6 11 7 12 5 13
REMARK SMILES IDX 4 14 1 15 2 16 3 17 94 18 93 19 87 20 92 21 88 22 90 23
REMARK SMILES IDX 89 24 98 25 91 26 95 27 97 28 96 29 17 30 18 31 19 32 20 33
REMARK SMILES IDX 21 34 22 35 86 36 23 37 85 38 24 39 25 40 26 41 79 42 27 43
REMARK SMILES IDX 84 44 78 45 80 46 28 47 83 48 77 49 76 50 29 52 63 53 42 54
REMARK SMILES IDX 62 55 43 56 46 57 61 58 81 59 44 60 45 61 60 63 82 64 47 65
REMARK SMILES IDX 30 66 31 67 40 68 32 69 33 70 39 71 41 72 34 73 35 74 36 75
REMARK SMILES IDX 37 76 38 77 64 78 65 79 74 80 66 81 67 82 73 83 75 84 68 85
REMARK SMILES IDX 69 86 70 87 71 88 72 89 48 90 49 91 58 92 50 93 51 94 57 95
REMARK SMILES IDX 59 96 52 97 53 98 54 99 55 100 56 101
REMARK H PARENT 10 10 80 51 46 62
REMARK Flexibility Score: inf
ROOT
ATOM      1  C   UNL A   1      33.505  33.752  28.230  1.00  0.00     0.274 C 
ENDROOT
BRANCH   1   2
ATOM      2  O   UNL A   1      33.961  34.753  29.159  1.00  0.00    -0.462 OA
BRANCH   2   3
ATOM      3  C   UNL A   1      33.052  35.697  29.513  1.00  0.00     0.307 C 
ATOM      4  O   UNL A   1      32.436  36.400  28.722  1.00  0.00    -0.252 OA
BRANCH   3   5
ATOM      5  C   UNL A   1      32.882  35.819  31.006  1.00  0.00     0.144 C 
BRANCH   5   6
ATOM      6  C   UNL A   1      34.055  35.293  31.829  1.00  0.00     0.127 C 
BRANCH   6   7
ATOM      7  N   UNL A   1      34.080  33.843  31.860  1.00  0.00    -0.352 N 
ATOM      8  C   UNL A   1      35.106  32.964  31.987  1.00  0.00     0.260 C 
ATOM      9  O   UNL A   1      34.806  31.764  31.933  1.00  0.00    -0.271 OA
ATOM     10  H   UNL A   1      33.194  33.421  31.774  1.00  0.00     0.163 HD
BRANCH   8  11
ATOM     11  C   UNL A   1      36.574  33.384  32.266  1.00  0.00     0.258 C 
ATOM     12  C   UNL A   1      37.300  33.810  30.994  1.00  0.00     0.064 C 
BRANCH  11  13
ATOM     13  O   UNL A   1      37.298  32.721  33.291  1.00  0.00    -0.480 OA
BRANCH  13  14
ATOM     14  C   UNL A   1      38.505  33.015  33.841  1.00  0.00     0.132 A 
ATOM     15  C   UNL A   1      40.374  35.886  35.514  1.00  0.00     0.044 C 
ATOM     16  C   UNL A   1      40.099  34.542  34.906  1.00  0.00    -0.044 A 
ATOM     17  C   UNL A   1      38.802  34.222  34.483  1.00  0.00     0.050 A 
ATOM     18  C   UNL A   1      41.114  33.621  34.693  1.00  0.00     0.051 A 
ATOM     19  C   UNL A   1      40.810  32.386  34.121  1.00  0.00     0.142 A 
ATOM     20  C   UNL A   1      39.514  32.023  33.734  1.00  0.00     0.063 A 
ATOM     21  O   UNL A   1      41.914  31.536  33.935  1.00  0.00    -0.422 OA
ATOM     22  C   UNL A   1      39.322  30.614  33.297  1.00  0.00    -0.023 A 
ATOM     23  C   UNL A   1      41.779  30.283  33.377  1.00  0.00     0.339 A 
ATOM     24  C   UNL A   1      40.395  29.811  33.138  1.00  0.00     0.042 A 
ATOM     25  C   UNL A   1      37.922  30.053  33.149  1.00  0.00     0.037 C 
ATOM     26  O   UNL A   1      42.752  29.577  33.137  1.00  0.00    -0.246 OA
ATOM     27  C   UNL A   1      40.308  28.354  32.751  1.00  0.00     0.043 C 
ATOM     28  C   UNL A   1      37.849  28.525  33.186  1.00  0.00     0.005 C 
ATOM     29  C   UNL A   1      38.920  27.911  32.301  1.00  0.00     0.005 C 
ENDBRANCH  13  14
ENDBRANCH  11  13
ENDBRANCH   8  11
ENDBRANCH   6   7
ENDBRANCH   5   6
ENDBRANCH   3   5
ENDBRANCH   2   3
ENDBRANCH   1   2
BRANCH   1  30
ATOM     30  C   UNL A   1      34.106  32.380  28.560  1.00  0.00     0.275 C 
BRANCH  30  31
ATOM     31  O   UNL A   1      33.960  31.442  27.475  1.00  0.00    -0.458 OA
BRANCH  31  32
ATOM     32  C   UNL A   1      34.264  30.156  27.761  1.00  0.00     0.338 C 
ATOM     33  O   UNL A   1      33.525  29.186  27.663  1.00  0.00    -0.246 OA
BRANCH  32  34
ATOM     34  C   UNL A   1      35.683  30.035  28.120  1.00  0.00     0.060 A 
ATOM     35  C   UNL A   1      36.079  29.647  29.402  1.00  0.00     0.016 A 
ATOM     36  C   UNL A   1      36.633  30.205  27.112  1.00  0.00     0.016 A 
ATOM     37  C   UNL A   1      37.437  29.432  29.666  1.00  0.00     0.010 A 
ATOM     38  C   UNL A   1      37.980  29.951  27.371  1.00  0.00     0.010 A 
ATOM     39  C   UNL A   1      38.403  29.565  28.649  1.00  0.00    -0.014 A 
BRANCH  39  40
ATOM     40  C   UNL A   1      39.842  29.281  28.916  1.00  0.00     0.031 A 
ATOM     41  C   UNL A   1      40.438  27.929  28.617  1.00  0.00     0.074 A 
ATOM     42  C   UNL A   1      40.620  30.237  29.465  1.00  0.00     0.049 A 
ATOM     43  N   UNL A   1      41.691  27.552  28.682  1.00  0.00    -0.248 NA
ATOM     44  C   UNL A   1      39.512  26.854  28.227  1.00  0.00     0.031 C 
ATOM     45  C   UNL A   1      40.156  31.550  29.917  1.00  0.00     0.029 A 
ATOM     46  N   UNL A   1      41.971  30.258  29.722  1.00  0.00    -0.354 N 
ATOM     47  C   UNL A   1      41.701  26.205  28.338  1.00  0.00     0.074 A 
ATOM     48  C   UNL A   1      40.325  25.811  28.140  1.00  0.00     0.031 C 
ATOM     49  C   UNL A   1      41.210  32.269  30.337  1.00  0.00     0.029 A 
ATOM     50  C   UNL A   1      42.424  31.470  30.191  1.00  0.00     0.049 A 
ATOM     51  H   UNL A   1      42.557  29.480  29.585  1.00  0.00     0.167 HD
ATOM     52  C   UNL A   1      42.761  25.381  28.159  1.00  0.00     0.037 A 
ATOM     53  C   UNL A   1      43.677  31.904  30.437  1.00  0.00     0.037 A 
ATOM     54  C   UNL A   1      44.134  25.780  28.315  1.00  0.00     0.049 A 
ATOM     55  C   UNL A   1      44.847  30.997  30.172  1.00  0.00     0.074 A 
ATOM     56  C   UNL A   1      45.278  25.041  28.065  1.00  0.00     0.029 A 
ATOM     57  N   UNL A   1      44.550  27.025  28.758  1.00  0.00    -0.354 N 
ATOM     58  N   UNL A   1      44.845  29.765  29.723  1.00  0.00    -0.248 NA
ATOM     59  C   UNL A   1      46.189  31.541  30.432  1.00  0.00     0.031 C 
ATOM     60  C   UNL A   1      46.388  25.833  28.381  1.00  0.00     0.029 A 
ATOM     61  C   UNL A   1      45.933  27.073  28.799  1.00  0.00     0.049 A 
ATOM     62  H   UNL A   1      43.951  27.765  29.008  1.00  0.00     0.167 HD
ATOM     63  C   UNL A   1      46.182  29.396  29.624  1.00  0.00     0.074 A 
ATOM     64  C   UNL A   1      46.966  30.533  30.053  1.00  0.00     0.031 C 
ATOM     65  C   UNL A   1      46.707  28.217  29.211  1.00  0.00     0.037 A 
BRANCH  52  66
ATOM     66  C   UNL A   1      42.481  23.973  27.713  1.00  0.00     0.058 A 
ATOM     67  C   UNL A   1      42.306  23.667  26.353  1.00  0.00     0.135 A 
ATOM     68  C   UNL A   1      42.443  22.913  28.633  1.00  0.00     0.135 A 
ATOM     69  F   UNL A   1      42.325  24.645  25.433  1.00  0.00    -0.206 F 
ATOM     70  C   UNL A   1      42.075  22.366  25.924  1.00  0.00     0.059 A 
ATOM     71  C   UNL A   1      42.238  21.598  28.223  1.00  0.00     0.059 A 
ATOM     72  F   UNL A   1      42.612  23.149  29.944  1.00  0.00    -0.206 F 
ATOM     73  C   UNL A   1      42.044  21.336  26.866  1.00  0.00     0.060 A 
BRANCH  73  74
ATOM     74  S   UNL A   1      41.766  19.651  26.284  1.00  0.00     0.124 S 
ATOM     75  O   UNL A   1      42.149  18.869  27.455  1.00  0.00    -0.237 OA
ATOM     76  O   UNL A   1      40.340  19.660  25.970  1.00  0.00    -0.237 OA
ATOM     77  O   UNL A   1      42.656  19.536  25.133  1.00  0.00    -0.744 OA
ENDBRANCH  73  74
ENDBRANCH  52  66
BRANCH  53  78
ATOM     78  C   UNL A   1      43.894  33.309  30.873  1.00  0.00     0.058 A 
ATOM     79  C   UNL A   1      43.805  34.361  29.949  1.00  0.00     0.135 A 
ATOM     80  C   UNL A   1      44.156  33.631  32.211  1.00  0.00     0.135 A 
ATOM     81  F   UNL A   1      43.557  34.100  28.657  1.00  0.00    -0.206 F 
ATOM     82  C   UNL A   1      43.975  35.686  30.335  1.00  0.00     0.059 A 
ATOM     83  C   UNL A   1      44.314  34.951  32.626  1.00  0.00     0.059 A 
ATOM     84  F   UNL A   1      44.234  32.660  33.134  1.00  0.00    -0.206 F 
ATOM     85  C   UNL A   1      44.226  35.971  31.679  1.00  0.00     0.060 A 
BRANCH  85  86
ATOM     86  S   UNL A   1      44.380  37.700  32.179  1.00  0.00     0.124 S 
ATOM     87  O   UNL A   1      44.072  38.394  30.933  1.00  0.00    -0.237 OA
ATOM     88  O   UNL A   1      43.377  37.805  33.233  1.00  0.00    -0.237 OA
ATOM     89  O   UNL A   1      45.765  37.795  32.629  1.00  0.00    -0.744 OA
ENDBRANCH  85  86
ENDBRANCH  53  78
BRANCH  65  90
ATOM     90  C   UNL A   1      48.202  28.078  29.179  1.00  0.00     0.058 A 
ATOM     91  C   UNL A   1      48.907  27.552  30.272  1.00  0.00     0.135 A 
ATOM     92  C   UNL A   1      48.917  28.351  28.002  1.00  0.00     0.135 A 
ATOM     93  F   UNL A   1      48.269  27.283  31.422  1.00  0.00    -0.206 F 
ATOM     94  C   UNL A   1      50.271  27.290  30.195  1.00  0.00     0.059 A 
ATOM     95  C   UNL A   1      50.279  28.079  27.897  1.00  0.00     0.059 A 
ATOM     96  F   UNL A   1      48.286  28.850  26.928  1.00  0.00    -0.206 F 
ATOM     97  C   UNL A   1      50.945  27.545  28.999  1.00  0.00     0.060 A 
BRANCH  97  98
ATOM     98  S   UNL A   1      52.694  27.108  28.883  1.00  0.00     0.124 S 
ATOM     99  O   UNL A   1      52.893  26.358  30.119  1.00  0.00    -0.237 OA
ATOM    100  O   UNL A   1      52.739  26.324  27.652  1.00  0.00    -0.237 OA
ATOM    101  O   UNL A   1      53.365  28.403  28.819  1.00  0.00    -0.744 OA
ENDBRANCH  97  98
ENDBRANCH  65  90
ENDBRANCH  39  40
ENDBRANCH  32  34
ENDBRANCH  31  32
ENDBRANCH  30  31
ENDBRANCH   1  30
TORSDOF 19
ENDMDL
MODEL 2
REMARK VINA RESULT:      -9.3      0.800      2.424
REMARK SMILES Cc1cc(O[C@@H](C)C(=O)NCCC(=O)OCCOC(=O)c2ccc(-c3c4nc(c(-c5c(F)cc(S(=O)(=O)[O-])cc5F)c5ccc([nH]5)c(-c5c(F)cc(S(=O)(=O)[O-])cc5F)c5nc(c(-c6c(F)cc(S(=O)(=O)[O-])cc6F)c6ccc3[nH]6)C=C5)C=C4)cc2)c2c3c(c(=O)oc2c1)CCCC3
REMARK SMILES IDX 16 1 15 2 13 3 14 4 12 5 11 6 10 7 8 8 9 9 6 11 7 12 5 13
REMARK SMILES IDX 4 14 1 15 2 16 3 17 94 18 93 19 87 20 92 21 88 22 90 23
REMARK SMILES IDX 89 24 98 25 91 26 95 27 97 28 96 29 17 30 18 31 19 32 20 33
REMARK SMILES IDX 21 34 22 35 86 36 23 37 85 38 24 39 25 40 26 41 79 42 27 43
REMARK SMILES IDX 84 44 78 45 80 46 28 47 83 48 77 49 76 50 29 52 63 53 42 54
REMARK SMILES IDX 62 55 43 56 46 57 61 58 81 59 44 60 45 61 60 63 82 64 47 65
REMARK SMILES IDX 30 66 31 67 40 68 32 69 33 70 39 71 41 72 34 73 35 74 36 75
REMARK SMILES IDX 37 76 38 77 64 78 65 79 74 80 66 81 67 82 73 83 75 84 68 85
REMARK SMILES IDX 69 86 70 87 71 88 72 89 48 90 49 91 58 92 50 93 51 94 57 95
REMARK SMILES IDX 59 96 52 97 53 98 54 99 55 100 56 101
REMARK H PARENT 10 10 80 51 46 62
REMARK Flexibility Score: inf
ROOT
ATOM      1  C   UNL A   1      33.590  33.522  28.304  1.00  0.00     0.274 C 
ENDROOT
BRANCH   1   2
ATOM      2  O   UNL A   1      34.061  34.509  29.242  1.00  0.00    -0.462 OA
BRANCH   2   3
ATOM      3  C   UNL A   1      33.140  35.406  29.676  1.00  0.00     0.307 C 
ATOM      4  O   UNL A   1      32.476  36.131  28.945  1.00  0.00    -0.252 OA
BRANCH   3   5
ATOM      5  C   UNL A   1      33.021  35.445  31.179  1.00  0.00     0.144 C 
BRANCH   5   6
ATOM      6  C   UNL A   1      34.266  34.985  31.931  1.00  0.00     0.127 C 
BRANCH   6   7
ATOM      7  N   UNL A   1      34.409  33.542  31.899  1.00  0.00    -0.352 N 
ATOM      8  C   UNL A   1      35.489  32.741  32.084  1.00  0.00     0.260 C 
ATOM      9  O   UNL A   1      35.296  31.525  31.947  1.00  0.00    -0.271 OA
ATOM     10  H   UNL A   1      33.573  33.056  31.709  1.00  0.00     0.163 HD
BRANCH   8  11
ATOM     11  C   UNL A   1      36.884  33.260  32.521  1.00  0.00     0.258 C 
ATOM     12  C   UNL A   1      37.725  33.715  31.333  1.00  0.00     0.064 C 
BRANCH  11  13
ATOM     13  O   UNL A   1      37.525  32.659  33.637  1.00  0.00    -0.480 OA
BRANCH  13  14
ATOM     14  C   UNL A   1      38.466  31.681  33.684  1.00  0.00     0.132 A 
ATOM     15  C   UNL A   1      39.091  28.114  32.487  1.00  0.00     0.044 C 
ATOM     16  C   UNL A   1      39.291  29.426  33.188  1.00  0.00    -0.044 A 
ATOM     17  C   UNL A   1      38.371  30.465  32.997  1.00  0.00     0.050 A 
ATOM     18  C   UNL A   1      40.340  29.622  34.076  1.00  0.00     0.051 A 
ATOM     19  C   UNL A   1      40.482  30.857  34.706  1.00  0.00     0.142 A 
ATOM     20  C   UNL A   1      39.604  31.927  34.495  1.00  0.00     0.063 A 
ATOM     21  O   UNL A   1      41.567  30.941  35.596  1.00  0.00    -0.422 OA
ATOM     22  C   UNL A   1      39.984  33.229  35.107  1.00  0.00    -0.023 A 
ATOM     23  C   UNL A   1      41.840  32.094  36.300  1.00  0.00     0.339 A 
ATOM     24  C   UNL A   1      41.038  33.289  35.949  1.00  0.00     0.042 A 
ATOM     25  C   UNL A   1      39.267  34.497  34.692  1.00  0.00     0.037 C 
ATOM     26  O   UNL A   1      42.733  32.140  37.139  1.00  0.00    -0.246 OA
ATOM     27  C   UNL A   1      41.540  34.566  36.581  1.00  0.00     0.043 C 
ATOM     28  C   UNL A   1      40.040  35.784  34.990  1.00  0.00     0.005 C 
ATOM     29  C   UNL A   1      40.609  35.760  36.398  1.00  0.00     0.005 C 
ENDBRANCH  13  14
ENDBRANCH  11  13
ENDBRANCH   8  11
ENDBRANCH   6   7
ENDBRANCH   5   6
ENDBRANCH   3   5
ENDBRANCH   2   3
ENDBRANCH   1   2
BRANCH   1  30
ATOM     30  C   UNL A   1      34.316  32.185  28.500  1.00  0.00     0.275 C 
BRANCH  30  31
ATOM     31  O   UNL A   1      34.116  31.285  27.392  1.00  0.00    -0.458 OA
BRANCH  31  32
ATOM     32  C   UNL A   1      34.408  29.986  27.627  1.00  0.00     0.338 C 
ATOM     33  O   UNL A   1      33.678  29.022  27.439  1.00  0.00    -0.246 OA
BRANCH  32  34
ATOM     34  C   UNL A   1      35.807  29.846  28.053  1.00  0.00     0.060 A 
ATOM     35  C   UNL A   1      36.136  29.391  29.330  1.00  0.00     0.016 A 
ATOM     36  C   UNL A   1      36.808  30.070  27.106  1.00  0.00     0.016 A 
ATOM     37  C   UNL A   1      37.480  29.162  29.654  1.00  0.00     0.010 A 
ATOM     38  C   UNL A   1      38.140  29.803  27.421  1.00  0.00     0.010 A 
ATOM     39  C   UNL A   1      38.497  29.350  28.697  1.00  0.00    -0.014 A 
BRANCH  39  40
ATOM     40  C   UNL A   1      39.921  29.052  29.025  1.00  0.00     0.031 A 
ATOM     41  C   UNL A   1      40.533  27.714  28.696  1.00  0.00     0.074 A 
ATOM     42  C   UNL A   1      40.669  29.982  29.655  1.00  0.00     0.049 A 
ATOM     43  N   UNL A   1      41.781  27.333  28.807  1.00  0.00    -0.248 NA
ATOM     44  C   UNL A   1      39.629  26.659  28.211  1.00  0.00     0.031 C 
ATOM     45  C   UNL A   1      40.181  31.273  30.142  1.00  0.00     0.029 A 
ATOM     46  N   UNL A   1      42.005  29.990  29.981  1.00  0.00    -0.354 N 
ATOM     47  C   UNL A   1      41.811  26.004  28.404  1.00  0.00     0.074 A 
ATOM     48  C   UNL A   1      40.446  25.621  28.119  1.00  0.00     0.031 C 
ATOM     49  C   UNL A   1      41.212  31.972  30.646  1.00  0.00     0.029 A 
ATOM     50  C   UNL A   1      42.432  31.178  30.526  1.00  0.00     0.049 A 
ATOM     51  H   UNL A   1      42.598  29.217  29.839  1.00  0.00     0.167 HD
ATOM     52  C   UNL A   1      42.879  25.186  28.242  1.00  0.00     0.037 A 
ATOM     53  C   UNL A   1      43.670  31.600  30.855  1.00  0.00     0.037 A 
ATOM     54  C   UNL A   1      44.242  25.576  28.486  1.00  0.00     0.049 A 
ATOM     55  C   UNL A   1      44.853  30.704  30.609  1.00  0.00     0.074 A 
ATOM     56  C   UNL A   1      45.398  24.849  28.261  1.00  0.00     0.029 A 
ATOM     57  N   UNL A   1      44.633  26.800  29.005  1.00  0.00    -0.354 N 
ATOM     58  N   UNL A   1      44.876  29.494  30.106  1.00  0.00    -0.248 NA
ATOM     59  C   UNL A   1      46.180  31.234  30.961  1.00  0.00     0.031 C 
ATOM     60  C   UNL A   1      46.489  25.624  28.668  1.00  0.00     0.029 A 
ATOM     61  C   UNL A   1      46.013  26.845  29.118  1.00  0.00     0.049 A 
ATOM     62  H   UNL A   1      44.022  27.529  29.257  1.00  0.00     0.167 HD
ATOM     63  C   UNL A   1      46.217  29.128  30.058  1.00  0.00     0.074 A 
ATOM     64  C   UNL A   1      46.977  30.244  30.577  1.00  0.00     0.031 C 
ATOM     65  C   UNL A   1      46.764  27.968  29.620  1.00  0.00     0.037 A 
BRANCH  52  66
ATOM     66  C   UNL A   1      42.623  23.800  27.719  1.00  0.00     0.058 A 
ATOM     67  C   UNL A   1      42.548  23.551  26.339  1.00  0.00     0.135 A 
ATOM     68  C   UNL A   1      42.511  22.705  28.590  1.00  0.00     0.135 A 
ATOM     69  F   UNL A   1      42.641  24.565  25.463  1.00  0.00    -0.206 F 
ATOM     70  C   UNL A   1      42.341  22.271  25.841  1.00  0.00     0.059 A 
ATOM     71  C   UNL A   1      42.328  21.410  28.112  1.00  0.00     0.059 A 
ATOM     72  F   UNL A   1      42.583  22.887  29.918  1.00  0.00    -0.206 F 
ATOM     73  C   UNL A   1      42.233  21.204  26.735  1.00  0.00     0.060 A 
BRANCH  73  74
ATOM     74  S   UNL A   1      41.988  19.547  26.066  1.00  0.00     0.124 S 
ATOM     75  O   UNL A   1      42.857  19.572  24.894  1.00  0.00    -0.237 OA
ATOM     76  O   UNL A   1      42.435  18.696  27.165  1.00  0.00    -0.237 OA
ATOM     77  O   UNL A   1      40.556  19.500  25.786  1.00  0.00    -0.744 OA
ENDBRANCH  73  74
ENDBRANCH  52  66
BRANCH  53  78
ATOM     78  C   UNL A   1      43.863  32.983  31.364  1.00  0.00     0.058 A 
ATOM     79  C   UNL A   1      44.105  34.040  30.474  1.00  0.00     0.135 A 
ATOM     80  C   UNL A   1      43.776  33.282  32.731  1.00  0.00     0.135 A 
ATOM     81  F   UNL A   1      44.198  33.801  29.158  1.00  0.00    -0.206 F 
ATOM     82  C   UNL A   1      44.260  35.348  30.921  1.00  0.00     0.059 A 
ATOM     83  C   UNL A   1      43.913  34.586  33.202  1.00  0.00     0.059 A 
ATOM     84  F   UNL A   1      43.531  32.306  33.619  1.00  0.00    -0.206 F 
ATOM     85  C   UNL A   1      44.158  35.611  32.289  1.00  0.00     0.060 A 
BRANCH  85  86
ATOM     86  S   UNL A   1      44.298  37.322  32.850  1.00  0.00     0.124 S 
ATOM     87  O   UNL A   1      45.544  37.282  33.608  1.00  0.00    -0.237 OA
ATOM     88  O   UNL A   1      44.340  38.055  31.589  1.00  0.00    -0.237 OA
ATOM     89  O   UNL A   1      43.084  37.515  33.638  1.00  0.00    -0.744 OA
ENDBRANCH  85  86
ENDBRANCH  53  78
BRANCH  65  90
ATOM     90  C   UNL A   1      48.258  27.829  29.658  1.00  0.00     0.058 A 
ATOM     91  C   UNL A   1      49.060  28.296  28.606  1.00  0.00     0.135 A 
ATOM     92  C   UNL A   1      48.898  27.344  30.810  1.00  0.00     0.135 A 
ATOM     93  F   UNL A   1      48.494  28.761  27.481  1.00  0.00    -0.206 F 
ATOM     94  C   UNL A   1      50.447  28.299  28.699  1.00  0.00     0.059 A 
ATOM     95  C   UNL A   1      50.285  27.355  30.932  1.00  0.00     0.059 A 
ATOM     96  F   UNL A   1      48.174  26.892  31.845  1.00  0.00    -0.206 F 
ATOM     97  C   UNL A   1      51.050  27.839  29.872  1.00  0.00     0.060 A 
BRANCH  97  98
ATOM     98  S   UNL A   1      52.848  27.940  30.016  1.00  0.00     0.124 S 
ATOM     99  O   UNL A   1      53.014  29.174  30.776  1.00  0.00    -0.237 OA
ATOM    100  O   UNL A   1      53.174  26.708  30.729  1.00  0.00    -0.237 OA
ATOM    101  O   UNL A   1      53.299  27.991  28.628  1.00  0.00    -0.744 OA
ENDBRANCH  97  98
ENDBRANCH  65  90
ENDBRANCH  39  40
ENDBRANCH  32  34
ENDBRANCH  31  32
ENDBRANCH  30  31
ENDBRANCH   1  30
TORSDOF 19
ENDMDL
MODEL 3
REMARK VINA RESULT:      -9.2      2.342      3.310
REMARK SMILES Cc1cc(O[C@@H](C)C(=O)NCCC(=O)OCCOC(=O)c2ccc(-c3c4nc(c(-c5c(F)cc(S(=O)(=O)[O-])cc5F)c5ccc([nH]5)c(-c5c(F)cc(S(=O)(=O)[O-])cc5F)c5nc(c(-c6c(F)cc(S(=O)(=O)[O-])cc6F)c6ccc3[nH]6)C=C5)C=C4)cc2)c2c3c(c(=O)oc2c1)CCCC3
REMARK SMILES IDX 16 1 15 2 13 3 14 4 12 5 11 6 10 7 8 8 9 9 6 11 7 12 5 13
REMARK SMILES IDX 4 14 1 15 2 16 3 17 94 18 93 19 87 20 92 21 88 22 90 23
REMARK SMILES IDX 89 24 98 25 91 26 95 27 97 28 96 29 17 30 18 31 19 32 20 33
REMARK SMILES IDX 21 34 22 35 86 36 23 37 85 38 24 39 25 40 26 41 79 42 27 43
REMARK SMILES IDX 84 44 78 45 80 46 28 47 83 48 77 49 76 50 29 52 63 53 42 54
REMARK SMILES IDX 62 55 43 56 46 57 61 58 81 59 44 60 45 61 60 63 82 64 47 65
REMARK SMILES IDX 30 66 31 67 40 68 32 69 33 70 39 71 41 72 34 73 35 74 36 75
REMARK SMILES IDX 37 76 38 77 64 78 65 79 74 80 66 81 67 82 73 83 75 84 68 85
REMARK SMILES IDX 69 86 70 87 71 88 72 89 48 90 49 91 58 92 50 93 51 94 57 95
REMARK SMILES IDX 59 96 52 97 53 98 54 99 55 100 56 101
REMARK H PARENT 10 10 80 51 46 62
REMARK Flexibility Score: inf
ROOT
ATOM      1  C   UNL A   1      33.516  31.533  27.615  1.00  0.00     0.274 C 
ENDROOT
BRANCH   1   2
ATOM      2  O   UNL A   1      33.831  32.819  28.183  1.00  0.00    -0.462 OA
BRANCH   2   3
ATOM      3  C   UNL A   1      32.885  33.782  28.041  1.00  0.00     0.307 C 
ATOM      4  O   UNL A   1      31.911  33.696  27.303  1.00  0.00    -0.252 OA
BRANCH   3   5
ATOM      5  C   UNL A   1      33.162  35.005  28.877  1.00  0.00     0.144 C 
BRANCH   5   6
ATOM      6  C   UNL A   1      34.179  34.799  29.995  1.00  0.00     0.127 C 
BRANCH   6   7
ATOM      7  N   UNL A   1      33.995  35.755  31.070  1.00  0.00    -0.352 N 
ATOM      8  C   UNL A   1      34.378  35.729  32.373  1.00  0.00     0.260 C 
ATOM      9  O   UNL A   1      34.027  36.696  33.063  1.00  0.00    -0.271 OA
ATOM     10  H   UNL A   1      33.504  36.568  30.809  1.00  0.00     0.163 HD
BRANCH   8  11
ATOM     11  C   UNL A   1      35.272  34.621  32.988  1.00  0.00     0.258 C 
ATOM     12  C   UNL A   1      34.447  33.506  33.622  1.00  0.00     0.064 C 
BRANCH  11  13
ATOM     13  O   UNL A   1      36.517  34.981  33.568  1.00  0.00    -0.480 OA
BRANCH  13  14
ATOM     14  C   UNL A   1      37.407  34.230  34.266  1.00  0.00     0.132 A 
ATOM     15  C   UNL A   1      37.913  32.682  37.715  1.00  0.00     0.044 C 
ATOM     16  C   UNL A   1      38.184  33.103  36.300  1.00  0.00    -0.044 A 
ATOM     17  C   UNL A   1      37.184  33.748  35.561  1.00  0.00     0.050 A 
ATOM     18  C   UNL A   1      39.430  32.923  35.716  1.00  0.00     0.051 A 
ATOM     19  C   UNL A   1      39.636  33.334  34.400  1.00  0.00     0.142 A 
ATOM     20  C   UNL A   1      38.638  33.937  33.624  1.00  0.00     0.063 A 
ATOM     21  O   UNL A   1      40.937  33.119  33.913  1.00  0.00    -0.422 OA
ATOM     22  C   UNL A   1      38.959  34.163  32.189  1.00  0.00    -0.023 A 
ATOM     23  C   UNL A   1      41.300  33.474  32.632  1.00  0.00     0.339 A 
ATOM     24  C   UNL A   1      40.212  33.938  31.741  1.00  0.00     0.042 A 
ATOM     25  C   UNL A   1      37.855  34.528  31.217  1.00  0.00     0.037 C 
ATOM     26  O   UNL A   1      42.456  33.366  32.237  1.00  0.00    -0.246 OA
ATOM     27  C   UNL A   1      40.630  34.085  30.296  1.00  0.00     0.043 C 
ATOM     28  C   UNL A   1      38.193  34.253  29.750  1.00  0.00     0.005 C 
ATOM     29  C   UNL A   1      39.585  34.757  29.411  1.00  0.00     0.005 C 
ENDBRANCH  13  14
ENDBRANCH  11  13
ENDBRANCH   8  11
ENDBRANCH   6   7
ENDBRANCH   5   6
ENDBRANCH   3   5
ENDBRANCH   2   3
ENDBRANCH   1   2
BRANCH   1  30
ATOM     30  C   UNL A   1      34.737  30.607  27.636  1.00  0.00     0.275 C 
BRANCH  30  31
ATOM     31  O   UNL A   1      35.961  31.318  27.910  1.00  0.00    -0.458 OA
BRANCH  31  32
ATOM     32  C   UNL A   1      36.513  31.098  29.124  1.00  0.00     0.338 C 
ATOM     33  O   UNL A   1      35.987  31.271  30.214  1.00  0.00    -0.246 OA
BRANCH  32  34
ATOM     34  C   UNL A   1      37.846  30.497  28.977  1.00  0.00     0.060 A 
ATOM     35  C   UNL A   1      38.227  29.851  27.800  1.00  0.00     0.016 A 
ATOM     36  C   UNL A   1      38.770  30.687  30.006  1.00  0.00     0.016 A 
ATOM     37  C   UNL A   1      39.544  29.396  27.661  1.00  0.00     0.010 A 
ATOM     38  C   UNL A   1      40.090  30.267  29.846  1.00  0.00     0.010 A 
ATOM     39  C   UNL A   1      40.497  29.613  28.677  1.00  0.00    -0.014 A 
BRANCH  39  40
ATOM     40  C   UNL A   1      41.912  29.178  28.505  1.00  0.00     0.031 A 
ATOM     41  C   UNL A   1      42.252  27.756  28.140  1.00  0.00     0.074 A 
ATOM     42  C   UNL A   1      42.911  30.062  28.711  1.00  0.00     0.049 A 
ATOM     43  N   UNL A   1      43.419  27.241  27.841  1.00  0.00    -0.248 NA
ATOM     44  C   UNL A   1      41.153  26.777  28.140  1.00  0.00     0.031 C 
ATOM     45  C   UNL A   1      42.741  31.437  29.183  1.00  0.00     0.029 A 
ATOM     46  N   UNL A   1      44.269  29.940  28.534  1.00  0.00    -0.354 N 
ATOM     47  C   UNL A   1      43.193  25.889  27.615  1.00  0.00     0.074 A 
ATOM     48  C   UNL A   1      41.794  25.646  27.885  1.00  0.00     0.031 C 
ATOM     49  C   UNL A   1      43.936  32.049  29.198  1.00  0.00     0.029 A 
ATOM     50  C   UNL A   1      44.960  31.111  28.744  1.00  0.00     0.049 A 
ATOM     51  H   UNL A   1      44.705  29.094  28.281  1.00  0.00     0.167 HD
ATOM     52  C   UNL A   1      44.058  24.942  27.179  1.00  0.00     0.037 A 
ATOM     53  C   UNL A   1      46.262  31.410  28.555  1.00  0.00     0.037 A 
ATOM     54  C   UNL A   1      45.441  25.188  26.871  1.00  0.00     0.049 A 
ATOM     55  C   UNL A   1      47.196  30.365  28.011  1.00  0.00     0.074 A 
ATOM     56  C   UNL A   1      46.372  24.314  26.335  1.00  0.00     0.029 A 
ATOM     57  N   UNL A   1      46.092  26.396  27.067  1.00  0.00    -0.354 N 
ATOM     58  N   UNL A   1      46.936  29.123  27.680  1.00  0.00    -0.248 NA
ATOM     59  C   UNL A   1      48.596  30.763  27.799  1.00  0.00     0.031 C 
ATOM     60  C   UNL A   1      47.594  24.987  26.230  1.00  0.00     0.029 A 
ATOM     61  C   UNL A   1      47.415  26.288  26.672  1.00  0.00     0.049 A 
ATOM     62  H   UNL A   1      45.676  27.210  27.432  1.00  0.00     0.167 HD
ATOM     63  C   UNL A   1      48.131  28.600  27.199  1.00  0.00     0.074 A 
ATOM     64  C   UNL A   1      49.115  29.658  27.275  1.00  0.00     0.031 C 
ATOM     65  C   UNL A   1      48.384  27.353  26.734  1.00  0.00     0.037 A 
BRANCH  52  66
ATOM     66  C   UNL A   1      43.519  23.557  26.951  1.00  0.00     0.058 A 
ATOM     67  C   UNL A   1      43.204  23.109  25.658  1.00  0.00     0.135 A 
ATOM     68  C   UNL A   1      43.370  22.652  28.014  1.00  0.00     0.135 A 
ATOM     69  F   UNL A   1      43.321  23.938  24.608  1.00  0.00    -0.206 F 
ATOM     70  C   UNL A   1      42.732  21.822  25.429  1.00  0.00     0.059 A 
ATOM     71  C   UNL A   1      42.922  21.350  27.804  1.00  0.00     0.059 A 
ATOM     72  F   UNL A   1      43.664  23.027  29.268  1.00  0.00    -0.206 F 
ATOM     73  C   UNL A   1      42.596  20.947  26.508  1.00  0.00     0.060 A 
BRANCH  73  74
ATOM     74  S   UNL A   1      42.003  19.274  26.185  1.00  0.00     0.124 S 
ATOM     75  O   UNL A   1      42.820  18.890  25.038  1.00  0.00    -0.237 OA
ATOM     76  O   UNL A   1      42.310  18.587  27.436  1.00  0.00    -0.237 OA
ATOM     77  O   UNL A   1      40.582  19.462  25.911  1.00  0.00    -0.744 OA
ENDBRANCH  73  74
ENDBRANCH  52  66
BRANCH  53  78
ATOM     78  C   UNL A   1      46.737  32.798  28.794  1.00  0.00     0.058 A 
ATOM     79  C   UNL A   1      46.692  33.751  27.766  1.00  0.00     0.135 A 
ATOM     80  C   UNL A   1      47.209  33.208  30.049  1.00  0.00     0.135 A 
ATOM     81  F   UNL A   1      46.250  33.403  26.548  1.00  0.00    -0.206 F 
ATOM     82  C   UNL A   1      47.104  35.063  27.970  1.00  0.00     0.059 A 
ATOM     83  C   UNL A   1      47.612  34.521  30.282  1.00  0.00     0.059 A 
ATOM     84  F   UNL A   1      47.255  32.336  31.068  1.00  0.00    -0.206 F 
ATOM     85  C   UNL A   1      47.559  35.440  29.235  1.00  0.00     0.060 A 
BRANCH  85  86
ATOM     86  S   UNL A   1      48.029  37.162  29.504  1.00  0.00     0.124 S 
ATOM     87  O   UNL A   1      46.995  37.608  30.431  1.00  0.00    -0.237 OA
ATOM     88  O   UNL A   1      49.372  37.030  30.061  1.00  0.00    -0.237 OA
ATOM     89  O   UNL A   1      47.968  37.739  28.164  1.00  0.00    -0.744 OA
ENDBRANCH  85  86
ENDBRANCH  53  78
BRANCH  65  90
ATOM     90  C   UNL A   1      49.772  27.043  26.251  1.00  0.00     0.058 A 
ATOM     91  C   UNL A   1      50.741  26.513  27.115  1.00  0.00     0.135 A 
ATOM     92  C   UNL A   1      50.093  27.157  24.889  1.00  0.00     0.135 A 
ATOM     93  F   UNL A   1      50.485  26.393  28.427  1.00  0.00    -0.206 F 
ATOM     94  C   UNL A   1      51.980  26.093  26.642  1.00  0.00     0.059 A 
ATOM     95  C   UNL A   1      51.319  26.726  24.391  1.00  0.00     0.059 A 
ATOM     96  F   UNL A   1      49.196  27.653  24.023  1.00  0.00    -0.206 F 
ATOM     97  C   UNL A   1      52.255  26.192  25.276  1.00  0.00     0.060 A 
BRANCH  97  98
ATOM     98  S   UNL A   1      53.829  25.552  24.663  1.00  0.00     0.124 S 
ATOM     99  O   UNL A   1      54.762  26.056  25.666  1.00  0.00    -0.237 OA
ATOM    100  O   UNL A   1      53.605  24.109  24.674  1.00  0.00    -0.237 OA
ATOM    101  O   UNL A   1      53.947  26.152  23.338  1.00  0.00    -0.744 OA
ENDBRANCH  97  98
ENDBRANCH  65  90
ENDBRANCH  39  40
ENDBRANCH  32  34
ENDBRANCH  31  32
ENDBRANCH  30  31
ENDBRANCH   1  30
TORSDOF 19
ENDMDL
