MODEL 1
REMARK VINA RESULT:     -12.1      0.000      0.000
REMARK SMILES C[C@H](NC(=O)N1CCN(/C=C/c2ccccc2)CC1)C(=O)OCCOC(=O)c1ccc(-c2c3nc(c(-c4c(F)cc(S(=O)(=O)[O-])cc4F)c4ccc([nH]4)c(-c4c(F)cc(S(=O)(=O)[O-])cc4F)c4nc(c(-c5c(F)cc(S(=O)(=O)[O-])cc5F)c5ccc2[nH]5)C=C4)C=C3)cc1
REMARK SMILES IDX 23 1 22 2 20 3 21 4 2 5 1 6 3 7 4 8 5 10 6 11 7 12 19 13
REMARK SMILES IDX 8 14 18 15 9 16 10 17 11 18 12 19 13 20 17 21 14 22 16 23
REMARK SMILES IDX 15 24 24 25 25 26 26 27 27 28 28 29 29 30 93 31 30 32 92 33
REMARK SMILES IDX 31 34 32 35 33 36 86 37 34 38 91 39 85 40 87 41 35 42 90 43
REMARK SMILES IDX 84 44 83 45 36 47 70 48 49 49 69 50 50 51 53 52 68 53 88 54
REMARK SMILES IDX 51 55 52 56 67 58 89 59 54 60 37 61 38 62 47 63 39 64 40 65
REMARK SMILES IDX 46 66 48 67 41 68 42 69 43 70 44 71 45 72 71 73 72 74 81 75
REMARK SMILES IDX 73 76 74 77 80 78 82 79 75 80 76 81 77 82 78 83 79 84 55 85
REMARK SMILES IDX 56 86 65 87 57 88 58 89 64 90 66 91 59 92 60 93 61 94 62 95
REMARK SMILES IDX 63 96
REMARK H PARENT 3 9 87 46 53 57
REMARK Flexibility Score: inf
ROOT
ATOM      1  C   UNL A   1      33.268  30.297  27.267  1.00  0.00     0.274 C 
ENDROOT
BRANCH   1   2
ATOM      2  O   UNL A   1      33.537  28.909  26.989  1.00  0.00    -0.461 OA
BRANCH   2   3
ATOM      3  C   UNL A   1      32.468  28.069  27.088  1.00  0.00     0.328 C 
ATOM      4  O   UNL A   1      31.607  28.152  27.958  1.00  0.00    -0.250 OA
BRANCH   3   5
ATOM      5  C   UNL A   1      32.330  27.144  25.863  1.00  0.00     0.190 C 
ATOM      6  C   UNL A   1      33.528  27.254  24.925  1.00  0.00     0.043 C 
BRANCH   5   7
ATOM      7  N   UNL A   1      31.013  27.018  25.243  1.00  0.00    -0.325 N 
ATOM      8  C   UNL A   1      30.374  25.996  24.641  1.00  0.00     0.318 C 
ATOM      9  H   UNL A   1      30.486  27.849  25.270  1.00  0.00     0.166 HD
ATOM     10  O   UNL A   1      29.428  26.271  23.902  1.00  0.00    -0.249 OA
ATOM     11  N   UNL A   1      30.861  24.736  24.749  1.00  0.00    -0.321 N 
ATOM     12  C   UNL A   1      30.713  23.825  23.620  1.00  0.00     0.143 C 
ATOM     13  C   UNL A   1      31.079  24.036  26.011  1.00  0.00     0.143 C 
ATOM     14  C   UNL A   1      31.948  22.918  23.493  1.00  0.00     0.137 C 
ATOM     15  C   UNL A   1      32.348  23.177  25.934  1.00  0.00     0.137 C 
ATOM     16  N   UNL A   1      32.261  22.247  24.778  1.00  0.00    -0.374 N 
BRANCH  16  17
ATOM     17  C   UNL A   1      32.587  20.909  24.907  1.00  0.00     0.081 C 
ATOM     18  C   UNL A   1      32.523  19.925  24.000  1.00  0.00     0.025 C 
BRANCH  18  19
ATOM     19  C   UNL A   1      32.878  18.529  24.287  1.00  0.00    -0.024 A 
ATOM     20  C   UNL A   1      33.549  17.787  23.308  1.00  0.00     0.008 A 
ATOM     21  C   UNL A   1      32.508  17.896  25.481  1.00  0.00     0.008 A 
ATOM     22  C   UNL A   1      33.872  16.446  23.531  1.00  0.00     0.001 A 
ATOM     23  C   UNL A   1      32.830  16.556  25.704  1.00  0.00     0.001 A 
ATOM     24  C   UNL A   1      33.513  15.833  24.729  1.00  0.00     0.000 A 
ENDBRANCH  18  19
ENDBRANCH  16  17
ENDBRANCH   5   7
ENDBRANCH   3   5
ENDBRANCH   2   3
ENDBRANCH   1   2
BRANCH   1  25
ATOM     25  C   UNL A   1      34.486  30.976  27.895  1.00  0.00     0.275 C 
BRANCH  25  26
ATOM     26  O   UNL A   1      35.238  30.052  28.706  1.00  0.00    -0.458 OA
BRANCH  26  27
ATOM     27  C   UNL A   1      36.280  30.592  29.377  1.00  0.00     0.338 C 
ATOM     28  O   UNL A   1      36.238  31.468  30.226  1.00  0.00    -0.246 OA
BRANCH  27  29
ATOM     29  C   UNL A   1      37.533  29.915  29.017  1.00  0.00     0.060 A 
ATOM     30  C   UNL A   1      38.407  29.551  30.038  1.00  0.00     0.016 A 
ATOM     31  C   UNL A   1      37.932  29.818  27.685  1.00  0.00     0.016 A 
ATOM     32  C   UNL A   1      39.717  29.196  29.742  1.00  0.00     0.010 A 
ATOM     33  C   UNL A   1      39.223  29.360  27.384  1.00  0.00     0.010 A 
ATOM     34  C   UNL A   1      40.142  29.084  28.411  1.00  0.00    -0.014 A 
BRANCH  34  35
ATOM     35  C   UNL A   1      41.555  28.709  28.127  1.00  0.00     0.031 A 
ATOM     36  C   UNL A   1      42.656  29.733  28.232  1.00  0.00     0.074 A 
ATOM     37  C   UNL A   1      41.859  27.427  27.840  1.00  0.00     0.049 A 
ATOM     38  N   UNL A   1      43.928  29.606  27.948  1.00  0.00    -0.248 NA
ATOM     39  C   UNL A   1      42.282  31.073  28.712  1.00  0.00     0.031 C 
ATOM     40  C   UNL A   1      40.892  26.330  27.736  1.00  0.00     0.029 A 
ATOM     41  N   UNL A   1      43.068  26.822  27.605  1.00  0.00    -0.354 N 
ATOM     42  C   UNL A   1      44.496  30.856  28.171  1.00  0.00     0.074 A 
ATOM     43  C   UNL A   1      43.431  31.730  28.614  1.00  0.00     0.031 C 
ATOM     44  C   UNL A   1      41.549  25.182  27.508  1.00  0.00     0.029 A 
ATOM     45  C   UNL A   1      42.973  25.469  27.380  1.00  0.00     0.049 A 
ATOM     46  H   UNL A   1      43.923  27.311  27.599  1.00  0.00     0.167 HD
ATOM     47  C   UNL A   1      45.788  31.238  28.022  1.00  0.00     0.037 A 
ATOM     48  C   UNL A   1      43.919  24.561  27.074  1.00  0.00     0.037 A 
ATOM     49  C   UNL A   1      46.855  30.357  27.626  1.00  0.00     0.049 A 
ATOM     50  C   UNL A   1      45.344  25.009  26.929  1.00  0.00     0.074 A 
ATOM     51  C   UNL A   1      48.192  30.656  27.423  1.00  0.00     0.029 A 
ATOM     52  N   UNL A   1      46.713  28.997  27.394  1.00  0.00    -0.354 N 
ATOM     53  N   UNL A   1      45.846  26.212  27.072  1.00  0.00    -0.248 NA
ATOM     54  C   UNL A   1      46.328  23.981  26.564  1.00  0.00     0.031 C 
ATOM     55  C   UNL A   1      48.855  29.479  27.056  1.00  0.00     0.029 A 
ATOM     56  C   UNL A   1      47.937  28.444  27.056  1.00  0.00     0.049 A 
ATOM     57  H   UNL A   1      45.867  28.499  27.461  1.00  0.00     0.167 HD
ATOM     58  C   UNL A   1      47.203  26.088  26.803  1.00  0.00     0.074 A 
ATOM     59  C   UNL A   1      47.450  24.687  26.524  1.00  0.00     0.031 C 
ATOM     60  C   UNL A   1      48.158  27.049  26.773  1.00  0.00     0.037 A 
BRANCH  47  61
ATOM     61  C   UNL A   1      46.117  32.683  28.269  1.00  0.00     0.058 A 
ATOM     62  C   UNL A   1      46.545  33.139  29.525  1.00  0.00     0.135 A 
ATOM     63  C   UNL A   1      46.045  33.616  27.221  1.00  0.00     0.135 A 
ATOM     64  F   UNL A   1      46.613  32.291  30.563  1.00  0.00    -0.206 F 
ATOM     65  C   UNL A   1      46.875  34.474  29.739  1.00  0.00     0.059 A 
ATOM     66  C   UNL A   1      46.387  34.951  27.407  1.00  0.00     0.059 A 
ATOM     67  F   UNL A   1      45.638  33.230  26.001  1.00  0.00    -0.206 F 
ATOM     68  C   UNL A   1      46.790  35.374  28.674  1.00  0.00     0.060 A 
BRANCH  68  69
ATOM     69  S   UNL A   1      47.233  37.102  28.957  1.00  0.00     0.124 S 
ATOM     70  O   UNL A   1      48.415  37.239  28.113  1.00  0.00    -0.237 OA
ATOM     71  O   UNL A   1      46.042  37.811  28.502  1.00  0.00    -0.237 OA
ATOM     72  O   UNL A   1      47.478  37.157  30.395  1.00  0.00    -0.744 OA
ENDBRANCH  68  69
ENDBRANCH  47  61
BRANCH  48  73
ATOM     73  C   UNL A   1      43.539  23.144  26.846  1.00  0.00     0.058 A 
ATOM     74  C   UNL A   1      43.186  22.307  27.913  1.00  0.00     0.135 A 
ATOM     75  C   UNL A   1      43.511  22.604  25.551  1.00  0.00     0.135 A 
ATOM     76  F   UNL A   1      43.205  22.777  29.170  1.00  0.00    -0.206 F 
ATOM     77  C   UNL A   1      42.828  20.978  27.708  1.00  0.00     0.059 A 
ATOM     78  C   UNL A   1      43.133  21.287  25.317  1.00  0.00     0.059 A 
ATOM     79  F   UNL A   1      43.826  23.371  24.495  1.00  0.00    -0.206 F 
ATOM     80  C   UNL A   1      42.805  20.477  26.404  1.00  0.00     0.060 A 
BRANCH  80  81
ATOM     81  S   UNL A   1      42.286  18.771  26.126  1.00  0.00     0.124 S 
ATOM     82  O   UNL A   1      40.904  18.951  25.697  1.00  0.00    -0.237 OA
ATOM     83  O   UNL A   1      43.220  18.320  25.098  1.00  0.00    -0.237 OA
ATOM     84  O   UNL A   1      42.468  18.154  27.437  1.00  0.00    -0.744 OA
ENDBRANCH  80  81
ENDBRANCH  48  73
BRANCH  60  85
ATOM     85  C   UNL A   1      49.548  26.607  26.425  1.00  0.00     0.058 A 
ATOM     86  C   UNL A   1      50.053  26.757  25.124  1.00  0.00     0.135 A 
ATOM     87  C   UNL A   1      50.381  26.030  27.395  1.00  0.00     0.135 A 
ATOM     88  F   UNL A   1      49.289  27.297  24.162  1.00  0.00    -0.206 F 
ATOM     89  C   UNL A   1      51.330  26.321  24.788  1.00  0.00     0.059 A 
ATOM     90  C   UNL A   1      51.668  25.603  27.085  1.00  0.00     0.059 A 
ATOM     91  F   UNL A   1      49.943  25.873  28.655  1.00  0.00    -0.206 F 
ATOM     92  C   UNL A   1      52.127  25.737  25.774  1.00  0.00     0.060 A 
BRANCH  92  93
ATOM     93  S   UNL A   1      53.783  25.170  25.335  1.00  0.00     0.124 S 
ATOM     94  O   UNL A   1      53.648  23.726  25.488  1.00  0.00    -0.237 OA
ATOM     95  O   UNL A   1      53.933  25.651  23.964  1.00  0.00    -0.237 OA
ATOM     96  O   UNL A   1      54.635  25.831  26.319  1.00  0.00    -0.744 OA
ENDBRANCH  92  93
ENDBRANCH  60  85
ENDBRANCH  34  35
ENDBRANCH  27  29
ENDBRANCH  26  27
ENDBRANCH  25  26
ENDBRANCH   1  25
TORSDOF 17
ENDMDL
MODEL 2
REMARK VINA RESULT:     -12.0      6.774     12.400
REMARK SMILES C[C@H](NC(=O)N1CCN(/C=C/c2ccccc2)CC1)C(=O)OCCOC(=O)c1ccc(-c2c3nc(c(-c4c(F)cc(S(=O)(=O)[O-])cc4F)c4ccc([nH]4)c(-c4c(F)cc(S(=O)(=O)[O-])cc4F)c4nc(c(-c5c(F)cc(S(=O)(=O)[O-])cc5F)c5ccc2[nH]5)C=C4)C=C3)cc1
REMARK SMILES IDX 23 1 22 2 20 3 21 4 2 5 1 6 3 7 4 8 5 10 6 11 7 12 19 13
REMARK SMILES IDX 8 14 18 15 9 16 10 17 11 18 12 19 13 20 17 21 14 22 16 23
REMARK SMILES IDX 15 24 24 25 25 26 26 27 27 28 28 29 29 30 93 31 30 32 92 33
REMARK SMILES IDX 31 34 32 35 33 36 86 37 34 38 91 39 85 40 87 41 35 42 90 43
REMARK SMILES IDX 84 44 83 45 36 47 70 48 49 49 69 50 50 51 53 52 68 53 88 54
REMARK SMILES IDX 51 55 52 56 67 58 89 59 54 60 37 61 38 62 47 63 39 64 40 65
REMARK SMILES IDX 46 66 48 67 41 68 42 69 43 70 44 71 45 72 71 73 72 74 81 75
REMARK SMILES IDX 73 76 74 77 80 78 82 79 75 80 76 81 77 82 78 83 79 84 55 85
REMARK SMILES IDX 56 86 65 87 57 88 58 89 64 90 66 91 59 92 60 93 61 94 62 95
REMARK SMILES IDX 63 96
REMARK H PARENT 3 9 87 46 53 57
REMARK Flexibility Score: inf
ROOT
ATOM      1  C   UNL A   1      38.752  21.627  25.785  1.00  0.00     0.274 C 
ENDROOT
BRANCH   1   2
ATOM      2  O   UNL A   1      37.470  22.241  26.028  1.00  0.00    -0.461 OA
BRANCH   2   3
ATOM      3  C   UNL A   1      36.579  22.175  25.000  1.00  0.00     0.328 C 
ATOM      4  O   UNL A   1      36.857  21.770  23.875  1.00  0.00    -0.250 OA
BRANCH   3   5
ATOM      5  C   UNL A   1      35.132  22.447  25.455  1.00  0.00     0.190 C 
ATOM      6  C   UNL A   1      35.080  23.135  26.816  1.00  0.00     0.043 C 
BRANCH   5   7
ATOM      7  N   UNL A   1      34.125  21.421  25.194  1.00  0.00    -0.325 N 
ATOM      8  C   UNL A   1      32.786  21.461  25.053  1.00  0.00     0.318 C 
ATOM      9  H   UNL A   1      34.502  20.516  25.102  1.00  0.00     0.166 HD
ATOM     10  O   UNL A   1      32.166  20.407  25.196  1.00  0.00    -0.249 OA
ATOM     11  N   UNL A   1      32.157  22.653  24.904  1.00  0.00    -0.321 N 
ATOM     12  C   UNL A   1      30.828  22.824  25.480  1.00  0.00     0.143 C 
ATOM     13  C   UNL A   1      32.434  23.608  23.836  1.00  0.00     0.143 C 
ATOM     14  C   UNL A   1      30.655  24.255  26.019  1.00  0.00     0.137 C 
ATOM     15  C   UNL A   1      32.338  25.045  24.367  1.00  0.00     0.137 C 
ATOM     16  N   UNL A   1      31.009  25.266  24.993  1.00  0.00    -0.374 N 
BRANCH  16  17
ATOM     17  C   UNL A   1      30.264  26.398  24.717  1.00  0.00     0.081 C 
ATOM     18  C   UNL A   1      30.249  27.161  23.616  1.00  0.00     0.025 C 
BRANCH  18  19
ATOM     19  C   UNL A   1      29.419  28.364  23.470  1.00  0.00    -0.024 A 
ATOM     20  C   UNL A   1      28.065  28.215  23.149  1.00  0.00     0.008 A 
ATOM     21  C   UNL A   1      29.953  29.655  23.574  1.00  0.00     0.008 A 
ATOM     22  C   UNL A   1      27.252  29.337  22.966  1.00  0.00     0.001 A 
ATOM     23  C   UNL A   1      29.140  30.776  23.392  1.00  0.00     0.001 A 
ATOM     24  C   UNL A   1      27.790  30.616  23.090  1.00  0.00     0.000 A 
ENDBRANCH  18  19
ENDBRANCH  16  17
ENDBRANCH   5   7
ENDBRANCH   3   5
ENDBRANCH   2   3
ENDBRANCH   1   2
BRANCH   1  25
ATOM     25  C   UNL A   1      39.860  22.350  26.554  1.00  0.00     0.275 C 
BRANCH  25  26
ATOM     26  O   UNL A   1      39.709  23.780  26.464  1.00  0.00    -0.458 OA
BRANCH  26  27
ATOM     27  C   UNL A   1      40.822  24.494  26.748  1.00  0.00     0.338 C 
ATOM     28  O   UNL A   1      41.946  24.319  26.306  1.00  0.00    -0.246 OA
BRANCH  27  29
ATOM     29  C   UNL A   1      40.500  25.620  27.635  1.00  0.00     0.060 A 
ATOM     30  C   UNL A   1      41.338  26.732  27.625  1.00  0.00     0.016 A 
ATOM     31  C   UNL A   1      39.503  25.503  28.603  1.00  0.00     0.016 A 
ATOM     32  C   UNL A   1      41.260  27.675  28.644  1.00  0.00     0.010 A 
ATOM     33  C   UNL A   1      39.359  26.508  29.570  1.00  0.00     0.010 A 
ATOM     34  C   UNL A   1      40.263  27.583  29.625  1.00  0.00    -0.014 A 
BRANCH  34  35
ATOM     35  C   UNL A   1      40.212  28.604  30.707  1.00  0.00     0.031 A 
ATOM     36  C   UNL A   1      41.203  28.570  31.842  1.00  0.00     0.074 A 
ATOM     37  C   UNL A   1      39.312  29.606  30.635  1.00  0.00     0.049 A 
ATOM     38  N   UNL A   1      41.261  29.327  32.908  1.00  0.00    -0.248 NA
ATOM     39  C   UNL A   1      42.263  27.551  31.776  1.00  0.00     0.031 C 
ATOM     40  C   UNL A   1      38.314  29.775  29.574  1.00  0.00     0.029 A 
ATOM     41  N   UNL A   1      39.104  30.687  31.455  1.00  0.00    -0.354 N 
ATOM     42  C   UNL A   1      42.331  28.852  33.658  1.00  0.00     0.074 A 
ATOM     43  C   UNL A   1      42.896  27.738  32.926  1.00  0.00     0.031 C 
ATOM     44  C   UNL A   1      37.637  30.914  29.782  1.00  0.00     0.029 A 
ATOM     45  C   UNL A   1      38.100  31.521  31.024  1.00  0.00     0.049 A 
ATOM     46  H   UNL A   1      39.626  30.850  32.275  1.00  0.00     0.167 HD
ATOM     47  C   UNL A   1      42.800  29.304  34.846  1.00  0.00     0.037 A 
ATOM     48  C   UNL A   1      37.586  32.635  31.577  1.00  0.00     0.037 A 
ATOM     49  C   UNL A   1      42.267  30.441  35.551  1.00  0.00     0.049 A 
ATOM     50  C   UNL A   1      38.134  33.122  32.887  1.00  0.00     0.074 A 
ATOM     51  C   UNL A   1      42.658  30.961  36.774  1.00  0.00     0.029 A 
ATOM     52  N   UNL A   1      41.241  31.249  35.086  1.00  0.00    -0.354 N 
ATOM     53  N   UNL A   1      39.098  32.612  33.615  1.00  0.00    -0.248 NA
ATOM     54  C   UNL A   1      37.513  34.325  33.459  1.00  0.00     0.031 C 
ATOM     55  C   UNL A   1      41.860  32.076  37.052  1.00  0.00     0.029 A 
ATOM     56  C   UNL A   1      40.990  32.266  35.992  1.00  0.00     0.049 A 
ATOM     57  H   UNL A   1      40.762  31.121  34.235  1.00  0.00     0.167 HD
ATOM     58  C   UNL A   1      39.191  33.425  34.738  1.00  0.00     0.074 A 
ATOM     59  C   UNL A   1      38.212  34.481  34.575  1.00  0.00     0.031 C 
ATOM     60  C   UNL A   1      40.004  33.300  35.815  1.00  0.00     0.037 A 
BRANCH  47  61
ATOM     61  C   UNL A   1      43.939  28.553  35.475  1.00  0.00     0.058 A 
ATOM     62  C   UNL A   1      43.721  27.495  36.371  1.00  0.00     0.135 A 
ATOM     63  C   UNL A   1      45.267  28.868  35.142  1.00  0.00     0.135 A 
ATOM     64  F   UNL A   1      42.472  27.167  36.735  1.00  0.00    -0.206 F 
ATOM     65  C   UNL A   1      44.781  26.786  36.928  1.00  0.00     0.059 A 
ATOM     66  C   UNL A   1      46.341  28.161  35.673  1.00  0.00     0.059 A 
ATOM     67  F   UNL A   1      45.528  29.874  34.292  1.00  0.00    -0.206 F 
ATOM     68  C   UNL A   1      46.088  27.128  36.575  1.00  0.00     0.060 A 
BRANCH  68  69
ATOM     69  S   UNL A   1      47.457  26.193  37.293  1.00  0.00     0.124 S 
ATOM     70  O   UNL A   1      48.332  27.268  37.751  1.00  0.00    -0.237 OA
ATOM     71  O   UNL A   1      46.796  25.423  38.343  1.00  0.00    -0.237 OA
ATOM     72  O   UNL A   1      47.958  25.410  36.169  1.00  0.00    -0.744 OA
ENDBRANCH  68  69
ENDBRANCH  47  61
BRANCH  48  73
ATOM     73  C   UNL A   1      36.463  33.343  30.911  1.00  0.00     0.058 A 
ATOM     74  C   UNL A   1      35.161  33.285  31.426  1.00  0.00     0.135 A 
ATOM     75  C   UNL A   1      36.677  34.102  29.750  1.00  0.00     0.135 A 
ATOM     76  F   UNL A   1      34.908  32.565  32.530  1.00  0.00    -0.206 F 
ATOM     77  C   UNL A   1      34.104  33.946  30.808  1.00  0.00     0.059 A 
ATOM     78  C   UNL A   1      35.642  34.791  29.128  1.00  0.00     0.059 A 
ATOM     79  F   UNL A   1      37.910  34.201  29.228  1.00  0.00    -0.206 F 
ATOM     80  C   UNL A   1      34.356  34.697  29.658  1.00  0.00     0.060 A 
BRANCH  80  81
ATOM     81  S   UNL A   1      33.000  35.603  28.884  1.00  0.00     0.124 S 
ATOM     82  O   UNL A   1      32.251  36.060  30.049  1.00  0.00    -0.237 OA
ATOM     83  O   UNL A   1      33.701  36.638  28.129  1.00  0.00    -0.237 OA
ATOM     84  O   UNL A   1      32.345  34.582  28.070  1.00  0.00    -0.744 OA
ENDBRANCH  80  81
ENDBRANCH  48  73
BRANCH  60  85
ATOM     85  C   UNL A   1      39.857  34.333  36.892  1.00  0.00     0.058 A 
ATOM     86  C   UNL A   1      40.567  35.543  36.841  1.00  0.00     0.135 A 
ATOM     87  C   UNL A   1      39.000  34.116  37.981  1.00  0.00     0.135 A 
ATOM     88  F   UNL A   1      41.404  35.791  35.821  1.00  0.00    -0.206 F 
ATOM     89  C   UNL A   1      40.458  36.491  37.852  1.00  0.00     0.059 A 
ATOM     90  C   UNL A   1      38.862  35.058  38.995  1.00  0.00     0.059 A 
ATOM     91  F   UNL A   1      38.295  32.977  38.070  1.00  0.00    -0.206 F 
ATOM     92  C   UNL A   1      39.609  36.235  38.930  1.00  0.00     0.060 A 
BRANCH  92  93
ATOM     93  S   UNL A   1      39.470  37.467  40.242  1.00  0.00     0.124 S 
ATOM     94  O   UNL A   1      38.580  38.447  39.629  1.00  0.00    -0.237 OA
ATOM     95  O   UNL A   1      38.902  36.697  41.345  1.00  0.00    -0.237 OA
ATOM     96  O   UNL A   1      40.849  37.905  40.438  1.00  0.00    -0.744 OA
ENDBRANCH  92  93
ENDBRANCH  60  85
ENDBRANCH  34  35
ENDBRANCH  27  29
ENDBRANCH  26  27
ENDBRANCH  25  26
ENDBRANCH   1  25
TORSDOF 17
ENDMDL
MODEL 3
REMARK VINA RESULT:     -11.6      0.509      8.294
REMARK SMILES C[C@H](NC(=O)N1CCN(/C=C/c2ccccc2)CC1)C(=O)OCCOC(=O)c1ccc(-c2c3nc(c(-c4c(F)cc(S(=O)(=O)[O-])cc4F)c4ccc([nH]4)c(-c4c(F)cc(S(=O)(=O)[O-])cc4F)c4nc(c(-c5c(F)cc(S(=O)(=O)[O-])cc5F)c5ccc2[nH]5)C=C4)C=C3)cc1
REMARK SMILES IDX 23 1 22 2 20 3 21 4 2 5 1 6 3 7 4 8 5 10 6 11 7 12 19 13
REMARK SMILES IDX 8 14 18 15 9 16 10 17 11 18 12 19 13 20 17 21 14 22 16 23
REMARK SMILES IDX 15 24 24 25 25 26 26 27 27 28 28 29 29 30 93 31 30 32 92 33
REMARK SMILES IDX 31 34 32 35 33 36 86 37 34 38 91 39 85 40 87 41 35 42 90 43
REMARK SMILES IDX 84 44 83 45 36 47 70 48 49 49 69 50 50 51 53 52 68 53 88 54
REMARK SMILES IDX 51 55 52 56 67 58 89 59 54 60 37 61 38 62 47 63 39 64 40 65
REMARK SMILES IDX 46 66 48 67 41 68 42 69 43 70 44 71 45 72 71 73 72 74 81 75
REMARK SMILES IDX 73 76 74 77 80 78 82 79 75 80 76 81 77 82 78 83 79 84 55 85
REMARK SMILES IDX 56 86 65 87 57 88 58 89 64 90 66 91 59 92 60 93 61 94 62 95
REMARK SMILES IDX 63 96
REMARK H PARENT 3 9 87 46 53 57
REMARK Flexibility Score: inf
ROOT
ATOM      1  C   UNL A   1      33.450  30.207  27.469  1.00  0.00     0.274 C 
ENDROOT
BRANCH   1   2
ATOM      2  O   UNL A   1      33.389  28.998  26.687  1.00  0.00    -0.461 OA
BRANCH   2   3
ATOM      3  C   UNL A   1      32.339  28.173  26.956  1.00  0.00     0.328 C 
ATOM      4  O   UNL A   1      31.498  28.391  27.823  1.00  0.00    -0.250 OA
BRANCH   3   5
ATOM      5  C   UNL A   1      32.186  27.052  25.909  1.00  0.00     0.190 C 
ATOM      6  C   UNL A   1      33.421  26.927  25.022  1.00  0.00     0.043 C 
BRANCH   5   7
ATOM      7  N   UNL A   1      30.887  26.889  25.261  1.00  0.00    -0.325 N 
ATOM      8  C   UNL A   1      30.308  25.865  24.605  1.00  0.00     0.318 C 
ATOM      9  H   UNL A   1      30.319  27.692  25.315  1.00  0.00     0.166 HD
ATOM     10  O   UNL A   1      29.362  26.126  23.862  1.00  0.00    -0.249 OA
ATOM     11  N   UNL A   1      30.856  24.627  24.667  1.00  0.00    -0.321 N 
ATOM     12  C   UNL A   1      30.770  23.760  23.497  1.00  0.00     0.143 C 
ATOM     13  C   UNL A   1      31.089  23.884  25.901  1.00  0.00     0.143 C 
ATOM     14  C   UNL A   1      32.051  22.921  23.352  1.00  0.00     0.137 C 
ATOM     15  C   UNL A   1      32.400  23.092  25.808  1.00  0.00     0.137 C 
ATOM     16  N   UNL A   1      32.377  22.211  24.612  1.00  0.00    -0.374 N 
BRANCH  16  17
ATOM     17  C   UNL A   1      32.767  20.885  24.689  1.00  0.00     0.081 C 
ATOM     18  C   UNL A   1      32.281  19.816  24.045  1.00  0.00     0.025 C 
BRANCH  18  19
ATOM     19  C   UNL A   1      32.778  18.449  24.247  1.00  0.00    -0.024 A 
ATOM     20  C   UNL A   1      32.604  17.844  25.498  1.00  0.00     0.008 A 
ATOM     21  C   UNL A   1      33.478  17.756  23.252  1.00  0.00     0.008 A 
ATOM     22  C   UNL A   1      33.096  16.559  25.739  1.00  0.00     0.001 A 
ATOM     23  C   UNL A   1      33.969  16.471  23.492  1.00  0.00     0.001 A 
ATOM     24  C   UNL A   1      33.776  15.873  24.735  1.00  0.00     0.000 A 
ENDBRANCH  18  19
ENDBRANCH  16  17
ENDBRANCH   5   7
ENDBRANCH   3   5
ENDBRANCH   2   3
ENDBRANCH   1   2
BRANCH   1  25
ATOM     25  C   UNL A   1      34.899  30.588  27.778  1.00  0.00     0.275 C 
BRANCH  25  26
ATOM     26  O   UNL A   1      35.651  29.448  28.238  1.00  0.00    -0.458 OA
BRANCH  26  27
ATOM     27  C   UNL A   1      36.317  29.630  29.401  1.00  0.00     0.338 C 
ATOM     28  O   UNL A   1      35.839  29.715  30.521  1.00  0.00    -0.246 OA
BRANCH  27  29
ATOM     29  C   UNL A   1      37.768  29.632  29.170  1.00  0.00     0.060 A 
ATOM     30  C   UNL A   1      38.229  29.642  27.856  1.00  0.00     0.016 A 
ATOM     31  C   UNL A   1      38.658  29.430  30.224  1.00  0.00     0.016 A 
ATOM     32  C   UNL A   1      39.557  29.338  27.580  1.00  0.00     0.010 A 
ATOM     33  C   UNL A   1      40.017  29.226  29.948  1.00  0.00     0.010 A 
ATOM     34  C   UNL A   1      40.474  29.136  28.622  1.00  0.00    -0.014 A 
BRANCH  34  35
ATOM     35  C   UNL A   1      41.887  28.805  28.293  1.00  0.00     0.031 A 
ATOM     36  C   UNL A   1      42.269  27.412  27.864  1.00  0.00     0.074 A 
ATOM     37  C   UNL A   1      42.822  29.777  28.314  1.00  0.00     0.049 A 
ATOM     38  N   UNL A   1      43.457  26.923  27.615  1.00  0.00    -0.248 NA
ATOM     39  C   UNL A   1      41.177  26.439  27.700  1.00  0.00     0.031 C 
ATOM     40  C   UNL A   1      42.581  31.176  28.683  1.00  0.00     0.029 A 
ATOM     41  N   UNL A   1      44.157  29.746  27.999  1.00  0.00    -0.354 N 
ATOM     42  C   UNL A   1      43.263  25.581  27.307  1.00  0.00     0.074 A 
ATOM     43  C   UNL A   1      41.841  25.329  27.402  1.00  0.00     0.031 C 
ATOM     44  C   UNL A   1      43.715  31.876  28.525  1.00  0.00     0.029 A 
ATOM     45  C   UNL A   1      44.778  30.968  28.113  1.00  0.00     0.049 A 
ATOM     46  H   UNL A   1      44.625  28.928  27.716  1.00  0.00     0.167 HD
ATOM     47  C   UNL A   1      44.185  24.645  26.975  1.00  0.00     0.037 A 
ATOM     48  C   UNL A   1      46.066  31.317  27.936  1.00  0.00     0.037 A 
ATOM     49  C   UNL A   1      45.595  24.907  26.837  1.00  0.00     0.049 A 
ATOM     50  C   UNL A   1      47.065  30.264  27.554  1.00  0.00     0.074 A 
ATOM     51  C   UNL A   1      46.612  24.020  26.528  1.00  0.00     0.029 A 
ATOM     52  N   UNL A   1      46.184  26.155  26.974  1.00  0.00    -0.354 N 
ATOM     53  N   UNL A   1      46.870  28.985  27.341  1.00  0.00    -0.248 NA
ATOM     54  C   UNL A   1      48.461  30.697  27.405  1.00  0.00     0.031 C 
ATOM     55  C   UNL A   1      47.818  24.729  26.492  1.00  0.00     0.029 A 
ATOM     56  C   UNL A   1      47.548  26.062  26.753  1.00  0.00     0.049 A 
ATOM     57  H   UNL A   1      45.704  26.985  27.196  1.00  0.00     0.167 HD
ATOM     58  C   UNL A   1      48.120  28.457  27.046  1.00  0.00     0.074 A 
ATOM     59  C   UNL A   1      49.058  29.561  27.070  1.00  0.00     0.031 C 
ATOM     60  C   UNL A   1      48.464  27.172  26.791  1.00  0.00     0.037 A 
BRANCH  47  61
ATOM     61  C   UNL A   1      43.702  23.240  26.759  1.00  0.00     0.058 A 
ATOM     62  C   UNL A   1      43.654  22.664  25.480  1.00  0.00     0.135 A 
ATOM     63  C   UNL A   1      43.324  22.443  27.852  1.00  0.00     0.135 A 
ATOM     64  F   UNL A   1      43.987  23.389  24.401  1.00  0.00    -0.206 F 
ATOM     65  C   UNL A   1      43.231  21.352  25.290  1.00  0.00     0.059 A 
ATOM     66  C   UNL A   1      42.915  21.124  27.688  1.00  0.00     0.059 A 
ATOM     67  F   UNL A   1      43.350  22.948  29.096  1.00  0.00    -0.206 F 
ATOM     68  C   UNL A   1      42.861  20.590  26.400  1.00  0.00     0.060 A 
BRANCH  68  69
ATOM     69  S   UNL A   1      42.326  18.883  26.146  1.00  0.00     0.124 S 
ATOM     70  O   UNL A   1      40.932  19.072  25.759  1.00  0.00    -0.237 OA
ATOM     71  O   UNL A   1      43.221  18.426  25.088  1.00  0.00    -0.237 OA
ATOM     72  O   UNL A   1      42.538  18.265  27.451  1.00  0.00    -0.744 OA
ENDBRANCH  68  69
ENDBRANCH  47  61
BRANCH  48  73
ATOM     73  C   UNL A   1      46.490  32.723  28.158  1.00  0.00     0.058 A 
ATOM     74  C   UNL A   1      46.373  33.684  27.144  1.00  0.00     0.135 A 
ATOM     75  C   UNL A   1      47.008  33.133  29.396  1.00  0.00     0.135 A 
ATOM     76  F   UNL A   1      45.889  33.336  25.942  1.00  0.00    -0.206 F 
ATOM     77  C   UNL A   1      46.767  35.004  27.345  1.00  0.00     0.059 A 
ATOM     78  C   UNL A   1      47.386  34.451  29.628  1.00  0.00     0.059 A 
ATOM     79  F   UNL A   1      47.125  32.252  30.402  1.00  0.00    -0.206 F 
ATOM     80  C   UNL A   1      47.272  35.377  28.592  1.00  0.00     0.060 A 
BRANCH  80  81
ATOM     81  S   UNL A   1      47.731  37.100  28.876  1.00  0.00     0.124 S 
ATOM     82  O   UNL A   1      46.801  37.799  27.997  1.00  0.00    -0.237 OA
ATOM     83  O   UNL A   1      47.496  37.257  30.308  1.00  0.00    -0.237 OA
ATOM     84  O   UNL A   1      49.134  37.137  28.474  1.00  0.00    -0.744 OA
ENDBRANCH  80  81
ENDBRANCH  48  73
BRANCH  60  85
ATOM     85  C   UNL A   1      49.916  26.904  26.524  1.00  0.00     0.058 A 
ATOM     86  C   UNL A   1      50.811  26.640  27.573  1.00  0.00     0.135 A 
ATOM     87  C   UNL A   1      50.416  26.908  25.214  1.00  0.00     0.135 A 
ATOM     88  F   UNL A   1      50.378  26.633  28.844  1.00  0.00    -0.206 F 
ATOM     89  C   UNL A   1      52.163  26.422  27.334  1.00  0.00     0.059 A 
ATOM     90  C   UNL A   1      51.762  26.674  24.950  1.00  0.00     0.059 A 
ATOM     91  F   UNL A   1      49.597  27.148  24.178  1.00  0.00    -0.206 F 
ATOM     92  C   UNL A   1      52.630  26.449  26.019  1.00  0.00     0.060 A 
BRANCH  92  93
ATOM     93  S   UNL A   1      54.387  26.166  25.712  1.00  0.00     0.124 S 
ATOM     94  O   UNL A   1      54.848  25.741  27.029  1.00  0.00    -0.237 OA
ATOM     95  O   UNL A   1      54.368  25.132  24.681  1.00  0.00    -0.237 OA
ATOM     96  O   UNL A   1      54.864  27.473  25.270  1.00  0.00    -0.744 OA
ENDBRANCH  92  93
ENDBRANCH  60  85
ENDBRANCH  34  35
ENDBRANCH  27  29
ENDBRANCH  26  27
ENDBRANCH  25  26
ENDBRANCH   1  25
TORSDOF 17
ENDMDL
