MODEL 1
REMARK VINA RESULT:     -10.3      0.000      0.000
REMARK SMILES Cc1nc(CSCC(=O)N2CCCC[C@@H]2C(=O)OCCOC(=O)c2ccc(-c3c4nc(c(-c5c(F)cc(S(=O)(=O)[O-])cc5F)c5ccc([nH]5)c(-c5c(F)cc(S(=O)(=O)[O-])cc5F)c5nc(c(-c6c(F)cc(S(=O)(=O)[O-])cc6F)c6ccc3[nH]6)C=C5)C=C4)cc2)cs1
REMARK SMILES IDX 19 1 18 2 16 3 17 4 15 5 10 6 11 7 12 8 14 9 13 10 8 11 9 12
REMARK SMILES IDX 7 13 6 14 5 15 4 16 1 17 2 18 3 19 91 20 90 21 20 22 21 23
REMARK SMILES IDX 22 24 23 25 24 26 25 27 89 28 26 29 88 30 27 31 28 32 29 33
REMARK SMILES IDX 82 34 30 35 87 36 81 37 83 38 31 39 86 40 80 41 79 42 32 44
REMARK SMILES IDX 66 45 45 46 65 47 46 48 49 49 64 50 84 51 47 52 48 53 63 55
REMARK SMILES IDX 85 56 50 57 33 58 34 59 43 60 35 61 36 62 42 63 44 64 37 65
REMARK SMILES IDX 38 66 39 67 40 68 41 69 67 70 68 71 77 72 69 73 70 74 76 75
REMARK SMILES IDX 78 76 71 77 72 78 73 79 74 80 75 81 51 82 52 83 61 84 53 85
REMARK SMILES IDX 54 86 60 87 62 88 55 89 56 90 57 91 58 92 59 93
REMARK H PARENT 83 43 49 54
REMARK Flexibility Score: inf
ROOT
ATOM      1  C   UNL A   1      32.197  30.446  26.045  1.00  0.00     0.274 C 
ENDROOT
BRANCH   1   2
ATOM      2  O   UNL A   1      33.104  29.516  25.419  1.00  0.00    -0.461 OA
BRANCH   2   3
ATOM      3  C   UNL A   1      32.720  29.041  24.207  1.00  0.00     0.328 C 
ATOM      4  O   UNL A   1      33.377  29.166  23.175  1.00  0.00    -0.250 OA
BRANCH   3   5
ATOM      5  C   UNL A   1      31.353  28.345  24.211  1.00  0.00     0.195 C 
ATOM      6  N   UNL A   1      31.376  26.982  24.754  1.00  0.00    -0.328 N 
ATOM      7  C   UNL A   1      30.107  26.288  24.901  1.00  0.00     0.120 C 
ATOM      8  C   UNL A   1      29.216  26.447  23.664  1.00  0.00     0.022 C 
ATOM      9  C   UNL A   1      30.509  28.478  22.951  1.00  0.00     0.037 C 
ATOM     10  C   UNL A   1      29.113  27.906  23.217  1.00  0.00     0.005 C 
BRANCH   6  11
ATOM     11  C   UNL A   1      32.561  26.258  24.785  1.00  0.00     0.233 C 
ATOM     12  O   UNL A   1      33.185  26.092  25.826  1.00  0.00    -0.274 OA
BRANCH  11  13
ATOM     13  C   UNL A   1      32.898  25.657  23.416  1.00  0.00     0.170 C 
BRANCH  13  14
ATOM     14  S   UNL A   1      33.587  23.972  23.486  1.00  0.00    -0.146 SA
BRANCH  14  15
ATOM     15  C   UNL A   1      32.044  23.022  23.679  1.00  0.00     0.127 C 
BRANCH  15  16
ATOM     16  C   UNL A   1      32.298  21.606  24.078  1.00  0.00     0.061 A 
ATOM     17  C   UNL A   1      32.420  18.191  22.818  1.00  0.00     0.079 C 
ATOM     18  C   UNL A   1      32.488  19.447  23.606  1.00  0.00     0.090 A 
ATOM     19  N   UNL A   1      32.232  20.628  23.097  1.00  0.00    -0.246 NA
ATOM     20  S   UNL A   1      32.901  19.439  25.270  1.00  0.00    -0.127 S 
ATOM     21  C   UNL A   1      32.685  21.140  25.321  1.00  0.00     0.091 A 
ENDBRANCH  15  16
ENDBRANCH  14  15
ENDBRANCH  13  14
ENDBRANCH  11  13
ENDBRANCH   6  11
ENDBRANCH   3   5
ENDBRANCH   2   3
ENDBRANCH   1   2
BRANCH   1  22
ATOM     22  C   UNL A   1      32.815  31.178  27.244  1.00  0.00     0.275 C 
BRANCH  22  23
ATOM     23  O   UNL A   1      33.755  30.366  27.972  1.00  0.00    -0.458 OA
BRANCH  23  24
ATOM     24  C   UNL A   1      34.714  31.062  28.622  1.00  0.00     0.338 C 
ATOM     25  O   UNL A   1      34.555  32.093  29.273  1.00  0.00    -0.246 OA
BRANCH  24  26
ATOM     26  C   UNL A   1      35.995  30.339  28.617  1.00  0.00     0.060 A 
ATOM     27  C   UNL A   1      36.453  29.843  29.843  1.00  0.00     0.016 A 
ATOM     28  C   UNL A   1      36.792  30.242  27.476  1.00  0.00     0.016 A 
ATOM     29  C   UNL A   1      37.714  29.278  29.952  1.00  0.00     0.010 A 
ATOM     30  C   UNL A   1      38.074  29.692  27.589  1.00  0.00     0.010 A 
ATOM     31  C   UNL A   1      38.548  29.239  28.834  1.00  0.00    -0.014 A 
BRANCH  31  32
ATOM     32  C   UNL A   1      39.971  28.888  29.030  1.00  0.00     0.031 A 
ATOM     33  C   UNL A   1      40.872  29.889  29.695  1.00  0.00     0.074 A 
ATOM     34  C   UNL A   1      40.425  27.666  28.703  1.00  0.00     0.049 A 
ATOM     35  N   UNL A   1      42.157  29.826  29.922  1.00  0.00    -0.248 NA
ATOM     36  C   UNL A   1      40.232  31.123  30.179  1.00  0.00     0.031 C 
ATOM     37  C   UNL A   1      39.609  26.582  28.155  1.00  0.00     0.029 A 
ATOM     38  N   UNL A   1      41.681  27.131  28.797  1.00  0.00    -0.354 N 
ATOM     39  C   UNL A   1      42.486  31.021  30.553  1.00  0.00     0.074 A 
ATOM     40  C   UNL A   1      41.268  31.793  30.663  1.00  0.00     0.031 C 
ATOM     41  C   UNL A   1      40.390  25.505  27.966  1.00  0.00     0.029 A 
ATOM     42  C   UNL A   1      41.764  25.842  28.331  1.00  0.00     0.049 A 
ATOM     43  H   UNL A   1      42.452  27.623  29.163  1.00  0.00     0.167 HD
ATOM     44  C   UNL A   1      43.697  31.433  30.997  1.00  0.00     0.037 A 
ATOM     45  C   UNL A   1      42.836  25.039  28.192  1.00  0.00     0.037 A 
ATOM     46  C   UNL A   1      44.900  30.654  30.878  1.00  0.00     0.049 A 
ATOM     47  C   UNL A   1      44.191  25.558  28.592  1.00  0.00     0.074 A 
ATOM     48  C   UNL A   1      46.186  30.983  31.266  1.00  0.00     0.029 A 
ATOM     49  N   UNL A   1      44.962  29.383  30.322  1.00  0.00    -0.354 N 
ATOM     50  N   UNL A   1      44.504  26.710  29.137  1.00  0.00    -0.248 NA
ATOM     51  C   UNL A   1      45.339  24.677  28.342  1.00  0.00     0.031 C 
ATOM     52  C   UNL A   1      47.033  29.925  30.909  1.00  0.00     0.029 A 
ATOM     53  C   UNL A   1      46.266  28.920  30.338  1.00  0.00     0.049 A 
ATOM     54  H   UNL A   1      44.190  28.884  29.969  1.00  0.00     0.167 HD
ATOM     55  C   UNL A   1      45.883  26.685  29.316  1.00  0.00     0.074 A 
ATOM     56  C   UNL A   1      46.342  25.400  28.824  1.00  0.00     0.031 C 
ATOM     57  C   UNL A   1      46.696  27.636  29.841  1.00  0.00     0.037 A 
BRANCH  44  58
ATOM     58  C   UNL A   1      43.769  32.813  31.590  1.00  0.00     0.058 A 
ATOM     59  C   UNL A   1      43.834  33.023  32.977  1.00  0.00     0.135 A 
ATOM     60  C   UNL A   1      43.723  33.943  30.758  1.00  0.00     0.135 A 
ATOM     61  F   UNL A   1      43.857  31.977  33.819  1.00  0.00    -0.206 F 
ATOM     62  C   UNL A   1      43.800  34.305  33.520  1.00  0.00     0.059 A 
ATOM     63  C   UNL A   1      43.714  35.233  31.277  1.00  0.00     0.059 A 
ATOM     64  F   UNL A   1      43.658  33.799  29.424  1.00  0.00    -0.206 F 
ATOM     65  C   UNL A   1      43.725  35.402  32.662  1.00  0.00     0.060 A 
BRANCH  65  66
ATOM     66  S   UNL A   1      43.618  37.058  33.375  1.00  0.00     0.124 S 
ATOM     67  O   UNL A   1      42.325  36.999  34.050  1.00  0.00    -0.237 OA
ATOM     68  O   UNL A   1      44.786  37.100  34.250  1.00  0.00    -0.237 OA
ATOM     69  O   UNL A   1      43.680  37.934  32.210  1.00  0.00    -0.744 OA
ENDBRANCH  65  66
ENDBRANCH  44  58
BRANCH  45  70
ATOM     70  C   UNL A   1      42.668  23.671  27.637  1.00  0.00     0.058 A 
ATOM     71  C   UNL A   1      42.692  23.448  26.253  1.00  0.00     0.135 A 
ATOM     72  C   UNL A   1      42.518  22.557  28.477  1.00  0.00     0.135 A 
ATOM     73  F   UNL A   1      42.822  24.483  25.409  1.00  0.00    -0.206 F 
ATOM     74  C   UNL A   1      42.578  22.169  25.720  1.00  0.00     0.059 A 
ATOM     75  C   UNL A   1      42.424  21.265  27.970  1.00  0.00     0.059 A 
ATOM     76  F   UNL A   1      42.495  22.718  29.810  1.00  0.00    -0.206 F 
ATOM     77  C   UNL A   1      42.453  21.081  26.588  1.00  0.00     0.060 A 
BRANCH  77  78
ATOM     78  S   UNL A   1      42.386  19.418  25.888  1.00  0.00     0.124 S 
ATOM     79  O   UNL A   1      40.974  19.300  25.544  1.00  0.00    -0.237 OA
ATOM     80  O   UNL A   1      43.312  19.522  24.764  1.00  0.00    -0.237 OA
ATOM     81  O   UNL A   1      42.842  18.573  26.988  1.00  0.00    -0.744 OA
ENDBRANCH  77  78
ENDBRANCH  45  70
BRANCH  57  82
ATOM     82  C   UNL A   1      48.159  27.309  29.937  1.00  0.00     0.058 A 
ATOM     83  C   UNL A   1      49.075  27.745  28.967  1.00  0.00     0.135 A 
ATOM     84  C   UNL A   1      48.655  26.592  31.038  1.00  0.00     0.135 A 
ATOM     85  F   UNL A   1      48.648  28.426  27.893  1.00  0.00    -0.206 F 
ATOM     86  C   UNL A   1      50.434  27.466  29.078  1.00  0.00     0.059 A 
ATOM     87  C   UNL A   1      50.012  26.322  31.179  1.00  0.00     0.059 A 
ATOM     88  F   UNL A   1      47.820  26.163  31.997  1.00  0.00    -0.206 F 
ATOM     89  C   UNL A   1      50.892  26.754  30.187  1.00  0.00     0.060 A 
BRANCH  89  90
ATOM     90  S   UNL A   1      52.662  26.428  30.339  1.00  0.00     0.124 S 
ATOM     91  O   UNL A   1      52.995  25.985  28.990  1.00  0.00    -0.237 OA
ATOM     92  O   UNL A   1      53.189  27.733  30.727  1.00  0.00    -0.237 OA
ATOM     93  O   UNL A   1      52.729  25.400  31.373  1.00  0.00    -0.744 OA
ENDBRANCH  89  90
ENDBRANCH  57  82
ENDBRANCH  31  32
ENDBRANCH  24  26
ENDBRANCH  23  24
ENDBRANCH  22  23
ENDBRANCH   1  22
TORSDOF 19
ENDMDL
MODEL 2
REMARK VINA RESULT:     -10.2      4.898     10.107
REMARK SMILES Cc1nc(CSCC(=O)N2CCCC[C@@H]2C(=O)OCCOC(=O)c2ccc(-c3c4nc(c(-c5c(F)cc(S(=O)(=O)[O-])cc5F)c5ccc([nH]5)c(-c5c(F)cc(S(=O)(=O)[O-])cc5F)c5nc(c(-c6c(F)cc(S(=O)(=O)[O-])cc6F)c6ccc3[nH]6)C=C5)C=C4)cc2)cs1
REMARK SMILES IDX 19 1 18 2 16 3 17 4 15 5 10 6 11 7 12 8 14 9 13 10 8 11 9 12
REMARK SMILES IDX 7 13 6 14 5 15 4 16 1 17 2 18 3 19 91 20 90 21 20 22 21 23
REMARK SMILES IDX 22 24 23 25 24 26 25 27 89 28 26 29 88 30 27 31 28 32 29 33
REMARK SMILES IDX 82 34 30 35 87 36 81 37 83 38 31 39 86 40 80 41 79 42 32 44
REMARK SMILES IDX 66 45 45 46 65 47 46 48 49 49 64 50 84 51 47 52 48 53 63 55
REMARK SMILES IDX 85 56 50 57 33 58 34 59 43 60 35 61 36 62 42 63 44 64 37 65
REMARK SMILES IDX 38 66 39 67 40 68 41 69 67 70 68 71 77 72 69 73 70 74 76 75
REMARK SMILES IDX 78 76 71 77 72 78 73 79 74 80 75 81 51 82 52 83 61 84 53 85
REMARK SMILES IDX 54 86 60 87 62 88 55 89 56 90 57 91 58 92 59 93
REMARK H PARENT 83 43 49 54
REMARK Flexibility Score: inf
ROOT
ATOM      1  C   UNL A   1      38.826  21.770  26.128  1.00  0.00     0.274 C 
ENDROOT
BRANCH   1   2
ATOM      2  O   UNL A   1      38.065  22.598  25.225  1.00  0.00    -0.461 OA
BRANCH   2   3
ATOM      3  C   UNL A   1      36.957  23.181  25.750  1.00  0.00     0.328 C 
ATOM      4  O   UNL A   1      36.927  24.319  26.215  1.00  0.00    -0.250 OA
BRANCH   3   5
ATOM      5  C   UNL A   1      35.716  22.278  25.750  1.00  0.00     0.195 C 
ATOM      6  N   UNL A   1      35.042  22.186  24.450  1.00  0.00    -0.328 N 
ATOM      7  C   UNL A   1      33.923  21.265  24.330  1.00  0.00     0.120 C 
ATOM      8  C   UNL A   1      32.962  21.366  25.519  1.00  0.00     0.022 C 
ATOM      9  C   UNL A   1      34.752  22.434  26.919  1.00  0.00     0.037 C 
ATOM     10  C   UNL A   1      33.702  21.321  26.857  1.00  0.00     0.005 C 
BRANCH   6  11
ATOM     11  C   UNL A   1      35.220  23.178  23.494  1.00  0.00     0.233 C 
ATOM     12  O   UNL A   1      36.006  23.039  22.564  1.00  0.00    -0.274 OA
BRANCH  11  13
ATOM     13  C   UNL A   1      34.272  24.361  23.715  1.00  0.00     0.170 C 
BRANCH  13  14
ATOM     14  S   UNL A   1      32.916  24.472  22.505  1.00  0.00    -0.146 SA
BRANCH  14  15
ATOM     15  C   UNL A   1      33.130  26.201  21.969  1.00  0.00     0.127 C 
BRANCH  15  16
ATOM     16  C   UNL A   1      32.194  27.129  22.671  1.00  0.00     0.061 A 
ATOM     17  C   UNL A   1      31.943  29.490  25.434  1.00  0.00     0.079 C 
ATOM     18  C   UNL A   1      31.744  28.636  24.236  1.00  0.00     0.090 A 
ATOM     19  N   UNL A   1      32.684  27.868  23.738  1.00  0.00    -0.246 NA
ATOM     20  S   UNL A   1      30.240  28.584  23.413  1.00  0.00    -0.127 S 
ATOM     21  C   UNL A   1      30.885  27.418  22.332  1.00  0.00     0.091 A 
ENDBRANCH  15  16
ENDBRANCH  14  15
ENDBRANCH  13  14
ENDBRANCH  11  13
ENDBRANCH   6  11
ENDBRANCH   3   5
ENDBRANCH   2   3
ENDBRANCH   1   2
BRANCH   1  22
ATOM     22  C   UNL A   1      40.089  22.461  26.661  1.00  0.00     0.275 C 
BRANCH  22  23
ATOM     23  O   UNL A   1      40.059  23.891  26.490  1.00  0.00    -0.458 OA
BRANCH  23  24
ATOM     24  C   UNL A   1      41.170  24.531  26.919  1.00  0.00     0.338 C 
ATOM     25  O   UNL A   1      42.320  24.339  26.530  1.00  0.00    -0.246 OA
BRANCH  24  26
ATOM     26  C   UNL A   1      40.831  25.649  27.812  1.00  0.00     0.060 A 
ATOM     27  C   UNL A   1      41.791  26.655  27.968  1.00  0.00     0.016 A 
ATOM     28  C   UNL A   1      39.660  25.669  28.570  1.00  0.00     0.016 A 
ATOM     29  C   UNL A   1      41.612  27.667  28.898  1.00  0.00     0.010 A 
ATOM     30  C   UNL A   1      39.489  26.678  29.526  1.00  0.00     0.010 A 
ATOM     31  C   UNL A   1      40.479  27.659  29.713  1.00  0.00    -0.014 A 
BRANCH  31  32
ATOM     32  C   UNL A   1      40.438  28.577  30.871  1.00  0.00     0.031 A 
ATOM     33  C   UNL A   1      39.424  29.685  30.875  1.00  0.00     0.074 A 
ATOM     34  C   UNL A   1      41.230  28.368  31.936  1.00  0.00     0.049 A 
ATOM     35  N   UNL A   1      39.240  30.638  31.748  1.00  0.00    -0.248 NA
ATOM     36  C   UNL A   1      38.484  29.713  29.742  1.00  0.00     0.031 C 
ATOM     37  C   UNL A   1      42.171  27.257  32.083  1.00  0.00     0.029 A 
ATOM     38  N   UNL A   1      41.358  29.076  33.101  1.00  0.00    -0.354 N 
ATOM     39  C   UNL A   1      38.179  31.394  31.262  1.00  0.00     0.074 A 
ATOM     40  C   UNL A   1      37.769  30.795  30.011  1.00  0.00     0.031 C 
ATOM     41  C   UNL A   1      42.778  27.357  33.278  1.00  0.00     0.029 A 
ATOM     42  C   UNL A   1      42.305  28.563  33.953  1.00  0.00     0.049 A 
ATOM     43  H   UNL A   1      40.823  29.877  33.308  1.00  0.00     0.167 HD
ATOM     44  C   UNL A   1      37.604  32.491  31.811  1.00  0.00     0.037 A 
ATOM     45  C   UNL A   1      42.754  29.035  35.132  1.00  0.00     0.037 A 
ATOM     46  C   UNL A   1      38.026  33.076  33.055  1.00  0.00     0.049 A 
ATOM     47  C   UNL A   1      42.176  30.315  35.672  1.00  0.00     0.074 A 
ATOM     48  C   UNL A   1      37.535  34.201  33.692  1.00  0.00     0.029 A 
ATOM     49  N   UNL A   1      39.047  32.577  33.853  1.00  0.00    -0.354 N 
ATOM     50  N   UNL A   1      41.212  31.056  35.180  1.00  0.00    -0.248 NA
ATOM     51  C   UNL A   1      42.759  30.832  36.917  1.00  0.00     0.031 C 
ATOM     52  C   UNL A   1      38.288  34.405  34.857  1.00  0.00     0.029 A 
ATOM     53  C   UNL A   1      39.217  33.381  34.966  1.00  0.00     0.049 A 
ATOM     54  H   UNL A   1      39.573  31.769  33.655  1.00  0.00     0.167 HD
ATOM     55  C   UNL A   1      41.056  32.117  36.065  1.00  0.00     0.074 A 
ATOM     56  C   UNL A   1      42.024  31.917  37.127  1.00  0.00     0.031 C 
ATOM     57  C   UNL A   1      40.190  33.160  36.009  1.00  0.00     0.037 A 
BRANCH  44  58
ATOM     58  C   UNL A   1      36.504  33.147  31.024  1.00  0.00     0.058 A 
ATOM     59  C   UNL A   1      36.762  33.879  29.853  1.00  0.00     0.135 A 
ATOM     60  C   UNL A   1      35.177  33.082  31.477  1.00  0.00     0.135 A 
ATOM     61  F   UNL A   1      38.016  33.991  29.390  1.00  0.00    -0.206 F 
ATOM     62  C   UNL A   1      35.749  34.565  29.188  1.00  0.00     0.059 A 
ATOM     63  C   UNL A   1      34.145  33.739  30.814  1.00  0.00     0.059 A 
ATOM     64  F   UNL A   1      34.875  32.398  32.593  1.00  0.00    -0.206 F 
ATOM     65  C   UNL A   1      34.447  34.501  29.685  1.00  0.00     0.060 A 
BRANCH  65  66
ATOM     66  S   UNL A   1      33.151  35.444  28.853  1.00  0.00     0.124 S 
ATOM     67  O   UNL A   1      32.417  35.990  29.990  1.00  0.00    -0.237 OA
ATOM     68  O   UNL A   1      33.917  36.410  28.071  1.00  0.00    -0.237 OA
ATOM     69  O   UNL A   1      32.443  34.433  28.075  1.00  0.00    -0.744 OA
ENDBRANCH  65  66
ENDBRANCH  44  58
BRANCH  45  70
ATOM     70  C   UNL A   1      43.815  28.298  35.866  1.00  0.00     0.058 A 
ATOM     71  C   UNL A   1      45.169  28.604  35.673  1.00  0.00     0.135 A 
ATOM     72  C   UNL A   1      43.496  27.301  36.802  1.00  0.00     0.135 A 
ATOM     73  F   UNL A   1      45.524  29.541  34.781  1.00  0.00    -0.206 F 
ATOM     74  C   UNL A   1      46.171  27.952  36.384  1.00  0.00     0.059 A 
ATOM     75  C   UNL A   1      44.478  26.650  37.541  1.00  0.00     0.059 A 
ATOM     76  F   UNL A   1      42.213  26.977  37.027  1.00  0.00    -0.206 F 
ATOM     77  C   UNL A   1      45.815  26.982  37.323  1.00  0.00     0.060 A 
BRANCH  77  78
ATOM     78  S   UNL A   1      47.119  26.199  38.297  1.00  0.00     0.124 S 
ATOM     79  O   UNL A   1      47.808  25.409  37.284  1.00  0.00    -0.237 OA
ATOM     80  O   UNL A   1      47.848  27.352  38.816  1.00  0.00    -0.237 OA
ATOM     81  O   UNL A   1      46.377  25.436  39.297  1.00  0.00    -0.744 OA
ENDBRANCH  77  78
ENDBRANCH  45  70
BRANCH  57  82
ATOM     82  C   UNL A   1      40.231  34.147  37.140  1.00  0.00     0.058 A 
ATOM     83  C   UNL A   1      41.077  35.267  37.109  1.00  0.00     0.135 A 
ATOM     84  C   UNL A   1      39.380  33.995  38.246  1.00  0.00     0.135 A 
ATOM     85  F   UNL A   1      41.915  35.451  36.077  1.00  0.00    -0.206 F 
ATOM     86  C   UNL A   1      41.088  36.195  38.145  1.00  0.00     0.059 A 
ATOM     87  C   UNL A   1      39.359  34.922  39.282  1.00  0.00     0.059 A 
ATOM     88  F   UNL A   1      38.546  32.946  38.317  1.00  0.00    -0.206 F 
ATOM     89  C   UNL A   1      40.226  36.013  39.227  1.00  0.00     0.060 A 
BRANCH  89  90
ATOM     90  S   UNL A   1      40.222  37.242  40.551  1.00  0.00     0.124 S 
ATOM     91  O   UNL A   1      40.351  38.484  39.797  1.00  0.00    -0.237 OA
ATOM     92  O   UNL A   1      38.928  37.016  41.186  1.00  0.00    -0.237 OA
ATOM     93  O   UNL A   1      41.381  36.873  41.358  1.00  0.00    -0.744 OA
ENDBRANCH  89  90
ENDBRANCH  57  82
ENDBRANCH  31  32
ENDBRANCH  24  26
ENDBRANCH  23  24
ENDBRANCH  22  23
ENDBRANCH   1  22
TORSDOF 19
ENDMDL
MODEL 3
REMARK VINA RESULT:     -10.1      3.902      9.864
REMARK SMILES Cc1nc(CSCC(=O)N2CCCC[C@@H]2C(=O)OCCOC(=O)c2ccc(-c3c4nc(c(-c5c(F)cc(S(=O)(=O)[O-])cc5F)c5ccc([nH]5)c(-c5c(F)cc(S(=O)(=O)[O-])cc5F)c5nc(c(-c6c(F)cc(S(=O)(=O)[O-])cc6F)c6ccc3[nH]6)C=C5)C=C4)cc2)cs1
REMARK SMILES IDX 19 1 18 2 16 3 17 4 15 5 10 6 11 7 12 8 14 9 13 10 8 11 9 12
REMARK SMILES IDX 7 13 6 14 5 15 4 16 1 17 2 18 3 19 91 20 90 21 20 22 21 23
REMARK SMILES IDX 22 24 23 25 24 26 25 27 89 28 26 29 88 30 27 31 28 32 29 33
REMARK SMILES IDX 82 34 30 35 87 36 81 37 83 38 31 39 86 40 80 41 79 42 32 44
REMARK SMILES IDX 66 45 45 46 65 47 46 48 49 49 64 50 84 51 47 52 48 53 63 55
REMARK SMILES IDX 85 56 50 57 33 58 34 59 43 60 35 61 36 62 42 63 44 64 37 65
REMARK SMILES IDX 38 66 39 67 40 68 41 69 67 70 68 71 77 72 69 73 70 74 76 75
REMARK SMILES IDX 78 76 71 77 72 78 73 79 74 80 75 81 51 82 52 83 61 84 53 85
REMARK SMILES IDX 54 86 60 87 62 88 55 89 56 90 57 91 58 92 59 93
REMARK H PARENT 83 43 49 54
REMARK Flexibility Score: inf
ROOT
ATOM      1  C   UNL A   1      36.245  33.516  33.958  1.00  0.00     0.274 C 
ENDROOT
BRANCH   1   2
ATOM      2  O   UNL A   1      35.689  34.119  32.773  1.00  0.00    -0.461 OA
BRANCH   2   3
ATOM      3  C   UNL A   1      34.441  33.708  32.431  1.00  0.00     0.328 C 
ATOM      4  O   UNL A   1      33.896  32.702  32.881  1.00  0.00    -0.250 OA
BRANCH   3   5
ATOM      5  C   UNL A   1      33.752  34.599  31.388  1.00  0.00     0.195 C 
ATOM      6  N   UNL A   1      34.015  34.206  29.998  1.00  0.00    -0.328 N 
ATOM      7  C   UNL A   1      33.315  34.925  28.946  1.00  0.00     0.120 C 
ATOM      8  C   UNL A   1      33.328  36.439  29.174  1.00  0.00     0.022 C 
ATOM      9  C   UNL A   1      33.824  36.103  31.612  1.00  0.00     0.037 C 
ATOM     10  C   UNL A   1      32.915  36.807  30.600  1.00  0.00     0.005 C 
BRANCH   6  11
ATOM     11  C   UNL A   1      35.134  33.446  29.682  1.00  0.00     0.233 C 
ATOM     12  O   UNL A   1      36.264  33.917  29.731  1.00  0.00    -0.274 OA
BRANCH  11  13
ATOM     13  C   UNL A   1      34.767  31.991  29.374  1.00  0.00     0.170 C 
BRANCH  13  14
ATOM     14  S   UNL A   1      34.877  31.546  27.611  1.00  0.00    -0.146 SA
BRANCH  14  15
ATOM     15  C   UNL A   1      34.841  29.730  27.754  1.00  0.00     0.127 C 
BRANCH  15  16
ATOM     16  C   UNL A   1      33.832  29.111  26.844  1.00  0.00     0.061 A 
ATOM     17  C   UNL A   1      31.029  29.864  24.644  1.00  0.00     0.079 C 
ATOM     18  C   UNL A   1      32.137  29.254  25.421  1.00  0.00     0.090 A 
ATOM     19  N   UNL A   1      32.946  29.949  26.183  1.00  0.00    -0.246 NA
ATOM     20  S   UNL A   1      32.432  27.565  25.384  1.00  0.00    -0.127 S 
ATOM     21  C   UNL A   1      33.717  27.777  26.501  1.00  0.00     0.091 A 
ENDBRANCH  15  16
ENDBRANCH  14  15
ENDBRANCH  13  14
ENDBRANCH  11  13
ENDBRANCH   6  11
ENDBRANCH   3   5
ENDBRANCH   2   3
ENDBRANCH   1   2
BRANCH   1  22
ATOM     22  C   UNL A   1      37.414  32.566  33.660  1.00  0.00     0.275 C 
BRANCH  22  23
ATOM     23  O   UNL A   1      37.540  32.255  32.260  1.00  0.00    -0.458 OA
BRANCH  23  24
ATOM     24  C   UNL A   1      37.262  30.971  31.942  1.00  0.00     0.338 C 
ATOM     25  O   UNL A   1      36.199  30.384  32.136  1.00  0.00    -0.246 OA
BRANCH  24  26
ATOM     26  C   UNL A   1      38.345  30.370  31.151  1.00  0.00     0.060 A 
ATOM     27  C   UNL A   1      39.365  29.719  31.855  1.00  0.00     0.016 A 
ATOM     28  C   UNL A   1      38.436  30.529  29.768  1.00  0.00     0.016 A 
ATOM     29  C   UNL A   1      40.493  29.252  31.199  1.00  0.00     0.010 A 
ATOM     30  C   UNL A   1      39.585  30.079  29.107  1.00  0.00     0.010 A 
ATOM     31  C   UNL A   1      40.628  29.468  29.827  1.00  0.00    -0.014 A 
BRANCH  31  32
ATOM     32  C   UNL A   1      41.943  29.212  29.201  1.00  0.00     0.031 A 
ATOM     33  C   UNL A   1      42.216  27.847  28.636  1.00  0.00     0.074 A 
ATOM     34  C   UNL A   1      42.837  30.205  29.059  1.00  0.00     0.049 A 
ATOM     35  N   UNL A   1      43.307  27.377  28.095  1.00  0.00    -0.248 NA
ATOM     36  C   UNL A   1      41.101  26.887  28.681  1.00  0.00     0.031 C 
ATOM     37  C   UNL A   1      42.628  31.593  29.471  1.00  0.00     0.029 A 
ATOM     38  N   UNL A   1      44.095  30.198  28.518  1.00  0.00    -0.354 N 
ATOM     39  C   UNL A   1      43.021  26.059  27.754  1.00  0.00     0.074 A 
ATOM     40  C   UNL A   1      41.656  25.803  28.161  1.00  0.00     0.031 C 
ATOM     41  C   UNL A   1      43.724  32.307  29.161  1.00  0.00     0.029 A 
ATOM     42  C   UNL A   1      44.724  31.417  28.578  1.00  0.00     0.049 A 
ATOM     43  H   UNL A   1      44.508  29.395  28.124  1.00  0.00     0.167 HD
ATOM     44  C   UNL A   1      43.826  25.148  27.159  1.00  0.00     0.037 A 
ATOM     45  C   UNL A   1      45.978  31.761  28.225  1.00  0.00     0.037 A 
ATOM     46  C   UNL A   1      45.182  25.419  26.762  1.00  0.00     0.049 A 
ATOM     47  C   UNL A   1      46.892  30.706  27.665  1.00  0.00     0.074 A 
ATOM     48  C   UNL A   1      46.099  24.565  26.177  1.00  0.00     0.029 A 
ATOM     49  N   UNL A   1      45.817  26.644  26.915  1.00  0.00    -0.354 N 
ATOM     50  N   UNL A   1      46.633  29.448  27.397  1.00  0.00    -0.248 NA
ATOM     51  C   UNL A   1      48.274  31.112  27.375  1.00  0.00     0.031 C 
ATOM     52  C   UNL A   1      47.302  25.264  26.012  1.00  0.00     0.029 A 
ATOM     53  C   UNL A   1      47.120  26.566  26.455  1.00  0.00     0.049 A 
ATOM     54  H   UNL A   1      45.401  27.451  27.295  1.00  0.00     0.167 HD
ATOM     55  C   UNL A   1      47.812  28.916  26.887  1.00  0.00     0.074 A 
ATOM     56  C   UNL A   1      48.784  29.992  26.880  1.00  0.00     0.031 C 
ATOM     57  C   UNL A   1      48.068  27.653  26.460  1.00  0.00     0.037 A 
BRANCH  44  58
ATOM     58  C   UNL A   1      43.265  23.767  26.967  1.00  0.00     0.058 A 
ATOM     59  C   UNL A   1      43.125  22.866  28.036  1.00  0.00     0.135 A 
ATOM     60  C   UNL A   1      42.907  23.322  25.684  1.00  0.00     0.135 A 
ATOM     61  F   UNL A   1      43.474  23.233  29.279  1.00  0.00    -0.206 F 
ATOM     62  C   UNL A   1      42.698  21.557  27.831  1.00  0.00     0.059 A 
ATOM     63  C   UNL A   1      42.454  22.026  25.460  1.00  0.00     0.059 A 
ATOM     64  F   UNL A   1      43.024  24.141  24.627  1.00  0.00    -0.206 F 
ATOM     65  C   UNL A   1      42.379  21.143  26.537  1.00  0.00     0.060 A 
BRANCH  65  66
ATOM     66  S   UNL A   1      41.885  19.426  26.271  1.00  0.00     0.124 S 
ATOM     67  O   UNL A   1      40.444  19.567  26.079  1.00  0.00    -0.237 OA
ATOM     68  O   UNL A   1      42.648  19.059  25.082  1.00  0.00    -0.237 OA
ATOM     69  O   UNL A   1      42.292  18.761  27.504  1.00  0.00    -0.744 OA
ENDBRANCH  65  66
ENDBRANCH  44  58
BRANCH  45  70
ATOM     70  C   UNL A   1      46.437  33.162  28.408  1.00  0.00     0.058 A 
ATOM     71  C   UNL A   1      46.271  34.113  27.391  1.00  0.00     0.135 A 
ATOM     72  C   UNL A   1      47.015  33.588  29.614  1.00  0.00     0.135 A 
ATOM     73  F   UNL A   1      45.734  33.750  26.216  1.00  0.00    -0.206 F 
ATOM     74  C   UNL A   1      46.657  35.438  27.563  1.00  0.00     0.059 A 
ATOM     75  C   UNL A   1      47.390  34.912  29.819  1.00  0.00     0.059 A 
ATOM     76  F   UNL A   1      47.189  32.717  30.621  1.00  0.00    -0.206 F 
ATOM     77  C   UNL A   1      47.208  35.830  28.785  1.00  0.00     0.060 A 
BRANCH  77  78
ATOM     78  S   UNL A   1      47.632  37.569  29.025  1.00  0.00     0.124 S 
ATOM     79  O   UNL A   1      47.183  38.157  27.769  1.00  0.00    -0.237 OA
ATOM     80  O   UNL A   1      46.851  37.914  30.209  1.00  0.00    -0.237 OA
ATOM     81  O   UNL A   1      49.078  37.536  29.227  1.00  0.00    -0.744 OA
ENDBRANCH  77  78
ENDBRANCH  45  70
BRANCH  57  82
ATOM     82  C   UNL A   1      49.444  27.377  25.924  1.00  0.00     0.058 A 
ATOM     83  C   UNL A   1      49.726  27.443  24.551  1.00  0.00     0.135 A 
ATOM     84  C   UNL A   1      50.501  27.088  26.801  1.00  0.00     0.135 A 
ATOM     85  F   UNL A   1      48.747  27.708  23.673  1.00  0.00    -0.206 F 
ATOM     86  C   UNL A   1      51.009  27.218  24.064  1.00  0.00     0.059 A 
ATOM     87  C   UNL A   1      51.796  26.881  26.338  1.00  0.00     0.059 A 
ATOM     88  F   UNL A   1      50.284  27.023  28.124  1.00  0.00    -0.206 F 
ATOM     89  C   UNL A   1      52.037  26.936  24.965  1.00  0.00     0.060 A 
BRANCH  89  90
ATOM     90  S   UNL A   1      53.706  26.679  24.326  1.00  0.00     0.124 S 
ATOM     91  O   UNL A   1      54.048  28.015  23.851  1.00  0.00    -0.237 OA
ATOM     92  O   UNL A   1      54.429  26.223  25.509  1.00  0.00    -0.237 OA
ATOM     93  O   UNL A   1      53.519  25.671  23.288  1.00  0.00    -0.744 OA
ENDBRANCH  89  90
ENDBRANCH  57  82
ENDBRANCH  31  32
ENDBRANCH  24  26
ENDBRANCH  23  24
ENDBRANCH  22  23
ENDBRANCH   1  22
TORSDOF 19
ENDMDL
