MODEL 1
REMARK VINA RESULT:     -10.5      0.000      0.000
REMARK SMILES CC1(C)CCC[C@@](C)(CCC(=O)OCCOC(=O)c2ccc(-c3c4nc(c(-c5c(F)cc(S(=O)(=O)[O-])cc5F)c5ccc([nH]5)c(-c5c(F)cc(S(=O)(=O)[O-])cc5F)c5nc(c(-c6c(F)cc(S(=O)(=O)[O-])cc6F)c6ccc3[nH]6)C=C5)C=C4)cc2)C1=O
REMARK SMILES IDX 15 1 14 2 13 3 11 4 12 5 10 6 9 7 7 8 1 9 2 10 3 11 4 12
REMARK SMILES IDX 85 13 5 14 86 15 6 16 8 17 16 18 17 19 18 20 19 21 20 22
REMARK SMILES IDX 84 23 21 24 83 25 22 26 23 27 24 28 77 29 25 30 82 31 76 32
REMARK SMILES IDX 78 33 26 34 81 35 75 36 74 37 27 39 61 40 40 41 60 42 41 43
REMARK SMILES IDX 44 44 59 45 79 46 42 47 43 48 58 50 80 51 45 52 28 53 29 54
REMARK SMILES IDX 38 55 30 56 31 57 37 58 39 59 32 60 33 61 34 62 35 63 36 64
REMARK SMILES IDX 62 65 63 66 72 67 64 68 65 69 71 70 73 71 66 72 67 73 68 74
REMARK SMILES IDX 69 75 70 76 46 77 47 78 56 79 48 80 49 81 55 82 57 83 50 84
REMARK SMILES IDX 51 85 52 86 53 87 54 88
REMARK H PARENT 78 38 44 49
REMARK Flexibility Score: inf
ROOT
ATOM      1  C   UNL A   1      33.068  29.863  26.419  1.00  0.00     0.275 C 
ENDROOT
BRANCH   1   2
ATOM      2  C   UNL A   1      31.764  29.064  26.403  1.00  0.00     0.274 C 
BRANCH   2   3
ATOM      3  O   UNL A   1      31.562  28.439  25.122  1.00  0.00    -0.462 OA
BRANCH   3   4
ATOM      4  C   UNL A   1      31.073  27.178  25.124  1.00  0.00     0.305 C 
ATOM      5  O   UNL A   1      30.231  26.754  24.345  1.00  0.00    -0.252 OA
BRANCH   4   6
ATOM      6  C   UNL A   1      31.637  26.343  26.253  1.00  0.00     0.124 C 
BRANCH   6   7
ATOM      7  C   UNL A   1      33.040  25.750  26.045  1.00  0.00     0.026 C 
BRANCH   7   8
ATOM      8  C   UNL A   1      33.201  24.204  25.868  1.00  0.00     0.027 C 
ATOM      9  C   UNL A   1      33.687  25.367  22.718  1.00  0.00     0.019 C 
ATOM     10  C   UNL A   1      33.669  23.924  23.245  1.00  0.00     0.024 C 
ATOM     11  C   UNL A   1      33.156  23.009  22.114  1.00  0.00     0.019 C 
ATOM     12  C   UNL A   1      35.082  23.449  23.617  1.00  0.00     0.014 C 
ATOM     13  C   UNL A   1      32.705  23.825  24.446  1.00  0.00     0.144 C 
ATOM     14  C   UNL A   1      35.591  24.080  24.899  1.00  0.00     0.002 C 
ATOM     15  O   UNL A   1      31.513  23.550  24.261  1.00  0.00    -0.298 OA
ATOM     16  C   UNL A   1      34.660  23.726  26.050  1.00  0.00     0.014 C 
ATOM     17  C   UNL A   1      32.329  23.412  26.868  1.00  0.00     0.020 C 
ENDBRANCH   7   8
ENDBRANCH   6   7
ENDBRANCH   4   6
ENDBRANCH   3   4
ENDBRANCH   2   3
ENDBRANCH   1   2
BRANCH   1  18
ATOM     18  O   UNL A   1      33.875  29.492  27.550  1.00  0.00    -0.458 OA
BRANCH  18  19
ATOM     19  C   UNL A   1      34.540  30.501  28.156  1.00  0.00     0.338 C 
ATOM     20  O   UNL A   1      34.094  31.569  28.528  1.00  0.00    -0.246 OA
BRANCH  19  21
ATOM     21  C   UNL A   1      35.922  30.073  28.396  1.00  0.00     0.060 A 
ATOM     22  C   UNL A   1      36.826  30.078  27.331  1.00  0.00     0.016 A 
ATOM     23  C   UNL A   1      36.311  29.648  29.666  1.00  0.00     0.016 A 
ATOM     24  C   UNL A   1      38.146  29.687  27.542  1.00  0.00     0.010 A 
ATOM     25  C   UNL A   1      37.637  29.266  29.878  1.00  0.00     0.010 A 
ATOM     26  C   UNL A   1      38.562  29.296  28.821  1.00  0.00    -0.014 A 
BRANCH  26  27
ATOM     27  C   UNL A   1      39.982  28.962  29.079  1.00  0.00     0.031 A 
ATOM     28  C   UNL A   1      40.925  30.014  29.577  1.00  0.00     0.074 A 
ATOM     29  C   UNL A   1      40.418  27.715  28.814  1.00  0.00     0.049 A 
ATOM     30  N   UNL A   1      42.224  29.960  29.710  1.00  0.00    -0.248 NA
ATOM     31  C   UNL A   1      40.329  31.299  29.974  1.00  0.00     0.031 C 
ATOM     32  C   UNL A   1      39.576  26.608  28.355  1.00  0.00     0.029 A 
ATOM     33  N   UNL A   1      41.678  27.176  28.870  1.00  0.00    -0.354 N 
ATOM     34  C   UNL A   1      42.608  31.207  30.188  1.00  0.00     0.074 A 
ATOM     35  C   UNL A   1      41.403  32.001  30.309  1.00  0.00     0.031 C 
ATOM     36  C   UNL A   1      40.344  25.525  28.163  1.00  0.00     0.029 A 
ATOM     37  C   UNL A   1      41.736  25.875  28.427  1.00  0.00     0.049 A 
ATOM     38  H   UNL A   1      42.463  27.671  29.196  1.00  0.00     0.167 HD
ATOM     39  C   UNL A   1      43.854  31.641  30.492  1.00  0.00     0.037 A 
ATOM     40  C   UNL A   1      42.796  25.072  28.216  1.00  0.00     0.037 A 
ATOM     41  C   UNL A   1      45.040  30.834  30.366  1.00  0.00     0.049 A 
ATOM     42  C   UNL A   1      44.175  25.603  28.488  1.00  0.00     0.074 A 
ATOM     43  C   UNL A   1      46.346  31.168  30.672  1.00  0.00     0.029 A 
ATOM     44  N   UNL A   1      45.063  29.531  29.886  1.00  0.00    -0.354 N 
ATOM     45  N   UNL A   1      44.527  26.782  28.945  1.00  0.00    -0.248 NA
ATOM     46  C   UNL A   1      45.302  24.706  28.203  1.00  0.00     0.031 C 
ATOM     47  C   UNL A   1      47.165  30.085  30.336  1.00  0.00     0.029 A 
ATOM     48  C   UNL A   1      46.364  29.058  29.859  1.00  0.00     0.049 A 
ATOM     49  H   UNL A   1      44.271  29.019  29.606  1.00  0.00     0.167 HD
ATOM     50  C   UNL A   1      45.915  26.767  29.009  1.00  0.00     0.074 A 
ATOM     51  C   UNL A   1      46.338  25.455  28.560  1.00  0.00     0.031 C 
ATOM     52  C   UNL A   1      46.762  27.750  29.400  1.00  0.00     0.037 A 
BRANCH  39  53
ATOM     53  C   UNL A   1      44.000  33.063  30.959  1.00  0.00     0.058 A 
ATOM     54  C   UNL A   1      43.965  33.402  32.320  1.00  0.00     0.135 A 
ATOM     55  C   UNL A   1      44.207  34.097  30.031  1.00  0.00     0.135 A 
ATOM     56  F   UNL A   1      43.755  32.454  33.247  1.00  0.00    -0.206 F 
ATOM     57  C   UNL A   1      44.103  34.721  32.744  1.00  0.00     0.059 A 
ATOM     58  C   UNL A   1      44.370  35.419  30.435  1.00  0.00     0.059 A 
ATOM     59  F   UNL A   1      44.248  33.828  28.717  1.00  0.00    -0.206 F 
ATOM     60  C   UNL A   1      44.302  35.723  31.793  1.00  0.00     0.060 A 
BRANCH  60  61
ATOM     61  S   UNL A   1      44.470  37.430  32.358  1.00  0.00     0.124 S 
ATOM     62  O   UNL A   1      44.120  38.172  31.150  1.00  0.00    -0.237 OA
ATOM     63  O   UNL A   1      43.500  37.497  33.446  1.00  0.00    -0.237 OA
ATOM     64  O   UNL A   1      45.870  37.518  32.763  1.00  0.00    -0.744 OA
ENDBRANCH  60  61
ENDBRANCH  39  53
BRANCH  40  65
ATOM     65  C   UNL A   1      42.588  23.701  27.681  1.00  0.00     0.058 A 
ATOM     66  C   UNL A   1      42.540  23.464  26.301  1.00  0.00     0.135 A 
ATOM     67  C   UNL A   1      42.466  22.597  28.539  1.00  0.00     0.135 A 
ATOM     68  F   UNL A   1      42.641  24.489  25.441  1.00  0.00    -0.206 F 
ATOM     69  C   UNL A   1      42.376  22.181  25.788  1.00  0.00     0.059 A 
ATOM     70  C   UNL A   1      42.325  21.302  28.051  1.00  0.00     0.059 A 
ATOM     71  F   UNL A   1      42.516  22.770  29.870  1.00  0.00    -0.206 F 
ATOM     72  C   UNL A   1      42.275  21.105  26.672  1.00  0.00     0.060 A 
BRANCH  72  73
ATOM     73  S   UNL A   1      42.125  19.436  25.996  1.00  0.00     0.124 S 
ATOM     74  O   UNL A   1      42.997  19.512  24.831  1.00  0.00    -0.237 OA
ATOM     75  O   UNL A   1      42.606  18.613  27.101  1.00  0.00    -0.237 OA
ATOM     76  O   UNL A   1      40.698  19.317  25.712  1.00  0.00    -0.744 OA
ENDBRANCH  72  73
ENDBRANCH  40  65
BRANCH  52  77
ATOM     77  C   UNL A   1      48.232  27.445  29.365  1.00  0.00     0.058 A 
ATOM     78  C   UNL A   1      49.013  27.741  28.238  1.00  0.00     0.135 A 
ATOM     79  C   UNL A   1      48.877  26.910  30.492  1.00  0.00     0.135 A 
ATOM     80  F   UNL A   1      48.440  28.243  27.132  1.00  0.00    -0.206 F 
ATOM     81  C   UNL A   1      50.384  27.513  28.226  1.00  0.00     0.059 A 
ATOM     82  C   UNL A   1      50.251  26.693  30.509  1.00  0.00     0.059 A 
ATOM     83  F   UNL A   1      48.175  26.613  31.596  1.00  0.00    -0.206 F 
ATOM     84  C   UNL A   1      50.996  26.993  29.368  1.00  0.00     0.060 A 
BRANCH  84  85
ATOM     85  S   UNL A   1      52.785  26.753  29.359  1.00  0.00     0.124 S 
ATOM     86  O   UNL A   1      53.267  28.124  29.497  1.00  0.00    -0.237 OA
ATOM     87  O   UNL A   1      52.991  25.889  30.517  1.00  0.00    -0.237 OA
ATOM     88  O   UNL A   1      53.037  26.125  28.066  1.00  0.00    -0.744 OA
ENDBRANCH  84  85
ENDBRANCH  52  77
ENDBRANCH  26  27
ENDBRANCH  19  21
ENDBRANCH  18  19
ENDBRANCH   1  18
TORSDOF 16
ENDMDL
MODEL 2
REMARK VINA RESULT:     -10.4      2.074      2.874
REMARK SMILES CC1(C)CCC[C@@](C)(CCC(=O)OCCOC(=O)c2ccc(-c3c4nc(c(-c5c(F)cc(S(=O)(=O)[O-])cc5F)c5ccc([nH]5)c(-c5c(F)cc(S(=O)(=O)[O-])cc5F)c5nc(c(-c6c(F)cc(S(=O)(=O)[O-])cc6F)c6ccc3[nH]6)C=C5)C=C4)cc2)C1=O
REMARK SMILES IDX 15 1 14 2 13 3 11 4 12 5 10 6 9 7 7 8 1 9 2 10 3 11 4 12
REMARK SMILES IDX 85 13 5 14 86 15 6 16 8 17 16 18 17 19 18 20 19 21 20 22
REMARK SMILES IDX 84 23 21 24 83 25 22 26 23 27 24 28 77 29 25 30 82 31 76 32
REMARK SMILES IDX 78 33 26 34 81 35 75 36 74 37 27 39 61 40 40 41 60 42 41 43
REMARK SMILES IDX 44 44 59 45 79 46 42 47 43 48 58 50 80 51 45 52 28 53 29 54
REMARK SMILES IDX 38 55 30 56 31 57 37 58 39 59 32 60 33 61 34 62 35 63 36 64
REMARK SMILES IDX 62 65 63 66 72 67 64 68 65 69 71 70 73 71 66 72 67 73 68 74
REMARK SMILES IDX 69 75 70 76 46 77 47 78 56 79 48 80 49 81 55 82 57 83 50 84
REMARK SMILES IDX 51 85 52 86 53 87 54 88
REMARK H PARENT 78 38 44 49
REMARK Flexibility Score: inf
ROOT
ATOM      1  C   UNL A   1      34.366  30.759  27.621  1.00  0.00     0.275 C 
ENDROOT
BRANCH   1   2
ATOM      2  C   UNL A   1      33.355  29.888  26.875  1.00  0.00     0.274 C 
BRANCH   2   3
ATOM      3  O   UNL A   1      33.180  28.623  27.540  1.00  0.00    -0.462 OA
BRANCH   3   4
ATOM      4  C   UNL A   1      32.043  27.941  27.272  1.00  0.00     0.305 C 
ATOM      5  O   UNL A   1      31.020  27.999  27.941  1.00  0.00    -0.252 OA
BRANCH   4   6
ATOM      6  C   UNL A   1      32.186  27.030  26.072  1.00  0.00     0.124 C 
BRANCH   6   7
ATOM      7  C   UNL A   1      33.461  26.174  25.998  1.00  0.00     0.026 C 
BRANCH   7   8
ATOM      8  C   UNL A   1      33.337  24.628  25.798  1.00  0.00     0.027 C 
ATOM      9  C   UNL A   1      33.886  25.744  22.641  1.00  0.00     0.019 C 
ATOM     10  C   UNL A   1      33.634  24.318  23.153  1.00  0.00     0.024 C 
ATOM     11  C   UNL A   1      32.919  23.529  22.038  1.00  0.00     0.019 C 
ATOM     12  C   UNL A   1      34.955  23.593  23.455  1.00  0.00     0.014 C 
ATOM     13  C   UNL A   1      32.721  24.369  24.396  1.00  0.00     0.144 C 
ATOM     14  C   UNL A   1      35.622  24.100  24.719  1.00  0.00     0.002 C 
ATOM     15  O   UNL A   1      31.492  24.313  24.263  1.00  0.00    -0.298 OA
ATOM     16  C   UNL A   1      34.694  23.896  25.908  1.00  0.00     0.014 C 
ATOM     17  C   UNL A   1      32.382  23.985  26.828  1.00  0.00     0.020 C 
ENDBRANCH   7   8
ENDBRANCH   6   7
ENDBRANCH   4   6
ENDBRANCH   3   4
ENDBRANCH   2   3
ENDBRANCH   1   2
BRANCH   1  18
ATOM     18  O   UNL A   1      35.367  29.944  28.253  1.00  0.00    -0.458 OA
BRANCH  18  19
ATOM     19  C   UNL A   1      36.146  30.569  29.166  1.00  0.00     0.338 C 
ATOM     20  O   UNL A   1      35.801  31.362  30.021  1.00  0.00    -0.246 OA
BRANCH  19  21
ATOM     21  C   UNL A   1      37.517  30.065  29.034  1.00  0.00     0.060 A 
ATOM     22  C   UNL A   1      38.014  29.784  27.758  1.00  0.00     0.016 A 
ATOM     23  C   UNL A   1      38.296  29.854  30.172  1.00  0.00     0.016 A 
ATOM     24  C   UNL A   1      39.318  29.318  27.613  1.00  0.00     0.010 A 
ATOM     25  C   UNL A   1      39.606  29.396  30.021  1.00  0.00     0.010 A 
ATOM     26  C   UNL A   1      40.127  29.138  28.742  1.00  0.00    -0.014 A 
BRANCH  26  27
ATOM     27  C   UNL A   1      41.541  28.727  28.595  1.00  0.00     0.031 A 
ATOM     28  C   UNL A   1      42.635  29.749  28.664  1.00  0.00     0.074 A 
ATOM     29  C   UNL A   1      41.823  27.432  28.350  1.00  0.00     0.049 A 
ATOM     30  N   UNL A   1      43.908  29.612  28.403  1.00  0.00    -0.248 NA
ATOM     31  C   UNL A   1      42.243  31.106  29.076  1.00  0.00     0.031 C 
ATOM     32  C   UNL A   1      40.836  26.351  28.294  1.00  0.00     0.029 A 
ATOM     33  N   UNL A   1      43.016  26.809  28.084  1.00  0.00    -0.354 N 
ATOM     34  C   UNL A   1      44.471  30.867  28.601  1.00  0.00     0.074 A 
ATOM     35  C   UNL A   1      43.396  31.756  28.991  1.00  0.00     0.031 C 
ATOM     36  C   UNL A   1      41.462  25.201  28.001  1.00  0.00     0.029 A 
ATOM     37  C   UNL A   1      42.881  25.473  27.792  1.00  0.00     0.049 A 
ATOM     38  H   UNL A   1      43.883  27.274  28.100  1.00  0.00     0.167 HD
ATOM     39  C   UNL A   1      45.767  31.236  28.464  1.00  0.00     0.037 A 
ATOM     40  C   UNL A   1      43.791  24.578  27.361  1.00  0.00     0.037 A 
ATOM     41  C   UNL A   1      46.822  30.335  28.077  1.00  0.00     0.049 A 
ATOM     42  C   UNL A   1      45.207  25.029  27.143  1.00  0.00     0.074 A 
ATOM     43  C   UNL A   1      48.172  30.601  27.935  1.00  0.00     0.029 A 
ATOM     44  N   UNL A   1      46.643  28.996  27.760  1.00  0.00    -0.354 N 
ATOM     45  N   UNL A   1      45.731  26.217  27.338  1.00  0.00    -0.248 NA
ATOM     46  C   UNL A   1      46.154  24.030  26.632  1.00  0.00     0.031 C 
ATOM     47  C   UNL A   1      48.802  29.433  27.489  1.00  0.00     0.029 A 
ATOM     48  C   UNL A   1      47.852  28.428  27.395  1.00  0.00     0.049 A 
ATOM     49  H   UNL A   1      45.783  28.518  27.792  1.00  0.00     0.167 HD
ATOM     50  C   UNL A   1      47.069  26.106  26.981  1.00  0.00     0.074 A 
ATOM     51  C   UNL A   1      47.279  24.731  26.574  1.00  0.00     0.031 C 
ATOM     52  C   UNL A   1      48.035  27.057  26.986  1.00  0.00     0.037 A 
BRANCH  39  53
ATOM     53  C   UNL A   1      46.108  32.680  28.703  1.00  0.00     0.058 A 
ATOM     54  C   UNL A   1      46.083  33.627  27.668  1.00  0.00     0.135 A 
ATOM     55  C   UNL A   1      46.439  33.128  29.993  1.00  0.00     0.135 A 
ATOM     56  F   UNL A   1      45.788  33.251  26.414  1.00  0.00    -0.206 F 
ATOM     57  C   UNL A   1      46.399  34.964  27.899  1.00  0.00     0.059 A 
ATOM     58  C   UNL A   1      46.736  34.462  30.250  1.00  0.00     0.059 A 
ATOM     59  F   UNL A   1      46.480  32.262  31.018  1.00  0.00    -0.206 F 
ATOM     60  C   UNL A   1      46.728  35.371  29.193  1.00  0.00     0.060 A 
BRANCH  60  61
ATOM     61  S   UNL A   1      47.145  37.106  29.474  1.00  0.00     0.124 S 
ATOM     62  O   UNL A   1      48.192  37.317  28.479  1.00  0.00    -0.237 OA
ATOM     63  O   UNL A   1      45.877  37.779  29.212  1.00  0.00    -0.237 OA
ATOM     64  O   UNL A   1      47.588  37.128  30.865  1.00  0.00    -0.744 OA
ENDBRANCH  60  61
ENDBRANCH  39  53
BRANCH  40  65
ATOM     65  C   UNL A   1      43.372  23.181  27.070  1.00  0.00     0.058 A 
ATOM     66  C   UNL A   1      43.279  22.715  25.752  1.00  0.00     0.135 A 
ATOM     67  C   UNL A   1      43.089  22.277  28.106  1.00  0.00     0.135 A 
ATOM     68  F   UNL A   1      43.529  23.545  24.728  1.00  0.00    -0.206 F 
ATOM     69  C   UNL A   1      42.917  21.402  25.469  1.00  0.00     0.059 A 
ATOM     70  C   UNL A   1      42.748  20.953  27.849  1.00  0.00     0.059 A 
ATOM     71  F   UNL A   1      43.174  22.672  29.387  1.00  0.00    -0.206 F 
ATOM     72  C   UNL A   1      42.659  20.526  26.525  1.00  0.00     0.060 A 
BRANCH  72  73
ATOM     73  S   UNL A   1      42.252  18.807  26.150  1.00  0.00     0.124 S 
ATOM     74  O   UNL A   1      42.497  18.160  27.433  1.00  0.00    -0.237 OA
ATOM     75  O   UNL A   1      40.855  18.904  25.740  1.00  0.00    -0.237 OA
ATOM     76  O   UNL A   1      43.187  18.467  25.081  1.00  0.00    -0.744 OA
ENDBRANCH  72  73
ENDBRANCH  40  65
BRANCH  52  77
ATOM     77  C   UNL A   1      49.409  26.643  26.543  1.00  0.00     0.058 A 
ATOM     78  C   UNL A   1      50.288  25.980  27.413  1.00  0.00     0.135 A 
ATOM     79  C   UNL A   1      49.826  26.853  25.219  1.00  0.00     0.135 A 
ATOM     80  F   UNL A   1      49.939  25.767  28.692  1.00  0.00    -0.206 F 
ATOM     81  C   UNL A   1      51.538  25.545  26.988  1.00  0.00     0.059 A 
ATOM     82  C   UNL A   1      51.064  26.406  24.766  1.00  0.00     0.059 A 
ATOM     83  F   UNL A   1      49.020  27.478  24.347  1.00  0.00    -0.206 F 
ATOM     84  C   UNL A   1      51.915  25.757  25.660  1.00  0.00     0.060 A 
BRANCH  84  85
ATOM     85  S   UNL A   1      53.517  25.137  25.105  1.00  0.00     0.124 S 
ATOM     86  O   UNL A   1      53.561  25.624  23.730  1.00  0.00    -0.237 OA
ATOM     87  O   UNL A   1      54.441  25.779  26.035  1.00  0.00    -0.237 OA
ATOM     88  O   UNL A   1      53.392  23.690  25.256  1.00  0.00    -0.744 OA
ENDBRANCH  84  85
ENDBRANCH  52  77
ENDBRANCH  26  27
ENDBRANCH  19  21
ENDBRANCH  18  19
ENDBRANCH   1  18
TORSDOF 16
ENDMDL
MODEL 3
REMARK VINA RESULT:     -10.4      0.812      1.503
REMARK SMILES CC1(C)CCC[C@@](C)(CCC(=O)OCCOC(=O)c2ccc(-c3c4nc(c(-c5c(F)cc(S(=O)(=O)[O-])cc5F)c5ccc([nH]5)c(-c5c(F)cc(S(=O)(=O)[O-])cc5F)c5nc(c(-c6c(F)cc(S(=O)(=O)[O-])cc6F)c6ccc3[nH]6)C=C5)C=C4)cc2)C1=O
REMARK SMILES IDX 15 1 14 2 13 3 11 4 12 5 10 6 9 7 7 8 1 9 2 10 3 11 4 12
REMARK SMILES IDX 85 13 5 14 86 15 6 16 8 17 16 18 17 19 18 20 19 21 20 22
REMARK SMILES IDX 84 23 21 24 83 25 22 26 23 27 24 28 77 29 25 30 82 31 76 32
REMARK SMILES IDX 78 33 26 34 81 35 75 36 74 37 27 39 61 40 40 41 60 42 41 43
REMARK SMILES IDX 44 44 59 45 79 46 42 47 43 48 58 50 80 51 45 52 28 53 29 54
REMARK SMILES IDX 38 55 30 56 31 57 37 58 39 59 32 60 33 61 34 62 35 63 36 64
REMARK SMILES IDX 62 65 63 66 72 67 64 68 65 69 71 70 73 71 66 72 67 73 68 74
REMARK SMILES IDX 69 75 70 76 46 77 47 78 56 79 48 80 49 81 55 82 57 83 50 84
REMARK SMILES IDX 51 85 52 86 53 87 54 88
REMARK H PARENT 78 38 44 49
REMARK Flexibility Score: inf
ROOT
ATOM      1  C   UNL A   1      32.363  29.666  27.251  1.00  0.00     0.275 C 
ENDROOT
BRANCH   1   2
ATOM      2  C   UNL A   1      31.960  29.830  25.785  1.00  0.00     0.274 C 
BRANCH   2   3
ATOM      3  O   UNL A   1      33.102  29.687  24.920  1.00  0.00    -0.462 OA
BRANCH   3   4
ATOM      4  C   UNL A   1      33.085  28.655  24.047  1.00  0.00     0.305 C 
ATOM      5  O   UNL A   1      32.661  28.715  22.901  1.00  0.00    -0.252 OA
BRANCH   4   6
ATOM      6  C   UNL A   1      33.594  27.370  24.664  1.00  0.00     0.124 C 
BRANCH   6   7
ATOM      7  C   UNL A   1      34.019  26.255  23.694  1.00  0.00     0.026 C 
BRANCH   7   8
ATOM      8  C   UNL A   1      33.178  24.938  23.624  1.00  0.00     0.027 C 
ATOM      9  C   UNL A   1      35.961  23.955  25.296  1.00  0.00     0.019 C 
ATOM     10  C   UNL A   1      34.738  23.139  24.853  1.00  0.00     0.024 C 
ATOM     11  C   UNL A   1      35.202  21.695  24.576  1.00  0.00     0.019 C 
ATOM     12  C   UNL A   1      33.677  23.077  25.961  1.00  0.00     0.014 C 
ATOM     13  C   UNL A   1      34.162  23.738  23.552  1.00  0.00     0.144 C 
ATOM     14  C   UNL A   1      32.938  24.390  26.135  1.00  0.00     0.002 C 
ATOM     15  O   UNL A   1      34.566  23.337  22.454  1.00  0.00    -0.298 OA
ATOM     16  C   UNL A   1      32.236  24.760  24.836  1.00  0.00     0.014 C 
ATOM     17  C   UNL A   1      32.306  24.873  22.350  1.00  0.00     0.020 C 
ENDBRANCH   7   8
ENDBRANCH   6   7
ENDBRANCH   4   6
ENDBRANCH   3   4
ENDBRANCH   2   3
ENDBRANCH   1   2
BRANCH   1  18
ATOM     18  O   UNL A   1      33.789  29.520  27.370  1.00  0.00    -0.458 OA
BRANCH  18  19
ATOM     19  C   UNL A   1      34.431  30.513  28.025  1.00  0.00     0.338 C 
ATOM     20  O   UNL A   1      33.965  31.564  28.423  1.00  0.00    -0.246 OA
BRANCH  19  21
ATOM     21  C   UNL A   1      35.811  30.089  28.282  1.00  0.00     0.060 A 
ATOM     22  C   UNL A   1      36.721  30.072  27.222  1.00  0.00     0.016 A 
ATOM     23  C   UNL A   1      36.191  29.691  29.564  1.00  0.00     0.016 A 
ATOM     24  C   UNL A   1      38.038  29.684  27.450  1.00  0.00     0.010 A 
ATOM     25  C   UNL A   1      37.516  29.313  29.790  1.00  0.00     0.010 A 
ATOM     26  C   UNL A   1      38.448  29.320  28.739  1.00  0.00    -0.014 A 
BRANCH  26  27
ATOM     27  C   UNL A   1      39.865  28.991  29.012  1.00  0.00     0.031 A 
ATOM     28  C   UNL A   1      40.802  30.048  29.512  1.00  0.00     0.074 A 
ATOM     29  C   UNL A   1      40.307  27.743  28.759  1.00  0.00     0.049 A 
ATOM     30  N   UNL A   1      42.099  29.998  29.657  1.00  0.00    -0.248 NA
ATOM     31  C   UNL A   1      40.199  31.334  29.895  1.00  0.00     0.031 C 
ATOM     32  C   UNL A   1      39.471  26.631  28.300  1.00  0.00     0.029 A 
ATOM     33  N   UNL A   1      41.567  27.207  28.831  1.00  0.00    -0.354 N 
ATOM     34  C   UNL A   1      42.476  31.249  30.131  1.00  0.00     0.074 A 
ATOM     35  C   UNL A   1      41.268  32.041  30.236  1.00  0.00     0.031 C 
ATOM     36  C   UNL A   1      40.243  25.549  28.121  1.00  0.00     0.029 A 
ATOM     37  C   UNL A   1      41.631  25.904  28.397  1.00  0.00     0.049 A 
ATOM     38  H   UNL A   1      42.348  27.706  29.161  1.00  0.00     0.167 HD
ATOM     39  C   UNL A   1      43.718  31.688  30.444  1.00  0.00     0.037 A 
ATOM     40  C   UNL A   1      42.696  25.102  28.200  1.00  0.00     0.037 A 
ATOM     41  C   UNL A   1      44.907  30.882  30.334  1.00  0.00     0.049 A 
ATOM     42  C   UNL A   1      44.071  25.637  28.482  1.00  0.00     0.074 A 
ATOM     43  C   UNL A   1      46.210  31.221  30.650  1.00  0.00     0.029 A 
ATOM     44  N   UNL A   1      44.938  29.576  29.863  1.00  0.00    -0.354 N 
ATOM     45  N   UNL A   1      44.416  26.820  28.934  1.00  0.00    -0.248 NA
ATOM     46  C   UNL A   1      45.202  24.741  28.213  1.00  0.00     0.031 C 
ATOM     47  C   UNL A   1      47.034  30.137  30.328  1.00  0.00     0.029 A 
ATOM     48  C   UNL A   1      46.240  29.106  29.851  1.00  0.00     0.049 A 
ATOM     49  H   UNL A   1      44.149  29.060  29.579  1.00  0.00     0.167 HD
ATOM     50  C   UNL A   1      45.803  26.808  29.011  1.00  0.00     0.074 A 
ATOM     51  C   UNL A   1      46.233  25.495  28.575  1.00  0.00     0.031 C 
ATOM     52  C   UNL A   1      46.645  27.796  29.404  1.00  0.00     0.037 A 
BRANCH  39  53
ATOM     53  C   UNL A   1      43.858  33.112  30.903  1.00  0.00     0.058 A 
ATOM     54  C   UNL A   1      43.838  33.456  32.263  1.00  0.00     0.135 A 
ATOM     55  C   UNL A   1      44.042  34.145  29.968  1.00  0.00     0.135 A 
ATOM     56  F   UNL A   1      43.649  32.511  33.197  1.00  0.00    -0.206 F 
ATOM     57  C   UNL A   1      43.969  34.779  32.680  1.00  0.00     0.059 A 
ATOM     58  C   UNL A   1      44.197  35.470  30.364  1.00  0.00     0.059 A 
ATOM     59  F   UNL A   1      44.067  33.870  28.655  1.00  0.00    -0.206 F 
ATOM     60  C   UNL A   1      44.145  35.779  31.722  1.00  0.00     0.060 A 
BRANCH  60  61
ATOM     61  S   UNL A   1      44.304  37.490  32.278  1.00  0.00     0.124 S 
ATOM     62  O   UNL A   1      43.399  37.508  33.424  1.00  0.00    -0.237 OA
ATOM     63  O   UNL A   1      45.725  37.586  32.592  1.00  0.00    -0.237 OA
ATOM     64  O   UNL A   1      43.866  38.265  31.122  1.00  0.00    -0.744 OA
ENDBRANCH  60  61
ENDBRANCH  39  53
BRANCH  40  65
ATOM     65  C   UNL A   1      42.495  23.727  27.672  1.00  0.00     0.058 A 
ATOM     66  C   UNL A   1      42.411  23.487  26.294  1.00  0.00     0.135 A 
ATOM     67  C   UNL A   1      42.418  22.621  28.534  1.00  0.00     0.135 A 
ATOM     68  F   UNL A   1      42.469  24.513  25.431  1.00  0.00    -0.206 F 
ATOM     69  C   UNL A   1      42.253  22.202  25.787  1.00  0.00     0.059 A 
ATOM     70  C   UNL A   1      42.285  21.324  28.051  1.00  0.00     0.059 A 
ATOM     71  F   UNL A   1      42.504  22.796  29.863  1.00  0.00    -0.206 F 
ATOM     72  C   UNL A   1      42.197  21.125  26.674  1.00  0.00     0.060 A 
BRANCH  72  73
ATOM     73  S   UNL A   1      42.056  19.453  26.004  1.00  0.00     0.124 S 
ATOM     74  O   UNL A   1      42.503  18.646  27.133  1.00  0.00    -0.237 OA
ATOM     75  O   UNL A   1      40.636  19.370  25.682  1.00  0.00    -0.237 OA
ATOM     76  O   UNL A   1      42.951  19.478  24.851  1.00  0.00    -0.744 OA
ENDBRANCH  72  73
ENDBRANCH  40  65
BRANCH  52  77
ATOM     77  C   UNL A   1      48.116  27.493  29.385  1.00  0.00     0.058 A 
ATOM     78  C   UNL A   1      48.913  27.815  28.276  1.00  0.00     0.135 A 
ATOM     79  C   UNL A   1      48.745  26.935  30.509  1.00  0.00     0.135 A 
ATOM     80  F   UNL A   1      48.356  28.339  27.172  1.00  0.00    -0.206 F 
ATOM     81  C   UNL A   1      50.284  27.588  28.279  1.00  0.00     0.059 A 
ATOM     82  C   UNL A   1      50.119  26.721  30.542  1.00  0.00     0.059 A 
ATOM     83  F   UNL A   1      48.026  26.615  31.596  1.00  0.00    -0.206 F 
ATOM     84  C   UNL A   1      50.880  27.045  29.420  1.00  0.00     0.060 A 
BRANCH  84  85
ATOM     85  S   UNL A   1      52.670  26.808  29.433  1.00  0.00     0.124 S 
ATOM     86  O   UNL A   1      52.856  26.044  30.662  1.00  0.00    -0.237 OA
ATOM     87  O   UNL A   1      52.898  26.076  28.191  1.00  0.00    -0.237 OA
ATOM     88  O   UNL A   1      53.193  28.171  29.454  1.00  0.00    -0.744 OA
ENDBRANCH  84  85
ENDBRANCH  52  77
ENDBRANCH  26  27
ENDBRANCH  19  21
ENDBRANCH  18  19
ENDBRANCH   1  18
TORSDOF 16
ENDMDL
