MODEL 1
REMARK VINA RESULT:     -11.9      0.000      0.000
REMARK SMILES CCCc1cc(S(F)(F)(F)(F)F)cc2c1O[C@@H](C(F)(F)F)C(C(=O)OCCOC(=O)c1ccc(-c3c4nc(c(-c5c(F)cc(S(=O)(=O)[O-])cc5F)c5ccc([nH]5)c(-c5c(F)cc(S(=O)(=O)[O-])cc5F)c5nc(c(-c6c(F)cc(S(=O)(=O)[O-])cc6F)c6ccc3[nH]6)C=C5)C=C4)cc1)=C2
REMARK SMILES IDX 27 1 26 2 25 3 23 4 24 5 22 6 4 7 5 8 15 9 6 10 14 11 16 12
REMARK SMILES IDX 13 13 97 14 17 15 3 16 2 17 1 18 7 19 8 20 9 21 10 22 11 23
REMARK SMILES IDX 12 24 18 25 19 26 20 27 21 28 28 29 29 30 30 31 31 32 32 33
REMARK SMILES IDX 96 34 33 35 95 36 34 37 35 38 36 39 89 40 37 41 94 42 88 43
REMARK SMILES IDX 90 44 38 45 93 46 87 47 86 48 39 50 73 51 52 52 72 53 53 54
REMARK SMILES IDX 56 55 71 56 91 57 54 58 55 59 70 61 92 62 57 63 40 64 41 65
REMARK SMILES IDX 50 66 42 67 43 68 49 69 51 70 44 71 45 72 46 73 47 74 48 75
REMARK SMILES IDX 74 76 75 77 84 78 76 79 77 80 83 81 85 82 78 83 79 84 80 85
REMARK SMILES IDX 81 86 82 87 58 88 59 89 68 90 60 91 61 92 67 93 69 94 62 95
REMARK SMILES IDX 63 96 64 97 65 98 66 99
REMARK H PARENT 90 49 56 60
REMARK Flexibility Score: inf
ROOT
ATOM      1  C   UNL A   1      32.885  30.315  26.865  1.00  0.00     0.275 C 
ENDROOT
BRANCH   1   2
ATOM      2  C   UNL A   1      32.630  29.645  25.525  1.00  0.00     0.275 C 
BRANCH   2   3
ATOM      3  O   UNL A   1      31.465  28.837  25.614  1.00  0.00    -0.459 OA
BRANCH   3   4
ATOM      4  C   UNL A   1      31.524  27.575  26.264  1.00  0.00     0.338 C 
ATOM      5  O   UNL A   1      31.042  27.439  27.432  1.00  0.00    -0.246 OA
BRANCH   4   6
ATOM      6  C   UNL A   1      32.164  26.389  25.562  1.00  0.00     0.087 C 
ATOM      7  C   UNL A   1      33.594  22.835  23.897  1.00  0.00    -0.004 A 
ATOM      8  C   UNL A   1      34.875  22.402  24.190  1.00  0.00     0.032 A 
ATOM      9  C   UNL A   1      33.130  23.979  24.500  1.00  0.00     0.131 A 
ATOM     10  C   UNL A   1      35.668  23.092  25.068  1.00  0.00     0.108 A 
ATOM     11  C   UNL A   1      33.910  24.711  25.377  1.00  0.00     0.019 A 
ATOM     12  O   UNL A   1      31.820  24.334  24.287  1.00  0.00    -0.475 OA
ATOM     13  C   UNL A   1      35.190  24.245  25.653  1.00  0.00     0.036 A 
ATOM     14  C   UNL A   1      33.314  25.885  25.993  1.00  0.00     0.027 C 
ATOM     15  C   UNL A   1      31.499  25.752  24.350  1.00  0.00     0.316 C 
BRANCH   7  16
ATOM     16  C   UNL A   1      32.673  22.031  22.994  1.00  0.00     0.039 C 
BRANCH  16  17
ATOM     17  C   UNL A   1      32.557  20.611  23.524  1.00  0.00     0.001 C 
ATOM     18  C   UNL A   1      32.115  20.647  24.978  1.00  0.00     0.004 C 
ENDBRANCH  16  17
ENDBRANCH   7  16
BRANCH  10  19
ATOM     19  S   UNL A   1      37.333  22.495  25.456  1.00  0.00     0.310 S 
ATOM     20  F   UNL A   1      37.429  22.146  23.912  1.00  0.00    -0.094 F 
ATOM     21  F   UNL A   1      36.826  21.022  25.688  1.00  0.00    -0.094 F 
ATOM     22  F   UNL A   1      38.812  22.038  25.589  1.00  0.00    -0.094 F 
ATOM     23  F   UNL A   1      37.824  23.950  25.082  1.00  0.00    -0.094 F 
ATOM     24  F   UNL A   1      35.839  22.953  25.206  1.00  0.00    -0.094 F 
ENDBRANCH  10  19
BRANCH  15  25
ATOM     25  C   UNL A   1      29.992  25.914  24.468  1.00  0.00     0.430 C 
ATOM     26  F   UNL A   1      29.606  25.584  25.696  1.00  0.00    -0.167 F 
ATOM     27  F   UNL A   1      29.662  27.180  24.224  1.00  0.00    -0.167 F 
ATOM     28  F   UNL A   1      29.391  25.122  23.584  1.00  0.00    -0.167 F 
ENDBRANCH  15  25
ENDBRANCH   4   6
ENDBRANCH   3   4
ENDBRANCH   2   3
ENDBRANCH   1   2
BRANCH   1  29
ATOM     29  O   UNL A   1      34.034  29.739  27.471  1.00  0.00    -0.458 OA
BRANCH  29  30
ATOM     30  C   UNL A   1      34.856  30.524  28.322  1.00  0.00     0.338 C 
ATOM     31  O   UNL A   1      34.374  31.543  28.909  1.00  0.00    -0.246 OA
BRANCH  30  32
ATOM     32  C   UNL A   1      36.313  30.146  28.531  1.00  0.00     0.060 A 
ATOM     33  C   UNL A   1      37.220  30.328  27.500  1.00  0.00     0.016 A 
ATOM     34  C   UNL A   1      36.697  29.669  29.709  1.00  0.00     0.016 A 
ATOM     35  C   UNL A   1      38.469  29.701  27.717  1.00  0.00     0.010 A 
ATOM     36  C   UNL A   1      37.975  29.197  29.891  1.00  0.00     0.010 A 
ATOM     37  C   UNL A   1      38.907  29.290  28.893  1.00  0.00    -0.014 A 
BRANCH  37  38
ATOM     38  C   UNL A   1      40.368  28.942  29.127  1.00  0.00     0.031 A 
ATOM     39  C   UNL A   1      40.797  27.658  28.784  1.00  0.00     0.074 A 
ATOM     40  C   UNL A   1      41.188  29.911  29.679  1.00  0.00     0.049 A 
ATOM     41  N   UNL A   1      42.030  27.159  28.885  1.00  0.00    -0.248 NA
ATOM     42  C   UNL A   1      39.920  26.617  28.230  1.00  0.00     0.031 C 
ATOM     43  C   UNL A   1      40.764  31.210  30.020  1.00  0.00     0.029 A 
ATOM     44  N   UNL A   1      42.525  29.808  29.993  1.00  0.00    -0.354 N 
ATOM     45  C   UNL A   1      42.056  25.901  28.439  1.00  0.00     0.074 A 
ATOM     46  C   UNL A   1      40.698  25.532  28.017  1.00  0.00     0.031 C 
ATOM     47  C   UNL A   1      41.827  31.876  30.543  1.00  0.00     0.029 A 
ATOM     48  C   UNL A   1      42.933  31.006  30.537  1.00  0.00     0.049 A 
ATOM     49  H   UNL A   1      43.091  29.015  29.853  1.00  0.00     0.167 HD
ATOM     50  C   UNL A   1      43.159  25.050  28.366  1.00  0.00     0.037 A 
ATOM     51  C   UNL A   1      44.193  31.339  31.008  1.00  0.00     0.037 A 
ATOM     52  C   UNL A   1      44.429  25.397  28.797  1.00  0.00     0.049 A 
ATOM     53  C   UNL A   1      45.283  30.466  30.989  1.00  0.00     0.074 A 
ATOM     54  C   UNL A   1      45.553  24.552  28.723  1.00  0.00     0.029 A 
ATOM     55  N   UNL A   1      44.831  26.587  29.364  1.00  0.00    -0.354 N 
ATOM     56  N   UNL A   1      45.318  29.222  30.507  1.00  0.00    -0.248 NA
ATOM     57  C   UNL A   1      46.614  30.796  31.515  1.00  0.00     0.031 C 
ATOM     58  C   UNL A   1      46.616  25.220  29.247  1.00  0.00     0.029 A 
ATOM     59  C   UNL A   1      46.173  26.492  29.657  1.00  0.00     0.049 A 
ATOM     60  H   UNL A   1      44.258  27.369  29.530  1.00  0.00     0.167 HD
ATOM     61  C   UNL A   1      46.541  28.709  30.647  1.00  0.00     0.074 A 
ATOM     62  C   UNL A   1      47.391  29.712  31.304  1.00  0.00     0.031 C 
ATOM     63  C   UNL A   1      46.985  27.446  30.249  1.00  0.00     0.037 A 
BRANCH  50  64
ATOM     64  C   UNL A   1      42.956  23.662  27.781  1.00  0.00     0.058 A 
ATOM     65  C   UNL A   1      43.128  23.465  26.420  1.00  0.00     0.135 A 
ATOM     66  C   UNL A   1      42.615  22.660  28.583  1.00  0.00     0.135 A 
ATOM     67  F   UNL A   1      43.707  24.362  25.626  1.00  0.00    -0.206 F 
ATOM     68  C   UNL A   1      42.634  22.225  25.952  1.00  0.00     0.059 A 
ATOM     69  C   UNL A   1      42.274  21.434  28.064  1.00  0.00     0.059 A 
ATOM     70  F   UNL A   1      42.603  22.844  29.900  1.00  0.00    -0.206 F 
ATOM     71  C   UNL A   1      42.365  21.187  26.723  1.00  0.00     0.060 A 
BRANCH  71  72
ATOM     72  S   UNL A   1      42.129  19.528  26.039  1.00  0.00     0.124 S 
ATOM     73  O   UNL A   1      42.924  19.395  24.738  1.00  0.00    -0.237 OA
ATOM     74  O   UNL A   1      42.620  18.486  27.047  1.00  0.00    -0.237 OA
ATOM     75  O   UNL A   1      40.468  19.275  25.720  1.00  0.00    -0.744 OA
ENDBRANCH  71  72
ENDBRANCH  50  64
BRANCH  51  76
ATOM     76  C   UNL A   1      44.399  32.732  31.578  1.00  0.00     0.058 A 
ATOM     77  C   UNL A   1      44.176  32.956  32.926  1.00  0.00     0.135 A 
ATOM     78  C   UNL A   1      44.790  33.714  30.773  1.00  0.00     0.135 A 
ATOM     79  F   UNL A   1      44.033  31.972  33.810  1.00  0.00    -0.206 F 
ATOM     80  C   UNL A   1      44.113  34.325  33.278  1.00  0.00     0.059 A 
ATOM     81  C   UNL A   1      44.837  35.011  31.223  1.00  0.00     0.059 A 
ATOM     82  F   UNL A   1      45.140  33.438  29.519  1.00  0.00    -0.206 F 
ATOM     83  C   UNL A   1      44.570  35.312  32.529  1.00  0.00     0.060 A 
BRANCH  83  84
ATOM     84  S   UNL A   1      44.829  36.974  33.198  1.00  0.00     0.124 S 
ATOM     85  O   UNL A   1      45.755  36.898  34.413  1.00  0.00    -0.237 OA
ATOM     86  O   UNL A   1      45.465  37.862  32.125  1.00  0.00    -0.237 OA
ATOM     87  O   UNL A   1      43.325  37.639  33.668  1.00  0.00    -0.744 OA
ENDBRANCH  83  84
ENDBRANCH  51  76
BRANCH  63  88
ATOM     88  C   UNL A   1      48.446  27.098  30.480  1.00  0.00     0.058 A 
ATOM     89  C   UNL A   1      48.808  26.408  31.625  1.00  0.00     0.135 A 
ATOM     90  C   UNL A   1      49.350  27.450  29.573  1.00  0.00     0.135 A 
ATOM     91  F   UNL A   1      47.926  25.819  32.427  1.00  0.00    -0.206 F 
ATOM     92  C   UNL A   1      50.203  26.386  31.864  1.00  0.00     0.059 A 
ATOM     93  C   UNL A   1      50.691  27.275  29.817  1.00  0.00     0.059 A 
ATOM     94  F   UNL A   1      48.953  27.975  28.417  1.00  0.00    -0.206 F 
ATOM     95  C   UNL A   1      51.124  26.655  30.956  1.00  0.00     0.060 A 
BRANCH  95  96
ATOM     96  S   UNL A   1      52.863  26.222  31.204  1.00  0.00     0.124 S 
ATOM     97  O   UNL A   1      52.955  24.918  32.001  1.00  0.00    -0.237 OA
ATOM     98  O   UNL A   1      53.543  26.037  29.845  1.00  0.00    -0.237 OA
ATOM     99  O   UNL A   1      53.645  27.474  32.067  1.00  0.00    -0.744 OA
ENDBRANCH  95  96
ENDBRANCH  63  88
ENDBRANCH  37  38
ENDBRANCH  30  32
ENDBRANCH  29  30
ENDBRANCH   1  29
TORSDOF 18
ENDMDL
MODEL 2
REMARK VINA RESULT:     -11.7      3.298      9.226
REMARK SMILES CCCc1cc(S(F)(F)(F)(F)F)cc2c1O[C@@H](C(F)(F)F)C(C(=O)OCCOC(=O)c1ccc(-c3c4nc(c(-c5c(F)cc(S(=O)(=O)[O-])cc5F)c5ccc([nH]5)c(-c5c(F)cc(S(=O)(=O)[O-])cc5F)c5nc(c(-c6c(F)cc(S(=O)(=O)[O-])cc6F)c6ccc3[nH]6)C=C5)C=C4)cc1)=C2
REMARK SMILES IDX 27 1 26 2 25 3 23 4 24 5 22 6 4 7 5 8 15 9 6 10 14 11 16 12
REMARK SMILES IDX 13 13 97 14 17 15 3 16 2 17 1 18 7 19 8 20 9 21 10 22 11 23
REMARK SMILES IDX 12 24 18 25 19 26 20 27 21 28 28 29 29 30 30 31 31 32 32 33
REMARK SMILES IDX 96 34 33 35 95 36 34 37 35 38 36 39 89 40 37 41 94 42 88 43
REMARK SMILES IDX 90 44 38 45 93 46 87 47 86 48 39 50 73 51 52 52 72 53 53 54
REMARK SMILES IDX 56 55 71 56 91 57 54 58 55 59 70 61 92 62 57 63 40 64 41 65
REMARK SMILES IDX 50 66 42 67 43 68 49 69 51 70 44 71 45 72 46 73 47 74 48 75
REMARK SMILES IDX 74 76 75 77 84 78 76 79 77 80 83 81 85 82 78 83 79 84 80 85
REMARK SMILES IDX 81 86 82 87 58 88 59 89 68 90 60 91 61 92 67 93 69 94 62 95
REMARK SMILES IDX 63 96 64 97 65 98 66 99
REMARK H PARENT 90 49 56 60
REMARK Flexibility Score: inf
ROOT
ATOM      1  C   UNL A   1      36.706  22.017  26.085  1.00  0.00     0.275 C 
ENDROOT
BRANCH   1   2
ATOM      2  C   UNL A   1      36.318  21.073  24.959  1.00  0.00     0.275 C 
BRANCH   2   3
ATOM      3  O   UNL A   1      35.103  21.513  24.370  1.00  0.00    -0.459 OA
BRANCH   3   4
ATOM      4  C   UNL A   1      35.044  22.773  23.718  1.00  0.00     0.338 C 
ATOM      5  O   UNL A   1      35.798  23.008  22.722  1.00  0.00    -0.246 OA
BRANCH   4   6
ATOM      6  C   UNL A   1      34.082  23.840  24.212  1.00  0.00     0.087 C 
ATOM      7  C   UNL A   1      31.388  26.913  25.079  1.00  0.00    -0.004 A 
ATOM      8  C   UNL A   1      31.811  28.021  25.791  1.00  0.00     0.032 A 
ATOM      9  C   UNL A   1      32.307  25.942  24.762  1.00  0.00     0.131 A 
ATOM     10  C   UNL A   1      33.120  28.158  26.170  1.00  0.00     0.108 A 
ATOM     11  C   UNL A   1      33.633  26.038  25.144  1.00  0.00     0.019 A 
ATOM     12  O   UNL A   1      31.899  24.905  23.959  1.00  0.00    -0.475 OA
ATOM     13  C   UNL A   1      34.025  27.166  25.854  1.00  0.00     0.036 A 
ATOM     14  C   UNL A   1      34.536  24.977  24.726  1.00  0.00     0.027 C 
ATOM     15  C   UNL A   1      32.577  23.629  24.127  1.00  0.00     0.316 C 
BRANCH   7  16
ATOM     16  C   UNL A   1      29.959  26.793  24.575  1.00  0.00     0.039 C 
BRANCH  16  17
ATOM     17  C   UNL A   1      29.716  27.827  23.488  1.00  0.00     0.001 C 
ATOM     18  C   UNL A   1      28.225  27.926  23.207  1.00  0.00     0.004 C 
ENDBRANCH  16  17
ENDBRANCH   7  16
BRANCH  10  19
ATOM     19  S   UNL A   1      33.658  29.626  27.081  1.00  0.00     0.310 S 
ATOM     20  F   UNL A   1      35.068  29.376  26.400  1.00  0.00    -0.094 F 
ATOM     21  F   UNL A   1      34.171  28.770  28.299  1.00  0.00    -0.094 F 
ATOM     22  F   UNL A   1      34.256  30.919  27.703  1.00  0.00    -0.094 F 
ATOM     23  F   UNL A   1      33.260  30.442  25.787  1.00  0.00    -0.094 F 
ATOM     24  F   UNL A   1      33.145  28.302  26.385  1.00  0.00    -0.094 F 
ENDBRANCH  10  19
BRANCH  15  25
ATOM     25  C   UNL A   1      32.267  22.741  22.934  1.00  0.00     0.430 C 
ATOM     26  F   UNL A   1      32.967  23.153  21.881  1.00  0.00    -0.167 F 
ATOM     27  F   UNL A   1      32.594  21.483  23.219  1.00  0.00    -0.167 F 
ATOM     28  F   UNL A   1      30.967  22.808  22.657  1.00  0.00    -0.167 F 
ENDBRANCH  15  25
ENDBRANCH   4   6
ENDBRANCH   3   4
ENDBRANCH   2   3
ENDBRANCH   1   2
BRANCH   1  29
ATOM     29  O   UNL A   1      37.596  23.006  25.589  1.00  0.00    -0.458 OA
BRANCH  29  30
ATOM     30  C   UNL A   1      38.919  23.090  26.097  1.00  0.00     0.338 C 
ATOM     31  O   UNL A   1      39.744  22.149  25.878  1.00  0.00    -0.246 OA
BRANCH  30  32
ATOM     32  C   UNL A   1      39.349  24.305  26.902  1.00  0.00     0.060 A 
ATOM     33  C   UNL A   1      38.942  24.428  28.220  1.00  0.00     0.016 A 
ATOM     34  C   UNL A   1      40.129  25.217  26.334  1.00  0.00     0.016 A 
ATOM     35  C   UNL A   1      39.176  25.709  28.775  1.00  0.00     0.010 A 
ATOM     36  C   UNL A   1      40.429  26.388  26.989  1.00  0.00     0.010 A 
ATOM     37  C   UNL A   1      40.008  26.602  28.273  1.00  0.00    -0.014 A 
BRANCH  37  38
ATOM     38  C   UNL A   1      40.475  27.804  29.078  1.00  0.00     0.031 A 
ATOM     39  C   UNL A   1      39.614  28.899  29.175  1.00  0.00     0.074 A 
ATOM     40  C   UNL A   1      41.730  27.751  29.659  1.00  0.00     0.049 A 
ATOM     41  N   UNL A   1      39.817  30.035  29.846  1.00  0.00    -0.248 NA
ATOM     42  C   UNL A   1      38.295  28.971  28.532  1.00  0.00     0.031 C 
ATOM     43  C   UNL A   1      42.600  26.646  29.571  1.00  0.00     0.029 A 
ATOM     44  N   UNL A   1      42.357  28.723  30.406  1.00  0.00    -0.354 N 
ATOM     45  C   UNL A   1      38.759  30.839  29.721  1.00  0.00     0.074 A 
ATOM     46  C   UNL A   1      37.767  30.169  28.869  1.00  0.00     0.031 C 
ATOM     47  C   UNL A   1      43.739  26.952  30.246  1.00  0.00     0.029 A 
ATOM     48  C   UNL A   1      43.601  28.253  30.767  1.00  0.00     0.049 A 
ATOM     49  H   UNL A   1      41.982  29.601  30.642  1.00  0.00     0.167 HD
ATOM     50  C   UNL A   1      38.582  32.102  30.287  1.00  0.00     0.037 A 
ATOM     51  C   UNL A   1      44.573  28.906  31.507  1.00  0.00     0.037 A 
ATOM     52  C   UNL A   1      39.537  32.738  31.063  1.00  0.00     0.049 A 
ATOM     53  C   UNL A   1      44.419  30.194  32.023  1.00  0.00     0.074 A 
ATOM     54  C   UNL A   1      39.371  34.009  31.646  1.00  0.00     0.029 A 
ATOM     55  N   UNL A   1      40.790  32.278  31.403  1.00  0.00    -0.354 N 
ATOM     56  N   UNL A   1      43.345  30.982  31.932  1.00  0.00    -0.248 NA
ATOM     57  C   UNL A   1      45.454  30.910  32.781  1.00  0.00     0.031 C 
ATOM     58  C   UNL A   1      40.511  34.315  32.322  1.00  0.00     0.029 A 
ATOM     59  C   UNL A   1      41.409  33.241  32.169  1.00  0.00     0.049 A 
ATOM     60  H   UNL A   1      41.176  31.411  31.143  1.00  0.00     0.167 HD
ATOM     61  C   UNL A   1      43.565  32.135  32.567  1.00  0.00     0.074 A 
ATOM     62  C   UNL A   1      44.927  32.108  33.117  1.00  0.00     0.031 C 
ATOM     63  C   UNL A   1      42.682  33.206  32.715  1.00  0.00     0.037 A 
BRANCH  50  64
ATOM     64  C   UNL A   1      37.266  32.822  30.037  1.00  0.00     0.058 A 
ATOM     65  C   UNL A   1      36.179  32.555  30.853  1.00  0.00     0.135 A 
ATOM     66  C   UNL A   1      37.180  33.694  29.039  1.00  0.00     0.135 A 
ATOM     67  F   UNL A   1      36.281  31.893  32.003  1.00  0.00    -0.206 F 
ATOM     68  C   UNL A   1      34.951  33.049  30.354  1.00  0.00     0.059 A 
ATOM     69  C   UNL A   1      35.968  34.242  28.692  1.00  0.00     0.059 A 
ATOM     70  F   UNL A   1      38.276  34.040  28.370  1.00  0.00    -0.206 F 
ATOM     71  C   UNL A   1      34.842  33.976  29.419  1.00  0.00     0.060 A 
BRANCH  71  72
ATOM     72  S   UNL A   1      33.284  34.845  29.118  1.00  0.00     0.124 S 
ATOM     73  O   UNL A   1      32.491  34.940  30.423  1.00  0.00    -0.237 OA
ATOM     74  O   UNL A   1      33.577  36.254  28.595  1.00  0.00    -0.237 OA
ATOM     75  O   UNL A   1      32.368  33.987  27.957  1.00  0.00    -0.744 OA
ENDBRANCH  71  72
ENDBRANCH  50  64
BRANCH  51  76
ATOM     76  C   UNL A   1      45.881  28.180  31.771  1.00  0.00     0.058 A 
ATOM     77  C   UNL A   1      46.924  28.306  30.868  1.00  0.00     0.135 A 
ATOM     78  C   UNL A   1      46.004  27.434  32.863  1.00  0.00     0.135 A 
ATOM     79  F   UNL A   1      46.943  29.226  29.907  1.00  0.00    -0.206 F 
ATOM     80  C   UNL A   1      47.966  27.369  31.059  1.00  0.00     0.059 A 
ATOM     81  C   UNL A   1      47.114  26.646  33.051  1.00  0.00     0.059 A 
ATOM     82  F   UNL A   1      45.044  27.452  33.784  1.00  0.00    -0.206 F 
ATOM     83  C   UNL A   1      48.156  26.676  32.167  1.00  0.00     0.060 A 
BRANCH  83  84
ATOM     84  S   UNL A   1      49.712  25.813  32.497  1.00  0.00     0.124 S 
ATOM     85  O   UNL A   1      50.642  26.726  33.299  1.00  0.00    -0.237 OA
ATOM     86  O   UNL A   1      49.429  24.540  33.299  1.00  0.00    -0.237 OA
ATOM     87  O   UNL A   1      50.459  25.398  31.016  1.00  0.00    -0.744 OA
ENDBRANCH  83  84
ENDBRANCH  51  76
BRANCH  63  88
ATOM     88  C   UNL A   1      43.146  34.407  33.523  1.00  0.00     0.058 A 
ATOM     89  C   UNL A   1      43.738  35.477  32.871  1.00  0.00     0.135 A 
ATOM     90  C   UNL A   1      42.965  34.416  34.838  1.00  0.00     0.135 A 
ATOM     91  F   UNL A   1      43.713  35.626  31.550  1.00  0.00    -0.206 F 
ATOM     92  C   UNL A   1      44.372  36.397  33.740  1.00  0.00     0.059 A 
ATOM     93  C   UNL A   1      43.498  35.420  35.611  1.00  0.00     0.059 A 
ATOM     94  F   UNL A   1      42.260  33.445  35.412  1.00  0.00    -0.206 F 
ATOM     95  C   UNL A   1      44.148  36.478  35.039  1.00  0.00     0.060 A 
BRANCH  95  96
ATOM     96  S   UNL A   1      44.670  37.913  36.009  1.00  0.00     0.124 S 
ATOM     97  O   UNL A   1      43.885  37.954  37.323  1.00  0.00    -0.237 OA
ATOM     98  O   UNL A   1      46.167  37.808  36.313  1.00  0.00    -0.237 OA
ATOM     99  O   UNL A   1      44.368  39.342  35.120  1.00  0.00    -0.744 OA
ENDBRANCH  95  96
ENDBRANCH  63  88
ENDBRANCH  37  38
ENDBRANCH  30  32
ENDBRANCH  29  30
ENDBRANCH   1  29
TORSDOF 18
ENDMDL
MODEL 3
REMARK VINA RESULT:     -11.6      0.712      8.008
REMARK SMILES CCCc1cc(S(F)(F)(F)(F)F)cc2c1O[C@@H](C(F)(F)F)C(C(=O)OCCOC(=O)c1ccc(-c3c4nc(c(-c5c(F)cc(S(=O)(=O)[O-])cc5F)c5ccc([nH]5)c(-c5c(F)cc(S(=O)(=O)[O-])cc5F)c5nc(c(-c6c(F)cc(S(=O)(=O)[O-])cc6F)c6ccc3[nH]6)C=C5)C=C4)cc1)=C2
REMARK SMILES IDX 27 1 26 2 25 3 23 4 24 5 22 6 4 7 5 8 15 9 6 10 14 11 16 12
REMARK SMILES IDX 13 13 97 14 17 15 3 16 2 17 1 18 7 19 8 20 9 21 10 22 11 23
REMARK SMILES IDX 12 24 18 25 19 26 20 27 21 28 28 29 29 30 30 31 31 32 32 33
REMARK SMILES IDX 96 34 33 35 95 36 34 37 35 38 36 39 89 40 37 41 94 42 88 43
REMARK SMILES IDX 90 44 38 45 93 46 87 47 86 48 39 50 73 51 52 52 72 53 53 54
REMARK SMILES IDX 56 55 71 56 91 57 54 58 55 59 70 61 92 62 57 63 40 64 41 65
REMARK SMILES IDX 50 66 42 67 43 68 49 69 51 70 44 71 45 72 46 73 47 74 48 75
REMARK SMILES IDX 74 76 75 77 84 78 76 79 77 80 83 81 85 82 78 83 79 84 80 85
REMARK SMILES IDX 81 86 82 87 58 88 59 89 68 90 60 91 61 92 67 93 69 94 62 95
REMARK SMILES IDX 63 96 64 97 65 98 66 99
REMARK H PARENT 90 49 56 60
REMARK Flexibility Score: inf
ROOT
ATOM      1  C   UNL A   1      32.358  29.456  27.199  1.00  0.00     0.275 C 
ENDROOT
BRANCH   1   2
ATOM      2  C   UNL A   1      32.310  29.927  25.755  1.00  0.00     0.275 C 
BRANCH   2   3
ATOM      3  O   UNL A   1      31.513  29.032  24.992  1.00  0.00    -0.459 OA
BRANCH   3   4
ATOM      4  C   UNL A   1      32.078  28.345  23.886  1.00  0.00     0.338 C 
ATOM      5  O   UNL A   1      32.278  28.959  22.791  1.00  0.00    -0.246 OA
BRANCH   4   6
ATOM      6  C   UNL A   1      32.443  26.875  24.010  1.00  0.00     0.087 C 
ATOM      7  C   UNL A   1      33.187  22.840  24.795  1.00  0.00    -0.004 A 
ATOM      8  C   UNL A   1      34.474  22.417  25.069  1.00  0.00     0.032 A 
ATOM      9  C   UNL A   1      32.962  24.180  24.593  1.00  0.00     0.131 A 
ATOM     10  C   UNL A   1      35.509  23.311  25.146  1.00  0.00     0.108 A 
ATOM     11  C   UNL A   1      33.985  25.109  24.644  1.00  0.00     0.019 A 
ATOM     12  O   UNL A   1      31.663  24.600  24.434  1.00  0.00    -0.475 OA
ATOM     13  C   UNL A   1      35.266  24.651  24.927  1.00  0.00     0.036 A 
ATOM     14  C   UNL A   1      33.639  26.509  24.456  1.00  0.00     0.027 C 
ATOM     15  C   UNL A   1      31.445  25.791  23.628  1.00  0.00     0.316 C 
BRANCH   7  16
ATOM     16  C   UNL A   1      32.016  21.870  24.795  1.00  0.00     0.039 C 
BRANCH  16  17
ATOM     17  C   UNL A   1      32.272  20.766  23.781  1.00  0.00     0.001 C 
ATOM     18  C   UNL A   1      32.063  21.311  22.377  1.00  0.00     0.004 C 
ENDBRANCH  16  17
ENDBRANCH   7  16
BRANCH  10  19
ATOM     19  S   UNL A   1      37.183  22.738  25.529  1.00  0.00     0.310 S 
ATOM     20  F   UNL A   1      37.663  24.085  24.844  1.00  0.00    -0.094 F 
ATOM     21  F   UNL A   1      37.344  22.047  24.124  1.00  0.00    -0.094 F 
ATOM     22  F   UNL A   1      38.672  22.453  25.872  1.00  0.00    -0.094 F 
ATOM     23  F   UNL A   1      37.040  23.558  26.872  1.00  0.00    -0.094 F 
ATOM     24  F   UNL A   1      35.700  23.134  25.148  1.00  0.00    -0.094 F 
ENDBRANCH  10  19
BRANCH  15  25
ATOM     25  C   UNL A   1      30.036  26.305  23.874  1.00  0.00     0.430 C 
ATOM     26  F   UNL A   1      29.914  26.673  25.145  1.00  0.00    -0.167 F 
ATOM     27  F   UNL A   1      29.801  27.350  23.085  1.00  0.00    -0.167 F 
ATOM     28  F   UNL A   1      29.160  25.341  23.604  1.00  0.00    -0.167 F 
ENDBRANCH  15  25
ENDBRANCH   4   6
ENDBRANCH   3   4
ENDBRANCH   2   3
ENDBRANCH   1   2
BRANCH   1  29
ATOM     29  O   UNL A   1      33.697  29.129  27.546  1.00  0.00    -0.458 OA
BRANCH  29  30
ATOM     30  C   UNL A   1      34.574  30.137  28.023  1.00  0.00     0.338 C 
ATOM     31  O   UNL A   1      34.131  31.305  28.260  1.00  0.00    -0.246 OA
BRANCH  30  32
ATOM     32  C   UNL A   1      36.043  29.822  28.251  1.00  0.00     0.060 A 
ATOM     33  C   UNL A   1      36.955  30.046  27.233  1.00  0.00     0.016 A 
ATOM     34  C   UNL A   1      36.431  29.358  29.433  1.00  0.00     0.016 A 
ATOM     35  C   UNL A   1      38.227  29.472  27.466  1.00  0.00     0.010 A 
ATOM     36  C   UNL A   1      37.726  28.941  29.631  1.00  0.00     0.010 A 
ATOM     37  C   UNL A   1      38.666  29.078  28.647  1.00  0.00    -0.014 A 
BRANCH  37  38
ATOM     38  C   UNL A   1      40.138  28.792  28.900  1.00  0.00     0.031 A 
ATOM     39  C   UNL A   1      40.918  29.814  29.442  1.00  0.00     0.074 A 
ATOM     40  C   UNL A   1      40.624  27.539  28.568  1.00  0.00     0.049 A 
ATOM     41  N   UNL A   1      42.213  29.767  29.760  1.00  0.00    -0.248 NA
ATOM     42  C   UNL A   1      40.412  31.156  29.764  1.00  0.00     0.031 C 
ATOM     43  C   UNL A   1      39.839  26.500  28.029  1.00  0.00     0.029 A 
ATOM     44  N   UNL A   1      41.913  27.074  28.691  1.00  0.00    -0.354 N 
ATOM     45  C   UNL A   1      42.605  30.936  30.272  1.00  0.00     0.074 A 
ATOM     46  C   UNL A   1      41.453  31.848  30.277  1.00  0.00     0.031 C 
ATOM     47  C   UNL A   1      40.648  25.428  27.819  1.00  0.00     0.029 A 
ATOM     48  C   UNL A   1      41.950  25.778  28.223  1.00  0.00     0.049 A 
ATOM     49  H   UNL A   1      42.677  27.579  29.050  1.00  0.00     0.167 HD
ATOM     50  C   UNL A   1      43.876  31.274  30.739  1.00  0.00     0.037 A 
ATOM     51  C   UNL A   1      43.047  24.935  28.145  1.00  0.00     0.037 A 
ATOM     52  C   UNL A   1      44.963  30.416  30.700  1.00  0.00     0.049 A 
ATOM     53  C   UNL A   1      44.332  25.294  28.557  1.00  0.00     0.074 A 
ATOM     54  C   UNL A   1      46.249  30.740  31.173  1.00  0.00     0.029 A 
ATOM     55  N   UNL A   1      45.005  29.129  30.210  1.00  0.00    -0.354 N 
ATOM     56  N   UNL A   1      44.715  26.449  29.106  1.00  0.00    -0.248 NA
ATOM     57  C   UNL A   1      45.508  24.421  28.449  1.00  0.00     0.031 C 
ATOM     58  C   UNL A   1      47.058  29.667  30.962  1.00  0.00     0.029 A 
ATOM     59  C   UNL A   1      46.290  28.656  30.353  1.00  0.00     0.049 A 
ATOM     60  H   UNL A   1      44.247  28.634  29.824  1.00  0.00     0.167 HD
ATOM     61  C   UNL A   1      46.019  26.415  29.385  1.00  0.00     0.074 A 
ATOM     62  C   UNL A   1      46.550  25.113  28.960  1.00  0.00     0.031 C 
ATOM     63  C   UNL A   1      46.787  27.417  29.982  1.00  0.00     0.037 A 
BRANCH  50  64
ATOM     64  C   UNL A   1      44.080  32.663  31.321  1.00  0.00     0.058 A 
ATOM     65  C   UNL A   1      44.425  33.709  30.480  1.00  0.00     0.135 A 
ATOM     66  C   UNL A   1      43.924  32.852  32.626  1.00  0.00     0.135 A 
ATOM     67  F   UNL A   1      44.346  33.630  29.155  1.00  0.00    -0.206 F 
ATOM     68  C   UNL A   1      44.870  34.868  31.159  1.00  0.00     0.059 A 
ATOM     69  C   UNL A   1      44.251  34.056  33.202  1.00  0.00     0.059 A 
ATOM     70  F   UNL A   1      43.447  31.868  33.382  1.00  0.00    -0.206 F 
ATOM     71  C   UNL A   1      44.656  35.115  32.438  1.00  0.00     0.060 A 
BRANCH  71  72
ATOM     72  S   UNL A   1      44.887  36.767  33.141  1.00  0.00     0.124 S 
ATOM     73  O   UNL A   1      44.813  37.811  32.025  1.00  0.00    -0.237 OA
ATOM     74  O   UNL A   1      43.788  37.041  34.172  1.00  0.00    -0.237 OA
ATOM     75  O   UNL A   1      46.416  36.853  33.902  1.00  0.00    -0.744 OA
ENDBRANCH  71  72
ENDBRANCH  50  64
BRANCH  51  76
ATOM     76  C   UNL A   1      42.839  23.540  27.578  1.00  0.00     0.058 A 
ATOM     77  C   UNL A   1      42.460  22.511  28.425  1.00  0.00     0.135 A 
ATOM     78  C   UNL A   1      43.025  23.329  26.280  1.00  0.00     0.135 A 
ATOM     79  F   UNL A   1      42.022  22.717  29.664  1.00  0.00    -0.206 F 
ATOM     80  C   UNL A   1      42.583  21.223  27.854  1.00  0.00     0.059 A 
ATOM     81  C   UNL A   1      42.996  22.055  25.767  1.00  0.00     0.059 A 
ATOM     82  F   UNL A   1      43.241  24.362  25.470  1.00  0.00    -0.206 F 
ATOM     83  C   UNL A   1      42.687  20.985  26.559  1.00  0.00     0.060 A 
BRANCH  83  84
ATOM     84  S   UNL A   1      42.434  19.330  25.871  1.00  0.00     0.124 S 
ATOM     85  O   UNL A   1      40.949  19.124  25.569  1.00  0.00    -0.237 OA
ATOM     86  O   UNL A   1      43.243  19.186  24.579  1.00  0.00    -0.237 OA
ATOM     87  O   UNL A   1      42.954  18.157  27.002  1.00  0.00    -0.744 OA
ENDBRANCH  83  84
ENDBRANCH  51  76
BRANCH  63  88
ATOM     88  C   UNL A   1      48.258  27.131  30.238  1.00  0.00     0.058 A 
ATOM     89  C   UNL A   1      48.635  26.520  31.423  1.00  0.00     0.135 A 
ATOM     90  C   UNL A   1      49.155  27.459  29.316  1.00  0.00     0.135 A 
ATOM     91  F   UNL A   1      47.768  25.949  32.253  1.00  0.00    -0.206 F 
ATOM     92  C   UNL A   1      50.029  26.558  31.668  1.00  0.00     0.059 A 
ATOM     93  C   UNL A   1      50.499  27.343  29.575  1.00  0.00     0.059 A 
ATOM     94  F   UNL A   1      48.747  27.904  28.130  1.00  0.00    -0.206 F 
ATOM     95  C   UNL A   1      50.945  26.804  30.749  1.00  0.00     0.060 A 
BRANCH  95  96
ATOM     96  S   UNL A   1      52.696  26.444  31.028  1.00  0.00     0.124 S 
ATOM     97  O   UNL A   1      53.409  26.300  29.681  1.00  0.00    -0.237 OA
ATOM     98  O   UNL A   1      53.333  27.587  31.823  1.00  0.00    -0.237 OA
ATOM     99  O   UNL A   1      52.844  24.986  31.910  1.00  0.00    -0.744 OA
ENDBRANCH  95  96
ENDBRANCH  63  88
ENDBRANCH  37  38
ENDBRANCH  30  32
ENDBRANCH  29  30
ENDBRANCH   1  29
TORSDOF 18
ENDMDL
