MODEL 1
REMARK VINA RESULT:     -11.9      0.000      0.000
REMARK SMILES Nn1c(S[C@@H](C(=O)OCCOCCOC(=O)c2ccc(-c3c4nc(c(-c5c(F)cc(S(=O)(=O)[O-])cc5F)c5ccc([nH]5)c(-c5c(F)cc(S(=O)(=O)[O-])cc5F)c5nc(c(-c6c(F)cc(S(=O)(=O)[O-])cc6F)c6ccc3[nH]6)C=C5)C=C4)cc2)c2ccccc2)nc2ccc(Br)cc2c1=O
REMARK SMILES IDX 11 1 10 2 9 3 8 4 6 5 7 6 5 7 4 8 3 9 2 10 97 11 89 12 96 13
REMARK SMILES IDX 98 14 90 15 95 16 91 17 93 18 92 19 94 20 1 21 83 24 84 25
REMARK SMILES IDX 88 26 85 27 87 28 86 29 12 30 13 31 14 32 15 33 16 34 17 35
REMARK SMILES IDX 18 36 82 37 19 38 81 39 20 40 21 41 22 42 75 43 23 44 80 45
REMARK SMILES IDX 74 46 76 47 24 48 79 49 73 50 72 51 25 53 59 54 38 55 58 56
REMARK SMILES IDX 39 57 42 58 57 59 77 60 40 61 41 62 56 64 78 65 43 66 26 67
REMARK SMILES IDX 27 68 36 69 28 70 29 71 35 72 37 73 30 74 31 75 32 76 33 77
REMARK SMILES IDX 34 78 60 79 61 80 70 81 62 82 63 83 69 84 71 85 64 86 65 87
REMARK SMILES IDX 66 88 67 89 68 90 44 91 45 92 54 93 46 94 47 95 53 96 55 97
REMARK SMILES IDX 48 98 49 99 50 100 51 101 52 102
REMARK H PARENT 1 22 1 23 76 52 42 63
REMARK Flexibility Score: inf
ROOT
ATOM      1  O   UNL A   1      34.429  30.827  27.246  1.00  0.00    -0.374 OA
ENDROOT
BRANCH   1   2
ATOM      2  C   UNL A   1      33.053  30.456  27.331  1.00  0.00     0.202 C 
BRANCH   2   3
ATOM      3  C   UNL A   1      32.241  30.221  26.046  1.00  0.00     0.261 C 
BRANCH   3   4
ATOM      4  O   UNL A   1      32.131  28.845  25.598  1.00  0.00    -0.462 OA
BRANCH   4   5
ATOM      5  C   UNL A   1      31.779  28.675  24.284  1.00  0.00     0.324 C 
ATOM      6  O   UNL A   1      32.630  28.593  23.402  1.00  0.00    -0.251 OA
BRANCH   5   7
ATOM      7  C   UNL A   1      30.246  28.640  24.024  1.00  0.00     0.194 C 
BRANCH   7   8
ATOM      8  S   UNL A   1      29.700  27.018  23.445  1.00  0.00    -0.066 SA
BRANCH   8   9
ATOM      9  C   UNL A   1      30.498  25.666  24.225  1.00  0.00     0.191 A 
ATOM     10  N   UNL A   1      30.690  25.475  25.600  1.00  0.00    -0.202 N 
ATOM     11  C   UNL A   1      31.154  24.253  26.112  1.00  0.00     0.280 A 
ATOM     12  N   UNL A   1      30.862  24.767  23.361  1.00  0.00    -0.222 NA
ATOM     13  C   UNL A   1      31.516  23.221  25.135  1.00  0.00     0.069 A 
ATOM     14  O   UNL A   1      31.238  24.018  27.319  1.00  0.00    -0.267 OA
ATOM     15  C   UNL A   1      31.408  23.554  23.789  1.00  0.00     0.079 A 
ATOM     16  C   UNL A   1      31.955  21.958  25.547  1.00  0.00     0.031 A 
ATOM     17  C   UNL A   1      31.799  22.610  22.836  1.00  0.00     0.030 A 
ATOM     18  C   UNL A   1      32.323  21.025  24.584  1.00  0.00     0.018 A 
ATOM     19  C   UNL A   1      32.262  21.349  23.229  1.00  0.00     0.018 A 
ATOM     20  Br  UNL A   1      32.911  19.310  25.117  1.00  0.00    -0.051 Br
BRANCH  10  21
ATOM     21  N   UNL A   1      30.490  26.467  26.583  1.00  0.00    -0.334 N 
ATOM     22  H   UNL A   1      30.063  26.233  27.440  1.00  0.00     0.178 HD
ATOM     23  H   UNL A   1      30.777  27.392  26.413  1.00  0.00     0.178 HD
ENDBRANCH  10  21
ENDBRANCH   8   9
ENDBRANCH   7   8
BRANCH   7  24
ATOM     24  C   UNL A   1      29.683  29.864  23.273  1.00  0.00    -0.023 A 
ATOM     25  C   UNL A   1      29.468  29.794  21.883  1.00  0.00     0.005 A 
ATOM     26  C   UNL A   1      29.266  31.041  23.925  1.00  0.00     0.005 A 
ATOM     27  C   UNL A   1      28.663  30.726  21.230  1.00  0.00     0.000 A 
ATOM     28  C   UNL A   1      28.453  31.972  23.272  1.00  0.00     0.000 A 
ATOM     29  C   UNL A   1      28.116  31.791  21.936  1.00  0.00     0.000 A 
ENDBRANCH   7  24
ENDBRANCH   5   7
ENDBRANCH   4   5
ENDBRANCH   3   4
ENDBRANCH   2   3
ENDBRANCH   1   2
BRANCH   1  30
ATOM     30  C   UNL A   1      34.839  32.002  27.919  1.00  0.00     0.202 C 
BRANCH  30  31
ATOM     31  C   UNL A   1      34.975  31.979  29.443  1.00  0.00     0.261 C 
BRANCH  31  32
ATOM     32  O   UNL A   1      36.306  32.019  29.919  1.00  0.00    -0.460 OA
BRANCH  32  33
ATOM     33  C   UNL A   1      36.612  31.000  30.751  1.00  0.00     0.338 C 
ATOM     34  O   UNL A   1      35.918  30.499  31.617  1.00  0.00    -0.246 OA
BRANCH  33  35
ATOM     35  C   UNL A   1      37.896  30.473  30.293  1.00  0.00     0.060 A 
ATOM     36  C   UNL A   1      38.180  30.373  28.928  1.00  0.00     0.016 A 
ATOM     37  C   UNL A   1      38.790  30.020  31.266  1.00  0.00     0.016 A 
ATOM     38  C   UNL A   1      39.399  29.836  28.534  1.00  0.00     0.010 A 
ATOM     39  C   UNL A   1      40.008  29.488  30.870  1.00  0.00     0.010 A 
ATOM     40  C   UNL A   1      40.325  29.419  29.505  1.00  0.00    -0.014 A 
BRANCH  40  41
ATOM     41  C   UNL A   1      41.700  29.058  29.112  1.00  0.00     0.031 A 
ATOM     42  C   UNL A   1      42.793  30.076  29.095  1.00  0.00     0.074 A 
ATOM     43  C   UNL A   1      41.908  27.793  28.701  1.00  0.00     0.049 A 
ATOM     44  N   UNL A   1      44.041  29.928  28.741  1.00  0.00    -0.248 NA
ATOM     45  C   UNL A   1      42.441  31.440  29.519  1.00  0.00     0.031 C 
ATOM     46  C   UNL A   1      40.878  26.750  28.648  1.00  0.00     0.029 A 
ATOM     47  N   UNL A   1      43.036  27.171  28.244  1.00  0.00    -0.354 N 
ATOM     48  C   UNL A   1      44.631  31.174  28.903  1.00  0.00     0.074 A 
ATOM     49  C   UNL A   1      43.591  32.078  29.349  1.00  0.00     0.031 C 
ATOM     50  C   UNL A   1      41.428  25.612  28.203  1.00  0.00     0.029 A 
ATOM     51  C   UNL A   1      42.833  25.856  27.901  1.00  0.00     0.049 A 
ATOM     52  H   UNL A   1      43.909  27.621  28.168  1.00  0.00     0.167 HD
ATOM     53  C   UNL A   1      45.926  31.514  28.707  1.00  0.00     0.037 A 
ATOM     54  C   UNL A   1      43.686  24.952  27.388  1.00  0.00     0.037 A 
ATOM     55  C   UNL A   1      46.933  30.590  28.246  1.00  0.00     0.049 A 
ATOM     56  C   UNL A   1      45.109  25.367  27.148  1.00  0.00     0.074 A 
ATOM     57  C   UNL A   1      48.283  30.817  28.050  1.00  0.00     0.029 A 
ATOM     58  N   UNL A   1      46.696  29.266  27.898  1.00  0.00    -0.354 N 
ATOM     59  N   UNL A   1      45.672  26.531  27.370  1.00  0.00    -0.248 NA
ATOM     60  C   UNL A   1      46.013  24.352  26.595  1.00  0.00     0.031 C 
ATOM     61  C   UNL A   1      48.851  29.650  27.530  1.00  0.00     0.029 A 
ATOM     62  C   UNL A   1      47.868  28.673  27.458  1.00  0.00     0.049 A 
ATOM     63  H   UNL A   1      45.823  28.814  27.956  1.00  0.00     0.167 HD
ATOM     64  C   UNL A   1      47.002  26.387  26.997  1.00  0.00     0.074 A 
ATOM     65  C   UNL A   1      47.162  25.014  26.556  1.00  0.00     0.031 C 
ATOM     66  C   UNL A   1      48.000  27.305  27.016  1.00  0.00     0.037 A 
BRANCH  53  67
ATOM     67  C   UNL A   1      46.332  32.936  28.984  1.00  0.00     0.058 A 
ATOM     68  C   UNL A   1      46.764  33.341  30.257  1.00  0.00     0.135 A 
ATOM     69  C   UNL A   1      46.351  33.892  27.954  1.00  0.00     0.135 A 
ATOM     70  F   UNL A   1      46.754  32.475  31.283  1.00  0.00    -0.206 F 
ATOM     71  C   UNL A   1      47.182  34.645  30.504  1.00  0.00     0.059 A 
ATOM     72  C   UNL A   1      46.790  35.195  28.172  1.00  0.00     0.059 A 
ATOM     73  F   UNL A   1      45.946  33.561  26.718  1.00  0.00    -0.206 F 
ATOM     74  C   UNL A   1      47.196  35.564  29.454  1.00  0.00     0.060 A 
BRANCH  74  75
ATOM     75  S   UNL A   1      47.751  37.248  29.795  1.00  0.00     0.124 S 
ATOM     76  O   UNL A   1      48.340  37.626  28.514  1.00  0.00    -0.237 OA
ATOM     77  O   UNL A   1      46.502  37.919  30.140  1.00  0.00    -0.237 OA
ATOM     78  O   UNL A   1      48.696  37.081  30.894  1.00  0.00    -0.744 OA
ENDBRANCH  74  75
ENDBRANCH  53  67
BRANCH  54  79
ATOM     79  C   UNL A   1      43.210  23.574  27.104  1.00  0.00     0.058 A 
ATOM     80  C   UNL A   1      42.918  23.172  25.793  1.00  0.00     0.135 A 
ATOM     81  C   UNL A   1      43.098  22.615  28.123  1.00  0.00     0.135 A 
ATOM     82  F   UNL A   1      43.012  24.052  24.785  1.00  0.00    -0.206 F 
ATOM     83  C   UNL A   1      42.528  21.870  25.502  1.00  0.00     0.059 A 
ATOM     84  C   UNL A   1      42.735  21.299  27.854  1.00  0.00     0.059 A 
ATOM     85  F   UNL A   1      43.387  22.945  29.392  1.00  0.00    -0.206 F 
ATOM     86  C   UNL A   1      42.447  20.937  26.539  1.00  0.00     0.060 A 
BRANCH  86  87
ATOM     87  S   UNL A   1      41.999  19.237  26.135  1.00  0.00     0.124 S 
ATOM     88  O   UNL A   1      42.381  18.534  27.355  1.00  0.00    -0.237 OA
ATOM     89  O   UNL A   1      40.566  19.351  25.886  1.00  0.00    -0.237 OA
ATOM     90  O   UNL A   1      42.812  18.943  24.958  1.00  0.00    -0.744 OA
ENDBRANCH  86  87
ENDBRANCH  54  79
BRANCH  66  91
ATOM     91  C   UNL A   1      49.356  26.856  26.548  1.00  0.00     0.058 A 
ATOM     92  C   UNL A   1      50.268  26.244  27.421  1.00  0.00     0.135 A 
ATOM     93  C   UNL A   1      49.721  26.980  25.197  1.00  0.00     0.135 A 
ATOM     94  F   UNL A   1      49.972  26.111  28.723  1.00  0.00    -0.206 F 
ATOM     95  C   UNL A   1      51.501  25.783  26.975  1.00  0.00     0.059 A 
ATOM     96  C   UNL A   1      50.935  26.497  24.723  1.00  0.00     0.059 A 
ATOM     97  F   UNL A   1      48.881  27.551  24.318  1.00  0.00    -0.206 F 
ATOM     98  C   UNL A   1      51.822  25.906  25.622  1.00  0.00     0.060 A 
BRANCH  98  99
ATOM     99  S   UNL A   1      53.407  25.260  25.052  1.00  0.00     0.124 S 
ATOM    100  O   UNL A   1      53.407  25.669  23.652  1.00  0.00    -0.237 OA
ATOM    101  O   UNL A   1      54.354  25.957  25.916  1.00  0.00    -0.237 OA
ATOM    102  O   UNL A   1      53.295  23.823  25.285  1.00  0.00    -0.744 OA
ENDBRANCH  98  99
ENDBRANCH  66  91
ENDBRANCH  40  41
ENDBRANCH  33  35
ENDBRANCH  32  33
ENDBRANCH  31  32
ENDBRANCH  30  31
ENDBRANCH   1  30
TORSDOF 21
ENDMDL
MODEL 2
REMARK VINA RESULT:     -10.5      6.139     13.254
REMARK SMILES Nn1c(S[C@@H](C(=O)OCCOCCOC(=O)c2ccc(-c3c4nc(c(-c5c(F)cc(S(=O)(=O)[O-])cc5F)c5ccc([nH]5)c(-c5c(F)cc(S(=O)(=O)[O-])cc5F)c5nc(c(-c6c(F)cc(S(=O)(=O)[O-])cc6F)c6ccc3[nH]6)C=C5)C=C4)cc2)c2ccccc2)nc2ccc(Br)cc2c1=O
REMARK SMILES IDX 11 1 10 2 9 3 8 4 6 5 7 6 5 7 4 8 3 9 2 10 97 11 89 12 96 13
REMARK SMILES IDX 98 14 90 15 95 16 91 17 93 18 92 19 94 20 1 21 83 24 84 25
REMARK SMILES IDX 88 26 85 27 87 28 86 29 12 30 13 31 14 32 15 33 16 34 17 35
REMARK SMILES IDX 18 36 82 37 19 38 81 39 20 40 21 41 22 42 75 43 23 44 80 45
REMARK SMILES IDX 74 46 76 47 24 48 79 49 73 50 72 51 25 53 59 54 38 55 58 56
REMARK SMILES IDX 39 57 42 58 57 59 77 60 40 61 41 62 56 64 78 65 43 66 26 67
REMARK SMILES IDX 27 68 36 69 28 70 29 71 35 72 37 73 30 74 31 75 32 76 33 77
REMARK SMILES IDX 34 78 60 79 61 80 70 81 62 82 63 83 69 84 71 85 64 86 65 87
REMARK SMILES IDX 66 88 67 89 68 90 44 91 45 92 54 93 46 94 47 95 53 96 55 97
REMARK SMILES IDX 48 98 49 99 50 100 51 101 52 102
REMARK H PARENT 1 22 1 23 76 52 42 63
REMARK Flexibility Score: inf
ROOT
ATOM      1  O   UNL A   1      45.311  40.430  31.773  1.00  0.00    -0.374 OA
ENDROOT
BRANCH   1   2
ATOM      2  C   UNL A   1      44.907  41.404  30.810  1.00  0.00     0.202 C 
BRANCH   2   3
ATOM      3  C   UNL A   1      44.004  40.991  29.635  1.00  0.00     0.261 C 
BRANCH   3   4
ATOM      4  O   UNL A   1      44.435  41.412  28.315  1.00  0.00    -0.462 OA
BRANCH   4   5
ATOM      5  C   UNL A   1      44.954  40.423  27.519  1.00  0.00     0.324 C 
ATOM      6  O   UNL A   1      46.150  40.142  27.550  1.00  0.00    -0.251 OA
BRANCH   5   7
ATOM      7  C   UNL A   1      43.921  39.742  26.576  1.00  0.00     0.194 C 
BRANCH   7   8
ATOM      8  S   UNL A   1      42.604  40.879  26.090  1.00  0.00    -0.066 SA
BRANCH   8   9
ATOM      9  C   UNL A   1      43.067  42.037  24.858  1.00  0.00     0.191 A 
ATOM     10  N   UNL A   1      44.040  43.040  24.961  1.00  0.00    -0.202 N 
ATOM     11  C   UNL A   1      44.467  43.765  23.837  1.00  0.00     0.280 A 
ATOM     12  N   UNL A   1      42.430  41.825  23.745  1.00  0.00    -0.222 NA
ATOM     13  C   UNL A   1      43.780  43.487  22.571  1.00  0.00     0.069 A 
ATOM     14  O   UNL A   1      45.389  44.581  23.874  1.00  0.00    -0.267 OA
ATOM     15  C   UNL A   1      42.742  42.562  22.600  1.00  0.00     0.079 A 
ATOM     16  C   UNL A   1      44.157  44.132  21.388  1.00  0.00     0.031 A 
ATOM     17  C   UNL A   1      42.034  42.319  21.420  1.00  0.00     0.030 A 
ATOM     18  C   UNL A   1      43.453  43.864  20.220  1.00  0.00     0.018 A 
ATOM     19  C   UNL A   1      42.382  42.972  20.232  1.00  0.00     0.018 A 
ATOM     20  Br  UNL A   1      43.950  44.717  18.609  1.00  0.00    -0.051 Br
BRANCH  10  21
ATOM     21  N   UNL A   1      44.643  43.450  26.169  1.00  0.00    -0.334 N 
ATOM     22  H   UNL A   1      45.549  43.839  26.160  1.00  0.00     0.178 HD
ATOM     23  H   UNL A   1      44.159  43.349  27.019  1.00  0.00     0.178 HD
ENDBRANCH  10  21
ENDBRANCH   8   9
ENDBRANCH   7   8
BRANCH   7  24
ATOM     24  C   UNL A   1      43.486  38.324  27.001  1.00  0.00    -0.023 A 
ATOM     25  C   UNL A   1      42.137  38.073  27.317  1.00  0.00     0.005 A 
ATOM     26  C   UNL A   1      44.357  37.218  26.993  1.00  0.00     0.005 A 
ATOM     27  C   UNL A   1      41.640  36.771  27.373  1.00  0.00     0.000 A 
ATOM     28  C   UNL A   1      43.858  35.913  27.042  1.00  0.00     0.000 A 
ATOM     29  C   UNL A   1      42.494  35.691  27.188  1.00  0.00     0.000 A 
ENDBRANCH   7  24
ENDBRANCH   5   7
ENDBRANCH   4   5
ENDBRANCH   3   4
ENDBRANCH   2   3
ENDBRANCH   1   2
BRANCH   1  30
ATOM     30  C   UNL A   1      45.366  39.078  31.362  1.00  0.00     0.202 C 
BRANCH  30  31
ATOM     31  C   UNL A   1      46.688  38.507  30.846  1.00  0.00     0.261 C 
BRANCH  31  32
ATOM     32  O   UNL A   1      46.556  37.521  29.841  1.00  0.00    -0.460 OA
BRANCH  32  33
ATOM     33  C   UNL A   1      47.702  36.854  29.586  1.00  0.00     0.338 C 
ATOM     34  O   UNL A   1      48.847  37.257  29.678  1.00  0.00    -0.246 OA
BRANCH  33  35
ATOM     35  C   UNL A   1      47.317  35.464  29.344  1.00  0.00     0.060 A 
ATOM     36  C   UNL A   1      47.237  34.553  30.401  1.00  0.00     0.016 A 
ATOM     37  C   UNL A   1      47.099  35.078  28.020  1.00  0.00     0.016 A 
ATOM     38  C   UNL A   1      46.899  33.234  30.124  1.00  0.00     0.010 A 
ATOM     39  C   UNL A   1      46.759  33.761  27.747  1.00  0.00     0.010 A 
ATOM     40  C   UNL A   1      46.633  32.844  28.801  1.00  0.00    -0.014 A 
BRANCH  40  41
ATOM     41  C   UNL A   1      46.061  31.513  28.520  1.00  0.00     0.031 A 
ATOM     42  C   UNL A   1      44.636  31.201  28.839  1.00  0.00     0.074 A 
ATOM     43  C   UNL A   1      46.897  30.577  28.036  1.00  0.00     0.049 A 
ATOM     44  N   UNL A   1      43.994  30.074  28.688  1.00  0.00    -0.248 NA
ATOM     45  C   UNL A   1      43.826  32.288  29.411  1.00  0.00     0.031 C 
ATOM     46  C   UNL A   1      48.317  30.795  27.739  1.00  0.00     0.029 A 
ATOM     47  N   UNL A   1      46.688  29.264  27.717  1.00  0.00    -0.354 N 
ATOM     48  C   UNL A   1      42.702  30.311  29.138  1.00  0.00     0.074 A 
ATOM     49  C   UNL A   1      42.664  31.680  29.608  1.00  0.00     0.031 C 
ATOM     50  C   UNL A   1      48.845  29.659  27.263  1.00  0.00     0.029 A 
ATOM     51  C   UNL A   1      47.816  28.626  27.261  1.00  0.00     0.049 A 
ATOM     52  H   UNL A   1      45.814  28.819  27.805  1.00  0.00     0.167 HD
ATOM     53  C   UNL A   1      41.651  29.458  29.141  1.00  0.00     0.037 A 
ATOM     54  C   UNL A   1      48.001  27.346  26.893  1.00  0.00     0.037 A 
ATOM     55  C   UNL A   1      41.730  28.093  28.680  1.00  0.00     0.049 A 
ATOM     56  C   UNL A   1      46.825  26.413  26.938  1.00  0.00     0.074 A 
ATOM     57  C   UNL A   1      40.719  27.153  28.601  1.00  0.00     0.029 A 
ATOM     58  N   UNL A   1      42.889  27.472  28.231  1.00  0.00    -0.354 N 
ATOM     59  N   UNL A   1      45.590  26.667  27.302  1.00  0.00    -0.248 NA
ATOM     60  C   UNL A   1      47.061  25.026  26.523  1.00  0.00     0.031 C 
ATOM     61  C   UNL A   1      41.277  25.948  28.161  1.00  0.00     0.029 A 
ATOM     62  C   UNL A   1      42.625  26.152  27.905  1.00  0.00     0.049 A 
ATOM     63  H   UNL A   1      43.770  27.906  28.156  1.00  0.00     0.167 HD
ATOM     64  C   UNL A   1      44.896  25.474  27.146  1.00  0.00     0.074 A 
ATOM     65  C   UNL A   1      45.846  24.506  26.634  1.00  0.00     0.031 C 
ATOM     66  C   UNL A   1      43.592  25.204  27.404  1.00  0.00     0.037 A 
BRANCH  53  67
ATOM     67  C   UNL A   1      40.332  29.964  29.656  1.00  0.00     0.058 A 
ATOM     68  C   UNL A   1      40.146  30.279  31.012  1.00  0.00     0.135 A 
ATOM     69  C   UNL A   1      39.259  30.197  28.780  1.00  0.00     0.135 A 
ATOM     70  F   UNL A   1      41.132  30.064  31.898  1.00  0.00    -0.206 F 
ATOM     71  C   UNL A   1      38.941  30.789  31.483  1.00  0.00     0.059 A 
ATOM     72  C   UNL A   1      38.053  30.732  29.225  1.00  0.00     0.059 A 
ATOM     73  F   UNL A   1      39.380  29.912  27.474  1.00  0.00    -0.206 F 
ATOM     74  C   UNL A   1      37.901  31.016  30.580  1.00  0.00     0.060 A 
BRANCH  74  75
ATOM     75  S   UNL A   1      36.348  31.688  31.212  1.00  0.00     0.124 S 
ATOM     76  O   UNL A   1      35.472  31.537  30.054  1.00  0.00    -0.237 OA
ATOM     77  O   UNL A   1      36.066  30.804  32.338  1.00  0.00    -0.237 OA
ATOM     78  O   UNL A   1      36.688  33.062  31.566  1.00  0.00    -0.744 OA
ENDBRANCH  74  75
ENDBRANCH  53  67
BRANCH  54  79
ATOM     79  C   UNL A   1      49.339  26.903  26.428  1.00  0.00     0.058 A 
ATOM     80  C   UNL A   1      50.245  26.303  27.314  1.00  0.00     0.135 A 
ATOM     81  C   UNL A   1      49.717  27.010  25.079  1.00  0.00     0.135 A 
ATOM     82  F   UNL A   1      49.928  26.178  28.612  1.00  0.00    -0.206 F 
ATOM     83  C   UNL A   1      51.479  25.830  26.884  1.00  0.00     0.059 A 
ATOM     84  C   UNL A   1      50.935  26.519  24.619  1.00  0.00     0.059 A 
ATOM     85  F   UNL A   1      48.876  27.556  24.187  1.00  0.00    -0.206 F 
ATOM     86  C   UNL A   1      51.812  25.934  25.532  1.00  0.00     0.060 A 
BRANCH  86  87
ATOM     87  S   UNL A   1      53.391  25.258  24.979  1.00  0.00     0.124 S 
ATOM     88  O   UNL A   1      53.243  23.848  25.319  1.00  0.00    -0.237 OA
ATOM     89  O   UNL A   1      53.376  25.577  23.555  1.00  0.00    -0.237 OA
ATOM     90  O   UNL A   1      54.370  25.998  25.770  1.00  0.00    -0.744 OA
ENDBRANCH  86  87
ENDBRANCH  54  79
BRANCH  66  91
ATOM     91  C   UNL A   1      43.113  23.804  27.134  1.00  0.00     0.058 A 
ATOM     92  C   UNL A   1      42.854  23.356  25.830  1.00  0.00     0.135 A 
ATOM     93  C   UNL A   1      42.978  22.883  28.186  1.00  0.00     0.135 A 
ATOM     94  F   UNL A   1      42.960  24.200  24.792  1.00  0.00    -0.206 F 
ATOM     95  C   UNL A   1      42.462  22.047  25.578  1.00  0.00     0.059 A 
ATOM     96  C   UNL A   1      42.617  21.560  27.953  1.00  0.00     0.059 A 
ATOM     97  F   UNL A   1      43.222  23.259  29.451  1.00  0.00    -0.206 F 
ATOM     98  C   UNL A   1      42.355  21.154  26.646  1.00  0.00     0.060 A 
BRANCH  98  99
ATOM     99  S   UNL A   1      41.890  19.446  26.295  1.00  0.00     0.124 S 
ATOM    100  O   UNL A   1      42.319  18.767  27.512  1.00  0.00    -0.237 OA
ATOM    101  O   UNL A   1      40.447  19.552  26.104  1.00  0.00    -0.237 OA
ATOM    102  O   UNL A   1      42.655  19.123  25.094  1.00  0.00    -0.744 OA
ENDBRANCH  98  99
ENDBRANCH  66  91
ENDBRANCH  40  41
ENDBRANCH  33  35
ENDBRANCH  32  33
ENDBRANCH  31  32
ENDBRANCH  30  31
ENDBRANCH   1  30
TORSDOF 21
ENDMDL
MODEL 3
REMARK VINA RESULT:     -10.4      9.229     16.932
REMARK SMILES Nn1c(S[C@@H](C(=O)OCCOCCOC(=O)c2ccc(-c3c4nc(c(-c5c(F)cc(S(=O)(=O)[O-])cc5F)c5ccc([nH]5)c(-c5c(F)cc(S(=O)(=O)[O-])cc5F)c5nc(c(-c6c(F)cc(S(=O)(=O)[O-])cc6F)c6ccc3[nH]6)C=C5)C=C4)cc2)c2ccccc2)nc2ccc(Br)cc2c1=O
REMARK SMILES IDX 11 1 10 2 9 3 8 4 6 5 7 6 5 7 4 8 3 9 2 10 97 11 89 12 96 13
REMARK SMILES IDX 98 14 90 15 95 16 91 17 93 18 92 19 94 20 1 21 83 24 84 25
REMARK SMILES IDX 88 26 85 27 87 28 86 29 12 30 13 31 14 32 15 33 16 34 17 35
REMARK SMILES IDX 18 36 82 37 19 38 81 39 20 40 21 41 22 42 75 43 23 44 80 45
REMARK SMILES IDX 74 46 76 47 24 48 79 49 73 50 72 51 25 53 59 54 38 55 58 56
REMARK SMILES IDX 39 57 42 58 57 59 77 60 40 61 41 62 56 64 78 65 43 66 26 67
REMARK SMILES IDX 27 68 36 69 28 70 29 71 35 72 37 73 30 74 31 75 32 76 33 77
REMARK SMILES IDX 34 78 60 79 61 80 70 81 62 82 63 83 69 84 71 85 64 86 65 87
REMARK SMILES IDX 66 88 67 89 68 90 44 91 45 92 54 93 46 94 47 95 53 96 55 97
REMARK SMILES IDX 48 98 49 99 50 100 51 101 52 102
REMARK H PARENT 1 22 1 23 76 52 42 63
REMARK Flexibility Score: inf
ROOT
ATOM      1  O   UNL A   1      46.367  24.996  38.990  1.00  0.00    -0.374 OA
ENDROOT
BRANCH   1   2
ATOM      2  C   UNL A   1      45.321  24.449  39.793  1.00  0.00     0.202 C 
BRANCH   2   3
ATOM      3  C   UNL A   1      45.275  22.935  40.065  1.00  0.00     0.261 C 
BRANCH   3   4
ATOM      4  O   UNL A   1      45.784  22.077  39.010  1.00  0.00    -0.462 OA
BRANCH   4   5
ATOM      5  C   UNL A   1      46.579  21.040  39.423  1.00  0.00     0.324 C 
ATOM      6  O   UNL A   1      47.367  21.173  40.357  1.00  0.00    -0.251 OA
BRANCH   5   7
ATOM      7  C   UNL A   1      46.420  19.732  38.595  1.00  0.00     0.194 C 
BRANCH   7   8
ATOM      8  S   UNL A   1      46.773  18.263  39.585  1.00  0.00    -0.066 SA
BRANCH   8   9
ATOM      9  C   UNL A   1      45.358  17.320  40.009  1.00  0.00     0.191 A 
ATOM     10  N   UNL A   1      44.497  16.645  39.134  1.00  0.00    -0.202 N 
ATOM     11  C   UNL A   1      43.523  15.751  39.608  1.00  0.00     0.280 A 
ATOM     12  N   UNL A   1      45.207  17.245  41.298  1.00  0.00    -0.222 NA
ATOM     13  C   UNL A   1      43.390  15.630  41.064  1.00  0.00     0.069 A 
ATOM     14  O   UNL A   1      42.819  15.067  38.865  1.00  0.00    -0.267 OA
ATOM     15  C   UNL A   1      44.208  16.438  41.847  1.00  0.00     0.079 A 
ATOM     16  C   UNL A   1      42.473  14.740  41.634  1.00  0.00     0.031 A 
ATOM     17  C   UNL A   1      44.063  16.384  43.236  1.00  0.00     0.030 A 
ATOM     18  C   UNL A   1      42.356  14.687  43.019  1.00  0.00     0.018 A 
ATOM     19  C   UNL A   1      43.136  15.517  43.824  1.00  0.00     0.018 A 
ATOM     20  Br  UNL A   1      41.131  13.487  43.811  1.00  0.00    -0.051 Br
BRANCH  10  21
ATOM     21  N   UNL A   1      44.480  16.816  37.734  1.00  0.00    -0.334 N 
ATOM     22  H   UNL A   1      43.922  16.230  37.172  1.00  0.00     0.178 HD
ATOM     23  H   UNL A   1      45.027  17.521  37.318  1.00  0.00     0.178 HD
ENDBRANCH  10  21
ENDBRANCH   8   9
ENDBRANCH   7   8
BRANCH   7  24
ATOM     24  C   UNL A   1      47.037  19.777  37.182  1.00  0.00    -0.023 A 
ATOM     25  C   UNL A   1      46.221  19.563  36.055  1.00  0.00     0.005 A 
ATOM     26  C   UNL A   1      48.380  20.128  36.940  1.00  0.00     0.005 A 
ATOM     27  C   UNL A   1      46.647  19.923  34.777  1.00  0.00     0.000 A 
ATOM     28  C   UNL A   1      48.805  20.495  35.660  1.00  0.00     0.000 A 
ATOM     29  C   UNL A   1      47.925  20.434  34.587  1.00  0.00     0.000 A 
ENDBRANCH   7  24
ENDBRANCH   5   7
ENDBRANCH   4   5
ENDBRANCH   3   4
ENDBRANCH   2   3
ENDBRANCH   1   2
BRANCH   1  30
ATOM     30  C   UNL A   1      47.614  25.246  39.610  1.00  0.00     0.202 C 
BRANCH  30  31
ATOM     31  C   UNL A   1      48.633  26.141  38.903  1.00  0.00     0.261 C 
BRANCH  31  32
ATOM     32  O   UNL A   1      48.105  26.920  37.847  1.00  0.00    -0.460 OA
BRANCH  32  33
ATOM     33  C   UNL A   1      47.711  28.154  38.232  1.00  0.00     0.338 C 
ATOM     34  O   UNL A   1      48.257  28.910  39.014  1.00  0.00    -0.246 OA
BRANCH  33  35
ATOM     35  C   UNL A   1      46.574  28.501  37.382  1.00  0.00     0.060 A 
ATOM     36  C   UNL A   1      45.396  27.750  37.426  1.00  0.00     0.016 A 
ATOM     37  C   UNL A   1      46.738  29.561  36.488  1.00  0.00     0.016 A 
ATOM     38  C   UNL A   1      44.350  28.093  36.578  1.00  0.00     0.010 A 
ATOM     39  C   UNL A   1      45.691  29.903  35.645  1.00  0.00     0.010 A 
ATOM     40  C   UNL A   1      44.487  29.187  35.707  1.00  0.00    -0.014 A 
BRANCH  40  41
ATOM     41  C   UNL A   1      43.317  29.696  34.967  1.00  0.00     0.031 A 
ATOM     42  C   UNL A   1      43.032  29.253  33.569  1.00  0.00     0.074 A 
ATOM     43  C   UNL A   1      42.564  30.629  35.578  1.00  0.00     0.049 A 
ATOM     44  N   UNL A   1      42.070  29.632  32.773  1.00  0.00    -0.248 NA
ATOM     45  C   UNL A   1      43.951  28.264  32.982  1.00  0.00     0.031 C 
ATOM     46  C   UNL A   1      42.805  31.145  36.929  1.00  0.00     0.029 A 
ATOM     47  N   UNL A   1      41.460  31.312  35.152  1.00  0.00    -0.354 N 
ATOM     48  C   UNL A   1      42.257  28.928  31.591  1.00  0.00     0.074 A 
ATOM     49  C   UNL A   1      43.452  28.128  31.761  1.00  0.00     0.031 C 
ATOM     50  C   UNL A   1      41.863  32.051  37.227  1.00  0.00     0.029 A 
ATOM     51  C   UNL A   1      40.982  32.208  36.077  1.00  0.00     0.049 A 
ATOM     52  H   UNL A   1      41.047  31.177  34.267  1.00  0.00     0.167 HD
ATOM     53  C   UNL A   1      41.486  28.948  30.478  1.00  0.00     0.037 A 
ATOM     54  C   UNL A   1      39.951  33.070  35.999  1.00  0.00     0.037 A 
ATOM     55  C   UNL A   1      40.310  29.771  30.338  1.00  0.00     0.049 A 
ATOM     56  C   UNL A   1      39.134  33.094  34.740  1.00  0.00     0.074 A 
ATOM     57  C   UNL A   1      39.432  29.840  29.270  1.00  0.00     0.029 A 
ATOM     58  N   UNL A   1      39.854  30.675  31.289  1.00  0.00    -0.354 N 
ATOM     59  N   UNL A   1      39.280  32.373  33.653  1.00  0.00    -0.248 NA
ATOM     60  C   UNL A   1      38.013  34.041  34.694  1.00  0.00     0.031 C 
ATOM     61  C   UNL A   1      38.481  30.827  29.552  1.00  0.00     0.029 A 
ATOM     62  C   UNL A   1      38.727  31.330  30.820  1.00  0.00     0.049 A 
ATOM     63  H   UNL A   1      40.271  30.828  32.168  1.00  0.00     0.167 HD
ATOM     64  C   UNL A   1      38.260  32.768  32.797  1.00  0.00     0.074 A 
ATOM     65  C   UNL A   1      37.493  33.776  33.503  1.00  0.00     0.031 C 
ATOM     66  C   UNL A   1      37.985  32.338  31.540  1.00  0.00     0.037 A 
BRANCH  53  67
ATOM     67  C   UNL A   1      41.883  28.063  29.328  1.00  0.00     0.058 A 
ATOM     68  C   UNL A   1      41.152  26.908  29.005  1.00  0.00     0.135 A 
ATOM     69  C   UNL A   1      42.966  28.403  28.501  1.00  0.00     0.135 A 
ATOM     70  F   UNL A   1      40.116  26.527  29.768  1.00  0.00    -0.206 F 
ATOM     71  C   UNL A   1      41.491  26.113  27.915  1.00  0.00     0.059 A 
ATOM     72  C   UNL A   1      43.307  27.636  27.389  1.00  0.00     0.059 A 
ATOM     73  F   UNL A   1      43.701  29.494  28.764  1.00  0.00    -0.206 F 
ATOM     74  C   UNL A   1      42.569  26.488  27.110  1.00  0.00     0.060 A 
BRANCH  74  75
ATOM     75  S   UNL A   1      42.985  25.447  25.695  1.00  0.00     0.124 S 
ATOM     76  O   UNL A   1      42.419  24.163  26.100  1.00  0.00    -0.237 OA
ATOM     77  O   UNL A   1      42.297  26.124  24.601  1.00  0.00    -0.237 OA
ATOM     78  O   UNL A   1      44.442  25.501  25.646  1.00  0.00    -0.744 OA
ENDBRANCH  74  75
ENDBRANCH  53  67
BRANCH  54  79
ATOM     79  C   UNL A   1      39.636  33.941  37.160  1.00  0.00     0.058 A 
ATOM     80  C   UNL A   1      38.922  33.441  38.258  1.00  0.00     0.135 A 
ATOM     81  C   UNL A   1      40.096  35.266  37.226  1.00  0.00     0.135 A 
ATOM     82  F   UNL A   1      38.463  32.180  38.242  1.00  0.00    -0.206 F 
ATOM     83  C   UNL A   1      38.669  34.225  39.378  1.00  0.00     0.059 A 
ATOM     84  C   UNL A   1      39.879  36.061  38.347  1.00  0.00     0.059 A 
ATOM     85  F   UNL A   1      40.804  35.783  36.209  1.00  0.00    -0.206 F 
ATOM     86  C   UNL A   1      39.160  35.532  39.417  1.00  0.00     0.060 A 
BRANCH  86  87
ATOM     87  S   UNL A   1      38.876  36.514  40.904  1.00  0.00     0.124 S 
ATOM     88  O   UNL A   1      37.841  35.738  41.577  1.00  0.00    -0.237 OA
ATOM     89  O   UNL A   1      40.194  36.502  41.532  1.00  0.00    -0.237 OA
ATOM     90  O   UNL A   1      38.452  37.808  40.379  1.00  0.00    -0.744 OA
ENDBRANCH  86  87
ENDBRANCH  54  79
BRANCH  66  91
ATOM     91  C   UNL A   1      36.801  32.953  30.847  1.00  0.00     0.058 A 
ATOM     92  C   UNL A   1      35.486  32.642  31.224  1.00  0.00     0.135 A 
ATOM     93  C   UNL A   1      36.987  33.915  29.840  1.00  0.00     0.135 A 
ATOM     94  F   UNL A   1      35.255  31.723  32.175  1.00  0.00    -0.206 F 
ATOM     95  C   UNL A   1      34.394  33.251  30.617  1.00  0.00     0.059 A 
ATOM     96  C   UNL A   1      35.910  34.559  29.241  1.00  0.00     0.059 A 
ATOM     97  F   UNL A   1      38.225  34.254  29.447  1.00  0.00    -0.206 F 
ATOM     98  C   UNL A   1      34.617  34.215  29.632  1.00  0.00     0.060 A 
BRANCH  98  99
ATOM     99  S   UNL A   1      33.189  35.030  28.888  1.00  0.00     0.124 S 
ATOM    100  O   UNL A   1      32.329  35.238  30.048  1.00  0.00    -0.237 OA
ATOM    101  O   UNL A   1      33.783  36.233  28.315  1.00  0.00    -0.237 OA
ATOM    102  O   UNL A   1      32.706  34.052  27.917  1.00  0.00    -0.744 OA
ENDBRANCH  98  99
ENDBRANCH  66  91
ENDBRANCH  40  41
ENDBRANCH  33  35
ENDBRANCH  32  33
ENDBRANCH  31  32
ENDBRANCH  30  31
ENDBRANCH   1  30
TORSDOF 21
ENDMDL
