MODEL 1
REMARK VINA RESULT:     -10.8      0.000      0.000
REMARK SMILES CC[C@](C)(NC(=O)N(C)Cc1cccc(C)c1)C(=O)OCCOCCOC(=O)c1ccc(-c2c3nc(c(-c4c(F)cc(S(=O)(=O)[O-])cc4F)c4ccc([nH]4)c(-c4c(F)cc(S(=O)(=O)[O-])cc4F)c4nc(c(-c5c(F)cc(S(=O)(=O)[O-])cc5F)c5ccc2[nH]5)C=C4)C=C3)cc1
REMARK SMILES IDX 22 1 21 2 20 3 18 4 19 5 3 6 4 7 2 8 1 9 5 10 6 11 7 13 8 14
REMARK SMILES IDX 9 15 10 16 11 17 12 18 17 19 13 20 15 21 14 22 16 23 23 24
REMARK SMILES IDX 24 25 25 26 26 27 27 28 28 29 29 30 30 31 94 32 31 33 93 34
REMARK SMILES IDX 32 35 33 36 34 37 87 38 35 39 92 40 86 41 88 42 36 43 91 44
REMARK SMILES IDX 85 45 84 46 37 48 71 49 50 50 70 51 51 52 54 53 69 54 89 55
REMARK SMILES IDX 52 56 53 57 68 59 90 60 55 61 38 62 39 63 48 64 40 65 41 66
REMARK SMILES IDX 47 67 49 68 42 69 43 70 44 71 45 72 46 73 72 74 73 75 82 76
REMARK SMILES IDX 74 77 75 78 81 79 83 80 76 81 77 82 78 83 79 84 80 85 56 86
REMARK SMILES IDX 57 87 66 88 58 89 59 90 65 91 67 92 60 93 61 94 62 95 63 96
REMARK SMILES IDX 64 97
REMARK H PARENT 5 12 88 47 54 58
REMARK Flexibility Score: inf
ROOT
ATOM      1  C   UNL A   1      34.246  21.868  24.579  1.00  0.00     0.202 C 
ENDROOT
BRANCH   1   2
ATOM      2  C   UNL A   1      33.574  22.107  25.883  1.00  0.00     0.261 C 
BRANCH   2   3
ATOM      3  O   UNL A   1      32.200  22.441  25.745  1.00  0.00    -0.462 OA
BRANCH   3   4
ATOM      4  C   UNL A   1      31.797  23.577  26.352  1.00  0.00     0.331 C 
ATOM      5  O   UNL A   1      31.609  23.711  27.554  1.00  0.00    -0.249 OA
BRANCH   4   6
ATOM      6  C   UNL A   1      31.504  24.644  25.284  1.00  0.00     0.136 C 
ATOM      7  C   UNL A   1      30.316  25.473  25.790  1.00  0.00     0.047 C 
BRANCH   6   8
ATOM      8  C   UNL A   1      31.182  23.856  23.980  1.00  0.00     0.037 C 
ATOM      9  C   UNL A   1      30.018  24.349  23.130  1.00  0.00     0.007 C 
ENDBRANCH   6   8
BRANCH   6  10
ATOM     10  N   UNL A   1      32.695  25.520  24.929  1.00  0.00    -0.322 N 
ATOM     11  C   UNL A   1      32.718  26.554  24.026  1.00  0.00     0.318 C 
ATOM     12  H   UNL A   1      33.540  25.325  25.397  1.00  0.00     0.166 HD
ATOM     13  O   UNL A   1      32.836  26.274  22.835  1.00  0.00    -0.249 OA
BRANCH  11  14
ATOM     14  N   UNL A   1      32.844  27.839  24.546  1.00  0.00    -0.324 N 
ATOM     15  C   UNL A   1      33.965  28.690  24.151  1.00  0.00     0.149 C 
BRANCH  14  16
ATOM     16  C   UNL A   1      31.686  28.590  25.093  1.00  0.00     0.156 C 
BRANCH  16  17
ATOM     17  C   UNL A   1      30.543  29.047  24.191  1.00  0.00    -0.028 A 
ATOM     18  C   UNL A   1      29.804  28.095  23.456  1.00  0.00     0.005 A 
ATOM     19  C   UNL A   1      30.101  30.376  24.137  1.00  0.00     0.009 A 
ATOM     20  C   UNL A   1      28.669  28.460  22.718  1.00  0.00     0.001 A 
ATOM     21  C   UNL A   1      29.005  30.766  23.346  1.00  0.00    -0.051 A 
ATOM     22  C   UNL A   1      28.262  29.792  22.672  1.00  0.00     0.003 A 
ATOM     23  C   UNL A   1      28.680  32.223  23.184  1.00  0.00     0.044 C 
ENDBRANCH  16  17
ENDBRANCH  14  16
ENDBRANCH  11  14
ENDBRANCH   6  10
ENDBRANCH   4   6
ENDBRANCH   3   4
ENDBRANCH   2   3
ENDBRANCH   1   2
BRANCH   1  24
ATOM     24  O   UNL A   1      34.716  23.138  24.142  1.00  0.00    -0.374 OA
BRANCH  24  25
ATOM     25  C   UNL A   1      35.635  23.744  25.022  1.00  0.00     0.202 C 
BRANCH  25  26
ATOM     26  C   UNL A   1      37.045  23.140  24.954  1.00  0.00     0.261 C 
BRANCH  26  27
ATOM     27  O   UNL A   1      37.515  22.592  26.198  1.00  0.00    -0.460 OA
BRANCH  27  28
ATOM     28  C   UNL A   1      38.871  22.691  26.412  1.00  0.00     0.338 C 
ATOM     29  O   UNL A   1      39.622  21.755  26.516  1.00  0.00    -0.246 OA
BRANCH  28  30
ATOM     30  C   UNL A   1      39.228  24.138  26.553  1.00  0.00     0.060 A 
ATOM     31  C   UNL A   1      40.074  24.803  25.642  1.00  0.00     0.016 A 
ATOM     32  C   UNL A   1      38.940  24.718  27.778  1.00  0.00     0.016 A 
ATOM     33  C   UNL A   1      40.729  25.997  26.018  1.00  0.00     0.010 A 
ATOM     34  C   UNL A   1      39.728  25.753  28.197  1.00  0.00     0.010 A 
ATOM     35  C   UNL A   1      40.605  26.436  27.329  1.00  0.00    -0.014 A 
BRANCH  35  36
ATOM     36  C   UNL A   1      41.301  27.528  28.034  1.00  0.00     0.031 A 
ATOM     37  C   UNL A   1      40.446  28.727  28.292  1.00  0.00     0.074 A 
ATOM     38  C   UNL A   1      42.381  27.260  28.821  1.00  0.00     0.049 A 
ATOM     39  N   UNL A   1      40.750  29.691  29.075  1.00  0.00    -0.248 NA
ATOM     40  C   UNL A   1      39.105  28.891  27.722  1.00  0.00     0.031 C 
ATOM     41  C   UNL A   1      42.736  27.865  30.109  1.00  0.00     0.029 A 
ATOM     42  N   UNL A   1      43.433  26.355  28.619  1.00  0.00    -0.354 N 
ATOM     43  C   UNL A   1      39.600  30.390  29.381  1.00  0.00     0.074 A 
ATOM     44  C   UNL A   1      38.609  29.872  28.478  1.00  0.00     0.031 C 
ATOM     45  C   UNL A   1      44.009  27.554  30.423  1.00  0.00     0.029 A 
ATOM     46  C   UNL A   1      44.569  26.836  29.289  1.00  0.00     0.049 A 
ATOM     47  H   UNL A   1      43.383  25.522  28.096  1.00  0.00     0.167 HD
ATOM     48  C   UNL A   1      39.648  31.239  30.448  1.00  0.00     0.037 A 
ATOM     49  C   UNL A   1      45.678  27.135  28.558  1.00  0.00     0.037 A 
ATOM     50  C   UNL A   1      41.057  31.384  30.878  1.00  0.00     0.049 A 
ATOM     51  C   UNL A   1      45.820  28.632  28.580  1.00  0.00     0.074 A 
ATOM     52  C   UNL A   1      41.793  30.904  31.948  1.00  0.00     0.029 A 
ATOM     53  N   UNL A   1      42.002  31.787  29.923  1.00  0.00    -0.354 N 
ATOM     54  N   UNL A   1      44.821  29.418  28.884  1.00  0.00    -0.248 NA
ATOM     55  C   UNL A   1      47.070  29.364  28.417  1.00  0.00     0.031 C 
ATOM     56  C   UNL A   1      43.174  30.906  31.569  1.00  0.00     0.029 A 
ATOM     57  C   UNL A   1      43.288  31.412  30.279  1.00  0.00     0.049 A 
ATOM     58  H   UNL A   1      41.779  32.280  29.101  1.00  0.00     0.167 HD
ATOM     59  C   UNL A   1      45.256  30.689  29.035  1.00  0.00     0.074 A 
ATOM     60  C   UNL A   1      46.668  30.620  28.691  1.00  0.00     0.031 C 
ATOM     61  C   UNL A   1      44.420  31.704  29.393  1.00  0.00     0.037 A 
BRANCH  48  62
ATOM     62  C   UNL A   1      38.446  31.812  31.202  1.00  0.00     0.058 A 
ATOM     63  C   UNL A   1      37.679  32.858  30.637  1.00  0.00     0.135 A 
ATOM     64  C   UNL A   1      38.001  31.428  32.490  1.00  0.00     0.135 A 
ATOM     65  F   UNL A   1      37.964  33.350  29.423  1.00  0.00    -0.206 F 
ATOM     66  C   UNL A   1      36.586  33.457  31.284  1.00  0.00     0.059 A 
ATOM     67  C   UNL A   1      36.927  32.021  33.164  1.00  0.00     0.059 A 
ATOM     68  F   UNL A   1      38.556  30.435  33.181  1.00  0.00    -0.206 F 
ATOM     69  C   UNL A   1      36.211  33.028  32.548  1.00  0.00     0.060 A 
BRANCH  69  70
ATOM     70  S   UNL A   1      34.774  33.755  33.357  1.00  0.00     0.124 S 
ATOM     71  O   UNL A   1      33.676  32.968  32.806  1.00  0.00    -0.237 OA
ATOM     72  O   UNL A   1      35.074  33.529  34.766  1.00  0.00    -0.237 OA
ATOM     73  O   UNL A   1      34.808  35.152  32.931  1.00  0.00    -0.744 OA
ENDBRANCH  69  70
ENDBRANCH  48  62
BRANCH  49  74
ATOM     74  C   UNL A   1      45.859  26.136  27.445  1.00  0.00     0.058 A 
ATOM     75  C   UNL A   1      46.253  24.833  27.840  1.00  0.00     0.135 A 
ATOM     76  C   UNL A   1      45.135  26.228  26.243  1.00  0.00     0.135 A 
ATOM     77  F   UNL A   1      46.953  24.663  28.976  1.00  0.00    -0.206 F 
ATOM     78  C   UNL A   1      45.792  23.682  27.195  1.00  0.00     0.059 A 
ATOM     79  C   UNL A   1      44.651  25.082  25.590  1.00  0.00     0.059 A 
ATOM     80  F   UNL A   1      44.734  27.424  25.791  1.00  0.00    -0.206 F 
ATOM     81  C   UNL A   1      44.912  23.820  26.126  1.00  0.00     0.060 A 
BRANCH  81  82
ATOM     82  S   UNL A   1      44.005  22.362  25.533  1.00  0.00     0.124 S 
ATOM     83  O   UNL A   1      43.061  22.102  26.616  1.00  0.00    -0.237 OA
ATOM     84  O   UNL A   1      43.400  22.865  24.304  1.00  0.00    -0.237 OA
ATOM     85  O   UNL A   1      45.055  21.367  25.360  1.00  0.00    -0.744 OA
ENDBRANCH  81  82
ENDBRANCH  49  74
BRANCH  61  86
ATOM     86  C   UNL A   1      44.665  33.097  28.902  1.00  0.00     0.058 A 
ATOM     87  C   UNL A   1      45.329  34.066  29.680  1.00  0.00     0.135 A 
ATOM     88  C   UNL A   1      44.398  33.450  27.564  1.00  0.00     0.135 A 
ATOM     89  F   UNL A   1      45.778  33.798  30.915  1.00  0.00    -0.206 F 
ATOM     90  C   UNL A   1      45.587  35.341  29.207  1.00  0.00     0.059 A 
ATOM     91  C   UNL A   1      44.728  34.692  27.045  1.00  0.00     0.059 A 
ATOM     92  F   UNL A   1      43.820  32.592  26.711  1.00  0.00    -0.206 F 
ATOM     93  C   UNL A   1      45.271  35.649  27.891  1.00  0.00     0.060 A 
BRANCH  93  94
ATOM     94  S   UNL A   1      45.564  37.314  27.297  1.00  0.00     0.124 S 
ATOM     95  O   UNL A   1      46.196  37.919  28.466  1.00  0.00    -0.237 OA
ATOM     96  O   UNL A   1      46.438  37.096  26.148  1.00  0.00    -0.237 OA
ATOM     97  O   UNL A   1      44.225  37.798  26.978  1.00  0.00    -0.744 OA
ENDBRANCH  93  94
ENDBRANCH  61  86
ENDBRANCH  35  36
ENDBRANCH  28  30
ENDBRANCH  27  28
ENDBRANCH  26  27
ENDBRANCH  25  26
ENDBRANCH  24  25
ENDBRANCH   1  24
TORSDOF 22
ENDMDL
MODEL 2
REMARK VINA RESULT:     -10.6      1.331      2.206
REMARK SMILES CC[C@](C)(NC(=O)N(C)Cc1cccc(C)c1)C(=O)OCCOCCOC(=O)c1ccc(-c2c3nc(c(-c4c(F)cc(S(=O)(=O)[O-])cc4F)c4ccc([nH]4)c(-c4c(F)cc(S(=O)(=O)[O-])cc4F)c4nc(c(-c5c(F)cc(S(=O)(=O)[O-])cc5F)c5ccc2[nH]5)C=C4)C=C3)cc1
REMARK SMILES IDX 22 1 21 2 20 3 18 4 19 5 3 6 4 7 2 8 1 9 5 10 6 11 7 13 8 14
REMARK SMILES IDX 9 15 10 16 11 17 12 18 17 19 13 20 15 21 14 22 16 23 23 24
REMARK SMILES IDX 24 25 25 26 26 27 27 28 28 29 29 30 30 31 94 32 31 33 93 34
REMARK SMILES IDX 32 35 33 36 34 37 87 38 35 39 92 40 86 41 88 42 36 43 91 44
REMARK SMILES IDX 85 45 84 46 37 48 71 49 50 50 70 51 51 52 54 53 69 54 89 55
REMARK SMILES IDX 52 56 53 57 68 59 90 60 55 61 38 62 39 63 48 64 40 65 41 66
REMARK SMILES IDX 47 67 49 68 42 69 43 70 44 71 45 72 46 73 72 74 73 75 82 76
REMARK SMILES IDX 74 77 75 78 81 79 83 80 76 81 77 82 78 83 79 84 80 85 56 86
REMARK SMILES IDX 57 87 66 88 58 89 59 90 65 91 67 92 60 93 61 94 62 95 63 96
REMARK SMILES IDX 64 97
REMARK H PARENT 5 12 88 47 54 58
REMARK Flexibility Score: inf
ROOT
ATOM      1  C   UNL A   1      35.059  19.274  24.868  1.00  0.00     0.202 C 
ENDROOT
BRANCH   1   2
ATOM      2  C   UNL A   1      33.624  19.660  24.923  1.00  0.00     0.261 C 
BRANCH   2   3
ATOM      3  O   UNL A   1      33.336  20.830  24.172  1.00  0.00    -0.462 OA
BRANCH   3   4
ATOM      4  C   UNL A   1      32.268  21.550  24.572  1.00  0.00     0.331 C 
ATOM      5  O   UNL A   1      31.409  21.169  25.358  1.00  0.00    -0.249 OA
BRANCH   4   6
ATOM      6  C   UNL A   1      32.238  22.881  23.802  1.00  0.00     0.136 C 
ATOM      7  C   UNL A   1      32.596  22.566  22.344  1.00  0.00     0.047 C 
BRANCH   6   8
ATOM      8  C   UNL A   1      33.288  23.794  24.501  1.00  0.00     0.037 C 
ATOM      9  C   UNL A   1      34.567  24.109  23.735  1.00  0.00     0.007 C 
ENDBRANCH   6   8
BRANCH   6  10
ATOM     10  N   UNL A   1      30.924  23.639  23.912  1.00  0.00    -0.322 N 
ATOM     11  C   UNL A   1      30.683  24.768  24.656  1.00  0.00     0.318 C 
ATOM     12  H   UNL A   1      30.166  23.284  23.393  1.00  0.00     0.166 HD
ATOM     13  O   UNL A   1      30.459  24.627  25.857  1.00  0.00    -0.249 OA
BRANCH  11  14
ATOM     14  N   UNL A   1      30.479  25.952  23.953  1.00  0.00    -0.324 N 
ATOM     15  C   UNL A   1      29.164  26.592  23.949  1.00  0.00     0.149 C 
BRANCH  14  16
ATOM     16  C   UNL A   1      31.592  26.870  23.604  1.00  0.00     0.156 C 
BRANCH  16  17
ATOM     17  C   UNL A   1      31.976  28.030  24.518  1.00  0.00    -0.028 A 
ATOM     18  C   UNL A   1      31.219  29.221  24.499  1.00  0.00     0.005 A 
ATOM     19  C   UNL A   1      32.993  27.938  25.478  1.00  0.00     0.009 A 
ATOM     20  C   UNL A   1      31.461  30.258  25.410  1.00  0.00     0.001 A 
ATOM     21  C   UNL A   1      33.291  28.998  26.354  1.00  0.00    -0.051 A 
ATOM     22  C   UNL A   1      32.488  30.143  26.345  1.00  0.00     0.003 A 
ATOM     23  C   UNL A   1      34.499  28.918  27.242  1.00  0.00     0.044 C 
ENDBRANCH  16  17
ENDBRANCH  14  16
ENDBRANCH  11  14
ENDBRANCH   6  10
ENDBRANCH   4   6
ENDBRANCH   3   4
ENDBRANCH   2   3
ENDBRANCH   1   2
BRANCH   1  24
ATOM     24  O   UNL A   1      35.777  20.475  24.607  1.00  0.00    -0.374 OA
BRANCH  24  25
ATOM     25  C   UNL A   1      36.946  20.625  25.379  1.00  0.00     0.202 C 
BRANCH  25  26
ATOM     26  C   UNL A   1      37.183  22.062  25.867  1.00  0.00     0.261 C 
BRANCH  26  27
ATOM     27  O   UNL A   1      38.488  22.585  25.561  1.00  0.00    -0.460 OA
BRANCH  27  28
ATOM     28  C   UNL A   1      39.308  22.799  26.645  1.00  0.00     0.338 C 
ATOM     29  O   UNL A   1      39.759  21.931  27.348  1.00  0.00    -0.246 OA
BRANCH  28  30
ATOM     30  C   UNL A   1      39.484  24.274  26.828  1.00  0.00     0.060 A 
ATOM     31  C   UNL A   1      40.174  25.077  25.896  1.00  0.00     0.016 A 
ATOM     32  C   UNL A   1      39.206  24.766  28.092  1.00  0.00     0.016 A 
ATOM     33  C   UNL A   1      40.692  26.332  26.284  1.00  0.00     0.010 A 
ATOM     34  C   UNL A   1      39.880  25.880  28.507  1.00  0.00     0.010 A 
ATOM     35  C   UNL A   1      40.601  26.704  27.618  1.00  0.00    -0.014 A 
BRANCH  35  36
ATOM     36  C   UNL A   1      41.196  27.852  28.327  1.00  0.00     0.031 A 
ATOM     37  C   UNL A   1      40.284  29.029  28.449  1.00  0.00     0.074 A 
ATOM     38  C   UNL A   1      42.210  27.659  29.217  1.00  0.00     0.049 A 
ATOM     39  N   UNL A   1      40.486  30.039  29.207  1.00  0.00    -0.248 NA
ATOM     40  C   UNL A   1      38.994  29.118  27.757  1.00  0.00     0.031 C 
ATOM     41  C   UNL A   1      42.429  28.336  30.499  1.00  0.00     0.029 A 
ATOM     42  N   UNL A   1      43.304  26.785  29.153  1.00  0.00    -0.354 N 
ATOM     43  C   UNL A   1      39.291  30.709  29.377  1.00  0.00     0.074 A 
ATOM     44  C   UNL A   1      38.401  30.114  28.418  1.00  0.00     0.031 C 
ATOM     45  C   UNL A   1      43.678  28.087  30.939  1.00  0.00     0.029 A 
ATOM     46  C   UNL A   1      44.360  27.337  29.895  1.00  0.00     0.049 A 
ATOM     47  H   UNL A   1      43.328  25.928  28.669  1.00  0.00     0.167 HD
ATOM     48  C   UNL A   1      39.216  31.608  30.401  1.00  0.00     0.037 A 
ATOM     49  C   UNL A   1      45.520  27.643  29.250  1.00  0.00     0.037 A 
ATOM     50  C   UNL A   1      40.576  31.823  30.945  1.00  0.00     0.049 A 
ATOM     51  C   UNL A   1      45.611  29.143  29.211  1.00  0.00     0.074 A 
ATOM     52  C   UNL A   1      41.228  31.420  32.098  1.00  0.00     0.029 A 
ATOM     53  N   UNL A   1      41.588  32.217  30.058  1.00  0.00    -0.354 N 
ATOM     54  N   UNL A   1      44.564  29.905  29.387  1.00  0.00    -0.248 NA
ATOM     55  C   UNL A   1      46.846  29.912  29.121  1.00  0.00     0.031 C 
ATOM     56  C   UNL A   1      42.637  31.456  31.841  1.00  0.00     0.029 A 
ATOM     57  C   UNL A   1      42.849  31.905  30.542  1.00  0.00     0.049 A 
ATOM     58  H   UNL A   1      41.424  32.662  29.196  1.00  0.00     0.167 HD
ATOM     59  C   UNL A   1      44.942  31.198  29.512  1.00  0.00     0.074 A 
ATOM     60  C   UNL A   1      46.381  31.164  29.297  1.00  0.00     0.031 C 
ATOM     61  C   UNL A   1      44.046  32.197  29.745  1.00  0.00     0.037 A 
BRANCH  48  62
ATOM     62  C   UNL A   1      37.934  32.170  31.017  1.00  0.00     0.058 A 
ATOM     63  C   UNL A   1      37.248  33.238  30.393  1.00  0.00     0.135 A 
ATOM     64  C   UNL A   1      37.332  31.757  32.231  1.00  0.00     0.135 A 
ATOM     65  F   UNL A   1      37.682  33.761  29.236  1.00  0.00    -0.206 F 
ATOM     66  C   UNL A   1      36.087  33.829  30.917  1.00  0.00     0.059 A 
ATOM     67  C   UNL A   1      36.187  32.340  32.784  1.00  0.00     0.059 A 
ATOM     68  F   UNL A   1      37.793  30.740  32.956  1.00  0.00    -0.206 F 
ATOM     69  C   UNL A   1      35.557  33.370  32.114  1.00  0.00     0.060 A 
BRANCH  69  70
ATOM     70  S   UNL A   1      34.036  34.087  32.760  1.00  0.00     0.124 S 
ATOM     71  O   UNL A   1      34.533  34.999  33.785  1.00  0.00    -0.237 OA
ATOM     72  O   UNL A   1      33.469  34.714  31.571  1.00  0.00    -0.237 OA
ATOM     73  O   UNL A   1      33.297  32.933  33.265  1.00  0.00    -0.744 OA
ENDBRANCH  69  70
ENDBRANCH  48  62
BRANCH  49  74
ATOM     74  C   UNL A   1      45.831  26.601  28.207  1.00  0.00     0.058 A 
ATOM     75  C   UNL A   1      46.110  25.300  28.697  1.00  0.00     0.135 A 
ATOM     76  C   UNL A   1      45.304  26.675  26.907  1.00  0.00     0.135 A 
ATOM     77  F   UNL A   1      46.620  25.146  29.931  1.00  0.00    -0.206 F 
ATOM     78  C   UNL A   1      45.710  24.143  28.021  1.00  0.00     0.059 A 
ATOM     79  C   UNL A   1      44.882  25.524  26.219  1.00  0.00     0.059 A 
ATOM     80  F   UNL A   1      45.022  27.868  26.363  1.00  0.00    -0.206 F 
ATOM     81  C   UNL A   1      45.010  24.273  26.826  1.00  0.00     0.060 A 
BRANCH  81  82
ATOM     82  S   UNL A   1      44.150  22.826  26.143  1.00  0.00     0.124 S 
ATOM     83  O   UNL A   1      45.228  21.856  25.974  1.00  0.00    -0.237 OA
ATOM     84  O   UNL A   1      43.205  22.509  27.208  1.00  0.00    -0.237 OA
ATOM     85  O   UNL A   1      43.566  23.340  24.911  1.00  0.00    -0.744 OA
ENDBRANCH  81  82
ENDBRANCH  49  74
BRANCH  61  86
ATOM     86  C   UNL A   1      44.288  33.574  29.210  1.00  0.00     0.058 A 
ATOM     87  C   UNL A   1      44.700  34.641  30.031  1.00  0.00     0.135 A 
ATOM     88  C   UNL A   1      44.288  33.820  27.822  1.00  0.00     0.135 A 
ATOM     89  F   UNL A   1      44.894  34.489  31.349  1.00  0.00    -0.206 F 
ATOM     90  C   UNL A   1      44.960  35.903  29.525  1.00  0.00     0.059 A 
ATOM     91  C   UNL A   1      44.630  35.053  27.288  1.00  0.00     0.059 A 
ATOM     92  F   UNL A   1      43.968  32.866  26.936  1.00  0.00    -0.206 F 
ATOM     93  C   UNL A   1      44.910  36.102  28.152  1.00  0.00     0.060 A 
BRANCH  93  94
ATOM     94  S   UNL A   1      45.202  37.748  27.505  1.00  0.00     0.124 S 
ATOM     95  O   UNL A   1      46.097  37.454  26.389  1.00  0.00    -0.237 OA
ATOM     96  O   UNL A   1      43.860  38.192  27.137  1.00  0.00    -0.237 OA
ATOM     97  O   UNL A   1      45.803  38.451  28.632  1.00  0.00    -0.744 OA
ENDBRANCH  93  94
ENDBRANCH  61  86
ENDBRANCH  35  36
ENDBRANCH  28  30
ENDBRANCH  27  28
ENDBRANCH  26  27
ENDBRANCH  25  26
ENDBRANCH  24  25
ENDBRANCH   1  24
TORSDOF 22
ENDMDL
MODEL 3
REMARK VINA RESULT:     -10.5      1.529      2.591
REMARK SMILES CC[C@](C)(NC(=O)N(C)Cc1cccc(C)c1)C(=O)OCCOCCOC(=O)c1ccc(-c2c3nc(c(-c4c(F)cc(S(=O)(=O)[O-])cc4F)c4ccc([nH]4)c(-c4c(F)cc(S(=O)(=O)[O-])cc4F)c4nc(c(-c5c(F)cc(S(=O)(=O)[O-])cc5F)c5ccc2[nH]5)C=C4)C=C3)cc1
REMARK SMILES IDX 22 1 21 2 20 3 18 4 19 5 3 6 4 7 2 8 1 9 5 10 6 11 7 13 8 14
REMARK SMILES IDX 9 15 10 16 11 17 12 18 17 19 13 20 15 21 14 22 16 23 23 24
REMARK SMILES IDX 24 25 25 26 26 27 27 28 28 29 29 30 30 31 94 32 31 33 93 34
REMARK SMILES IDX 32 35 33 36 34 37 87 38 35 39 92 40 86 41 88 42 36 43 91 44
REMARK SMILES IDX 85 45 84 46 37 48 71 49 50 50 70 51 51 52 54 53 69 54 89 55
REMARK SMILES IDX 52 56 53 57 68 59 90 60 55 61 38 62 39 63 48 64 40 65 41 66
REMARK SMILES IDX 47 67 49 68 42 69 43 70 44 71 45 72 46 73 72 74 73 75 82 76
REMARK SMILES IDX 74 77 75 78 81 79 83 80 76 81 77 82 78 83 79 84 80 85 56 86
REMARK SMILES IDX 57 87 66 88 58 89 59 90 65 91 67 92 60 93 61 94 62 95 63 96
REMARK SMILES IDX 64 97
REMARK H PARENT 5 12 88 47 54 58
REMARK Flexibility Score: inf
ROOT
ATOM      1  C   UNL A   1      34.787  22.666  25.594  1.00  0.00     0.202 C 
ENDROOT
BRANCH   1   2
ATOM      2  C   UNL A   1      33.970  23.255  26.688  1.00  0.00     0.261 C 
BRANCH   2   3
ATOM      3  O   UNL A   1      33.278  24.429  26.291  1.00  0.00    -0.462 OA
BRANCH   3   4
ATOM      4  C   UNL A   1      31.954  24.459  26.547  1.00  0.00     0.331 C 
ATOM      5  O   UNL A   1      31.424  24.103  27.592  1.00  0.00    -0.249 OA
BRANCH   4   6
ATOM      6  C   UNL A   1      31.204  24.907  25.281  1.00  0.00     0.136 C 
ATOM      7  C   UNL A   1      29.772  25.255  25.705  1.00  0.00     0.047 C 
BRANCH   6   8
ATOM      8  C   UNL A   1      31.270  23.696  24.304  1.00  0.00     0.037 C 
ATOM      9  C   UNL A   1      30.470  23.792  23.011  1.00  0.00     0.007 C 
ENDBRANCH   6   8
BRANCH   6  10
ATOM     10  N   UNL A   1      31.867  26.052  24.532  1.00  0.00    -0.322 N 
ATOM     11  C   UNL A   1      31.869  27.379  24.887  1.00  0.00     0.318 C 
ATOM     12  H   UNL A   1      32.347  25.817  23.704  1.00  0.00     0.166 HD
ATOM     13  O   UNL A   1      30.877  28.049  24.608  1.00  0.00    -0.249 OA
BRANCH  11  14
ATOM     14  N   UNL A   1      33.081  27.911  25.318  1.00  0.00    -0.324 N 
ATOM     15  C   UNL A   1      33.889  28.734  24.419  1.00  0.00     0.149 C 
BRANCH  14  16
ATOM     16  C   UNL A   1      33.392  28.113  26.755  1.00  0.00     0.156 C 
BRANCH  16  17
ATOM     17  C   UNL A   1      34.132  29.358  27.237  1.00  0.00    -0.028 A 
ATOM     18  C   UNL A   1      35.521  29.302  27.477  1.00  0.00     0.005 A 
ATOM     19  C   UNL A   1      33.516  30.612  27.350  1.00  0.00     0.009 A 
ATOM     20  C   UNL A   1      36.257  30.452  27.797  1.00  0.00     0.001 A 
ATOM     21  C   UNL A   1      34.230  31.762  27.736  1.00  0.00    -0.051 A 
ATOM     22  C   UNL A   1      35.615  31.683  27.914  1.00  0.00     0.003 A 
ATOM     23  C   UNL A   1      33.495  33.042  28.012  1.00  0.00     0.044 C 
ENDBRANCH  16  17
ENDBRANCH  14  16
ENDBRANCH  11  14
ENDBRANCH   6  10
ENDBRANCH   4   6
ENDBRANCH   3   4
ENDBRANCH   2   3
ENDBRANCH   1   2
BRANCH   1  24
ATOM     24  O   UNL A   1      35.725  21.803  26.228  1.00  0.00    -0.374 OA
BRANCH  24  25
ATOM     25  C   UNL A   1      36.470  21.009  25.334  1.00  0.00     0.202 C 
BRANCH  25  26
ATOM     26  C   UNL A   1      37.957  21.390  25.263  1.00  0.00     0.261 C 
BRANCH  26  27
ATOM     27  O   UNL A   1      38.249  22.725  25.712  1.00  0.00    -0.460 OA
BRANCH  27  28
ATOM     28  C   UNL A   1      39.260  22.828  26.640  1.00  0.00     0.338 C 
ATOM     29  O   UNL A   1      39.752  21.899  27.227  1.00  0.00    -0.246 OA
BRANCH  28  30
ATOM     30  C   UNL A   1      39.589  24.276  26.830  1.00  0.00     0.060 A 
ATOM     31  C   UNL A   1      40.157  25.065  25.809  1.00  0.00     0.016 A 
ATOM     32  C   UNL A   1      39.594  24.731  28.138  1.00  0.00     0.016 A 
ATOM     33  C   UNL A   1      40.841  26.258  26.128  1.00  0.00     0.010 A 
ATOM     34  C   UNL A   1      40.424  25.771  28.450  1.00  0.00     0.010 A 
ATOM     35  C   UNL A   1      41.032  26.576  27.465  1.00  0.00    -0.014 A 
BRANCH  35  36
ATOM     36  C   UNL A   1      41.842  27.643  28.083  1.00  0.00     0.031 A 
ATOM     37  C   UNL A   1      41.063  28.867  28.441  1.00  0.00     0.074 A 
ATOM     38  C   UNL A   1      42.999  27.337  28.734  1.00  0.00     0.049 A 
ATOM     39  N   UNL A   1      41.489  29.818  29.181  1.00  0.00    -0.248 NA
ATOM     40  C   UNL A   1      39.669  29.076  28.036  1.00  0.00     0.031 C 
ATOM     41  C   UNL A   1      43.525  27.926  29.970  1.00  0.00     0.029 A 
ATOM     42  N   UNL A   1      43.990  26.400  28.408  1.00  0.00    -0.354 N 
ATOM     43  C   UNL A   1      40.407  30.552  29.623  1.00  0.00     0.074 A 
ATOM     44  C   UNL A   1      39.299  30.069  28.846  1.00  0.00     0.031 C 
ATOM     45  C   UNL A   1      44.816  27.574  30.129  1.00  0.00     0.029 A 
ATOM     46  C   UNL A   1      45.213  26.842  28.936  1.00  0.00     0.049 A 
ATOM     47  H   UNL A   1      43.851  25.572  27.894  1.00  0.00     0.167 HD
ATOM     48  C   UNL A   1      40.609  31.395  30.677  1.00  0.00     0.037 A 
ATOM     49  C   UNL A   1      46.236  27.109  28.078  1.00  0.00     0.037 A 
ATOM     50  C   UNL A   1      42.064  31.493  30.935  1.00  0.00     0.049 A 
ATOM     51  C   UNL A   1      46.427  28.600  28.083  1.00  0.00     0.074 A 
ATOM     52  C   UNL A   1      42.906  30.986  31.909  1.00  0.00     0.029 A 
ATOM     53  N   UNL A   1      42.900  31.870  29.874  1.00  0.00    -0.354 N 
ATOM     54  N   UNL A   1      45.497  29.416  28.504  1.00  0.00    -0.248 NA
ATOM     55  C   UNL A   1      47.671  29.293  27.771  1.00  0.00     0.031 C 
ATOM     56  C   UNL A   1      44.232  30.946  31.367  1.00  0.00     0.029 A 
ATOM     57  C   UNL A   1      44.206  31.453  30.073  1.00  0.00     0.049 A 
ATOM     58  H   UNL A   1      42.596  32.372  29.084  1.00  0.00     0.167 HD
ATOM     59  C   UNL A   1      45.987  30.673  28.602  1.00  0.00     0.074 A 
ATOM     60  C   UNL A   1      47.345  30.560  28.092  1.00  0.00     0.031 C 
ATOM     61  C   UNL A   1      45.233  31.712  29.057  1.00  0.00     0.037 A 
BRANCH  48  62
ATOM     62  C   UNL A   1      39.525  32.003  31.569  1.00  0.00     0.058 A 
ATOM     63  C   UNL A   1      38.696  31.170  32.357  1.00  0.00     0.135 A 
ATOM     64  C   UNL A   1      39.202  33.377  31.682  1.00  0.00     0.135 A 
ATOM     65  F   UNL A   1      38.857  29.839  32.367  1.00  0.00    -0.206 F 
ATOM     66  C   UNL A   1      37.658  31.652  33.171  1.00  0.00     0.059 A 
ATOM     67  C   UNL A   1      38.163  33.881  32.472  1.00  0.00     0.059 A 
ATOM     68  F   UNL A   1      39.885  34.334  31.059  1.00  0.00    -0.206 F 
ATOM     69  C   UNL A   1      37.400  33.014  33.228  1.00  0.00     0.060 A 
BRANCH  69  70
ATOM     70  S   UNL A   1      36.108  33.641  34.316  1.00  0.00     0.124 S 
ATOM     71  O   UNL A   1      36.593  33.249  35.634  1.00  0.00    -0.237 OA
ATOM     72  O   UNL A   1      36.138  35.071  34.026  1.00  0.00    -0.237 OA
ATOM     73  O   UNL A   1      34.908  32.941  33.865  1.00  0.00    -0.744 OA
ENDBRANCH  69  70
ENDBRANCH  48  62
BRANCH  49  74
ATOM     74  C   UNL A   1      46.250  26.109  26.951  1.00  0.00     0.058 A 
ATOM     75  C   UNL A   1      46.662  24.797  27.293  1.00  0.00     0.135 A 
ATOM     76  C   UNL A   1      45.380  26.220  25.853  1.00  0.00     0.135 A 
ATOM     77  F   UNL A   1      47.498  24.608  28.329  1.00  0.00    -0.206 F 
ATOM     78  C   UNL A   1      46.096  23.658  26.712  1.00  0.00     0.059 A 
ATOM     79  C   UNL A   1      44.790  25.086  25.267  1.00  0.00     0.059 A 
ATOM     80  F   UNL A   1      44.950  27.426  25.455  1.00  0.00    -0.206 F 
ATOM     81  C   UNL A   1      45.090  23.817  25.766  1.00  0.00     0.060 A 
BRANCH  81  82
ATOM     82  S   UNL A   1      44.082  22.381  25.295  1.00  0.00     0.124 S 
ATOM     83  O   UNL A   1      43.695  22.691  23.921  1.00  0.00    -0.237 OA
ATOM     84  O   UNL A   1      45.039  21.288  25.428  1.00  0.00    -0.237 OA
ATOM     85  O   UNL A   1      43.003  22.400  26.273  1.00  0.00    -0.744 OA
ENDBRANCH  81  82
ENDBRANCH  49  74
BRANCH  61  86
ATOM     86  C   UNL A   1      45.462  33.099  28.541  1.00  0.00     0.058 A 
ATOM     87  C   UNL A   1      44.812  33.594  27.393  1.00  0.00     0.135 A 
ATOM     88  C   UNL A   1      46.205  34.035  29.287  1.00  0.00     0.135 A 
ATOM     89  F   UNL A   1      43.951  32.845  26.687  1.00  0.00    -0.206 F 
ATOM     90  C   UNL A   1      44.997  34.889  26.941  1.00  0.00     0.059 A 
ATOM     91  C   UNL A   1      46.331  35.360  28.900  1.00  0.00     0.059 A 
ATOM     92  F   UNL A   1      46.823  33.696  30.428  1.00  0.00    -0.206 F 
ATOM     93  C   UNL A   1      45.770  35.762  27.696  1.00  0.00     0.060 A 
BRANCH  93  94
ATOM     94  S   UNL A   1      46.044  37.423  27.084  1.00  0.00     0.124 S 
ATOM     95  O   UNL A   1      46.786  38.011  28.196  1.00  0.00    -0.237 OA
ATOM     96  O   UNL A   1      46.813  37.194  25.864  1.00  0.00    -0.237 OA
ATOM     97  O   UNL A   1      44.693  37.935  26.883  1.00  0.00    -0.744 OA
ENDBRANCH  93  94
ENDBRANCH  61  86
ENDBRANCH  35  36
ENDBRANCH  28  30
ENDBRANCH  27  28
ENDBRANCH  26  27
ENDBRANCH  25  26
ENDBRANCH  24  25
ENDBRANCH   1  24
TORSDOF 22
ENDMDL
