MODEL 1
REMARK VINA RESULT:     -11.5      0.000      0.000
REMARK SMILES C[C@H]1[C@@H](C(=O)OCCOCCOC(=O)c2ccc(-c3c4nc(c(-c5c(F)cc(S(=O)(=O)[O-])cc5F)c5ccc([nH]5)c(-c5c(F)cc(S(=O)(=O)[O-])cc5F)c5nc(c(-c6c(F)cc(S(=O)(=O)[O-])cc6F)c6ccc3[nH]6)C=C5)C=C4)cc2)CCN1C(=O)c1cc2cc(F)ccc2s1
REMARK SMILES IDX 10 1 9 2 8 3 7 4 6 5 4 6 5 7 3 8 1 9 2 10 83 11 81 12 82 13
REMARK SMILES IDX 84 14 85 15 86 16 87 17 95 18 88 19 94 20 89 21 93 22 90 23
REMARK SMILES IDX 92 24 91 25 11 26 12 27 13 28 14 29 15 30 16 31 80 32 17 33
REMARK SMILES IDX 79 34 18 35 19 36 20 37 73 38 21 39 78 40 72 41 74 42 22 43
REMARK SMILES IDX 77 44 71 45 70 46 23 48 57 49 36 50 56 51 37 52 40 53 55 54
REMARK SMILES IDX 75 55 38 56 39 57 54 59 76 60 41 61 24 62 25 63 34 64 26 65
REMARK SMILES IDX 27 66 33 67 35 68 28 69 29 70 30 71 31 72 32 73 58 74 59 75
REMARK SMILES IDX 68 76 60 77 61 78 67 79 69 80 62 81 63 82 64 83 65 84 66 85
REMARK SMILES IDX 42 86 43 87 52 88 44 89 45 90 51 91 53 92 46 93 47 94 48 95
REMARK SMILES IDX 49 96 50 97
REMARK H PARENT 74 47 40 58
REMARK Flexibility Score: inf
ROOT
ATOM      1  C   UNL A   1      34.236  31.470  27.807  1.00  0.00     0.202 C 
ENDROOT
BRANCH   1   2
ATOM      2  O   UNL A   1      33.376  30.346  27.642  1.00  0.00    -0.374 OA
BRANCH   2   3
ATOM      3  C   UNL A   1      32.295  30.491  26.714  1.00  0.00     0.202 C 
BRANCH   3   4
ATOM      4  C   UNL A   1      32.498  29.764  25.384  1.00  0.00     0.261 C 
BRANCH   4   5
ATOM      5  O   UNL A   1      31.239  29.217  24.940  1.00  0.00    -0.463 OA
BRANCH   5   6
ATOM      6  C   UNL A   1      31.275  27.970  24.433  1.00  0.00     0.311 C 
ATOM      7  O   UNL A   1      31.647  27.701  23.295  1.00  0.00    -0.252 OA
BRANCH   6   8
ATOM      8  C   UNL A   1      30.921  26.876  25.423  1.00  0.00     0.123 C 
ATOM      9  C   UNL A   1      33.431  26.211  25.893  1.00  0.00     0.032 C 
ATOM     10  C   UNL A   1      31.951  25.940  26.106  1.00  0.00     0.096 C 
ATOM     11  N   UNL A   1      31.544  24.582  25.723  1.00  0.00    -0.334 N 
ATOM     12  C   UNL A   1      29.885  25.944  24.770  1.00  0.00     0.039 C 
ATOM     13  C   UNL A   1      30.559  24.597  24.670  1.00  0.00     0.121 C 
BRANCH  11  14
ATOM     14  C   UNL A   1      31.564  23.491  26.578  1.00  0.00     0.264 C 
ATOM     15  O   UNL A   1      30.628  23.285  27.352  1.00  0.00    -0.268 OA
BRANCH  14  16
ATOM     16  C   UNL A   1      32.633  22.522  26.471  1.00  0.00     0.093 A 
ATOM     17  C   UNL A   1      33.047  21.892  25.313  1.00  0.00     0.034 A 
ATOM     18  S   UNL A   1      33.946  22.631  27.570  1.00  0.00    -0.130 S 
ATOM     19  C   UNL A   1      34.426  22.240  25.072  1.00  0.00    -0.004 A 
ATOM     20  C   UNL A   1      35.038  22.732  26.233  1.00  0.00     0.035 A 
ATOM     21  C   UNL A   1      35.153  22.283  23.861  1.00  0.00     0.048 A 
ATOM     22  C   UNL A   1      36.338  23.267  26.222  1.00  0.00     0.022 A 
ATOM     23  C   UNL A   1      36.404  22.895  23.839  1.00  0.00     0.123 A 
ATOM     24  C   UNL A   1      36.992  23.387  24.993  1.00  0.00     0.041 A 
ATOM     25  F   UNL A   1      37.029  23.056  22.664  1.00  0.00    -0.207 F 
ENDBRANCH  14  16
ENDBRANCH  11  14
ENDBRANCH   6   8
ENDBRANCH   5   6
ENDBRANCH   4   5
ENDBRANCH   3   4
ENDBRANCH   2   3
ENDBRANCH   1   2
BRANCH   1  26
ATOM     26  C   UNL A   1      35.292  31.350  28.911  1.00  0.00     0.261 C 
BRANCH  26  27
ATOM     27  O   UNL A   1      35.826  30.021  29.006  1.00  0.00    -0.460 OA
BRANCH  27  28
ATOM     28  C   UNL A   1      36.616  29.818  30.089  1.00  0.00     0.338 C 
ATOM     29  O   UNL A   1      36.249  29.521  31.214  1.00  0.00    -0.246 OA
BRANCH  28  30
ATOM     30  C   UNL A   1      38.043  29.849  29.709  1.00  0.00     0.060 A 
ATOM     31  C   UNL A   1      38.329  29.808  28.339  1.00  0.00     0.016 A 
ATOM     32  C   UNL A   1      39.078  29.832  30.649  1.00  0.00     0.016 A 
ATOM     33  C   UNL A   1      39.641  29.662  27.905  1.00  0.00     0.010 A 
ATOM     34  C   UNL A   1      40.401  29.682  30.209  1.00  0.00     0.010 A 
ATOM     35  C   UNL A   1      40.680  29.544  28.838  1.00  0.00    -0.014 A 
BRANCH  35  36
ATOM     36  C   UNL A   1      42.008  29.090  28.355  1.00  0.00     0.031 A 
ATOM     37  C   UNL A   1      43.151  30.070  28.344  1.00  0.00     0.074 A 
ATOM     38  C   UNL A   1      42.218  27.801  28.030  1.00  0.00     0.049 A 
ATOM     39  N   UNL A   1      44.414  29.868  28.077  1.00  0.00    -0.248 NA
ATOM     40  C   UNL A   1      42.825  31.465  28.687  1.00  0.00     0.031 C 
ATOM     41  C   UNL A   1      41.197  26.755  28.024  1.00  0.00     0.029 A 
ATOM     42  N   UNL A   1      43.368  27.153  27.659  1.00  0.00    -0.354 N 
ATOM     43  C   UNL A   1      45.036  31.103  28.228  1.00  0.00     0.074 A 
ATOM     44  C   UNL A   1      44.004  32.057  28.569  1.00  0.00     0.031 C 
ATOM     45  C   UNL A   1      41.770  25.590  27.671  1.00  0.00     0.029 A 
ATOM     46  C   UNL A   1      43.192  25.811  27.421  1.00  0.00     0.049 A 
ATOM     47  H   UNL A   1      44.237  27.606  27.570  1.00  0.00     0.167 HD
ATOM     48  C   UNL A   1      46.349  31.412  28.109  1.00  0.00     0.037 A 
ATOM     49  C   UNL A   1      44.082  24.868  27.050  1.00  0.00     0.037 A 
ATOM     50  C   UNL A   1      47.376  30.462  27.770  1.00  0.00     0.049 A 
ATOM     51  C   UNL A   1      45.532  25.241  26.895  1.00  0.00     0.074 A 
ATOM     52  C   UNL A   1      48.737  30.675  27.633  1.00  0.00     0.029 A 
ATOM     53  N   UNL A   1      47.153  29.118  27.509  1.00  0.00    -0.354 N 
ATOM     54  N   UNL A   1      46.109  26.407  27.072  1.00  0.00    -0.248 NA
ATOM     55  C   UNL A   1      46.456  24.167  26.505  1.00  0.00     0.031 C 
ATOM     56  C   UNL A   1      49.332  29.464  27.257  1.00  0.00     0.029 A 
ATOM     57  C   UNL A   1      48.348  28.491  27.199  1.00  0.00     0.049 A 
ATOM     58  H   UNL A   1      46.275  28.675  27.542  1.00  0.00     0.167 HD
ATOM     59  C   UNL A   1      47.465  26.201  26.838  1.00  0.00     0.074 A 
ATOM     60  C   UNL A   1      47.624  24.797  26.519  1.00  0.00     0.031 C 
ATOM     61  C   UNL A   1      48.487  27.091  26.886  1.00  0.00     0.037 A 
BRANCH  48  62
ATOM     62  C   UNL A   1      46.743  32.844  28.336  1.00  0.00     0.058 A 
ATOM     63  C   UNL A   1      47.088  33.320  29.611  1.00  0.00     0.135 A 
ATOM     64  C   UNL A   1      46.790  33.750  27.264  1.00  0.00     0.135 A 
ATOM     65  F   UNL A   1      47.042  32.500  30.673  1.00  0.00    -0.206 F 
ATOM     66  C   UNL A   1      47.440  34.650  29.820  1.00  0.00     0.059 A 
ATOM     67  C   UNL A   1      47.160  35.079  27.446  1.00  0.00     0.059 A 
ATOM     68  F   UNL A   1      46.465  33.347  26.024  1.00  0.00    -0.206 F 
ATOM     69  C   UNL A   1      47.469  35.522  28.732  1.00  0.00     0.060 A 
BRANCH  69  70
ATOM     70  S   UNL A   1      47.920  37.248  29.016  1.00  0.00     0.124 S 
ATOM     71  O   UNL A   1      49.214  37.325  28.346  1.00  0.00    -0.237 OA
ATOM     72  O   UNL A   1      46.827  37.969  28.370  1.00  0.00    -0.237 OA
ATOM     73  O   UNL A   1      47.958  37.352  30.472  1.00  0.00    -0.744 OA
ENDBRANCH  69  70
ENDBRANCH  48  62
BRANCH  49  74
ATOM     74  C   UNL A   1      43.626  23.474  26.813  1.00  0.00     0.058 A 
ATOM     75  C   UNL A   1      43.523  22.951  25.516  1.00  0.00     0.135 A 
ATOM     76  C   UNL A   1      43.288  22.635  27.886  1.00  0.00     0.135 A 
ATOM     77  F   UNL A   1      43.826  23.719  24.458  1.00  0.00    -0.206 F 
ATOM     78  C   UNL A   1      43.089  21.649  25.287  1.00  0.00     0.059 A 
ATOM     79  C   UNL A   1      42.873  21.323  27.685  1.00  0.00     0.059 A 
ATOM     80  F   UNL A   1      43.381  23.085  29.147  1.00  0.00    -0.206 F 
ATOM     81  C   UNL A   1      42.768  20.842  26.380  1.00  0.00     0.060 A 
BRANCH  81  82
ATOM     82  S   UNL A   1      42.260  19.134  26.082  1.00  0.00     0.124 S 
ATOM     83  O   UNL A   1      43.037  18.800  24.895  1.00  0.00    -0.237 OA
ATOM     84  O   UNL A   1      42.663  18.471  27.319  1.00  0.00    -0.237 OA
ATOM     85  O   UNL A   1      40.817  19.246  25.883  1.00  0.00    -0.744 OA
ENDBRANCH  81  82
ENDBRANCH  49  74
BRANCH  61  86
ATOM     86  C   UNL A   1      49.869  26.566  26.613  1.00  0.00     0.058 A 
ATOM     87  C   UNL A   1      50.704  26.116  27.647  1.00  0.00     0.135 A 
ATOM     88  C   UNL A   1      50.351  26.486  25.296  1.00  0.00     0.135 A 
ATOM     89  F   UNL A   1      50.289  26.174  28.923  1.00  0.00    -0.206 F 
ATOM     90  C   UNL A   1      51.983  25.634  27.389  1.00  0.00     0.059 A 
ATOM     91  C   UNL A   1      51.618  25.986  25.013  1.00  0.00     0.059 A 
ATOM     92  F   UNL A   1      49.587  26.892  24.269  1.00  0.00    -0.206 F 
ATOM     93  C   UNL A   1      52.434  25.579  26.069  1.00  0.00     0.060 A 
BRANCH  93  94
ATOM     94  S   UNL A   1      54.093  24.945  25.742  1.00  0.00     0.124 S 
ATOM     95  O   UNL A   1      53.816  23.541  25.453  1.00  0.00    -0.237 OA
ATOM     96  O   UNL A   1      54.522  25.753  24.605  1.00  0.00    -0.237 OA
ATOM     97  O   UNL A   1      54.805  25.203  26.989  1.00  0.00    -0.744 OA
ENDBRANCH  93  94
ENDBRANCH  61  86
ENDBRANCH  35  36
ENDBRANCH  28  30
ENDBRANCH  27  28
ENDBRANCH  26  27
ENDBRANCH   1  26
TORSDOF 19
ENDMDL
MODEL 2
REMARK VINA RESULT:     -11.2      6.456     11.941
REMARK SMILES C[C@H]1[C@@H](C(=O)OCCOCCOC(=O)c2ccc(-c3c4nc(c(-c5c(F)cc(S(=O)(=O)[O-])cc5F)c5ccc([nH]5)c(-c5c(F)cc(S(=O)(=O)[O-])cc5F)c5nc(c(-c6c(F)cc(S(=O)(=O)[O-])cc6F)c6ccc3[nH]6)C=C5)C=C4)cc2)CCN1C(=O)c1cc2cc(F)ccc2s1
REMARK SMILES IDX 10 1 9 2 8 3 7 4 6 5 4 6 5 7 3 8 1 9 2 10 83 11 81 12 82 13
REMARK SMILES IDX 84 14 85 15 86 16 87 17 95 18 88 19 94 20 89 21 93 22 90 23
REMARK SMILES IDX 92 24 91 25 11 26 12 27 13 28 14 29 15 30 16 31 80 32 17 33
REMARK SMILES IDX 79 34 18 35 19 36 20 37 73 38 21 39 78 40 72 41 74 42 22 43
REMARK SMILES IDX 77 44 71 45 70 46 23 48 57 49 36 50 56 51 37 52 40 53 55 54
REMARK SMILES IDX 75 55 38 56 39 57 54 59 76 60 41 61 24 62 25 63 34 64 26 65
REMARK SMILES IDX 27 66 33 67 35 68 28 69 29 70 30 71 31 72 32 73 58 74 59 75
REMARK SMILES IDX 68 76 60 77 61 78 67 79 69 80 62 81 63 82 64 83 65 84 66 85
REMARK SMILES IDX 42 86 43 87 52 88 44 89 45 90 51 91 53 92 46 93 47 94 48 95
REMARK SMILES IDX 49 96 50 97
REMARK H PARENT 74 47 40 58
REMARK Flexibility Score: inf
ROOT
ATOM      1  C   UNL A   1      41.167  21.798  26.128  1.00  0.00     0.202 C 
ENDROOT
BRANCH   1   2
ATOM      2  O   UNL A   1      40.034  22.338  26.802  1.00  0.00    -0.374 OA
BRANCH   2   3
ATOM      3  C   UNL A   1      38.765  22.182  26.159  1.00  0.00     0.202 C 
BRANCH   3   4
ATOM      4  C   UNL A   1      38.012  23.491  25.911  1.00  0.00     0.261 C 
BRANCH   4   5
ATOM      5  O   UNL A   1      37.316  23.411  24.650  1.00  0.00    -0.463 OA
BRANCH   5   6
ATOM      6  C   UNL A   1      36.067  22.908  24.688  1.00  0.00     0.311 C 
ATOM      7  O   UNL A   1      35.793  21.731  24.476  1.00  0.00    -0.252 OA
BRANCH   6   8
ATOM      8  C   UNL A   1      35.003  23.895  25.130  1.00  0.00     0.123 C 
ATOM      9  C   UNL A   1      34.383  22.556  27.317  1.00  0.00     0.032 C 
ATOM     10  C   UNL A   1      34.102  23.718  26.379  1.00  0.00     0.096 C 
ATOM     11  N   UNL A   1      32.728  23.734  25.863  1.00  0.00    -0.334 N 
ATOM     12  C   UNL A   1      34.038  24.130  23.955  1.00  0.00     0.039 C 
ATOM     13  C   UNL A   1      32.695  23.624  24.426  1.00  0.00     0.121 C 
BRANCH  11  14
ATOM     14  C   UNL A   1      31.666  24.368  26.490  1.00  0.00     0.264 C 
ATOM     15  O   UNL A   1      30.974  23.765  27.311  1.00  0.00    -0.268 OA
BRANCH  14  16
ATOM     16  C   UNL A   1      31.451  25.782  26.271  1.00  0.00     0.093 A 
ATOM     17  C   UNL A   1      32.394  26.781  26.418  1.00  0.00     0.034 A 
ATOM     18  S   UNL A   1      30.283  26.258  25.108  1.00  0.00    -0.130 S 
ATOM     19  C   UNL A   1      32.572  27.433  25.144  1.00  0.00    -0.004 A 
ATOM     20  C   UNL A   1      31.498  27.173  24.284  1.00  0.00     0.035 A 
ATOM     21  C   UNL A   1      33.687  28.134  24.632  1.00  0.00     0.048 A 
ATOM     22  C   UNL A   1      31.503  27.582  22.938  1.00  0.00     0.022 A 
ATOM     23  C   UNL A   1      33.725  28.458  23.278  1.00  0.00     0.123 A 
ATOM     24  C   UNL A   1      32.658  28.185  22.437  1.00  0.00     0.041 A 
ATOM     25  F   UNL A   1      34.840  29.001  22.769  1.00  0.00    -0.207 F 
ENDBRANCH  14  16
ENDBRANCH  11  14
ENDBRANCH   6   8
ENDBRANCH   5   6
ENDBRANCH   4   5
ENDBRANCH   3   4
ENDBRANCH   2   3
ENDBRANCH   1   2
BRANCH   1  26
ATOM     26  C   UNL A   1      42.311  22.778  25.847  1.00  0.00     0.261 C 
BRANCH  26  27
ATOM     27  O   UNL A   1      41.932  24.139  26.105  1.00  0.00    -0.460 OA
BRANCH  27  28
ATOM     28  C   UNL A   1      42.832  24.833  26.846  1.00  0.00     0.338 C 
ATOM     29  O   UNL A   1      44.047  24.752  26.781  1.00  0.00    -0.246 OA
BRANCH  28  30
ATOM     30  C   UNL A   1      42.152  25.851  27.672  1.00  0.00     0.060 A 
ATOM     31  C   UNL A   1      42.829  27.061  27.860  1.00  0.00     0.016 A 
ATOM     32  C   UNL A   1      40.936  25.612  28.320  1.00  0.00     0.016 A 
ATOM     33  C   UNL A   1      42.340  28.002  28.760  1.00  0.00     0.010 A 
ATOM     34  C   UNL A   1      40.444  26.560  29.228  1.00  0.00     0.010 A 
ATOM     35  C   UNL A   1      41.173  27.734  29.489  1.00  0.00    -0.014 A 
BRANCH  35  36
ATOM     36  C   UNL A   1      40.853  28.610  30.644  1.00  0.00     0.031 A 
ATOM     37  C   UNL A   1      41.698  28.511  31.886  1.00  0.00     0.074 A 
ATOM     38  C   UNL A   1      39.893  29.548  30.550  1.00  0.00     0.049 A 
ATOM     39  N   UNL A   1      41.677  29.251  32.964  1.00  0.00    -0.248 NA
ATOM     40  C   UNL A   1      42.707  27.438  31.913  1.00  0.00     0.031 C 
ATOM     41  C   UNL A   1      39.026  29.756  29.392  1.00  0.00     0.029 A 
ATOM     42  N   UNL A   1      39.502  30.513  31.442  1.00  0.00    -0.354 N 
ATOM     43  C   UNL A   1      42.671  28.741  33.792  1.00  0.00     0.074 A 
ATOM     44  C   UNL A   1      43.248  27.603  33.110  1.00  0.00     0.031 C 
ATOM     45  C   UNL A   1      38.205  30.791  29.643  1.00  0.00     0.029 A 
ATOM     46  C   UNL A   1      38.485  31.313  30.979  1.00  0.00     0.049 A 
ATOM     47  H   UNL A   1      39.910  30.623  32.331  1.00  0.00     0.167 HD
ATOM     48  C   UNL A   1      43.079  29.189  35.004  1.00  0.00     0.037 A 
ATOM     49  C   UNL A   1      37.857  32.352  31.566  1.00  0.00     0.037 A 
ATOM     50  C   UNL A   1      42.505  30.321  35.682  1.00  0.00     0.049 A 
ATOM     51  C   UNL A   1      38.308  32.814  32.926  1.00  0.00     0.074 A 
ATOM     52  C   UNL A   1      42.852  30.859  36.909  1.00  0.00     0.029 A 
ATOM     53  N   UNL A   1      41.457  31.087  35.192  1.00  0.00    -0.354 N 
ATOM     54  N   UNL A   1      39.270  32.341  33.683  1.00  0.00    -0.248 NA
ATOM     55  C   UNL A   1      37.596  33.961  33.507  1.00  0.00     0.031 C 
ATOM     56  C   UNL A   1      41.992  31.931  37.175  1.00  0.00     0.029 A 
ATOM     57  C   UNL A   1      41.136  32.085  36.096  1.00  0.00     0.049 A 
ATOM     58  H   UNL A   1      41.010  30.944  34.327  1.00  0.00     0.167 HD
ATOM     59  C   UNL A   1      39.295  33.147  34.816  1.00  0.00     0.074 A 
ATOM     60  C   UNL A   1      38.260  34.144  34.641  1.00  0.00     0.031 C 
ATOM     61  C   UNL A   1      40.103  33.071  35.903  1.00  0.00     0.037 A 
BRANCH  48  62
ATOM     62  C   UNL A   1      44.192  28.438  35.678  1.00  0.00     0.058 A 
ATOM     63  C   UNL A   1      43.935  27.387  36.573  1.00  0.00     0.135 A 
ATOM     64  C   UNL A   1      45.533  28.764  35.417  1.00  0.00     0.135 A 
ATOM     65  F   UNL A   1      42.671  27.049  36.871  1.00  0.00    -0.206 F 
ATOM     66  C   UNL A   1      44.969  26.703  37.206  1.00  0.00     0.059 A 
ATOM     67  C   UNL A   1      46.582  28.078  36.021  1.00  0.00     0.059 A 
ATOM     68  F   UNL A   1      45.833  29.764  34.572  1.00  0.00    -0.206 F 
ATOM     69  C   UNL A   1      46.288  27.058  36.926  1.00  0.00     0.060 A 
BRANCH  69  70
ATOM     70  S   UNL A   1      47.621  26.168  37.760  1.00  0.00     0.124 S 
ATOM     71  O   UNL A   1      47.178  24.784  37.618  1.00  0.00    -0.237 OA
ATOM     72  O   UNL A   1      48.790  26.542  36.972  1.00  0.00    -0.237 OA
ATOM     73  O   UNL A   1      47.588  26.703  39.117  1.00  0.00    -0.744 OA
ENDBRANCH  69  70
ENDBRANCH  48  62
BRANCH  49  74
ATOM     74  C   UNL A   1      36.743  33.037  30.860  1.00  0.00     0.058 A 
ATOM     75  C   UNL A   1      36.989  33.954  29.829  1.00  0.00     0.135 A 
ATOM     76  C   UNL A   1      35.407  32.780  31.205  1.00  0.00     0.135 A 
ATOM     77  F   UNL A   1      38.250  34.239  29.472  1.00  0.00    -0.206 F 
ATOM     78  C   UNL A   1      35.950  34.605  29.170  1.00  0.00     0.059 A 
ATOM     79  C   UNL A   1      34.351  33.401  30.546  1.00  0.00     0.059 A 
ATOM     80  F   UNL A   1      35.120  31.901  32.177  1.00  0.00    -0.206 F 
ATOM     81  C   UNL A   1      34.634  34.319  29.536  1.00  0.00     0.060 A 
BRANCH  81  82
ATOM     82  S   UNL A   1      33.287  35.123  28.639  1.00  0.00     0.124 S 
ATOM     83  O   UNL A   1      34.007  36.132  27.872  1.00  0.00    -0.237 OA
ATOM     84  O   UNL A   1      32.724  34.017  27.871  1.00  0.00    -0.237 OA
ATOM     85  O   UNL A   1      32.431  35.630  29.709  1.00  0.00    -0.744 OA
ENDBRANCH  81  82
ENDBRANCH  49  74
BRANCH  61  86
ATOM     86  C   UNL A   1      39.916  34.111  36.973  1.00  0.00     0.058 A 
ATOM     87  C   UNL A   1      40.490  35.387  36.868  1.00  0.00     0.135 A 
ATOM     88  C   UNL A   1      39.127  33.835  38.102  1.00  0.00     0.135 A 
ATOM     89  F   UNL A   1      41.254  35.699  35.808  1.00  0.00    -0.206 F 
ATOM     90  C   UNL A   1      40.316  36.345  37.862  1.00  0.00     0.059 A 
ATOM     91  C   UNL A   1      38.922  34.786  39.097  1.00  0.00     0.059 A 
ATOM     92  F   UNL A   1      38.545  32.634  38.244  1.00  0.00    -0.206 F 
ATOM     93  C   UNL A   1      39.535  36.033  38.976  1.00  0.00     0.060 A 
BRANCH  93  94
ATOM     94  S   UNL A   1      39.308  37.284  40.258  1.00  0.00     0.124 S 
ATOM     95  O   UNL A   1      38.515  38.285  39.551  1.00  0.00    -0.237 OA
ATOM     96  O   UNL A   1      38.608  36.544  41.302  1.00  0.00    -0.237 OA
ATOM     97  O   UNL A   1      40.674  37.681  40.588  1.00  0.00    -0.744 OA
ENDBRANCH  93  94
ENDBRANCH  61  86
ENDBRANCH  35  36
ENDBRANCH  28  30
ENDBRANCH  27  28
ENDBRANCH  26  27
ENDBRANCH   1  26
TORSDOF 19
ENDMDL
MODEL 3
REMARK VINA RESULT:     -11.1      0.666      8.086
REMARK SMILES C[C@H]1[C@@H](C(=O)OCCOCCOC(=O)c2ccc(-c3c4nc(c(-c5c(F)cc(S(=O)(=O)[O-])cc5F)c5ccc([nH]5)c(-c5c(F)cc(S(=O)(=O)[O-])cc5F)c5nc(c(-c6c(F)cc(S(=O)(=O)[O-])cc6F)c6ccc3[nH]6)C=C5)C=C4)cc2)CCN1C(=O)c1cc2cc(F)ccc2s1
REMARK SMILES IDX 10 1 9 2 8 3 7 4 6 5 4 6 5 7 3 8 1 9 2 10 83 11 81 12 82 13
REMARK SMILES IDX 84 14 85 15 86 16 87 17 95 18 88 19 94 20 89 21 93 22 90 23
REMARK SMILES IDX 92 24 91 25 11 26 12 27 13 28 14 29 15 30 16 31 80 32 17 33
REMARK SMILES IDX 79 34 18 35 19 36 20 37 73 38 21 39 78 40 72 41 74 42 22 43
REMARK SMILES IDX 77 44 71 45 70 46 23 48 57 49 36 50 56 51 37 52 40 53 55 54
REMARK SMILES IDX 75 55 38 56 39 57 54 59 76 60 41 61 24 62 25 63 34 64 26 65
REMARK SMILES IDX 27 66 33 67 35 68 28 69 29 70 30 71 31 72 32 73 58 74 59 75
REMARK SMILES IDX 68 76 60 77 61 78 67 79 69 80 62 81 63 82 64 83 65 84 66 85
REMARK SMILES IDX 42 86 43 87 52 88 44 89 45 90 51 91 53 92 46 93 47 94 48 95
REMARK SMILES IDX 49 96 50 97
REMARK H PARENT 74 47 40 58
REMARK Flexibility Score: inf
ROOT
ATOM      1  C   UNL A   1      34.012  31.573  27.738  1.00  0.00     0.202 C 
ENDROOT
BRANCH   1   2
ATOM      2  O   UNL A   1      33.398  30.333  27.397  1.00  0.00    -0.374 OA
BRANCH   2   3
ATOM      3  C   UNL A   1      32.433  30.360  26.340  1.00  0.00     0.202 C 
BRANCH   3   4
ATOM      4  C   UNL A   1      32.829  29.562  25.096  1.00  0.00     0.261 C 
BRANCH   4   5
ATOM      5  O   UNL A   1      31.959  28.420  24.963  1.00  0.00    -0.463 OA
BRANCH   5   6
ATOM      6  C   UNL A   1      32.192  27.611  23.911  1.00  0.00     0.311 C 
ATOM      7  O   UNL A   1      32.363  28.008  22.762  1.00  0.00    -0.252 OA
BRANCH   6   8
ATOM      8  C   UNL A   1      32.343  26.144  24.265  1.00  0.00     0.123 C 
ATOM      9  C   UNL A   1      29.891  25.910  25.211  1.00  0.00     0.032 C 
ATOM     10  C   UNL A   1      31.259  25.292  24.974  1.00  0.00     0.096 C 
ATOM     11  N   UNL A   1      31.901  24.802  26.200  1.00  0.00    -0.334 N 
ATOM     12  C   UNL A   1      33.618  25.975  25.110  1.00  0.00     0.039 C 
ATOM     13  C   UNL A   1      33.149  25.476  26.455  1.00  0.00     0.121 C 
BRANCH  11  14
ATOM     14  C   UNL A   1      31.737  23.522  26.708  1.00  0.00     0.264 C 
ATOM     15  O   UNL A   1      30.814  23.270  27.483  1.00  0.00    -0.268 OA
BRANCH  14  16
ATOM     16  C   UNL A   1      32.582  22.451  26.227  1.00  0.00     0.093 A 
ATOM     17  C   UNL A   1      32.888  22.188  24.905  1.00  0.00     0.034 A 
ATOM     18  S   UNL A   1      33.857  21.902  27.235  1.00  0.00    -0.130 S 
ATOM     19  C   UNL A   1      34.315  22.305  24.734  1.00  0.00    -0.004 A 
ATOM     20  C   UNL A   1      34.983  22.230  25.963  1.00  0.00     0.035 A 
ATOM     21  C   UNL A   1      35.068  22.612  23.579  1.00  0.00     0.048 A 
ATOM     22  C   UNL A   1      36.367  22.456  26.076  1.00  0.00     0.022 A 
ATOM     23  C   UNL A   1      36.420  22.922  23.709  1.00  0.00     0.123 A 
ATOM     24  C   UNL A   1      37.065  22.853  24.933  1.00  0.00     0.041 A 
ATOM     25  F   UNL A   1      37.098  23.345  22.633  1.00  0.00    -0.207 F 
ENDBRANCH  14  16
ENDBRANCH  11  14
ENDBRANCH   6   8
ENDBRANCH   5   6
ENDBRANCH   4   5
ENDBRANCH   3   4
ENDBRANCH   2   3
ENDBRANCH   1   2
BRANCH   1  26
ATOM     26  C   UNL A   1      35.255  31.483  28.630  1.00  0.00     0.261 C 
BRANCH  26  27
ATOM     27  O   UNL A   1      35.900  30.204  28.530  1.00  0.00    -0.460 OA
BRANCH  27  28
ATOM     28  C   UNL A   1      36.592  29.845  29.640  1.00  0.00     0.338 C 
ATOM     29  O   UNL A   1      36.131  29.378  30.668  1.00  0.00    -0.246 OA
BRANCH  28  30
ATOM     30  C   UNL A   1      38.046  29.948  29.404  1.00  0.00     0.060 A 
ATOM     31  C   UNL A   1      38.490  29.700  28.099  1.00  0.00     0.016 A 
ATOM     32  C   UNL A   1      38.965  30.190  30.430  1.00  0.00     0.016 A 
ATOM     33  C   UNL A   1      39.851  29.607  27.832  1.00  0.00     0.010 A 
ATOM     34  C   UNL A   1      40.338  30.095  30.159  1.00  0.00     0.010 A 
ATOM     35  C   UNL A   1      40.781  29.751  28.870  1.00  0.00    -0.014 A 
BRANCH  35  36
ATOM     36  C   UNL A   1      42.187  29.350  28.611  1.00  0.00     0.031 A 
ATOM     37  C   UNL A   1      42.476  27.920  28.240  1.00  0.00     0.074 A 
ATOM     38  C   UNL A   1      43.174  30.264  28.605  1.00  0.00     0.049 A 
ATOM     39  N   UNL A   1      43.601  27.373  27.859  1.00  0.00    -0.248 NA
ATOM     40  C   UNL A   1      41.342  26.981  28.298  1.00  0.00     0.031 C 
ATOM     41  C   UNL A   1      43.014  31.681  28.926  1.00  0.00     0.029 A 
ATOM     42  N   UNL A   1      44.505  30.135  28.301  1.00  0.00    -0.354 N 
ATOM     43  C   UNL A   1      43.312  26.033  27.625  1.00  0.00     0.074 A 
ATOM     44  C   UNL A   1      41.915  25.840  27.946  1.00  0.00     0.031 C 
ATOM     45  C   UNL A   1      44.204  32.294  28.795  1.00  0.00     0.029 A 
ATOM     46  C   UNL A   1      45.207  31.313  28.390  1.00  0.00     0.049 A 
ATOM     47  H   UNL A   1      44.919  29.279  28.045  1.00  0.00     0.167 HD
ATOM     48  C   UNL A   1      44.130  25.055  27.168  1.00  0.00     0.037 A 
ATOM     49  C   UNL A   1      46.512  31.568  28.163  1.00  0.00     0.037 A 
ATOM     50  C   UNL A   1      45.520  25.248  26.848  1.00  0.00     0.049 A 
ATOM     51  C   UNL A   1      47.409  30.459  27.684  1.00  0.00     0.074 A 
ATOM     52  C   UNL A   1      46.432  24.322  26.371  1.00  0.00     0.029 A 
ATOM     53  N   UNL A   1      46.201  26.449  26.978  1.00  0.00    -0.354 N 
ATOM     54  N   UNL A   1      47.113  29.204  27.437  1.00  0.00    -0.248 NA
ATOM     55  C   UNL A   1      48.817  30.803  27.438  1.00  0.00     0.031 C 
ATOM     56  C   UNL A   1      47.672  24.958  26.244  1.00  0.00     0.029 A 
ATOM     57  C   UNL A   1      47.524  26.287  26.604  1.00  0.00     0.049 A 
ATOM     58  H   UNL A   1      45.802  27.293  27.289  1.00  0.00     0.167 HD
ATOM     59  C   UNL A   1      48.289  28.616  26.985  1.00  0.00     0.074 A 
ATOM     60  C   UNL A   1      49.299  29.655  26.980  1.00  0.00     0.031 C 
ATOM     61  C   UNL A   1      48.514  27.334  26.604  1.00  0.00     0.037 A 
BRANCH  48  62
ATOM     62  C   UNL A   1      43.539  23.683  27.002  1.00  0.00     0.058 A 
ATOM     63  C   UNL A   1      43.359  22.822  28.097  1.00  0.00     0.135 A 
ATOM     64  C   UNL A   1      43.136  23.228  25.737  1.00  0.00     0.135 A 
ATOM     65  F   UNL A   1      43.746  23.203  29.325  1.00  0.00    -0.206 F 
ATOM     66  C   UNL A   1      42.825  21.548  27.939  1.00  0.00     0.059 A 
ATOM     67  C   UNL A   1      42.578  21.965  25.559  1.00  0.00     0.059 A 
ATOM     68  F   UNL A   1      43.290  24.010  24.656  1.00  0.00    -0.206 F 
ATOM     69  C   UNL A   1      42.441  21.127  26.665  1.00  0.00     0.060 A 
BRANCH  69  70
ATOM     70  S   UNL A   1      41.755  19.467  26.471  1.00  0.00     0.124 S 
ATOM     71  O   UNL A   1      42.076  18.868  27.763  1.00  0.00    -0.237 OA
ATOM     72  O   UNL A   1      40.342  19.737  26.232  1.00  0.00    -0.237 OA
ATOM     73  O   UNL A   1      42.488  18.930  25.329  1.00  0.00    -0.744 OA
ENDBRANCH  69  70
ENDBRANCH  48  62
BRANCH  49  74
ATOM     74  C   UNL A   1      47.043  32.940  28.372  1.00  0.00     0.058 A 
ATOM     75  C   UNL A   1      47.029  33.892  27.341  1.00  0.00     0.135 A 
ATOM     76  C   UNL A   1      47.573  33.326  29.612  1.00  0.00     0.135 A 
ATOM     77  F   UNL A   1      46.541  33.566  26.135  1.00  0.00    -0.206 F 
ATOM     78  C   UNL A   1      47.533  35.175  27.528  1.00  0.00     0.059 A 
ATOM     79  C   UNL A   1      48.063  34.610  29.830  1.00  0.00     0.059 A 
ATOM     80  F   UNL A   1      47.599  32.455  30.633  1.00  0.00    -0.206 F 
ATOM     81  C   UNL A   1      48.046  35.525  28.778  1.00  0.00     0.060 A 
BRANCH  81  82
ATOM     82  S   UNL A   1      48.646  37.210  29.032  1.00  0.00     0.124 S 
ATOM     83  O   UNL A   1      49.199  37.526  27.721  1.00  0.00    -0.237 OA
ATOM     84  O   UNL A   1      47.425  37.920  29.401  1.00  0.00    -0.237 OA
ATOM     85  O   UNL A   1      49.620  37.057  30.111  1.00  0.00    -0.744 OA
ENDBRANCH  81  82
ENDBRANCH  49  74
BRANCH  61  86
ATOM     86  C   UNL A   1      49.898  26.991  26.126  1.00  0.00     0.058 A 
ATOM     87  C   UNL A   1      50.895  26.553  27.011  1.00  0.00     0.135 A 
ATOM     88  C   UNL A   1      50.220  27.074  24.762  1.00  0.00     0.135 A 
ATOM     89  F   UNL A   1      50.638  26.458  28.325  1.00  0.00    -0.206 F 
ATOM     90  C   UNL A   1      52.175  26.239  26.564  1.00  0.00     0.059 A 
ATOM     91  C   UNL A   1      51.486  26.744  24.290  1.00  0.00     0.059 A 
ATOM     92  F   UNL A   1      49.297  27.475  23.872  1.00  0.00    -0.206 F 
ATOM     93  C   UNL A   1      52.463  26.344  25.202  1.00  0.00     0.060 A 
BRANCH  93  94
ATOM     94  S   UNL A   1      54.124  25.928  24.629  1.00  0.00     0.124 S 
ATOM     95  O   UNL A   1      54.075  26.382  23.242  1.00  0.00    -0.237 OA
ATOM     96  O   UNL A   1      54.972  26.711  25.522  1.00  0.00    -0.237 OA
ATOM     97  O   UNL A   1      54.194  24.482  24.817  1.00  0.00    -0.744 OA
ENDBRANCH  93  94
ENDBRANCH  61  86
ENDBRANCH  35  36
ENDBRANCH  28  30
ENDBRANCH  27  28
ENDBRANCH  26  27
ENDBRANCH   1  26
TORSDOF 19
ENDMDL
