MODEL 1
REMARK VINA RESULT:     -10.9      0.000      0.000
REMARK SMILES O=C(CCc1nc(-c2ccccc2)c(-c2ccccc2)o1)OCCOCCOC(=O)c1ccc(-c2c3nc(c(-c4c(F)cc(S(=O)(=O)[O-])cc4F)c4ccc([nH]4)c(-c4c(F)cc(S(=O)(=O)[O-])cc4F)c4nc(c(-c5c(F)cc(S(=O)(=O)[O-])cc5F)c5ccc2[nH]5)C=C4)C=C3)cc1
REMARK SMILES IDX 25 1 24 2 23 3 22 4 2 5 1 6 3 7 4 8 5 9 6 10 21 11 7 12
REMARK SMILES IDX 14 13 8 14 9 15 13 16 10 17 12 18 11 19 15 20 16 21 20 22
REMARK SMILES IDX 17 23 19 24 18 25 26 26 27 27 28 28 29 29 30 30 31 31 32 32
REMARK SMILES IDX 96 33 33 34 95 35 34 36 35 37 36 38 89 39 37 40 94 41 88 42
REMARK SMILES IDX 90 43 38 44 93 45 87 46 86 47 39 49 73 50 52 51 72 52 53 53
REMARK SMILES IDX 56 54 71 55 91 56 54 57 55 58 70 60 92 61 57 62 40 63 41 64
REMARK SMILES IDX 50 65 42 66 43 67 49 68 51 69 44 70 45 71 46 72 47 73 48 74
REMARK SMILES IDX 74 75 75 76 84 77 76 78 77 79 83 80 85 81 78 82 79 83 80 84
REMARK SMILES IDX 81 85 82 86 58 87 59 88 68 89 60 90 61 91 67 92 69 93 62 94
REMARK SMILES IDX 63 95 64 96 65 97 66 98
REMARK H PARENT 90 48 56 59
REMARK Flexibility Score: inf
ROOT
ATOM      1  O   UNL A   1      31.412  29.488  25.563  1.00  0.00    -0.374 OA
ENDROOT
BRANCH   1   2
ATOM      2  C   UNL A   1      30.739  29.730  24.332  1.00  0.00     0.202 C 
BRANCH   2   3
ATOM      3  C   UNL A   1      30.837  28.660  23.243  1.00  0.00     0.261 C 
BRANCH   3   4
ATOM      4  O   UNL A   1      32.121  28.440  22.621  1.00  0.00    -0.463 OA
BRANCH   4   5
ATOM      5  C   UNL A   1      33.015  27.470  22.872  1.00  0.00     0.306 C 
ATOM      6  O   UNL A   1      33.616  27.454  23.945  1.00  0.00    -0.252 OA
BRANCH   5   7
ATOM      7  C   UNL A   1      33.361  26.474  21.805  1.00  0.00     0.132 C 
BRANCH   7   8
ATOM      8  C   UNL A   1      32.408  25.292  21.791  1.00  0.00     0.109 C 
BRANCH   8   9
ATOM      9  C   UNL A   1      32.966  24.119  22.508  1.00  0.00     0.196 A 
ATOM     10  N   UNL A   1      32.396  22.958  22.762  1.00  0.00    -0.213 NA
ATOM     11  O   UNL A   1      34.209  24.277  23.051  1.00  0.00    -0.440 OA
ATOM     12  C   UNL A   1      33.328  22.299  23.538  1.00  0.00     0.117 A 
ATOM     13  C   UNL A   1      34.448  23.094  23.695  1.00  0.00     0.162 A 
BRANCH  12  14
ATOM     14  C   UNL A   1      33.117  20.990  24.125  1.00  0.00     0.004 A 
ATOM     15  C   UNL A   1      32.678  19.909  23.344  1.00  0.00     0.010 A 
ATOM     16  C   UNL A   1      33.333  20.794  25.493  1.00  0.00     0.010 A 
ATOM     17  C   UNL A   1      32.417  18.669  23.928  1.00  0.00     0.001 A 
ATOM     18  C   UNL A   1      33.070  19.551  26.078  1.00  0.00     0.001 A 
ATOM     19  C   UNL A   1      32.605  18.493  25.296  1.00  0.00     0.000 A 
ENDBRANCH  12  14
BRANCH  13  20
ATOM     20  C   UNL A   1      35.723  22.971  24.371  1.00  0.00     0.020 A 
ATOM     21  C   UNL A   1      36.147  23.957  25.274  1.00  0.00     0.012 A 
ATOM     22  C   UNL A   1      36.515  21.832  24.180  1.00  0.00     0.012 A 
ATOM     23  C   UNL A   1      37.338  23.795  25.983  1.00  0.00     0.001 A 
ATOM     24  C   UNL A   1      37.711  21.678  24.881  1.00  0.00     0.001 A 
ATOM     25  C   UNL A   1      38.121  22.658  25.783  1.00  0.00     0.000 A 
ENDBRANCH  13  20
ENDBRANCH   8   9
ENDBRANCH   7   8
ENDBRANCH   5   7
ENDBRANCH   4   5
ENDBRANCH   3   4
ENDBRANCH   2   3
ENDBRANCH   1   2
BRANCH   1  26
ATOM     26  C   UNL A   1      32.677  30.096  25.788  1.00  0.00     0.202 C 
BRANCH  26  27
ATOM     27  C   UNL A   1      32.773  31.075  26.959  1.00  0.00     0.261 C 
BRANCH  27  28
ATOM     28  O   UNL A   1      33.484  30.516  28.075  1.00  0.00    -0.460 OA
BRANCH  28  29
ATOM     29  C   UNL A   1      34.566  31.222  28.473  1.00  0.00     0.338 C 
ATOM     30  O   UNL A   1      34.585  32.379  28.874  1.00  0.00    -0.246 OA
BRANCH  29  31
ATOM     31  C   UNL A   1      35.755  30.353  28.511  1.00  0.00     0.060 A 
ATOM     32  C   UNL A   1      36.175  29.878  29.760  1.00  0.00     0.016 A 
ATOM     33  C   UNL A   1      36.512  30.108  27.363  1.00  0.00     0.016 A 
ATOM     34  C   UNL A   1      37.402  29.233  29.878  1.00  0.00     0.010 A 
ATOM     35  C   UNL A   1      37.747  29.465  27.485  1.00  0.00     0.010 A 
ATOM     36  C   UNL A   1      38.220  29.080  28.752  1.00  0.00    -0.014 A 
BRANCH  36  37
ATOM     37  C   UNL A   1      39.654  28.755  28.946  1.00  0.00     0.031 A 
ATOM     38  C   UNL A   1      40.543  29.803  29.563  1.00  0.00     0.074 A 
ATOM     39  C   UNL A   1      40.145  27.543  28.637  1.00  0.00     0.049 A 
ATOM     40  N   UNL A   1      41.825  29.761  29.816  1.00  0.00    -0.248 NA
ATOM     41  C   UNL A   1      39.894  31.067  29.947  1.00  0.00     0.031 C 
ATOM     42  C   UNL A   1      39.369  26.429  28.097  1.00  0.00     0.029 A 
ATOM     43  N   UNL A   1      41.420  27.050  28.738  1.00  0.00    -0.354 N 
ATOM     44  C   UNL A   1      42.140  30.998  30.370  1.00  0.00     0.074 A 
ATOM     45  C   UNL A   1      40.919  31.773  30.397  1.00  0.00     0.031 C 
ATOM     46  C   UNL A   1      40.188  25.381  27.911  1.00  0.00     0.029 A 
ATOM     47  C   UNL A   1      41.548  25.757  28.290  1.00  0.00     0.049 A 
ATOM     48  H   UNL A   1      42.173  27.572  29.098  1.00  0.00     0.167 HD
ATOM     49  C   UNL A   1      43.335  31.444  30.821  1.00  0.00     0.037 A 
ATOM     50  C   UNL A   1      42.641  24.976  28.188  1.00  0.00     0.037 A 
ATOM     51  C   UNL A   1      44.544  30.663  30.798  1.00  0.00     0.049 A 
ATOM     52  C   UNL A   1      43.973  25.513  28.642  1.00  0.00     0.074 A 
ATOM     53  C   UNL A   1      45.808  31.018  31.236  1.00  0.00     0.029 A 
ATOM     54  N   UNL A   1      44.638  29.370  30.305  1.00  0.00    -0.354 N 
ATOM     55  N   UNL A   1      44.259  26.682  29.166  1.00  0.00    -0.248 NA
ATOM     56  C   UNL A   1      45.132  24.620  28.499  1.00  0.00     0.031 C 
ATOM     57  C   UNL A   1      46.676  29.955  30.966  1.00  0.00     0.029 A 
ATOM     58  C   UNL A   1      45.944  28.918  30.411  1.00  0.00     0.049 A 
ATOM     59  H   UNL A   1      43.890  28.851  29.934  1.00  0.00     0.167 HD
ATOM     60  C   UNL A   1      45.620  26.651  29.451  1.00  0.00     0.074 A 
ATOM     61  C   UNL A   1      46.101  25.347  29.041  1.00  0.00     0.031 C 
ATOM     62  C   UNL A   1      46.400  27.610  30.011  1.00  0.00     0.037 A 
BRANCH  49  63
ATOM     63  C   UNL A   1      43.394  32.857  31.331  1.00  0.00     0.058 A 
ATOM     64  C   UNL A   1      43.686  33.942  30.487  1.00  0.00     0.135 A 
ATOM     65  C   UNL A   1      43.171  33.128  32.690  1.00  0.00     0.135 A 
ATOM     66  F   UNL A   1      43.930  33.739  29.183  1.00  0.00    -0.206 F 
ATOM     67  C   UNL A   1      43.793  35.239  30.982  1.00  0.00     0.059 A 
ATOM     68  C   UNL A   1      43.244  34.420  33.201  1.00  0.00     0.059 A 
ATOM     69  F   UNL A   1      42.892  32.127  33.541  1.00  0.00    -0.206 F 
ATOM     70  C   UNL A   1      43.576  35.466  32.342  1.00  0.00     0.060 A 
BRANCH  70  71
ATOM     71  S   UNL A   1      43.743  37.147  32.978  1.00  0.00     0.124 S 
ATOM     72  O   UNL A   1      43.607  37.934  31.756  1.00  0.00    -0.237 OA
ATOM     73  O   UNL A   1      42.630  37.240  33.916  1.00  0.00    -0.237 OA
ATOM     74  O   UNL A   1      45.071  37.152  33.583  1.00  0.00    -0.744 OA
ENDBRANCH  70  71
ENDBRANCH  49  63
BRANCH  50  75
ATOM     75  C   UNL A   1      42.520  23.597  27.645  1.00  0.00     0.058 A 
ATOM     76  C   UNL A   1      42.464  23.367  26.263  1.00  0.00     0.135 A 
ATOM     77  C   UNL A   1      42.467  22.482  28.496  1.00  0.00     0.135 A 
ATOM     78  F   UNL A   1      42.501  24.401  25.408  1.00  0.00    -0.206 F 
ATOM     79  C   UNL A   1      42.349  22.083  25.742  1.00  0.00     0.059 A 
ATOM     80  C   UNL A   1      42.375  21.186  27.999  1.00  0.00     0.059 A 
ATOM     81  F   UNL A   1      42.527  22.647  29.826  1.00  0.00    -0.206 F 
ATOM     82  C   UNL A   1      42.311  20.997  26.619  1.00  0.00     0.060 A 
BRANCH  82  83
ATOM     83  S   UNL A   1      42.225  19.331  25.929  1.00  0.00     0.124 S 
ATOM     84  O   UNL A   1      43.096  19.449  24.766  1.00  0.00    -0.237 OA
ATOM     85  O   UNL A   1      42.734  18.519  27.030  1.00  0.00    -0.237 OA
ATOM     86  O   UNL A   1      40.804  19.162  25.641  1.00  0.00    -0.744 OA
ENDBRANCH  82  83
ENDBRANCH  50  75
BRANCH  62  87
ATOM     87  C   UNL A   1      47.841  27.265  30.271  1.00  0.00     0.058 A 
ATOM     88  C   UNL A   1      48.236  26.498  31.377  1.00  0.00     0.135 A 
ATOM     89  C   UNL A   1      48.837  27.681  29.372  1.00  0.00     0.135 A 
ATOM     90  F   UNL A   1      47.324  26.078  32.269  1.00  0.00    -0.206 F 
ATOM     91  C   UNL A   1      49.572  26.180  31.601  1.00  0.00     0.059 A 
ATOM     92  C   UNL A   1      50.176  27.351  29.561  1.00  0.00     0.059 A 
ATOM     93  F   UNL A   1      48.512  28.406  28.290  1.00  0.00    -0.206 F 
ATOM     94  C   UNL A   1      50.535  26.615  30.687  1.00  0.00     0.060 A 
BRANCH  94  95
ATOM     95  S   UNL A   1      52.265  26.186  30.978  1.00  0.00     0.124 S 
ATOM     96  O   UNL A   1      52.769  26.058  29.616  1.00  0.00    -0.237 OA
ATOM     97  O   UNL A   1      52.753  27.338  31.730  1.00  0.00    -0.237 OA
ATOM     98  O   UNL A   1      52.182  24.940  31.738  1.00  0.00    -0.744 OA
ENDBRANCH  94  95
ENDBRANCH  62  87
ENDBRANCH  36  37
ENDBRANCH  29  31
ENDBRANCH  28  29
ENDBRANCH  27  28
ENDBRANCH  26  27
ENDBRANCH   1  26
TORSDOF 21
ENDMDL
MODEL 2
REMARK VINA RESULT:     -10.9      4.034      6.566
REMARK SMILES O=C(CCc1nc(-c2ccccc2)c(-c2ccccc2)o1)OCCOCCOC(=O)c1ccc(-c2c3nc(c(-c4c(F)cc(S(=O)(=O)[O-])cc4F)c4ccc([nH]4)c(-c4c(F)cc(S(=O)(=O)[O-])cc4F)c4nc(c(-c5c(F)cc(S(=O)(=O)[O-])cc5F)c5ccc2[nH]5)C=C4)C=C3)cc1
REMARK SMILES IDX 25 1 24 2 23 3 22 4 2 5 1 6 3 7 4 8 5 9 6 10 21 11 7 12
REMARK SMILES IDX 14 13 8 14 9 15 13 16 10 17 12 18 11 19 15 20 16 21 20 22
REMARK SMILES IDX 17 23 19 24 18 25 26 26 27 27 28 28 29 29 30 30 31 31 32 32
REMARK SMILES IDX 96 33 33 34 95 35 34 36 35 37 36 38 89 39 37 40 94 41 88 42
REMARK SMILES IDX 90 43 38 44 93 45 87 46 86 47 39 49 73 50 52 51 72 52 53 53
REMARK SMILES IDX 56 54 71 55 91 56 54 57 55 58 70 60 92 61 57 62 40 63 41 64
REMARK SMILES IDX 50 65 42 66 43 67 49 68 51 69 44 70 45 71 46 72 47 73 48 74
REMARK SMILES IDX 74 75 75 76 84 77 76 78 77 79 83 80 85 81 78 82 79 83 80 84
REMARK SMILES IDX 81 85 82 86 58 87 59 88 68 89 60 90 61 91 67 92 69 93 62 94
REMARK SMILES IDX 63 95 64 96 65 97 66 98
REMARK H PARENT 90 48 56 59
REMARK Flexibility Score: inf
ROOT
ATOM      1  O   UNL A   1      34.130  34.792  32.879  1.00  0.00    -0.374 OA
ENDROOT
BRANCH   1   2
ATOM      2  C   UNL A   1      33.599  36.080  33.169  1.00  0.00     0.202 C 
BRANCH   2   3
ATOM      3  C   UNL A   1      33.770  37.176  32.116  1.00  0.00     0.261 C 
BRANCH   3   4
ATOM      4  O   UNL A   1      32.913  37.141  30.955  1.00  0.00    -0.463 OA
BRANCH   4   5
ATOM      5  C   UNL A   1      33.168  36.622  29.744  1.00  0.00     0.306 C 
ATOM      6  O   UNL A   1      33.322  37.368  28.778  1.00  0.00    -0.252 OA
BRANCH   5   7
ATOM      7  C   UNL A   1      33.156  35.135  29.547  1.00  0.00     0.132 C 
BRANCH   7   8
ATOM      8  C   UNL A   1      33.930  34.713  28.311  1.00  0.00     0.109 C 
BRANCH   8   9
ATOM      9  C   UNL A   1      34.355  33.294  28.378  1.00  0.00     0.196 A 
ATOM     10  N   UNL A   1      35.447  32.782  28.909  1.00  0.00    -0.213 NA
ATOM     11  O   UNL A   1      33.554  32.392  27.738  1.00  0.00    -0.440 OA
ATOM     12  C   UNL A   1      35.369  31.441  28.593  1.00  0.00     0.117 A 
ATOM     13  C   UNL A   1      34.199  31.195  27.898  1.00  0.00     0.162 A 
BRANCH  12  14
ATOM     14  C   UNL A   1      36.395  30.468  28.913  1.00  0.00     0.004 A 
ATOM     15  C   UNL A   1      37.306  30.031  27.938  1.00  0.00     0.010 A 
ATOM     16  C   UNL A   1      36.477  29.936  30.204  1.00  0.00     0.010 A 
ATOM     17  C   UNL A   1      38.251  29.048  28.237  1.00  0.00     0.001 A 
ATOM     18  C   UNL A   1      37.423  28.950  30.501  1.00  0.00     0.001 A 
ATOM     19  C   UNL A   1      38.303  28.503  29.517  1.00  0.00     0.000 A 
ENDBRANCH  12  14
BRANCH  13  20
ATOM     20  C   UNL A   1      33.561  30.033  27.314  1.00  0.00     0.020 A 
ATOM     21  C   UNL A   1      34.281  28.845  27.128  1.00  0.00     0.012 A 
ATOM     22  C   UNL A   1      32.199  30.066  26.991  1.00  0.00     0.012 A 
ATOM     23  C   UNL A   1      33.641  27.705  26.639  1.00  0.00     0.001 A 
ATOM     24  C   UNL A   1      31.564  28.928  26.492  1.00  0.00     0.001 A 
ATOM     25  C   UNL A   1      32.285  27.749  26.318  1.00  0.00     0.000 A 
ENDBRANCH  13  20
ENDBRANCH   8   9
ENDBRANCH   7   8
ENDBRANCH   5   7
ENDBRANCH   4   5
ENDBRANCH   3   4
ENDBRANCH   2   3
ENDBRANCH   1   2
BRANCH   1  26
ATOM     26  C   UNL A   1      35.472  34.686  32.420  1.00  0.00     0.202 C 
BRANCH  26  27
ATOM     27  C   UNL A   1      36.264  33.462  32.881  1.00  0.00     0.261 C 
BRANCH  27  28
ATOM     28  O   UNL A   1      37.363  33.167  32.004  1.00  0.00    -0.460 OA
BRANCH  28  29
ATOM     29  C   UNL A   1      38.529  32.886  32.625  1.00  0.00     0.338 C 
ATOM     30  O   UNL A   1      38.863  33.224  33.754  1.00  0.00    -0.246 OA
BRANCH  29  31
ATOM     31  C   UNL A   1      39.330  31.958  31.809  1.00  0.00     0.060 A 
ATOM     32  C   UNL A   1      39.944  30.879  32.460  1.00  0.00     0.016 A 
ATOM     33  C   UNL A   1      39.576  32.206  30.456  1.00  0.00     0.016 A 
ATOM     34  C   UNL A   1      40.875  30.100  31.783  1.00  0.00     0.010 A 
ATOM     35  C   UNL A   1      40.516  31.426  29.779  1.00  0.00     0.010 A 
ATOM     36  C   UNL A   1      41.211  30.410  30.459  1.00  0.00    -0.014 A 
BRANCH  36  37
ATOM     37  C   UNL A   1      42.452  29.839  29.882  1.00  0.00     0.031 A 
ATOM     38  C   UNL A   1      43.691  30.696  29.876  1.00  0.00     0.074 A 
ATOM     39  C   UNL A   1      42.497  28.577  29.426  1.00  0.00     0.049 A 
ATOM     40  N   UNL A   1      44.884  30.429  29.414  1.00  0.00    -0.248 NA
ATOM     41  C   UNL A   1      43.563  32.034  30.476  1.00  0.00     0.031 C 
ATOM     42  C   UNL A   1      41.382  27.633  29.440  1.00  0.00     0.029 A 
ATOM     43  N   UNL A   1      43.530  27.872  28.863  1.00  0.00    -0.354 N 
ATOM     44  C   UNL A   1      45.643  31.571  29.648  1.00  0.00     0.074 A 
ATOM     45  C   UNL A   1      44.771  32.539  30.275  1.00  0.00     0.031 C 
ATOM     46  C   UNL A   1      41.792  26.470  28.906  1.00  0.00     0.029 A 
ATOM     47  C   UNL A   1      43.186  26.597  28.486  1.00  0.00     0.049 A 
ATOM     48  H   UNL A   1      44.432  28.244  28.741  1.00  0.00     0.167 HD
ATOM     49  C   UNL A   1      46.950  31.791  29.373  1.00  0.00     0.037 A 
ATOM     50  C   UNL A   1      43.912  25.647  27.863  1.00  0.00     0.037 A 
ATOM     51  C   UNL A   1      47.815  30.819  28.756  1.00  0.00     0.049 A 
ATOM     52  C   UNL A   1      45.349  25.933  27.514  1.00  0.00     0.074 A 
ATOM     53  C   UNL A   1      49.156  30.938  28.438  1.00  0.00     0.029 A 
ATOM     54  N   UNL A   1      47.419  29.550  28.359  1.00  0.00    -0.354 N 
ATOM     55  N   UNL A   1      46.056  27.014  27.742  1.00  0.00    -0.248 NA
ATOM     56  C   UNL A   1      46.089  24.865  26.827  1.00  0.00     0.031 C 
ATOM     57  C   UNL A   1      49.560  29.756  27.808  1.00  0.00     0.029 A 
ATOM     58  C   UNL A   1      48.486  28.881  27.782  1.00  0.00     0.049 A 
ATOM     59  H   UNL A   1      46.515  29.180  28.470  1.00  0.00     0.167 HD
ATOM     60  C   UNL A   1      47.335  26.743  27.265  1.00  0.00     0.074 A 
ATOM     61  C   UNL A   1      47.302  25.395  26.734  1.00  0.00     0.031 C 
ATOM     62  C   UNL A   1      48.438  27.533  27.273  1.00  0.00     0.037 A 
BRANCH  49  63
ATOM     63  C   UNL A   1      47.503  33.151  29.697  1.00  0.00     0.058 A 
ATOM     64  C   UNL A   1      48.093  33.440  30.938  1.00  0.00     0.135 A 
ATOM     65  C   UNL A   1      47.426  34.187  28.752  1.00  0.00     0.135 A 
ATOM     66  F   UNL A   1      48.173  32.493  31.886  1.00  0.00    -0.206 F 
ATOM     67  C   UNL A   1      48.551  34.718  31.245  1.00  0.00     0.059 A 
ATOM     68  C   UNL A   1      47.903  35.465  29.027  1.00  0.00     0.059 A 
ATOM     69  F   UNL A   1      46.868  33.966  27.551  1.00  0.00    -0.206 F 
ATOM     70  C   UNL A   1      48.446  35.725  30.284  1.00  0.00     0.060 A 
BRANCH  70  71
ATOM     71  S   UNL A   1      49.019  37.385  30.703  1.00  0.00     0.124 S 
ATOM     72  O   UNL A   1      50.147  37.090  31.580  1.00  0.00    -0.237 OA
ATOM     73  O   UNL A   1      49.361  37.937  29.396  1.00  0.00    -0.237 OA
ATOM     74  O   UNL A   1      47.860  37.991  31.351  1.00  0.00    -0.744 OA
ENDBRANCH  70  71
ENDBRANCH  49  63
BRANCH  50  75
ATOM     75  C   UNL A   1      43.296  24.332  27.543  1.00  0.00     0.058 A 
ATOM     76  C   UNL A   1      42.791  24.064  26.263  1.00  0.00     0.135 A 
ATOM     77  C   UNL A   1      43.208  23.316  28.507  1.00  0.00     0.135 A 
ATOM     78  F   UNL A   1      42.842  25.007  25.310  1.00  0.00    -0.206 F 
ATOM     79  C   UNL A   1      42.211  22.839  25.951  1.00  0.00     0.059 A 
ATOM     80  C   UNL A   1      42.654  22.074  28.213  1.00  0.00     0.059 A 
ATOM     81  F   UNL A   1      43.687  23.519  29.745  1.00  0.00    -0.206 F 
ATOM     82  C   UNL A   1      42.152  21.848  26.932  1.00  0.00     0.060 A 
BRANCH  82  83
ATOM     83  S   UNL A   1      41.455  20.241  26.496  1.00  0.00     0.124 S 
ATOM     84  O   UNL A   1      42.310  19.839  25.386  1.00  0.00    -0.237 OA
ATOM     85  O   UNL A   1      41.621  19.490  27.737  1.00  0.00    -0.237 OA
ATOM     86  O   UNL A   1      40.073  20.560  26.147  1.00  0.00    -0.744 OA
ENDBRANCH  82  83
ENDBRANCH  50  75
BRANCH  62  87
ATOM     87  C   UNL A   1      49.718  26.940  26.750  1.00  0.00     0.058 A 
ATOM     88  C   UNL A   1      50.617  26.255  27.580  1.00  0.00     0.135 A 
ATOM     89  C   UNL A   1      50.026  27.028  25.382  1.00  0.00     0.135 A 
ATOM     90  F   UNL A   1      50.372  26.146  28.896  1.00  0.00    -0.206 F 
ATOM     91  C   UNL A   1      51.793  25.706  27.080  1.00  0.00     0.059 A 
ATOM     92  C   UNL A   1      51.182  26.461  24.855  1.00  0.00     0.059 A 
ATOM     93  F   UNL A   1      49.192  27.661  24.540  1.00  0.00    -0.206 F 
ATOM     94  C   UNL A   1      52.068  25.817  25.715  1.00  0.00     0.060 A 
BRANCH  94  95
ATOM     95  S   UNL A   1      53.589  25.088  25.073  1.00  0.00     0.124 S 
ATOM     96  O   UNL A   1      53.310  23.662  25.203  1.00  0.00    -0.237 OA
ATOM     97  O   UNL A   1      53.634  25.604  23.708  1.00  0.00    -0.237 OA
ATOM     98  O   UNL A   1      54.620  25.611  25.967  1.00  0.00    -0.744 OA
ENDBRANCH  94  95
ENDBRANCH  62  87
ENDBRANCH  36  37
ENDBRANCH  29  31
ENDBRANCH  28  29
ENDBRANCH  27  28
ENDBRANCH  26  27
ENDBRANCH   1  26
TORSDOF 21
ENDMDL
MODEL 3
REMARK VINA RESULT:     -10.8      5.491     11.971
REMARK SMILES O=C(CCc1nc(-c2ccccc2)c(-c2ccccc2)o1)OCCOCCOC(=O)c1ccc(-c2c3nc(c(-c4c(F)cc(S(=O)(=O)[O-])cc4F)c4ccc([nH]4)c(-c4c(F)cc(S(=O)(=O)[O-])cc4F)c4nc(c(-c5c(F)cc(S(=O)(=O)[O-])cc5F)c5ccc2[nH]5)C=C4)C=C3)cc1
REMARK SMILES IDX 25 1 24 2 23 3 22 4 2 5 1 6 3 7 4 8 5 9 6 10 21 11 7 12
REMARK SMILES IDX 14 13 8 14 9 15 13 16 10 17 12 18 11 19 15 20 16 21 20 22
REMARK SMILES IDX 17 23 19 24 18 25 26 26 27 27 28 28 29 29 30 30 31 31 32 32
REMARK SMILES IDX 96 33 33 34 95 35 34 36 35 37 36 38 89 39 37 40 94 41 88 42
REMARK SMILES IDX 90 43 38 44 93 45 87 46 86 47 39 49 73 50 52 51 72 52 53 53
REMARK SMILES IDX 56 54 71 55 91 56 54 57 55 58 70 60 92 61 57 62 40 63 41 64
REMARK SMILES IDX 50 65 42 66 43 67 49 68 51 69 44 70 45 71 46 72 47 73 48 74
REMARK SMILES IDX 74 75 75 76 84 77 76 78 77 79 83 80 85 81 78 82 79 83 80 84
REMARK SMILES IDX 81 85 82 86 58 87 59 88 68 89 60 90 61 91 67 92 69 93 62 94
REMARK SMILES IDX 63 95 64 96 65 97 66 98
REMARK H PARENT 90 48 56 59
REMARK Flexibility Score: inf
ROOT
ATOM      1  O   UNL A   1      41.950  19.709  27.455  1.00  0.00    -0.374 OA
ENDROOT
BRANCH   1   2
ATOM      2  C   UNL A   1      42.409  18.818  26.444  1.00  0.00     0.202 C 
BRANCH   2   3
ATOM      3  C   UNL A   1      43.505  19.315  25.499  1.00  0.00     0.261 C 
BRANCH   3   4
ATOM      4  O   UNL A   1      44.493  18.366  25.047  1.00  0.00    -0.463 OA
BRANCH   4   5
ATOM      5  C   UNL A   1      45.812  18.348  25.302  1.00  0.00     0.306 C 
ATOM      6  O   UNL A   1      46.379  17.278  25.516  1.00  0.00    -0.252 OA
BRANCH   5   7
ATOM      7  C   UNL A   1      46.568  19.636  25.436  1.00  0.00     0.132 C 
BRANCH   7   8
ATOM      8  C   UNL A   1      46.146  20.661  24.399  1.00  0.00     0.109 C 
BRANCH   8   9
ATOM      9  C   UNL A   1      46.051  22.026  24.971  1.00  0.00     0.196 A 
ATOM     10  N   UNL A   1      46.277  23.185  24.386  1.00  0.00    -0.213 NA
ATOM     11  O   UNL A   1      45.768  22.104  26.305  1.00  0.00    -0.440 OA
ATOM     12  C   UNL A   1      46.140  24.101  25.410  1.00  0.00     0.117 A 
ATOM     13  C   UNL A   1      45.804  23.444  26.579  1.00  0.00     0.162 A 
BRANCH  12  14
ATOM     14  C   UNL A   1      46.367  25.525  25.262  1.00  0.00     0.004 A 
ATOM     15  C   UNL A   1      47.666  26.056  25.279  1.00  0.00     0.010 A 
ATOM     16  C   UNL A   1      45.280  26.396  25.120  1.00  0.00     0.010 A 
ATOM     17  C   UNL A   1      47.872  27.434  25.199  1.00  0.00     0.001 A 
ATOM     18  C   UNL A   1      45.489  27.776  25.043  1.00  0.00     0.001 A 
ATOM     19  C   UNL A   1      46.783  28.294  25.090  1.00  0.00     0.000 A 
ENDBRANCH  12  14
BRANCH  13  20
ATOM     20  C   UNL A   1      45.529  23.832  27.947  1.00  0.00     0.020 A 
ATOM     21  C   UNL A   1      46.179  24.935  28.518  1.00  0.00     0.012 A 
ATOM     22  C   UNL A   1      44.559  23.148  28.691  1.00  0.00     0.012 A 
ATOM     23  C   UNL A   1      45.851  25.353  29.809  1.00  0.00     0.001 A 
ATOM     24  C   UNL A   1      44.242  23.561  29.986  1.00  0.00     0.001 A 
ATOM     25  C   UNL A   1      44.887  24.663  30.542  1.00  0.00     0.000 A 
ENDBRANCH  13  20
ENDBRANCH   8   9
ENDBRANCH   7   8
ENDBRANCH   5   7
ENDBRANCH   4   5
ENDBRANCH   3   4
ENDBRANCH   2   3
ENDBRANCH   1   2
BRANCH   1  26
ATOM     26  C   UNL A   1      40.891  20.609  27.152  1.00  0.00     0.202 C 
BRANCH  26  27
ATOM     27  C   UNL A   1      41.261  21.870  26.370  1.00  0.00     0.261 C 
BRANCH  27  28
ATOM     28  O   UNL A   1      41.294  23.036  27.209  1.00  0.00    -0.460 OA
BRANCH  28  29
ATOM     29  C   UNL A   1      41.899  24.114  26.663  1.00  0.00     0.338 C 
ATOM     30  O   UNL A   1      42.631  24.129  25.681  1.00  0.00    -0.246 OA
BRANCH  29  31
ATOM     31  C   UNL A   1      41.439  25.346  27.325  1.00  0.00     0.060 A 
ATOM     32  C   UNL A   1      42.280  26.465  27.278  1.00  0.00     0.016 A 
ATOM     33  C   UNL A   1      40.263  25.370  28.079  1.00  0.00     0.016 A 
ATOM     34  C   UNL A   1      41.994  27.580  28.059  1.00  0.00     0.010 A 
ATOM     35  C   UNL A   1      39.981  26.489  28.868  1.00  0.00     0.010 A 
ATOM     36  C   UNL A   1      40.877  27.571  28.904  1.00  0.00    -0.014 A 
BRANCH  36  37
ATOM     37  C   UNL A   1      40.795  28.573  29.994  1.00  0.00     0.031 A 
ATOM     38  C   UNL A   1      41.838  28.527  31.080  1.00  0.00     0.074 A 
ATOM     39  C   UNL A   1      39.856  29.533  29.993  1.00  0.00     0.049 A 
ATOM     40  N   UNL A   1      41.966  29.279  32.142  1.00  0.00    -0.248 NA
ATOM     41  C   UNL A   1      42.876  27.492  30.947  1.00  0.00     0.031 C 
ATOM     42  C   UNL A   1      38.837  29.718  28.963  1.00  0.00     0.029 A 
ATOM     43  N   UNL A   1      39.612  30.537  30.894  1.00  0.00    -0.354 N 
ATOM     44  C   UNL A   1      43.085  28.798  32.812  1.00  0.00     0.074 A 
ATOM     45  C   UNL A   1      43.586  27.676  32.049  1.00  0.00     0.031 C 
ATOM     46  C   UNL A   1      38.073  30.773  29.293  1.00  0.00     0.029 A 
ATOM     47  C   UNL A   1      38.530  31.318  30.569  1.00  0.00     0.049 A 
ATOM     48  H   UNL A   1      40.160  30.685  31.698  1.00  0.00     0.167 HD
ATOM     49  C   UNL A   1      43.648  29.252  33.956  1.00  0.00     0.037 A 
ATOM     50  C   UNL A   1      37.968  32.347  31.234  1.00  0.00     0.037 A 
ATOM     51  C   UNL A   1      43.148  30.374  34.706  1.00  0.00     0.049 A 
ATOM     52  C   UNL A   1      38.576  32.801  32.535  1.00  0.00     0.074 A 
ATOM     53  C   UNL A   1      43.646  30.920  35.876  1.00  0.00     0.029 A 
ATOM     54  N   UNL A   1      42.029  31.117  34.361  1.00  0.00    -0.354 N 
ATOM     55  N   UNL A   1      39.635  32.339  33.159  1.00  0.00    -0.248 NA
ATOM     56  C   UNL A   1      37.917  33.921  33.221  1.00  0.00     0.031 C 
ATOM     57  C   UNL A   1      42.802  31.967  36.261  1.00  0.00     0.029 A 
ATOM     58  C   UNL A   1      41.810  32.108  35.305  1.00  0.00     0.049 A 
ATOM     59  H   UNL A   1      41.473  30.965  33.565  1.00  0.00     0.167 HD
ATOM     60  C   UNL A   1      39.792  33.137  34.288  1.00  0.00     0.074 A 
ATOM     61  C   UNL A   1      38.718  34.110  34.261  1.00  0.00     0.031 C 
ATOM     62  C   UNL A   1      40.744  33.077  35.253  1.00  0.00     0.037 A 
BRANCH  49  63
ATOM     63  C   UNL A   1      44.839  28.500  34.483  1.00  0.00     0.058 A 
ATOM     64  C   UNL A   1      44.703  27.415  35.365  1.00  0.00     0.135 A 
ATOM     65  C   UNL A   1      46.137  28.883  34.112  1.00  0.00     0.135 A 
ATOM     66  F   UNL A   1      43.486  27.020  35.771  1.00  0.00    -0.206 F 
ATOM     67  C   UNL A   1      45.815  26.762  35.890  1.00  0.00     0.059 A 
ATOM     68  C   UNL A   1      47.262  28.227  34.601  1.00  0.00     0.059 A 
ATOM     69  F   UNL A   1      46.323  29.916  33.274  1.00  0.00    -0.206 F 
ATOM     70  C   UNL A   1      47.091  27.181  35.506  1.00  0.00     0.060 A 
BRANCH  70  71
ATOM     71  S   UNL A   1      48.527  26.344  36.213  1.00  0.00     0.124 S 
ATOM     72  O   UNL A   1      49.616  27.198  35.750  1.00  0.00    -0.237 OA
ATOM     73  O   UNL A   1      48.246  26.396  37.644  1.00  0.00    -0.237 OA
ATOM     74  O   UNL A   1      48.473  25.014  35.615  1.00  0.00    -0.744 OA
ENDBRANCH  70  71
ENDBRANCH  49  63
BRANCH  50  75
ATOM     75  C   UNL A   1      36.771  33.029  30.674  1.00  0.00     0.058 A 
ATOM     76  C   UNL A   1      35.501  32.834  31.233  1.00  0.00     0.135 A 
ATOM     77  C   UNL A   1      36.876  33.894  29.573  1.00  0.00     0.135 A 
ATOM     78  F   UNL A   1      35.347  32.008  32.280  1.00  0.00    -0.206 F 
ATOM     79  C   UNL A   1      34.373  33.464  30.717  1.00  0.00     0.059 A 
ATOM     80  C   UNL A   1      35.766  34.555  29.054  1.00  0.00     0.059 A 
ATOM     81  F   UNL A   1      38.071  34.123  29.008  1.00  0.00    -0.206 F 
ATOM     82  C   UNL A   1      34.518  34.327  29.630  1.00  0.00     0.060 A 
BRANCH  82  83
ATOM     83  S   UNL A   1      33.057  35.188  29.010  1.00  0.00     0.124 S 
ATOM     84  O   UNL A   1      32.241  35.289  30.214  1.00  0.00    -0.237 OA
ATOM     85  O   UNL A   1      33.627  36.438  28.516  1.00  0.00    -0.237 OA
ATOM     86  O   UNL A   1      32.552  34.288  27.976  1.00  0.00    -0.744 OA
ENDBRANCH  82  83
ENDBRANCH  50  75
BRANCH  62  87
ATOM     87  C   UNL A   1      40.707  34.129  36.328  1.00  0.00     0.058 A 
ATOM     88  C   UNL A   1      41.376  35.355  36.196  1.00  0.00     0.135 A 
ATOM     89  C   UNL A   1      39.951  33.918  37.493  1.00  0.00     0.135 A 
ATOM     90  F   UNL A   1      42.115  35.606  35.103  1.00  0.00    -0.206 F 
ATOM     91  C   UNL A   1      41.327  36.321  37.195  1.00  0.00     0.059 A 
ATOM     92  C   UNL A   1      39.864  34.881  38.493  1.00  0.00     0.059 A 
ATOM     93  F   UNL A   1      39.279  32.768  37.664  1.00  0.00    -0.206 F 
ATOM     94  C   UNL A   1      40.569  36.074  38.342  1.00  0.00     0.060 A 
BRANCH  94  95
ATOM     95  S   UNL A   1      40.498  37.340  39.627  1.00  0.00     0.124 S 
ATOM     96  O   UNL A   1      39.256  38.027  39.294  1.00  0.00    -0.237 OA
ATOM     97  O   UNL A   1      40.476  36.545  40.851  1.00  0.00    -0.237 OA
ATOM     98  O   UNL A   1      41.721  38.111  39.411  1.00  0.00    -0.744 OA
ENDBRANCH  94  95
ENDBRANCH  62  87
ENDBRANCH  36  37
ENDBRANCH  29  31
ENDBRANCH  28  29
ENDBRANCH  27  28
ENDBRANCH  26  27
ENDBRANCH   1  26
TORSDOF 21
ENDMDL
