MODEL 1
REMARK VINA RESULT:     -11.1      0.000      0.000
REMARK SMILES Cc1c(Cl)ccc2c1C=C(C(=O)OCCOCCOC(=O)c1ccc(-c3c4nc(c(-c5c(F)cc(S(=O)(=O)[O-])cc5F)c5ccc([nH]5)c(-c5c(F)cc(S(=O)(=O)[O-])cc5F)c5nc(c(-c6c(F)cc(S(=O)(=O)[O-])cc6F)c6ccc3[nH]6)C=C5)C=C4)cc1)[C@@H](C(F)(F)F)O2
REMARK SMILES IDX 17 1 16 2 15 3 14 4 13 5 11 6 12 7 10 8 1 9 2 10 3 11 8 12
REMARK SMILES IDX 4 13 5 14 7 15 9 16 6 17 93 18 88 19 89 20 90 21 91 22 92 23
REMARK SMILES IDX 18 24 19 25 20 26 21 27 22 28 23 29 87 30 24 31 86 32 25 33
REMARK SMILES IDX 26 34 27 35 80 36 28 37 85 38 79 39 81 40 29 41 84 42 78 43
REMARK SMILES IDX 77 44 30 46 64 47 43 48 63 49 44 50 47 51 62 52 82 53 45 54
REMARK SMILES IDX 46 55 61 57 83 58 48 59 31 60 32 61 41 62 33 63 34 64 40 65
REMARK SMILES IDX 42 66 35 67 36 68 37 69 38 70 39 71 65 72 66 73 75 74 67 75
REMARK SMILES IDX 68 76 74 77 76 78 69 79 70 80 71 81 72 82 73 83 49 84 50 85
REMARK SMILES IDX 59 86 51 87 52 88 58 89 60 90 53 91 54 92 55 93 56 94 57 95
REMARK H PARENT 81 45 47 56
REMARK Flexibility Score: inf
ROOT
ATOM      1  C   UNL A   1      31.916  30.482  26.610  1.00  0.00     0.202 C 
ENDROOT
BRANCH   1   2
ATOM      2  O   UNL A   1      31.765  29.746  25.393  1.00  0.00    -0.374 OA
BRANCH   2   3
ATOM      3  C   UNL A   1      32.952  29.329  24.721  1.00  0.00     0.202 C 
BRANCH   3   4
ATOM      4  C   UNL A   1      32.797  28.912  23.255  1.00  0.00     0.261 C 
BRANCH   4   5
ATOM      5  O   UNL A   1      33.565  27.739  22.946  1.00  0.00    -0.460 OA
BRANCH   5   6
ATOM      6  C   UNL A   1      32.845  26.595  22.892  1.00  0.00     0.338 C 
ATOM      7  O   UNL A   1      32.042  26.269  22.030  1.00  0.00    -0.246 OA
BRANCH   6   8
ATOM      8  C   UNL A   1      33.265  25.689  23.978  1.00  0.00     0.087 C 
ATOM      9  C   UNL A   1      36.435  22.943  23.067  1.00  0.00     0.047 C 
ATOM     10  C   UNL A   1      35.655  22.871  24.357  1.00  0.00    -0.021 A 
ATOM     11  C   UNL A   1      35.869  21.841  25.293  1.00  0.00     0.044 A 
ATOM     12  C   UNL A   1      34.661  23.842  24.645  1.00  0.00     0.022 A 
ATOM     13  Cl  UNL A   1      36.978  20.545  25.007  1.00  0.00    -0.084 Cl
ATOM     14  C   UNL A   1      35.167  21.813  26.501  1.00  0.00     0.024 A 
ATOM     15  C   UNL A   1      33.993  23.824  25.877  1.00  0.00     0.128 A 
ATOM     16  C   UNL A   1      34.251  24.841  23.664  1.00  0.00     0.027 C 
ATOM     17  C   UNL A   1      34.251  22.816  26.803  1.00  0.00     0.048 A 
ATOM     18  O   UNL A   1      33.075  24.756  26.272  1.00  0.00    -0.475 OA
ATOM     19  C   UNL A   1      32.590  25.737  25.316  1.00  0.00     0.316 C 
BRANCH  19  20
ATOM     20  C   UNL A   1      31.064  25.590  25.215  1.00  0.00     0.430 C 
ATOM     21  F   UNL A   1      30.484  26.757  24.844  1.00  0.00    -0.167 F 
ATOM     22  F   UNL A   1      30.707  24.666  24.293  1.00  0.00    -0.167 F 
ATOM     23  F   UNL A   1      30.517  25.220  26.395  1.00  0.00    -0.167 F 
ENDBRANCH  19  20
ENDBRANCH   6   8
ENDBRANCH   5   6
ENDBRANCH   4   5
ENDBRANCH   3   4
ENDBRANCH   2   3
ENDBRANCH   1   2
BRANCH   1  24
ATOM     24  C   UNL A   1      33.128  30.146  27.486  1.00  0.00     0.261 C 
BRANCH  24  25
ATOM     25  O   UNL A   1      34.113  31.198  27.457  1.00  0.00    -0.460 OA
BRANCH  25  26
ATOM     26  C   UNL A   1      34.776  31.387  28.622  1.00  0.00     0.338 C 
ATOM     27  O   UNL A   1      34.398  32.028  29.592  1.00  0.00    -0.246 OA
BRANCH  26  28
ATOM     28  C   UNL A   1      35.988  30.555  28.651  1.00  0.00     0.060 A 
ATOM     29  C   UNL A   1      36.463  30.128  29.899  1.00  0.00     0.016 A 
ATOM     30  C   UNL A   1      36.721  30.320  27.488  1.00  0.00     0.016 A 
ATOM     31  C   UNL A   1      37.704  29.503  29.992  1.00  0.00     0.010 A 
ATOM     32  C   UNL A   1      37.976  29.713  27.587  1.00  0.00     0.010 A 
ATOM     33  C   UNL A   1      38.489  29.343  28.844  1.00  0.00    -0.014 A 
BRANCH  33  34
ATOM     34  C   UNL A   1      39.919  28.990  28.986  1.00  0.00     0.031 A 
ATOM     35  C   UNL A   1      40.869  30.042  29.492  1.00  0.00     0.074 A 
ATOM     36  C   UNL A   1      40.360  27.754  28.701  1.00  0.00     0.049 A 
ATOM     37  N   UNL A   1      42.164  29.981  29.656  1.00  0.00    -0.248 NA
ATOM     38  C   UNL A   1      40.275  31.337  29.869  1.00  0.00     0.031 C 
ATOM     39  C   UNL A   1      39.524  26.638  28.262  1.00  0.00     0.029 A 
ATOM     40  N   UNL A   1      41.628  27.232  28.736  1.00  0.00    -0.354 N 
ATOM     41  C   UNL A   1      42.540  31.220  30.162  1.00  0.00     0.074 A 
ATOM     42  C   UNL A   1      41.341  32.024  30.251  1.00  0.00     0.031 C 
ATOM     43  C   UNL A   1      40.306  25.564  28.055  1.00  0.00     0.029 A 
ATOM     44  C   UNL A   1      41.698  25.925  28.318  1.00  0.00     0.049 A 
ATOM     45  H   UNL A   1      42.414  27.745  29.033  1.00  0.00     0.167 HD
ATOM     46  C   UNL A   1      43.771  31.645  30.526  1.00  0.00     0.037 A 
ATOM     47  C   UNL A   1      42.768  25.124  28.146  1.00  0.00     0.037 A 
ATOM     48  C   UNL A   1      44.963  30.846  30.418  1.00  0.00     0.049 A 
ATOM     49  C   UNL A   1      44.144  25.655  28.456  1.00  0.00     0.074 A 
ATOM     50  C   UNL A   1      46.261  31.187  30.754  1.00  0.00     0.029 A 
ATOM     51  N   UNL A   1      45.003  29.549  29.928  1.00  0.00    -0.354 N 
ATOM     52  N   UNL A   1      44.488  26.830  28.931  1.00  0.00    -0.248 NA
ATOM     53  C   UNL A   1      45.279  24.756  28.199  1.00  0.00     0.031 C 
ATOM     54  C   UNL A   1      47.092  30.111  30.426  1.00  0.00     0.029 A 
ATOM     55  C   UNL A   1      46.307  29.084  29.927  1.00  0.00     0.049 A 
ATOM     56  H   UNL A   1      44.218  29.036  29.626  1.00  0.00     0.167 HD
ATOM     57  C   UNL A   1      45.874  26.805  29.043  1.00  0.00     0.074 A 
ATOM     58  C   UNL A   1      46.305  25.494  28.601  1.00  0.00     0.031 C 
ATOM     59  C   UNL A   1      46.716  27.778  29.474  1.00  0.00     0.037 A 
BRANCH  46  60
ATOM     60  C   UNL A   1      43.892  33.044  31.059  1.00  0.00     0.058 A 
ATOM     61  C   UNL A   1      44.026  34.145  30.199  1.00  0.00     0.135 A 
ATOM     62  C   UNL A   1      43.840  33.290  32.440  1.00  0.00     0.135 A 
ATOM     63  F   UNL A   1      44.103  33.962  28.872  1.00  0.00    -0.206 F 
ATOM     64  C   UNL A   1      44.118  35.443  30.691  1.00  0.00     0.059 A 
ATOM     65  C   UNL A   1      43.909  34.582  32.953  1.00  0.00     0.059 A 
ATOM     66  F   UNL A   1      43.722  32.270  33.304  1.00  0.00    -0.206 F 
ATOM     67  C   UNL A   1      44.058  35.651  32.071  1.00  0.00     0.060 A 
BRANCH  67  68
ATOM     68  S   UNL A   1      44.165  37.342  32.691  1.00  0.00     0.124 S 
ATOM     69  O   UNL A   1      45.522  37.371  33.229  1.00  0.00    -0.237 OA
ATOM     70  O   UNL A   1      43.946  38.132  31.483  1.00  0.00    -0.237 OA
ATOM     71  O   UNL A   1      43.096  37.411  33.683  1.00  0.00    -0.744 OA
ENDBRANCH  67  68
ENDBRANCH  46  60
BRANCH  47  72
ATOM     72  C   UNL A   1      42.585  23.739  27.638  1.00  0.00     0.058 A 
ATOM     73  C   UNL A   1      42.513  23.479  26.263  1.00  0.00     0.135 A 
ATOM     74  C   UNL A   1      42.483  22.650  28.517  1.00  0.00     0.135 A 
ATOM     75  F   UNL A   1      42.590  24.491  25.384  1.00  0.00    -0.206 F 
ATOM     76  C   UNL A   1      42.340  22.188  25.774  1.00  0.00     0.059 A 
ATOM     77  C   UNL A   1      42.332  21.348  28.052  1.00  0.00     0.059 A 
ATOM     78  F   UNL A   1      42.552  22.847  29.843  1.00  0.00    -0.206 F 
ATOM     79  C   UNL A   1      42.256  21.127  26.678  1.00  0.00     0.060 A 
BRANCH  79  80
ATOM     80  S   UNL A   1      42.087  19.451  26.029  1.00  0.00     0.124 S 
ATOM     81  O   UNL A   1      42.557  18.651  27.155  1.00  0.00    -0.237 OA
ATOM     82  O   UNL A   1      40.659  19.376  25.744  1.00  0.00    -0.237 OA
ATOM     83  O   UNL A   1      42.954  19.457  24.854  1.00  0.00    -0.744 OA
ENDBRANCH  79  80
ENDBRANCH  47  72
BRANCH  59  84
ATOM     84  C   UNL A   1      48.186  27.465  29.493  1.00  0.00     0.058 A 
ATOM     85  C   UNL A   1      49.027  27.843  28.436  1.00  0.00     0.135 A 
ATOM     86  C   UNL A   1      48.770  26.842  30.607  1.00  0.00     0.135 A 
ATOM     87  F   UNL A   1      48.518  28.438  27.345  1.00  0.00    -0.206 F 
ATOM     88  C   UNL A   1      50.396  27.598  28.475  1.00  0.00     0.059 A 
ATOM     89  C   UNL A   1      50.140  26.609  30.679  1.00  0.00     0.059 A 
ATOM     90  F   UNL A   1      48.010  26.471  31.650  1.00  0.00    -0.206 F 
ATOM     91  C   UNL A   1      50.943  26.983  29.602  1.00  0.00     0.060 A 
BRANCH  91  92
ATOM     92  S   UNL A   1      52.726  26.706  29.655  1.00  0.00     0.124 S 
ATOM     93  O   UNL A   1      52.955  26.018  28.388  1.00  0.00    -0.237 OA
ATOM     94  O   UNL A   1      53.252  28.065  29.741  1.00  0.00    -0.237 OA
ATOM     95  O   UNL A   1      52.910  25.893  30.853  1.00  0.00    -0.744 OA
ENDBRANCH  91  92
ENDBRANCH  59  84
ENDBRANCH  33  34
ENDBRANCH  26  28
ENDBRANCH  25  26
ENDBRANCH  24  25
ENDBRANCH   1  24
TORSDOF 18
ENDMDL
MODEL 2
REMARK VINA RESULT:     -10.9      5.210     10.632
REMARK SMILES Cc1c(Cl)ccc2c1C=C(C(=O)OCCOCCOC(=O)c1ccc(-c3c4nc(c(-c5c(F)cc(S(=O)(=O)[O-])cc5F)c5ccc([nH]5)c(-c5c(F)cc(S(=O)(=O)[O-])cc5F)c5nc(c(-c6c(F)cc(S(=O)(=O)[O-])cc6F)c6ccc3[nH]6)C=C5)C=C4)cc1)[C@@H](C(F)(F)F)O2
REMARK SMILES IDX 17 1 16 2 15 3 14 4 13 5 11 6 12 7 10 8 1 9 2 10 3 11 8 12
REMARK SMILES IDX 4 13 5 14 7 15 9 16 6 17 93 18 88 19 89 20 90 21 91 22 92 23
REMARK SMILES IDX 18 24 19 25 20 26 21 27 22 28 23 29 87 30 24 31 86 32 25 33
REMARK SMILES IDX 26 34 27 35 80 36 28 37 85 38 79 39 81 40 29 41 84 42 78 43
REMARK SMILES IDX 77 44 30 46 64 47 43 48 63 49 44 50 47 51 62 52 82 53 45 54
REMARK SMILES IDX 46 55 61 57 83 58 48 59 31 60 32 61 41 62 33 63 34 64 40 65
REMARK SMILES IDX 42 66 35 67 36 68 37 69 38 70 39 71 65 72 66 73 75 74 67 75
REMARK SMILES IDX 68 76 74 77 76 78 69 79 70 80 71 81 72 82 73 83 49 84 50 85
REMARK SMILES IDX 59 86 51 87 52 88 58 89 60 90 53 91 54 92 55 93 56 94 57 95
REMARK H PARENT 81 45 47 56
REMARK Flexibility Score: inf
ROOT
ATOM      1  C   UNL A   1      37.278  23.425  24.876  1.00  0.00     0.202 C 
ENDROOT
BRANCH   1   2
ATOM      2  O   UNL A   1      36.426  22.305  24.621  1.00  0.00    -0.374 OA
BRANCH   2   3
ATOM      3  C   UNL A   1      35.238  22.536  23.866  1.00  0.00     0.202 C 
BRANCH   3   4
ATOM      4  C   UNL A   1      34.788  23.994  23.730  1.00  0.00     0.261 C 
BRANCH   4   5
ATOM      5  O   UNL A   1      33.443  24.186  24.193  1.00  0.00    -0.460 OA
BRANCH   5   6
ATOM      6  C   UNL A   1      33.346  24.678  25.450  1.00  0.00     0.338 C 
ATOM      7  O   UNL A   1      33.668  24.118  26.487  1.00  0.00    -0.246 OA
BRANCH   6   8
ATOM      8  C   UNL A   1      32.908  26.085  25.402  1.00  0.00     0.087 C 
ATOM      9  C   UNL A   1      35.359  28.928  27.483  1.00  0.00     0.047 C 
ATOM     10  C   UNL A   1      34.021  29.300  26.893  1.00  0.00    -0.021 A 
ATOM     11  C   UNL A   1      33.467  30.582  27.071  1.00  0.00     0.044 A 
ATOM     12  C   UNL A   1      33.276  28.345  26.155  1.00  0.00     0.022 A 
ATOM     13  Cl  UNL A   1      34.231  31.796  28.037  1.00  0.00    -0.084 Cl
ATOM     14  C   UNL A   1      32.246  30.923  26.483  1.00  0.00     0.024 A 
ATOM     15  C   UNL A   1      32.073  28.712  25.537  1.00  0.00     0.128 A 
ATOM     16  C   UNL A   1      33.688  26.948  26.064  1.00  0.00     0.027 C 
ATOM     17  C   UNL A   1      31.564  29.998  25.697  1.00  0.00     0.048 A 
ATOM     18  O   UNL A   1      31.325  27.884  24.749  1.00  0.00    -0.475 OA
ATOM     19  C   UNL A   1      31.657  26.471  24.671  1.00  0.00     0.316 C 
BRANCH  19  20
ATOM     20  C   UNL A   1      30.431  25.666  25.128  1.00  0.00     0.430 C 
ATOM     21  F   UNL A   1      30.518  25.348  26.442  1.00  0.00    -0.167 F 
ATOM     22  F   UNL A   1      29.283  26.365  24.970  1.00  0.00    -0.167 F 
ATOM     23  F   UNL A   1      30.304  24.511  24.436  1.00  0.00    -0.167 F 
ENDBRANCH  19  20
ENDBRANCH   6   8
ENDBRANCH   5   6
ENDBRANCH   4   5
ENDBRANCH   3   4
ENDBRANCH   2   3
ENDBRANCH   1   2
BRANCH   1  24
ATOM     24  C   UNL A   1      38.260  23.306  26.047  1.00  0.00     0.261 C 
BRANCH  24  25
ATOM     25  O   UNL A   1      38.420  24.562  26.737  1.00  0.00    -0.460 OA
BRANCH  25  26
ATOM     26  C   UNL A   1      39.655  25.109  26.641  1.00  0.00     0.338 C 
ATOM     27  O   UNL A   1      40.382  25.128  25.658  1.00  0.00    -0.246 OA
BRANCH  26  28
ATOM     28  C   UNL A   1      39.967  25.862  27.865  1.00  0.00     0.060 A 
ATOM     29  C   UNL A   1      39.077  25.762  28.944  1.00  0.00     0.016 A 
ATOM     30  C   UNL A   1      41.034  26.759  27.898  1.00  0.00     0.016 A 
ATOM     31  C   UNL A   1      39.227  26.600  30.046  1.00  0.00     0.010 A 
ATOM     32  C   UNL A   1      41.169  27.615  28.996  1.00  0.00     0.010 A 
ATOM     33  C   UNL A   1      40.240  27.566  30.051  1.00  0.00    -0.014 A 
BRANCH  33  34
ATOM     34  C   UNL A   1      40.197  28.657  31.052  1.00  0.00     0.031 A 
ATOM     35  C   UNL A   1      41.152  28.598  32.214  1.00  0.00     0.074 A 
ATOM     36  C   UNL A   1      39.352  29.692  30.914  1.00  0.00     0.049 A 
ATOM     37  N   UNL A   1      41.269  29.409  33.233  1.00  0.00    -0.248 NA
ATOM     38  C   UNL A   1      42.106  27.475  32.227  1.00  0.00     0.031 C 
ATOM     39  C   UNL A   1      38.427  29.885  29.799  1.00  0.00     0.029 A 
ATOM     40  N   UNL A   1      39.135  30.775  31.727  1.00  0.00    -0.354 N 
ATOM     41  C   UNL A   1      42.311  28.903  34.000  1.00  0.00     0.074 A 
ATOM     42  C   UNL A   1      42.774  27.699  33.348  1.00  0.00     0.031 C 
ATOM     43  C   UNL A   1      37.729  31.016  30.005  1.00  0.00     0.029 A 
ATOM     44  C   UNL A   1      38.137  31.608  31.278  1.00  0.00     0.049 A 
ATOM     45  H   UNL A   1      39.645  30.941  32.552  1.00  0.00     0.167 HD
ATOM     46  C   UNL A   1      42.838  29.402  35.141  1.00  0.00     0.037 A 
ATOM     47  C   UNL A   1      37.603  32.707  31.846  1.00  0.00     0.037 A 
ATOM     48  C   UNL A   1      42.361  30.591  35.797  1.00  0.00     0.049 A 
ATOM     49  C   UNL A   1      38.135  33.183  33.174  1.00  0.00     0.074 A 
ATOM     50  C   UNL A   1      42.823  31.176  36.962  1.00  0.00     0.029 A 
ATOM     51  N   UNL A   1      41.305  31.370  35.347  1.00  0.00    -0.354 N 
ATOM     52  N   UNL A   1      39.118  32.695  33.892  1.00  0.00    -0.248 NA
ATOM     53  C   UNL A   1      37.478  34.355  33.772  1.00  0.00     0.031 C 
ATOM     54  C   UNL A   1      42.018  32.286  37.240  1.00  0.00     0.029 A 
ATOM     55  C   UNL A   1      41.083  32.417  36.225  1.00  0.00     0.049 A 
ATOM     56  H   UNL A   1      40.791  31.203  34.524  1.00  0.00     0.167 HD
ATOM     57  C   UNL A   1      39.208  33.507  35.018  1.00  0.00     0.074 A 
ATOM     58  C   UNL A   1      38.189  34.527  34.879  1.00  0.00     0.031 C 
ATOM     59  C   UNL A   1      40.057  33.418  36.073  1.00  0.00     0.037 A 
BRANCH  46  60
ATOM     60  C   UNL A   1      43.980  28.651  35.764  1.00  0.00     0.058 A 
ATOM     61  C   UNL A   1      43.760  27.566  36.627  1.00  0.00     0.135 A 
ATOM     62  C   UNL A   1      45.308  28.996  35.469  1.00  0.00     0.135 A 
ATOM     63  F   UNL A   1      42.509  27.209  36.959  1.00  0.00    -0.206 F 
ATOM     64  C   UNL A   1      44.817  26.857  37.188  1.00  0.00     0.059 A 
ATOM     65  C   UNL A   1      46.382  28.288  36.001  1.00  0.00     0.059 A 
ATOM     66  F   UNL A   1      45.572  30.032  34.656  1.00  0.00    -0.206 F 
ATOM     67  C   UNL A   1      46.126  27.226  36.868  1.00  0.00     0.060 A 
BRANCH  67  68
ATOM     68  S   UNL A   1      47.486  26.288  37.593  1.00  0.00     0.124 S 
ATOM     69  O   UNL A   1      48.518  26.430  36.571  1.00  0.00    -0.237 OA
ATOM     70  O   UNL A   1      47.727  27.004  38.842  1.00  0.00    -0.237 OA
ATOM     71  O   UNL A   1      46.932  24.945  37.742  1.00  0.00    -0.744 OA
ENDBRANCH  67  68
ENDBRANCH  46  60
BRANCH  47  72
ATOM     72  C   UNL A   1      36.489  33.424  31.172  1.00  0.00     0.058 A 
ATOM     73  C   UNL A   1      36.717  34.192  30.022  1.00  0.00     0.135 A 
ATOM     74  C   UNL A   1      35.177  33.352  31.663  1.00  0.00     0.135 A 
ATOM     75  F   UNL A   1      37.959  34.302  29.525  1.00  0.00    -0.206 F 
ATOM     76  C   UNL A   1      35.684  34.869  29.382  1.00  0.00     0.059 A 
ATOM     77  C   UNL A   1      34.123  34.002  31.029  1.00  0.00     0.059 A 
ATOM     78  F   UNL A   1      34.907  32.626  32.758  1.00  0.00    -0.206 F 
ATOM     79  C   UNL A   1      34.388  34.764  29.892  1.00  0.00     0.060 A 
BRANCH  79  80
ATOM     80  S   UNL A   1      33.047  35.603  29.020  1.00  0.00     0.124 S 
ATOM     81  O   UNL A   1      32.425  34.496  28.302  1.00  0.00    -0.237 OA
ATOM     82  O   UNL A   1      32.272  36.166  30.121  1.00  0.00    -0.237 OA
ATOM     83  O   UNL A   1      33.746  36.581  28.191  1.00  0.00    -0.744 OA
ENDBRANCH  79  80
ENDBRANCH  47  72
BRANCH  59  84
ATOM     84  C   UNL A   1      39.926  34.450  37.158  1.00  0.00     0.058 A 
ATOM     85  C   UNL A   1      40.534  35.709  37.047  1.00  0.00     0.135 A 
ATOM     86  C   UNL A   1      39.130  34.202  38.288  1.00  0.00     0.135 A 
ATOM     87  F   UNL A   1      41.309  35.994  35.989  1.00  0.00    -0.206 F 
ATOM     88  C   UNL A   1      40.372  36.682  38.028  1.00  0.00     0.059 A 
ATOM     89  C   UNL A   1      38.934  35.168  39.270  1.00  0.00     0.059 A 
ATOM     90  F   UNL A   1      38.517  33.016  38.436  1.00  0.00    -0.206 F 
ATOM     91  C   UNL A   1      39.568  36.402  39.135  1.00  0.00     0.060 A 
BRANCH  91  92
ATOM     92  S   UNL A   1      39.337  37.688  40.380  1.00  0.00     0.124 S 
ATOM     93  O   UNL A   1      40.609  38.400  40.308  1.00  0.00    -0.237 OA
ATOM     94  O   UNL A   1      38.176  38.412  39.871  1.00  0.00    -0.237 OA
ATOM     95  O   UNL A   1      39.108  36.935  41.609  1.00  0.00    -0.744 OA
ENDBRANCH  91  92
ENDBRANCH  59  84
ENDBRANCH  33  34
ENDBRANCH  26  28
ENDBRANCH  25  26
ENDBRANCH  24  25
ENDBRANCH   1  24
TORSDOF 18
ENDMDL
MODEL 3
REMARK VINA RESULT:     -10.7      1.171      1.815
REMARK SMILES Cc1c(Cl)ccc2c1C=C(C(=O)OCCOCCOC(=O)c1ccc(-c3c4nc(c(-c5c(F)cc(S(=O)(=O)[O-])cc5F)c5ccc([nH]5)c(-c5c(F)cc(S(=O)(=O)[O-])cc5F)c5nc(c(-c6c(F)cc(S(=O)(=O)[O-])cc6F)c6ccc3[nH]6)C=C5)C=C4)cc1)[C@@H](C(F)(F)F)O2
REMARK SMILES IDX 17 1 16 2 15 3 14 4 13 5 11 6 12 7 10 8 1 9 2 10 3 11 8 12
REMARK SMILES IDX 4 13 5 14 7 15 9 16 6 17 93 18 88 19 89 20 90 21 91 22 92 23
REMARK SMILES IDX 18 24 19 25 20 26 21 27 22 28 23 29 87 30 24 31 86 32 25 33
REMARK SMILES IDX 26 34 27 35 80 36 28 37 85 38 79 39 81 40 29 41 84 42 78 43
REMARK SMILES IDX 77 44 30 46 64 47 43 48 63 49 44 50 47 51 62 52 82 53 45 54
REMARK SMILES IDX 46 55 61 57 83 58 48 59 31 60 32 61 41 62 33 63 34 64 40 65
REMARK SMILES IDX 42 66 35 67 36 68 37 69 38 70 39 71 65 72 66 73 75 74 67 75
REMARK SMILES IDX 68 76 74 77 76 78 69 79 70 80 71 81 72 82 73 83 49 84 50 85
REMARK SMILES IDX 59 86 51 87 52 88 58 89 60 90 53 91 54 92 55 93 56 94 57 95
REMARK H PARENT 81 45 47 56
REMARK Flexibility Score: inf
ROOT
ATOM      1  C   UNL A   1      32.331  30.720  26.494  1.00  0.00     0.202 C 
ENDROOT
BRANCH   1   2
ATOM      2  O   UNL A   1      32.355  29.944  25.293  1.00  0.00    -0.374 OA
BRANCH   2   3
ATOM      3  C   UNL A   1      32.977  28.662  25.347  1.00  0.00     0.202 C 
BRANCH   3   4
ATOM      4  C   UNL A   1      32.627  27.684  24.220  1.00  0.00     0.261 C 
BRANCH   4   5
ATOM      5  O   UNL A   1      33.268  26.412  24.395  1.00  0.00    -0.460 OA
BRANCH   5   6
ATOM      6  C   UNL A   1      32.478  25.454  24.934  1.00  0.00     0.338 C 
ATOM      7  O   UNL A   1      31.298  25.555  25.233  1.00  0.00    -0.246 OA
BRANCH   6   8
ATOM      8  C   UNL A   1      33.214  24.178  24.996  1.00  0.00     0.087 C 
ATOM      9  C   UNL A   1      37.251  24.359  26.440  1.00  0.00     0.047 C 
ATOM     10  C   UNL A   1      36.666  23.101  25.847  1.00  0.00    -0.021 A 
ATOM     11  C   UNL A   1      37.444  21.943  25.655  1.00  0.00     0.044 A 
ATOM     12  C   UNL A   1      35.306  23.068  25.445  1.00  0.00     0.022 A 
ATOM     13  Cl  UNL A   1      39.137  21.895  26.009  1.00  0.00    -0.084 Cl
ATOM     14  C   UNL A   1      36.876  20.774  25.143  1.00  0.00     0.024 A 
ATOM     15  C   UNL A   1      34.739  21.877  24.970  1.00  0.00     0.128 A 
ATOM     16  C   UNL A   1      34.472  24.265  25.445  1.00  0.00     0.027 C 
ATOM     17  C   UNL A   1      35.521  20.735  24.825  1.00  0.00     0.048 A 
ATOM     18  O   UNL A   1      33.425  21.730  24.627  1.00  0.00    -0.475 OA
ATOM     19  C   UNL A   1      32.565  22.900  24.555  1.00  0.00     0.316 C 
BRANCH  19  20
ATOM     20  C   UNL A   1      31.995  22.987  23.131  1.00  0.00     0.430 C 
ATOM     21  F   UNL A   1      30.704  23.395  23.146  1.00  0.00    -0.167 F 
ATOM     22  F   UNL A   1      32.678  23.872  22.369  1.00  0.00    -0.167 F 
ATOM     23  F   UNL A   1      32.036  21.790  22.501  1.00  0.00    -0.167 F 
ENDBRANCH  19  20
ENDBRANCH   6   8
ENDBRANCH   5   6
ENDBRANCH   4   5
ENDBRANCH   3   4
ENDBRANCH   2   3
ENDBRANCH   1   2
BRANCH   1  24
ATOM     24  C   UNL A   1      33.301  30.316  27.609  1.00  0.00     0.261 C 
BRANCH  24  25
ATOM     25  O   UNL A   1      34.496  31.121  27.592  1.00  0.00    -0.460 OA
BRANCH  25  26
ATOM     26  C   UNL A   1      35.158  31.181  28.772  1.00  0.00     0.338 C 
ATOM     27  O   UNL A   1      34.775  31.702  29.810  1.00  0.00    -0.246 OA
BRANCH  26  28
ATOM     28  C   UNL A   1      36.376  30.361  28.707  1.00  0.00     0.060 A 
ATOM     29  C   UNL A   1      36.919  29.890  29.910  1.00  0.00     0.016 A 
ATOM     30  C   UNL A   1      37.051  30.179  27.499  1.00  0.00     0.016 A 
ATOM     31  C   UNL A   1      38.169  29.275  29.915  1.00  0.00     0.010 A 
ATOM     32  C   UNL A   1      38.315  29.583  27.509  1.00  0.00     0.010 A 
ATOM     33  C   UNL A   1      38.894  29.169  28.723  1.00  0.00    -0.014 A 
BRANCH  33  34
ATOM     34  C   UNL A   1      40.334  28.826  28.777  1.00  0.00     0.031 A 
ATOM     35  C   UNL A   1      41.308  29.895  29.193  1.00  0.00     0.074 A 
ATOM     36  C   UNL A   1      40.762  27.585  28.494  1.00  0.00     0.049 A 
ATOM     37  N   UNL A   1      42.612  29.843  29.271  1.00  0.00    -0.248 NA
ATOM     38  C   UNL A   1      40.733  31.196  29.576  1.00  0.00     0.031 C 
ATOM     39  C   UNL A   1      39.905  26.455  28.140  1.00  0.00     0.029 A 
ATOM     40  N   UNL A   1      42.033  27.070  28.458  1.00  0.00    -0.354 N 
ATOM     41  C   UNL A   1      43.013  31.096  29.719  1.00  0.00     0.074 A 
ATOM     42  C   UNL A   1      41.818  31.897  29.869  1.00  0.00     0.031 C 
ATOM     43  C   UNL A   1      40.678  25.379  27.908  1.00  0.00     0.029 A 
ATOM     44  C   UNL A   1      42.082  25.753  28.068  1.00  0.00     0.049 A 
ATOM     45  H   UNL A   1      42.833  27.594  28.689  1.00  0.00     0.167 HD
ATOM     46  C   UNL A   1      44.263  31.536  29.990  1.00  0.00     0.037 A 
ATOM     47  C   UNL A   1      43.143  24.953  27.845  1.00  0.00     0.037 A 
ATOM     48  C   UNL A   1      45.450  30.740  29.822  1.00  0.00     0.049 A 
ATOM     49  C   UNL A   1      44.534  25.498  28.049  1.00  0.00     0.074 A 
ATOM     50  C   UNL A   1      46.765  31.095  30.062  1.00  0.00     0.029 A 
ATOM     51  N   UNL A   1      45.465  29.431  29.363  1.00  0.00    -0.354 N 
ATOM     52  N   UNL A   1      44.901  26.685  28.471  1.00  0.00    -0.248 NA
ATOM     53  C   UNL A   1      45.654  24.598  27.739  1.00  0.00     0.031 C 
ATOM     54  C   UNL A   1      47.580  30.014  29.706  1.00  0.00     0.029 A 
ATOM     55  C   UNL A   1      46.769  28.972  29.286  1.00  0.00     0.049 A 
ATOM     56  H   UNL A   1      44.665  28.907  29.126  1.00  0.00     0.167 HD
ATOM     57  C   UNL A   1      46.292  26.669  28.490  1.00  0.00     0.074 A 
ATOM     58  C   UNL A   1      46.700  25.350  28.053  1.00  0.00     0.031 C 
ATOM     59  C   UNL A   1      47.155  27.657  28.839  1.00  0.00     0.037 A 
BRANCH  46  60
ATOM     60  C   UNL A   1      44.411  32.948  30.478  1.00  0.00     0.058 A 
ATOM     61  C   UNL A   1      44.487  34.028  29.584  1.00  0.00     0.135 A 
ATOM     62  C   UNL A   1      44.443  33.230  31.853  1.00  0.00     0.135 A 
ATOM     63  F   UNL A   1      44.483  33.810  28.260  1.00  0.00    -0.206 F 
ATOM     64  C   UNL A   1      44.604  35.338  30.036  1.00  0.00     0.059 A 
ATOM     65  C   UNL A   1      44.539  34.535  32.328  1.00  0.00     0.059 A 
ATOM     66  F   UNL A   1      44.383  32.232  32.749  1.00  0.00    -0.206 F 
ATOM     67  C   UNL A   1      44.628  35.581  31.412  1.00  0.00     0.060 A 
BRANCH  67  68
ATOM     68  S   UNL A   1      44.767  37.288  31.981  1.00  0.00     0.124 S 
ATOM     69  O   UNL A   1      44.463  38.029  30.760  1.00  0.00    -0.237 OA
ATOM     70  O   UNL A   1      43.753  37.351  33.029  1.00  0.00    -0.237 OA
ATOM     71  O   UNL A   1      46.148  37.383  32.443  1.00  0.00    -0.744 OA
ENDBRANCH  67  68
ENDBRANCH  46  60
BRANCH  47  72
ATOM     72  C   UNL A   1      42.935  23.555  27.385  1.00  0.00     0.058 A 
ATOM     73  C   UNL A   1      42.677  22.525  28.301  1.00  0.00     0.135 A 
ATOM     74  C   UNL A   1      42.987  23.223  26.023  1.00  0.00     0.135 A 
ATOM     75  F   UNL A   1      42.633  22.792  29.615  1.00  0.00    -0.206 F 
ATOM     76  C   UNL A   1      42.481  21.212  27.884  1.00  0.00     0.059 A 
ATOM     77  C   UNL A   1      42.774  21.922  25.579  1.00  0.00     0.059 A 
ATOM     78  F   UNL A   1      43.227  24.174  25.107  1.00  0.00    -0.206 F 
ATOM     79  C   UNL A   1      42.527  20.922  26.519  1.00  0.00     0.060 A 
BRANCH  79  80
ATOM     80  S   UNL A   1      42.218  19.224  25.986  1.00  0.00     0.124 S 
ATOM     81  O   UNL A   1      43.055  19.131  24.795  1.00  0.00    -0.237 OA
ATOM     82  O   UNL A   1      42.664  18.455  27.143  1.00  0.00    -0.237 OA
ATOM     83  O   UNL A   1      40.777  19.204  25.749  1.00  0.00    -0.744 OA
ENDBRANCH  79  80
ENDBRANCH  47  72
BRANCH  59  84
ATOM     84  C   UNL A   1      48.624  27.351  28.767  1.00  0.00     0.058 A 
ATOM     85  C   UNL A   1      49.382  27.668  27.630  1.00  0.00     0.135 A 
ATOM     86  C   UNL A   1      49.295  26.798  29.870  1.00  0.00     0.135 A 
ATOM     87  F   UNL A   1      48.789  28.195  26.547  1.00  0.00    -0.206 F 
ATOM     88  C   UNL A   1      50.752  27.431  27.582  1.00  0.00     0.059 A 
ATOM     89  C   UNL A   1      50.668  26.574  29.854  1.00  0.00     0.059 A 
ATOM     90  F   UNL A   1      48.617  26.487  30.987  1.00  0.00    -0.206 F 
ATOM     91  C   UNL A   1      51.386  26.886  28.700  1.00  0.00     0.060 A 
BRANCH  91  92
ATOM     92  S   UNL A   1      53.171  26.620  28.636  1.00  0.00     0.124 S 
ATOM     93  O   UNL A   1      53.288  25.679  27.527  1.00  0.00    -0.237 OA
ATOM     94  O   UNL A   1      53.679  27.964  28.383  1.00  0.00    -0.237 OA
ATOM     95  O   UNL A   1      53.481  26.078  29.955  1.00  0.00    -0.744 OA
ENDBRANCH  91  92
ENDBRANCH  59  84
ENDBRANCH  33  34
ENDBRANCH  26  28
ENDBRANCH  25  26
ENDBRANCH  24  25
ENDBRANCH   1  24
TORSDOF 18
ENDMDL
