MODEL 1
REMARK VINA RESULT:      -9.6      0.000      0.000
REMARK SMILES COCCOCC(=O)N1C[C@@H]2CC[N@@H+](C)C[C@]2(C(=O)OCCOCCOC(=O)c2ccc(-c3c4nc(c(-c5c(F)cc(S(=O)(=O)[O-])cc5F)c5ccc([nH]5)c(-c5c(F)cc(S(=O)(=O)[O-])cc5F)c5nc(c(-c6c(F)cc(S(=O)(=O)[O-])cc6F)c6ccc3[nH]6)C=C5)C=C4)cc2)C1
REMARK SMILES IDX 21 1 20 2 18 3 19 4 17 5 9 6 10 7 95 8 11 9 12 10 16 11
REMARK SMILES IDX 13 12 14 13 15 14 7 16 8 17 6 18 5 19 4 20 3 21 2 22 1 23
REMARK SMILES IDX 22 24 23 25 24 26 25 27 26 28 27 29 28 30 29 31 30 32 94 33
REMARK SMILES IDX 31 34 93 35 32 36 33 37 34 38 87 39 35 40 92 41 86 42 88 43
REMARK SMILES IDX 36 44 91 45 85 46 84 47 37 49 71 50 50 51 70 52 51 53 54 54
REMARK SMILES IDX 69 55 89 56 52 57 53 58 68 60 90 61 55 62 38 63 39 64 48 65
REMARK SMILES IDX 40 66 41 67 47 68 49 69 42 70 43 71 44 72 45 73 46 74 72 75
REMARK SMILES IDX 73 76 82 77 74 78 75 79 81 80 83 81 76 82 77 83 78 84 79 85
REMARK SMILES IDX 80 86 56 87 57 88 66 89 58 90 59 91 65 92 67 93 60 94 61 95
REMARK SMILES IDX 62 96 63 97 64 98
REMARK H PARENT 14 15 88 48 54 59
REMARK Flexibility Score: inf
ROOT
ATOM      1  C   UNL A   1      33.848  28.559  24.056  1.00  0.00     0.261 C 
ENDROOT
BRANCH   1   2
ATOM      2  O   UNL A   1      33.535  27.147  23.992  1.00  0.00    -0.463 OA
BRANCH   2   3
ATOM      3  C   UNL A   1      33.369  26.367  25.115  1.00  0.00     0.320 C 
ATOM      4  O   UNL A   1      33.955  26.514  26.173  1.00  0.00    -0.251 OA
BRANCH   3   5
ATOM      5  C   UNL A   1      32.263  25.346  24.792  1.00  0.00     0.139 C 
ATOM      6  N   UNL A   1      29.998  25.965  24.260  1.00  0.00    -0.339 N 
ATOM      7  C   UNL A   1      30.313  24.866  23.419  1.00  0.00     0.124 C 
ATOM      8  C   UNL A   1      31.002  26.109  25.302  1.00  0.00     0.144 C 
ATOM      9  C   UNL A   1      31.849  24.884  23.359  1.00  0.00     0.039 C 
ATOM     10  C   UNL A   1      32.212  23.438  22.942  1.00  0.00     0.068 C 
ATOM     11  C   UNL A   1      32.736  24.058  25.484  1.00  0.00     0.283 C 
ATOM     12  C   UNL A   1      33.539  22.922  23.447  1.00  0.00     0.262 C 
ATOM     13  N   UNL A   1      33.883  23.388  24.794  1.00  0.00    -0.336 N 
ATOM     14  C   UNL A   1      35.152  24.124  24.651  1.00  0.00     0.332 C 
ATOM     15  H   UNL A   1      34.052  22.633  25.458  1.00  0.00     0.347 HD
BRANCH   6  16
ATOM     16  C   UNL A   1      28.899  26.736  23.962  1.00  0.00     0.248 C 
ATOM     17  O   UNL A   1      27.753  26.312  24.134  1.00  0.00    -0.272 OA
BRANCH  16  18
ATOM     18  C   UNL A   1      29.149  28.026  23.178  1.00  0.00     0.260 C 
BRANCH  18  19
ATOM     19  O   UNL A   1      28.060  28.779  22.693  1.00  0.00    -0.369 OA
BRANCH  19  20
ATOM     20  C   UNL A   1      28.271  30.193  22.717  1.00  0.00     0.189 C 
BRANCH  20  21
ATOM     21  C   UNL A   1      28.278  30.830  21.321  1.00  0.00     0.188 C 
BRANCH  21  22
ATOM     22  O   UNL A   1      28.112  32.248  21.415  1.00  0.00    -0.382 OA
ATOM     23  C   UNL A   1      28.738  32.800  22.567  1.00  0.00     0.195 C 
ENDBRANCH  21  22
ENDBRANCH  20  21
ENDBRANCH  19  20
ENDBRANCH  18  19
ENDBRANCH  16  18
ENDBRANCH   6  16
ENDBRANCH   3   5
ENDBRANCH   2   3
ENDBRANCH   1   2
BRANCH   1  24
ATOM     24  C   UNL A   1      32.508  29.326  24.223  1.00  0.00     0.202 C 
BRANCH  24  25
ATOM     25  O   UNL A   1      31.971  29.473  25.549  1.00  0.00    -0.374 OA
BRANCH  25  26
ATOM     26  C   UNL A   1      32.078  30.738  26.196  1.00  0.00     0.202 C 
BRANCH  26  27
ATOM     27  C   UNL A   1      32.935  30.895  27.464  1.00  0.00     0.261 C 
BRANCH  27  28
ATOM     28  O   UNL A   1      34.293  30.545  27.246  1.00  0.00    -0.460 OA
BRANCH  28  29
ATOM     29  C   UNL A   1      35.062  30.953  28.276  1.00  0.00     0.338 C 
ATOM     30  O   UNL A   1      34.772  31.764  29.150  1.00  0.00    -0.246 OA
BRANCH  29  31
ATOM     31  C   UNL A   1      36.262  30.124  28.334  1.00  0.00     0.060 A 
ATOM     32  C   UNL A   1      36.570  29.582  29.584  1.00  0.00     0.016 A 
ATOM     33  C   UNL A   1      37.109  29.975  27.233  1.00  0.00     0.016 A 
ATOM     34  C   UNL A   1      37.805  28.993  29.777  1.00  0.00     0.010 A 
ATOM     35  C   UNL A   1      38.353  29.377  27.429  1.00  0.00     0.010 A 
ATOM     36  C   UNL A   1      38.725  28.964  28.720  1.00  0.00    -0.014 A 
BRANCH  36  37
ATOM     37  C   UNL A   1      40.144  28.761  29.066  1.00  0.00     0.031 A 
ATOM     38  C   UNL A   1      40.779  27.446  28.700  1.00  0.00     0.074 A 
ATOM     39  C   UNL A   1      40.865  29.772  29.574  1.00  0.00     0.049 A 
ATOM     40  N   UNL A   1      42.020  27.061  28.824  1.00  0.00    -0.248 NA
ATOM     41  C   UNL A   1      39.892  26.427  28.107  1.00  0.00     0.031 C 
ATOM     42  C   UNL A   1      40.342  31.097  29.907  1.00  0.00     0.029 A 
ATOM     43  N   UNL A   1      42.197  29.845  29.876  1.00  0.00    -0.354 N 
ATOM     44  C   UNL A   1      42.063  25.762  28.330  1.00  0.00     0.074 A 
ATOM     45  C   UNL A   1      40.719  25.407  27.938  1.00  0.00     0.031 C 
ATOM     46  C   UNL A   1      41.350  31.857  30.366  1.00  0.00     0.029 A 
ATOM     47  C   UNL A   1      42.578  31.066  30.373  1.00  0.00     0.049 A 
ATOM     48  H   UNL A   1      42.822  29.095  29.748  1.00  0.00     0.167 HD
ATOM     49  C   UNL A   1      43.135  24.946  28.201  1.00  0.00     0.037 A 
ATOM     50  C   UNL A   1      43.788  31.486  30.787  1.00  0.00     0.037 A 
ATOM     51  C   UNL A   1      44.468  25.321  28.588  1.00  0.00     0.049 A 
ATOM     52  C   UNL A   1      44.958  30.550  30.663  1.00  0.00     0.074 A 
ATOM     53  C   UNL A   1      45.631  24.576  28.519  1.00  0.00     0.029 A 
ATOM     54  N   UNL A   1      44.813  26.559  29.114  1.00  0.00    -0.354 N 
ATOM     55  N   UNL A   1      44.987  29.320  30.202  1.00  0.00    -0.248 NA
ATOM     56  C   UNL A   1      46.264  31.061  31.098  1.00  0.00     0.031 C 
ATOM     57  C   UNL A   1      46.674  25.352  29.037  1.00  0.00     0.029 A 
ATOM     58  C   UNL A   1      46.169  26.597  29.384  1.00  0.00     0.049 A 
ATOM     59  H   UNL A   1      44.185  27.300  29.273  1.00  0.00     0.167 HD
ATOM     60  C   UNL A   1      46.318  28.921  30.264  1.00  0.00     0.074 A 
ATOM     61  C   UNL A   1      47.061  30.046  30.795  1.00  0.00     0.031 C 
ATOM     62  C   UNL A   1      46.878  27.737  29.909  1.00  0.00     0.037 A 
BRANCH  49  63
ATOM     63  C   UNL A   1      42.894  23.567  27.649  1.00  0.00     0.058 A 
ATOM     64  C   UNL A   1      42.465  22.507  28.464  1.00  0.00     0.135 A 
ATOM     65  C   UNL A   1      43.095  23.303  26.286  1.00  0.00     0.135 A 
ATOM     66  F   UNL A   1      42.283  22.696  29.780  1.00  0.00    -0.206 F 
ATOM     67  C   UNL A   1      42.269  21.227  27.951  1.00  0.00     0.059 A 
ATOM     68  C   UNL A   1      42.881  22.038  25.746  1.00  0.00     0.059 A 
ATOM     69  F   UNL A   1      43.514  24.278  25.463  1.00  0.00    -0.206 F 
ATOM     70  C   UNL A   1      42.482  21.003  26.590  1.00  0.00     0.060 A 
BRANCH  70  71
ATOM     71  S   UNL A   1      42.225  19.339  25.935  1.00  0.00     0.124 S 
ATOM     72  O   UNL A   1      42.689  18.514  27.046  1.00  0.00    -0.237 OA
ATOM     73  O   UNL A   1      40.786  19.319  25.688  1.00  0.00    -0.237 OA
ATOM     74  O   UNL A   1      43.062  19.312  24.740  1.00  0.00    -0.744 OA
ENDBRANCH  70  71
ENDBRANCH  49  63
BRANCH  50  75
ATOM     75  C   UNL A   1      43.944  32.856  31.342  1.00  0.00     0.058 A 
ATOM     76  C   UNL A   1      43.806  33.108  32.714  1.00  0.00     0.135 A 
ATOM     77  C   UNL A   1      44.256  33.940  30.505  1.00  0.00     0.135 A 
ATOM     78  F   UNL A   1      43.507  32.104  33.553  1.00  0.00    -0.206 F 
ATOM     79  C   UNL A   1      43.953  34.388  33.237  1.00  0.00     0.059 A 
ATOM     80  C   UNL A   1      44.432  35.224  31.007  1.00  0.00     0.059 A 
ATOM     81  F   UNL A   1      44.417  33.746  29.186  1.00  0.00    -0.206 F 
ATOM     82  C   UNL A   1      44.269  35.441  32.374  1.00  0.00     0.060 A 
BRANCH  82  83
ATOM     83  S   UNL A   1      44.509  37.091  33.067  1.00  0.00     0.124 S 
ATOM     84  O   UNL A   1      43.780  37.918  32.113  1.00  0.00    -0.237 OA
ATOM     85  O   UNL A   1      43.908  36.959  34.391  1.00  0.00    -0.237 OA
ATOM     86  O   UNL A   1      45.961  37.248  33.060  1.00  0.00    -0.744 OA
ENDBRANCH  82  83
ENDBRANCH  50  75
BRANCH  62  87
ATOM     87  C   UNL A   1      48.370  27.624  30.044  1.00  0.00     0.058 A 
ATOM     88  C   UNL A   1      49.234  27.942  28.985  1.00  0.00     0.135 A 
ATOM     89  C   UNL A   1      48.940  27.211  31.259  1.00  0.00     0.135 A 
ATOM     90  F   UNL A   1      48.738  28.340  27.803  1.00  0.00    -0.206 F 
ATOM     91  C   UNL A   1      50.613  27.810  29.112  1.00  0.00     0.059 A 
ATOM     92  C   UNL A   1      50.317  27.101  31.416  1.00  0.00     0.059 A 
ATOM     93  F   UNL A   1      48.156  26.914  32.308  1.00  0.00    -0.206 F 
ATOM     94  C   UNL A   1      51.143  27.381  30.330  1.00  0.00     0.060 A 
BRANCH  94  95
ATOM     95  S   UNL A   1      52.933  27.206  30.484  1.00  0.00     0.124 S 
ATOM     96  O   UNL A   1      53.350  28.596  30.630  1.00  0.00    -0.237 OA
ATOM     97  O   UNL A   1      53.068  26.374  31.675  1.00  0.00    -0.237 OA
ATOM     98  O   UNL A   1      53.318  26.562  29.231  1.00  0.00    -0.744 OA
ENDBRANCH  94  95
ENDBRANCH  62  87
ENDBRANCH  36  37
ENDBRANCH  29  31
ENDBRANCH  28  29
ENDBRANCH  27  28
ENDBRANCH  26  27
ENDBRANCH  25  26
ENDBRANCH  24  25
ENDBRANCH   1  24
TORSDOF 23
ENDMDL
MODEL 2
REMARK VINA RESULT:      -9.6      3.068      9.161
REMARK SMILES COCCOCC(=O)N1C[C@@H]2CC[N@@H+](C)C[C@]2(C(=O)OCCOCCOC(=O)c2ccc(-c3c4nc(c(-c5c(F)cc(S(=O)(=O)[O-])cc5F)c5ccc([nH]5)c(-c5c(F)cc(S(=O)(=O)[O-])cc5F)c5nc(c(-c6c(F)cc(S(=O)(=O)[O-])cc6F)c6ccc3[nH]6)C=C5)C=C4)cc2)C1
REMARK SMILES IDX 21 1 20 2 18 3 19 4 17 5 9 6 10 7 95 8 11 9 12 10 16 11
REMARK SMILES IDX 13 12 14 13 15 14 7 16 8 17 6 18 5 19 4 20 3 21 2 22 1 23
REMARK SMILES IDX 22 24 23 25 24 26 25 27 26 28 27 29 28 30 29 31 30 32 94 33
REMARK SMILES IDX 31 34 93 35 32 36 33 37 34 38 87 39 35 40 92 41 86 42 88 43
REMARK SMILES IDX 36 44 91 45 85 46 84 47 37 49 71 50 50 51 70 52 51 53 54 54
REMARK SMILES IDX 69 55 89 56 52 57 53 58 68 60 90 61 55 62 38 63 39 64 48 65
REMARK SMILES IDX 40 66 41 67 47 68 49 69 42 70 43 71 44 72 45 73 46 74 72 75
REMARK SMILES IDX 73 76 82 77 74 78 75 79 81 80 83 81 76 82 77 83 78 84 79 85
REMARK SMILES IDX 80 86 56 87 57 88 66 89 58 90 59 91 65 92 67 93 60 94 61 95
REMARK SMILES IDX 62 96 63 97 64 98
REMARK H PARENT 14 15 88 48 54 59
REMARK Flexibility Score: inf
ROOT
ATOM      1  C   UNL A   1      33.717  27.930  23.113  1.00  0.00     0.261 C 
ENDROOT
BRANCH   1   2
ATOM      2  O   UNL A   1      33.233  26.656  23.600  1.00  0.00    -0.463 OA
BRANCH   2   3
ATOM      3  C   UNL A   1      32.499  25.787  22.824  1.00  0.00     0.320 C 
ATOM      4  O   UNL A   1      32.331  25.882  21.621  1.00  0.00    -0.251 OA
BRANCH   3   5
ATOM      5  C   UNL A   1      32.013  24.658  23.751  1.00  0.00     0.139 C 
ATOM      6  N   UNL A   1      33.435  22.882  24.540  1.00  0.00    -0.339 N 
ATOM      7  C   UNL A   1      32.581  23.214  25.624  1.00  0.00     0.124 C 
ATOM      8  C   UNL A   1      32.952  23.493  23.311  1.00  0.00     0.144 C 
ATOM      9  C   UNL A   1      32.134  24.650  25.307  1.00  0.00     0.039 C 
ATOM     10  C   UNL A   1      30.830  24.813  26.125  1.00  0.00     0.068 C 
ATOM     11  C   UNL A   1      30.501  24.590  23.487  1.00  0.00     0.283 C 
ATOM     12  C   UNL A   1      29.803  25.757  25.545  1.00  0.00     0.262 C 
ATOM     13  N   UNL A   1      29.732  25.730  24.081  1.00  0.00    -0.336 N 
ATOM     14  C   UNL A   1      30.043  27.101  23.639  1.00  0.00     0.332 C 
ATOM     15  H   UNL A   1      28.806  25.504  23.719  1.00  0.00     0.347 HD
BRANCH   6  16
ATOM     16  C   UNL A   1      34.562  22.134  24.786  1.00  0.00     0.248 C 
ATOM     17  O   UNL A   1      35.690  22.628  24.699  1.00  0.00    -0.272 OA
BRANCH  16  18
ATOM     18  C   UNL A   1      34.375  20.622  24.921  1.00  0.00     0.260 C 
BRANCH  18  19
ATOM     19  O   UNL A   1      33.450  19.950  24.096  1.00  0.00    -0.369 OA
BRANCH  19  20
ATOM     20  C   UNL A   1      33.325  18.553  24.375  1.00  0.00     0.189 C 
BRANCH  20  21
ATOM     21  C   UNL A   1      32.909  17.724  23.153  1.00  0.00     0.188 C 
BRANCH  21  22
ATOM     22  O   UNL A   1      33.694  16.531  23.065  1.00  0.00    -0.382 OA
ATOM     23  C   UNL A   1      34.428  16.266  24.254  1.00  0.00     0.195 C 
ENDBRANCH  21  22
ENDBRANCH  20  21
ENDBRANCH  19  20
ENDBRANCH  18  19
ENDBRANCH  16  18
ENDBRANCH   6  16
ENDBRANCH   3   5
ENDBRANCH   2   3
ENDBRANCH   1   2
BRANCH   1  24
ATOM     24  C   UNL A   1      33.125  29.033  24.030  1.00  0.00     0.202 C 
BRANCH  24  25
ATOM     25  O   UNL A   1      32.683  28.658  25.346  1.00  0.00    -0.374 OA
BRANCH  25  26
ATOM     26  C   UNL A   1      31.953  29.605  26.122  1.00  0.00     0.202 C 
BRANCH  26  27
ATOM     27  C   UNL A   1      32.644  30.383  27.255  1.00  0.00     0.261 C 
BRANCH  27  28
ATOM     28  O   UNL A   1      33.952  30.804  26.903  1.00  0.00    -0.460 OA
BRANCH  28  29
ATOM     29  C   UNL A   1      34.628  31.225  27.991  1.00  0.00     0.338 C 
ATOM     30  O   UNL A   1      34.266  32.052  28.822  1.00  0.00    -0.246 OA
BRANCH  29  31
ATOM     31  C   UNL A   1      35.812  30.392  28.172  1.00  0.00     0.060 A 
ATOM     32  C   UNL A   1      35.874  29.668  29.365  1.00  0.00     0.016 A 
ATOM     33  C   UNL A   1      36.869  30.404  27.258  1.00  0.00     0.016 A 
ATOM     34  C   UNL A   1      37.059  29.051  29.718  1.00  0.00     0.010 A 
ATOM     35  C   UNL A   1      38.062  29.778  27.615  1.00  0.00     0.010 A 
ATOM     36  C   UNL A   1      38.174  29.175  28.879  1.00  0.00    -0.014 A 
BRANCH  36  37
ATOM     37  C   UNL A   1      39.499  28.916  29.475  1.00  0.00     0.031 A 
ATOM     38  C   UNL A   1      39.899  29.722  30.682  1.00  0.00     0.074 A 
ATOM     39  C   UNL A   1      40.255  27.905  29.022  1.00  0.00     0.049 A 
ATOM     40  N   UNL A   1      40.967  29.624  31.427  1.00  0.00    -0.248 NA
ATOM     41  C   UNL A   1      38.963  30.777  31.111  1.00  0.00     0.031 C 
ATOM     42  C   UNL A   1      39.918  27.039  27.893  1.00  0.00     0.029 A 
ATOM     43  N   UNL A   1      41.453  27.424  29.476  1.00  0.00    -0.354 N 
ATOM     44  C   UNL A   1      40.833  30.603  32.406  1.00  0.00     0.074 A 
ATOM     45  C   UNL A   1      39.601  31.310  32.142  1.00  0.00     0.031 C 
ATOM     46  C   UNL A   1      40.891  26.124  27.744  1.00  0.00     0.029 A 
ATOM     47  C   UNL A   1      41.920  26.355  28.754  1.00  0.00     0.049 A 
ATOM     48  H   UNL A   1      41.933  27.808  30.245  1.00  0.00     0.167 HD
ATOM     49  C   UNL A   1      41.660  30.875  33.443  1.00  0.00     0.037 A 
ATOM     50  C   UNL A   1      43.057  25.648  28.901  1.00  0.00     0.037 A 
ATOM     51  C   UNL A   1      42.878  30.153  33.695  1.00  0.00     0.049 A 
ATOM     52  C   UNL A   1      43.975  25.990  30.042  1.00  0.00     0.074 A 
ATOM     53  C   UNL A   1      43.804  30.345  34.703  1.00  0.00     0.029 A 
ATOM     54  N   UNL A   1      43.334  29.091  32.926  1.00  0.00    -0.354 N 
ATOM     55  N   UNL A   1      43.844  26.922  30.958  1.00  0.00    -0.248 NA
ATOM     56  C   UNL A   1      45.187  25.173  30.182  1.00  0.00     0.031 C 
ATOM     57  C   UNL A   1      44.839  29.421  34.523  1.00  0.00     0.029 A 
ATOM     58  C   UNL A   1      44.533  28.623  33.431  1.00  0.00     0.049 A 
ATOM     59  H   UNL A   1      42.873  28.726  32.137  1.00  0.00     0.167 HD
ATOM     60  C   UNL A   1      44.941  26.785  31.801  1.00  0.00     0.074 A 
ATOM     61  C   UNL A   1      45.717  25.672  31.290  1.00  0.00     0.031 C 
ATOM     62  C   UNL A   1      45.277  27.508  32.900  1.00  0.00     0.037 A 
BRANCH  49  63
ATOM     63  C   UNL A   1      41.283  32.014  34.350  1.00  0.00     0.058 A 
ATOM     64  C   UNL A   1      40.478  31.822  35.486  1.00  0.00     0.135 A 
ATOM     65  C   UNL A   1      41.733  33.315  34.080  1.00  0.00     0.135 A 
ATOM     66  F   UNL A   1      39.998  30.603  35.776  1.00  0.00    -0.206 F 
ATOM     67  C   UNL A   1      40.113  32.887  36.306  1.00  0.00     0.059 A 
ATOM     68  C   UNL A   1      41.401  34.389  34.901  1.00  0.00     0.059 A 
ATOM     69  F   UNL A   1      42.497  33.556  33.002  1.00  0.00    -0.206 F 
ATOM     70  C   UNL A   1      40.578  34.167  36.004  1.00  0.00     0.060 A 
BRANCH  70  71
ATOM     71  S   UNL A   1      40.098  35.540  37.075  1.00  0.00     0.124 S 
ATOM     72  O   UNL A   1      39.719  36.554  36.096  1.00  0.00    -0.237 OA
ATOM     73  O   UNL A   1      39.002  34.965  37.848  1.00  0.00    -0.237 OA
ATOM     74  O   UNL A   1      41.314  35.821  37.832  1.00  0.00    -0.744 OA
ENDBRANCH  70  71
ENDBRANCH  49  63
BRANCH  50  75
ATOM     75  C   UNL A   1      43.372  24.551  27.951  1.00  0.00     0.058 A 
ATOM     76  C   UNL A   1      44.067  24.794  26.758  1.00  0.00     0.135 A 
ATOM     77  C   UNL A   1      42.998  23.226  28.232  1.00  0.00     0.135 A 
ATOM     78  F   UNL A   1      44.444  26.044  26.445  1.00  0.00    -0.206 F 
ATOM     79  C   UNL A   1      44.366  23.769  25.867  1.00  0.00     0.059 A 
ATOM     80  C   UNL A   1      43.308  22.180  27.370  1.00  0.00     0.059 A 
ATOM     81  F   UNL A   1      42.348  22.938  29.371  1.00  0.00    -0.206 F 
ATOM     82  C   UNL A   1      43.983  22.463  26.184  1.00  0.00     0.060 A 
BRANCH  82  83
ATOM     83  S   UNL A   1      44.419  21.130  25.047  1.00  0.00     0.124 S 
ATOM     84  O   UNL A   1      44.391  21.819  23.762  1.00  0.00    -0.237 OA
ATOM     85  O   UNL A   1      45.736  20.730  25.531  1.00  0.00    -0.237 OA
ATOM     86  O   UNL A   1      43.357  20.149  25.261  1.00  0.00    -0.744 OA
ENDBRANCH  82  83
ENDBRANCH  50  75
BRANCH  62  87
ATOM     87  C   UNL A   1      46.512  27.080  33.642  1.00  0.00     0.058 A 
ATOM     88  C   UNL A   1      47.774  27.616  33.348  1.00  0.00     0.135 A 
ATOM     89  C   UNL A   1      46.421  26.133  34.676  1.00  0.00     0.135 A 
ATOM     90  F   UNL A   1      47.912  28.523  32.368  1.00  0.00    -0.206 F 
ATOM     91  C   UNL A   1      48.914  27.194  34.023  1.00  0.00     0.059 A 
ATOM     92  C   UNL A   1      47.544  25.719  35.383  1.00  0.00     0.059 A 
ATOM     93  F   UNL A   1      45.233  25.604  35.007  1.00  0.00    -0.206 F 
ATOM     94  C   UNL A   1      48.789  26.240  35.034  1.00  0.00     0.060 A 
BRANCH  94  95
ATOM     95  S   UNL A   1      50.275  25.693  35.900  1.00  0.00     0.124 S 
ATOM     96  O   UNL A   1      51.072  25.159  34.802  1.00  0.00    -0.237 OA
ATOM     97  O   UNL A   1      50.766  26.931  36.498  1.00  0.00    -0.237 OA
ATOM     98  O   UNL A   1      49.769  24.705  36.850  1.00  0.00    -0.744 OA
ENDBRANCH  94  95
ENDBRANCH  62  87
ENDBRANCH  36  37
ENDBRANCH  29  31
ENDBRANCH  28  29
ENDBRANCH  27  28
ENDBRANCH  26  27
ENDBRANCH  25  26
ENDBRANCH  24  25
ENDBRANCH   1  24
TORSDOF 23
ENDMDL
MODEL 3
REMARK VINA RESULT:      -9.4      3.801      8.418
REMARK SMILES COCCOCC(=O)N1C[C@@H]2CC[N@@H+](C)C[C@]2(C(=O)OCCOCCOC(=O)c2ccc(-c3c4nc(c(-c5c(F)cc(S(=O)(=O)[O-])cc5F)c5ccc([nH]5)c(-c5c(F)cc(S(=O)(=O)[O-])cc5F)c5nc(c(-c6c(F)cc(S(=O)(=O)[O-])cc6F)c6ccc3[nH]6)C=C5)C=C4)cc2)C1
REMARK SMILES IDX 21 1 20 2 18 3 19 4 17 5 9 6 10 7 95 8 11 9 12 10 16 11
REMARK SMILES IDX 13 12 14 13 15 14 7 16 8 17 6 18 5 19 4 20 3 21 2 22 1 23
REMARK SMILES IDX 22 24 23 25 24 26 25 27 26 28 27 29 28 30 29 31 30 32 94 33
REMARK SMILES IDX 31 34 93 35 32 36 33 37 34 38 87 39 35 40 92 41 86 42 88 43
REMARK SMILES IDX 36 44 91 45 85 46 84 47 37 49 71 50 50 51 70 52 51 53 54 54
REMARK SMILES IDX 69 55 89 56 52 57 53 58 68 60 90 61 55 62 38 63 39 64 48 65
REMARK SMILES IDX 40 66 41 67 47 68 49 69 42 70 43 71 44 72 45 73 46 74 72 75
REMARK SMILES IDX 73 76 82 77 74 78 75 79 81 80 83 81 76 82 77 83 78 84 79 85
REMARK SMILES IDX 80 86 56 87 57 88 66 89 58 90 59 91 65 92 67 93 60 94 61 95
REMARK SMILES IDX 62 96 63 97 64 98
REMARK H PARENT 14 15 88 48 54 59
REMARK Flexibility Score: inf
ROOT
ATOM      1  C   UNL A   1      34.017  28.254  24.028  1.00  0.00     0.261 C 
ENDROOT
BRANCH   1   2
ATOM      2  O   UNL A   1      33.658  26.854  23.957  1.00  0.00    -0.463 OA
BRANCH   2   3
ATOM      3  C   UNL A   1      33.530  26.056  25.072  1.00  0.00     0.320 C 
ATOM      4  O   UNL A   1      34.195  26.149  26.089  1.00  0.00    -0.251 OA
BRANCH   3   5
ATOM      5  C   UNL A   1      32.352  25.101  24.808  1.00  0.00     0.139 C 
ATOM      6  N   UNL A   1      30.137  25.850  24.235  1.00  0.00    -0.339 N 
ATOM      7  C   UNL A   1      30.370  24.683  23.461  1.00  0.00     0.124 C 
ATOM      8  C   UNL A   1      31.151  25.982  25.269  1.00  0.00     0.144 C 
ATOM      9  C   UNL A   1      31.903  24.586  23.404  1.00  0.00     0.039 C 
ATOM     10  C   UNL A   1      32.160  23.096  23.075  1.00  0.00     0.068 C 
ATOM     11  C   UNL A   1      32.732  23.826  25.576  1.00  0.00     0.283 C 
ATOM     12  C   UNL A   1      33.447  22.516  23.612  1.00  0.00     0.262 C 
ATOM     13  N   UNL A   1      33.827  23.034  24.930  1.00  0.00    -0.336 N 
ATOM     14  C   UNL A   1      35.145  23.667  24.746  1.00  0.00     0.332 C 
ATOM     15  H   UNL A   1      33.941  22.310  25.638  1.00  0.00     0.347 HD
BRANCH   6  16
ATOM     16  C   UNL A   1      29.096  26.680  23.889  1.00  0.00     0.248 C 
ATOM     17  O   UNL A   1      27.932  26.411  24.200  1.00  0.00    -0.272 OA
BRANCH  16  18
ATOM     18  C   UNL A   1      29.405  27.801  22.896  1.00  0.00     0.260 C 
BRANCH  18  19
ATOM     19  O   UNL A   1      28.559  28.927  22.819  1.00  0.00    -0.369 OA
BRANCH  19  20
ATOM     20  C   UNL A   1      29.040  29.961  21.955  1.00  0.00     0.189 C 
BRANCH  20  21
ATOM     21  C   UNL A   1      28.054  31.125  21.794  1.00  0.00     0.188 C 
BRANCH  21  22
ATOM     22  O   UNL A   1      28.756  32.369  21.704  1.00  0.00    -0.382 OA
ATOM     23  C   UNL A   1      28.776  33.079  22.936  1.00  0.00     0.195 C 
ENDBRANCH  21  22
ENDBRANCH  20  21
ENDBRANCH  19  20
ENDBRANCH  18  19
ENDBRANCH  16  18
ENDBRANCH   6  16
ENDBRANCH   3   5
ENDBRANCH   2   3
ENDBRANCH   1   2
BRANCH   1  24
ATOM     24  C   UNL A   1      32.698  29.073  23.999  1.00  0.00     0.202 C 
BRANCH  24  25
ATOM     25  O   UNL A   1      31.911  29.137  25.201  1.00  0.00    -0.374 OA
BRANCH  25  26
ATOM     26  C   UNL A   1      31.803  30.383  25.885  1.00  0.00     0.202 C 
BRANCH  26  27
ATOM     27  C   UNL A   1      32.594  30.632  27.181  1.00  0.00     0.261 C 
BRANCH  27  28
ATOM     28  O   UNL A   1      33.993  30.701  26.955  1.00  0.00    -0.460 OA
BRANCH  28  29
ATOM     29  C   UNL A   1      34.584  31.504  27.863  1.00  0.00     0.338 C 
ATOM     30  O   UNL A   1      34.045  32.333  28.591  1.00  0.00    -0.246 OA
BRANCH  29  31
ATOM     31  C   UNL A   1      35.979  31.108  28.017  1.00  0.00     0.060 A 
ATOM     32  C   UNL A   1      36.247  29.744  27.876  1.00  0.00     0.016 A 
ATOM     33  C   UNL A   1      36.969  32.020  28.391  1.00  0.00     0.016 A 
ATOM     34  C   UNL A   1      37.488  29.259  28.242  1.00  0.00     0.010 A 
ATOM     35  C   UNL A   1      38.221  31.529  28.756  1.00  0.00     0.010 A 
ATOM     36  C   UNL A   1      38.446  30.142  28.757  1.00  0.00    -0.014 A 
BRANCH  36  37
ATOM     37  C   UNL A   1      39.548  29.558  29.544  1.00  0.00     0.031 A 
ATOM     38  C   UNL A   1      39.672  29.958  30.989  1.00  0.00     0.074 A 
ATOM     39  C   UNL A   1      40.327  28.605  29.008  1.00  0.00     0.049 A 
ATOM     40  N   UNL A   1      40.500  29.524  31.901  1.00  0.00    -0.248 NA
ATOM     41  C   UNL A   1      38.730  30.984  31.474  1.00  0.00     0.031 C 
ATOM     42  C   UNL A   1      40.239  28.118  27.632  1.00  0.00     0.029 A 
ATOM     43  N   UNL A   1      41.330  27.863  29.570  1.00  0.00    -0.354 N 
ATOM     44  C   UNL A   1      40.181  30.223  33.062  1.00  0.00     0.074 A 
ATOM     45  C   UNL A   1      39.112  31.136  32.733  1.00  0.00     0.031 C 
ATOM     46  C   UNL A   1      41.153  27.149  27.456  1.00  0.00     0.029 A 
ATOM     47  C   UNL A   1      41.896  26.965  28.701  1.00  0.00     0.049 A 
ATOM     48  H   UNL A   1      41.617  27.964  30.506  1.00  0.00     0.167 HD
ATOM     49  C   UNL A   1      40.725  30.099  34.294  1.00  0.00     0.037 A 
ATOM     50  C   UNL A   1      42.904  26.096  28.898  1.00  0.00     0.037 A 
ATOM     51  C   UNL A   1      41.784  29.177  34.604  1.00  0.00     0.049 A 
ATOM     52  C   UNL A   1      43.514  25.998  30.270  1.00  0.00     0.074 A 
ATOM     53  C   UNL A   1      42.426  28.970  35.812  1.00  0.00     0.029 A 
ATOM     54  N   UNL A   1      42.353  28.299  33.691  1.00  0.00    -0.354 N 
ATOM     55  N   UNL A   1      43.212  26.669  31.358  1.00  0.00    -0.248 NA
ATOM     56  C   UNL A   1      44.590  25.015  30.447  1.00  0.00     0.031 C 
ATOM     57  C   UNL A   1      43.407  27.992  35.619  1.00  0.00     0.029 A 
ATOM     58  C   UNL A   1      43.344  27.555  34.304  1.00  0.00     0.049 A 
ATOM     59  H   UNL A   1      42.089  28.219  32.746  1.00  0.00     0.167 HD
ATOM     60  C   UNL A   1      44.039  26.168  32.356  1.00  0.00     0.074 A 
ATOM     61  C   UNL A   1      44.845  25.131  31.743  1.00  0.00     0.031 C 
ATOM     62  C   UNL A   1      44.124  26.526  33.663  1.00  0.00     0.037 A 
BRANCH  49  63
ATOM     63  C   UNL A   1      40.202  31.003  35.377  1.00  0.00     0.058 A 
ATOM     64  C   UNL A   1      38.919  30.838  35.925  1.00  0.00     0.135 A 
ATOM     65  C   UNL A   1      40.996  32.048  35.874  1.00  0.00     0.135 A 
ATOM     66  F   UNL A   1      38.107  29.872  35.468  1.00  0.00    -0.206 F 
ATOM     67  C   UNL A   1      38.433  31.695  36.909  1.00  0.00     0.059 A 
ATOM     68  C   UNL A   1      40.539  32.900  36.875  1.00  0.00     0.059 A 
ATOM     69  F   UNL A   1      42.226  32.256  35.379  1.00  0.00    -0.206 F 
ATOM     70  C   UNL A   1      39.250  32.725  37.376  1.00  0.00     0.060 A 
BRANCH  70  71
ATOM     71  S   UNL A   1      38.609  33.831  38.652  1.00  0.00     0.124 S 
ATOM     72  O   UNL A   1      39.647  33.728  39.674  1.00  0.00    -0.237 OA
ATOM     73  O   UNL A   1      38.535  35.109  37.951  1.00  0.00    -0.237 OA
ATOM     74  O   UNL A   1      37.323  33.236  39.001  1.00  0.00    -0.744 OA
ENDBRANCH  70  71
ENDBRANCH  49  63
BRANCH  50  75
ATOM     75  C   UNL A   1      43.382  25.251  27.774  1.00  0.00     0.058 A 
ATOM     76  C   UNL A   1      44.393  25.692  26.907  1.00  0.00     0.135 A 
ATOM     77  C   UNL A   1      42.846  23.971  27.557  1.00  0.00     0.135 A 
ATOM     78  F   UNL A   1      44.935  26.908  27.074  1.00  0.00    -0.206 F 
ATOM     79  C   UNL A   1      44.844  24.902  25.855  1.00  0.00     0.059 A 
ATOM     80  C   UNL A   1      43.298  23.154  26.527  1.00  0.00     0.059 A 
ATOM     81  F   UNL A   1      41.890  23.496  28.370  1.00  0.00    -0.206 F 
ATOM     82  C   UNL A   1      44.291  23.632  25.674  1.00  0.00     0.060 A 
BRANCH  82  83
ATOM     83  S   UNL A   1      44.918  22.594  24.336  1.00  0.00     0.124 S 
ATOM     84  O   UNL A   1      45.190  21.344  25.037  1.00  0.00    -0.237 OA
ATOM     85  O   UNL A   1      43.791  22.575  23.408  1.00  0.00    -0.237 OA
ATOM     86  O   UNL A   1      46.092  23.325  23.868  1.00  0.00    -0.744 OA
ENDBRANCH  82  83
ENDBRANCH  50  75
BRANCH  62  87
ATOM     87  C   UNL A   1      45.090  25.754  34.517  1.00  0.00     0.058 A 
ATOM     88  C   UNL A   1      44.706  24.589  35.199  1.00  0.00     0.135 A 
ATOM     89  C   UNL A   1      46.423  26.179  34.635  1.00  0.00     0.135 A 
ATOM     90  F   UNL A   1      43.443  24.143  35.118  1.00  0.00    -0.206 F 
ATOM     91  C   UNL A   1      45.601  23.897  36.007  1.00  0.00     0.059 A 
ATOM     92  C   UNL A   1      47.341  25.485  35.415  1.00  0.00     0.059 A 
ATOM     93  F   UNL A   1      46.843  27.278  33.987  1.00  0.00    -0.206 F 
ATOM     94  C   UNL A   1      46.915  24.357  36.113  1.00  0.00     0.060 A 
BRANCH  94  95
ATOM     95  S   UNL A   1      48.068  23.456  37.170  1.00  0.00     0.124 S 
ATOM     96  O   UNL A   1      48.697  24.545  37.909  1.00  0.00    -0.237 OA
ATOM     97  O   UNL A   1      47.179  22.594  37.943  1.00  0.00    -0.237 OA
ATOM     98  O   UNL A   1      48.929  22.762  36.216  1.00  0.00    -0.744 OA
ENDBRANCH  94  95
ENDBRANCH  62  87
ENDBRANCH  36  37
ENDBRANCH  29  31
ENDBRANCH  28  29
ENDBRANCH  27  28
ENDBRANCH  26  27
ENDBRANCH  25  26
ENDBRANCH  24  25
ENDBRANCH   1  24
TORSDOF 23
ENDMDL
