MODEL 1
REMARK VINA RESULT:     -10.7      0.000      0.000
REMARK SMILES CC1(C(=O)N2CC(CC(=O)OCCOCCOC(=O)c3ccc(-c4c5nc(c(-c6c(F)cc(S(=O)(=O)[O-])cc6F)c6ccc([nH]6)c(-c6c(F)cc(S(=O)(=O)[O-])cc6F)c6nc(c(-c7c(F)cc(S(=O)(=O)[O-])cc7F)c7ccc4[nH]7)C=C6)C=C5)cc3)C2)CCCC1
REMARK SMILES IDX 15 1 14 2 13 3 12 4 11 5 9 6 10 7 8 8 7 9 3 10 4 11 5 12
REMARK SMILES IDX 6 13 86 14 2 15 1 16 87 17 90 18 88 19 89 20 16 21 17 22
REMARK SMILES IDX 18 23 19 24 20 25 21 26 85 27 22 28 84 29 23 30 24 31 25 32
REMARK SMILES IDX 78 33 26 34 83 35 77 36 79 37 27 38 82 39 76 40 75 41 28 43
REMARK SMILES IDX 62 44 41 45 61 46 42 47 45 48 60 49 80 50 43 51 44 52 59 54
REMARK SMILES IDX 81 55 46 56 29 57 30 58 39 59 31 60 32 61 38 62 40 63 33 64
REMARK SMILES IDX 34 65 35 66 36 67 37 68 63 69 64 70 73 71 65 72 66 73 72 74
REMARK SMILES IDX 74 75 67 76 68 77 69 78 70 79 71 80 47 81 48 82 57 83 49 84
REMARK SMILES IDX 50 85 56 86 58 87 51 88 52 89 53 90 54 91 55 92
REMARK H PARENT 79 42 45 53
REMARK Flexibility Score: inf
ROOT
ATOM      1  C   UNL A   1      33.416  31.229  27.256  1.00  0.00     0.202 C 
ENDROOT
BRANCH   1   2
ATOM      2  O   UNL A   1      33.457  30.028  26.489  1.00  0.00    -0.374 OA
BRANCH   2   3
ATOM      3  C   UNL A   1      32.235  29.305  26.335  1.00  0.00     0.202 C 
BRANCH   3   4
ATOM      4  C   UNL A   1      31.444  29.558  25.048  1.00  0.00     0.261 C 
BRANCH   4   5
ATOM      5  O   UNL A   1      31.210  28.342  24.311  1.00  0.00    -0.463 OA
BRANCH   5   6
ATOM      6  C   UNL A   1      31.446  28.413  22.976  1.00  0.00     0.306 C 
ATOM      7  O   UNL A   1      30.584  28.487  22.108  1.00  0.00    -0.252 OA
BRANCH   6   8
ATOM      8  C   UNL A   1      32.911  28.372  22.634  1.00  0.00     0.130 C 
BRANCH   8   9
ATOM      9  C   UNL A   1      33.524  27.006  22.348  1.00  0.00     0.039 C 
ATOM     10  C   UNL A   1      33.030  23.745  22.151  1.00  0.00     0.228 C 
ATOM     11  O   UNL A   1      33.461  23.389  21.055  1.00  0.00    -0.274 OA
ATOM     12  N   UNL A   1      32.780  25.070  22.427  1.00  0.00    -0.342 N 
ATOM     13  C   UNL A   1      32.647  26.135  21.446  1.00  0.00     0.125 C 
ATOM     14  C   UNL A   1      33.413  25.921  23.431  1.00  0.00     0.125 C 
BRANCH  10  15
ATOM     15  C   UNL A   1      32.562  22.745  23.225  1.00  0.00     0.047 C 
ATOM     16  C   UNL A   1      31.422  23.291  24.091  1.00  0.00     0.022 C 
ATOM     17  C   UNL A   1      33.740  22.292  24.110  1.00  0.00     0.016 C 
ATOM     18  C   UNL A   1      32.178  21.423  22.536  1.00  0.00     0.016 C 
ATOM     19  C   UNL A   1      33.363  20.899  24.607  1.00  0.00     0.001 C 
ATOM     20  C   UNL A   1      32.403  20.325  23.570  1.00  0.00     0.001 C 
ENDBRANCH  10  15
ENDBRANCH   8   9
ENDBRANCH   6   8
ENDBRANCH   5   6
ENDBRANCH   4   5
ENDBRANCH   3   4
ENDBRANCH   2   3
ENDBRANCH   1   2
BRANCH   1  21
ATOM     21  C   UNL A   1      34.684  31.604  28.038  1.00  0.00     0.261 C 
BRANCH  21  22
ATOM     22  O   UNL A   1      35.354  30.464  28.604  1.00  0.00    -0.460 OA
BRANCH  22  23
ATOM     23  C   UNL A   1      36.310  30.765  29.519  1.00  0.00     0.338 C 
ATOM     24  O   UNL A   1      36.158  31.384  30.564  1.00  0.00    -0.246 OA
BRANCH  23  25
ATOM     25  C   UNL A   1      37.572  30.080  29.188  1.00  0.00     0.060 A 
ATOM     26  C   UNL A   1      38.414  29.727  30.252  1.00  0.00     0.016 A 
ATOM     27  C   UNL A   1      37.965  29.853  27.868  1.00  0.00     0.016 A 
ATOM     28  C   UNL A   1      39.669  29.177  29.997  1.00  0.00     0.010 A 
ATOM     29  C   UNL A   1      39.231  29.311  27.615  1.00  0.00     0.010 A 
ATOM     30  C   UNL A   1      40.101  28.996  28.676  1.00  0.00    -0.014 A 
BRANCH  30  31
ATOM     31  C   UNL A   1      41.504  28.593  28.409  1.00  0.00     0.031 A 
ATOM     32  C   UNL A   1      42.588  29.636  28.450  1.00  0.00     0.074 A 
ATOM     33  C   UNL A   1      41.812  27.308  28.156  1.00  0.00     0.049 A 
ATOM     34  N   UNL A   1      43.865  29.512  28.200  1.00  0.00    -0.248 NA
ATOM     35  C   UNL A   1      42.176  30.998  28.823  1.00  0.00     0.031 C 
ATOM     36  C   UNL A   1      40.859  26.199  28.135  1.00  0.00     0.029 A 
ATOM     37  N   UNL A   1      43.017  26.721  27.861  1.00  0.00    -0.354 N 
ATOM     38  C   UNL A   1      44.411  30.778  28.378  1.00  0.00     0.074 A 
ATOM     39  C   UNL A   1      43.320  31.661  28.733  1.00  0.00     0.031 C 
ATOM     40  C   UNL A   1      41.514  25.067  27.826  1.00  0.00     0.029 A 
ATOM     41  C   UNL A   1      42.925  25.375  27.597  1.00  0.00     0.049 A 
ATOM     42  H   UNL A   1      43.868  27.216  27.841  1.00  0.00     0.167 HD
ATOM     43  C   UNL A   1      45.702  31.168  28.263  1.00  0.00     0.037 A 
ATOM     44  C   UNL A   1      43.865  24.498  27.193  1.00  0.00     0.037 A 
ATOM     45  C   UNL A   1      46.786  30.285  27.913  1.00  0.00     0.049 A 
ATOM     46  C   UNL A   1      45.283  24.969  26.999  1.00  0.00     0.074 A 
ATOM     47  C   UNL A   1      48.132  30.582  27.790  1.00  0.00     0.029 A 
ATOM     48  N   UNL A   1      46.646  28.936  27.620  1.00  0.00    -0.354 N 
ATOM     49  N   UNL A   1      45.788  26.165  27.188  1.00  0.00    -0.248 NA
ATOM     50  C   UNL A   1      46.260  23.972  26.536  1.00  0.00     0.031 C 
ATOM     51  C   UNL A   1      48.799  29.424  27.377  1.00  0.00     0.029 A 
ATOM     52  C   UNL A   1      47.877  28.393  27.291  1.00  0.00     0.049 A 
ATOM     53  H   UNL A   1      45.797  28.438  27.644  1.00  0.00     0.167 HD
ATOM     54  C   UNL A   1      47.143  26.059  26.891  1.00  0.00     0.074 A 
ATOM     55  C   UNL A   1      47.382  24.680  26.518  1.00  0.00     0.031 C 
ATOM     56  C   UNL A   1      48.102  27.018  26.927  1.00  0.00     0.037 A 
BRANCH  43  57
ATOM     57  C   UNL A   1      46.016  32.620  28.496  1.00  0.00     0.058 A 
ATOM     58  C   UNL A   1      45.995  33.557  27.452  1.00  0.00     0.135 A 
ATOM     59  C   UNL A   1      46.308  33.085  29.789  1.00  0.00     0.135 A 
ATOM     60  F   UNL A   1      45.738  33.163  26.195  1.00  0.00    -0.206 F 
ATOM     61  C   UNL A   1      46.274  34.901  27.677  1.00  0.00     0.059 A 
ATOM     62  C   UNL A   1      46.567  34.429  30.041  1.00  0.00     0.059 A 
ATOM     63  F   UNL A   1      46.344  32.229  30.823  1.00  0.00    -0.206 F 
ATOM     64  C   UNL A   1      46.560  35.327  28.976  1.00  0.00     0.060 A 
BRANCH  64  65
ATOM     65  S   UNL A   1      46.918  37.075  29.253  1.00  0.00     0.124 S 
ATOM     66  O   UNL A   1      47.636  37.027  30.523  1.00  0.00    -0.237 OA
ATOM     67  O   UNL A   1      47.723  37.418  28.084  1.00  0.00    -0.237 OA
ATOM     68  O   UNL A   1      45.596  37.690  29.302  1.00  0.00    -0.744 OA
ENDBRANCH  64  65
ENDBRANCH  43  57
BRANCH  44  69
ATOM     69  C   UNL A   1      43.493  23.084  26.922  1.00  0.00     0.058 A 
ATOM     70  C   UNL A   1      43.170  22.205  27.966  1.00  0.00     0.135 A 
ATOM     71  C   UNL A   1      43.449  22.586  25.610  1.00  0.00     0.135 A 
ATOM     72  F   UNL A   1      43.209  22.630  29.237  1.00  0.00    -0.206 F 
ATOM     73  C   UNL A   1      42.827  20.879  27.721  1.00  0.00     0.059 A 
ATOM     74  C   UNL A   1      43.085  21.271  25.339  1.00  0.00     0.059 A 
ATOM     75  F   UNL A   1      43.740  23.389  24.575  1.00  0.00    -0.206 F 
ATOM     76  C   UNL A   1      42.784  20.422  26.402  1.00  0.00     0.060 A 
BRANCH  76  77
ATOM     77  S   UNL A   1      42.283  18.715  26.090  1.00  0.00     0.124 S 
ATOM     78  O   UNL A   1      40.877  18.881  25.743  1.00  0.00    -0.237 OA
ATOM     79  O   UNL A   1      43.171  18.331  24.996  1.00  0.00    -0.237 OA
ATOM     80  O   UNL A   1      42.548  18.051  27.363  1.00  0.00    -0.744 OA
ENDBRANCH  76  77
ENDBRANCH  44  69
BRANCH  56  81
ATOM     81  C   UNL A   1      49.509  26.609  26.583  1.00  0.00     0.058 A 
ATOM     82  C   UNL A   1      50.391  26.110  27.555  1.00  0.00     0.135 A 
ATOM     83  C   UNL A   1      49.956  26.650  25.252  1.00  0.00     0.135 A 
ATOM     84  F   UNL A   1      50.016  26.055  28.842  1.00  0.00    -0.206 F 
ATOM     85  C   UNL A   1      51.672  25.684  27.221  1.00  0.00     0.059 A 
ATOM     86  C   UNL A   1      51.224  26.205  24.893  1.00  0.00     0.059 A 
ATOM     87  F   UNL A   1      49.148  27.110  24.282  1.00  0.00    -0.206 F 
ATOM     88  C   UNL A   1      52.078  25.730  25.886  1.00  0.00     0.060 A 
BRANCH  88  89
ATOM     89  S   UNL A   1      53.727  25.129  25.460  1.00  0.00     0.124 S 
ATOM     90  O   UNL A   1      53.494  23.694  25.335  1.00  0.00    -0.237 OA
ATOM     91  O   UNL A   1      54.005  25.837  24.213  1.00  0.00    -0.237 OA
ATOM     92  O   UNL A   1      54.543  25.536  26.599  1.00  0.00    -0.744 OA
ENDBRANCH  88  89
ENDBRANCH  56  81
ENDBRANCH  30  31
ENDBRANCH  23  25
ENDBRANCH  22  23
ENDBRANCH  21  22
ENDBRANCH   1  21
TORSDOF 19
ENDMDL
MODEL 2
REMARK VINA RESULT:     -10.5      1.585      2.218
REMARK SMILES CC1(C(=O)N2CC(CC(=O)OCCOCCOC(=O)c3ccc(-c4c5nc(c(-c6c(F)cc(S(=O)(=O)[O-])cc6F)c6ccc([nH]6)c(-c6c(F)cc(S(=O)(=O)[O-])cc6F)c6nc(c(-c7c(F)cc(S(=O)(=O)[O-])cc7F)c7ccc4[nH]7)C=C6)C=C5)cc3)C2)CCCC1
REMARK SMILES IDX 15 1 14 2 13 3 12 4 11 5 9 6 10 7 8 8 7 9 3 10 4 11 5 12
REMARK SMILES IDX 6 13 86 14 2 15 1 16 87 17 90 18 88 19 89 20 16 21 17 22
REMARK SMILES IDX 18 23 19 24 20 25 21 26 85 27 22 28 84 29 23 30 24 31 25 32
REMARK SMILES IDX 78 33 26 34 83 35 77 36 79 37 27 38 82 39 76 40 75 41 28 43
REMARK SMILES IDX 62 44 41 45 61 46 42 47 45 48 60 49 80 50 43 51 44 52 59 54
REMARK SMILES IDX 81 55 46 56 29 57 30 58 39 59 31 60 32 61 38 62 40 63 33 64
REMARK SMILES IDX 34 65 35 66 36 67 37 68 63 69 64 70 73 71 65 72 66 73 72 74
REMARK SMILES IDX 74 75 67 76 68 77 69 78 70 79 71 80 47 81 48 82 57 83 49 84
REMARK SMILES IDX 50 85 56 86 58 87 51 88 52 89 53 90 54 91 55 92
REMARK H PARENT 79 42 45 53
REMARK Flexibility Score: inf
ROOT
ATOM      1  C   UNL A   1      35.129  32.950  28.686  1.00  0.00     0.202 C 
ENDROOT
BRANCH   1   2
ATOM      2  O   UNL A   1      34.631  32.250  27.549  1.00  0.00    -0.374 OA
BRANCH   2   3
ATOM      3  C   UNL A   1      34.467  30.836  27.668  1.00  0.00     0.202 C 
BRANCH   3   4
ATOM      4  C   UNL A   1      33.204  30.235  27.045  1.00  0.00     0.261 C 
BRANCH   4   5
ATOM      5  O   UNL A   1      33.262  28.796  26.990  1.00  0.00    -0.463 OA
BRANCH   5   6
ATOM      6  C   UNL A   1      32.063  28.161  27.033  1.00  0.00     0.306 C 
ATOM      7  O   UNL A   1      31.288  28.175  27.983  1.00  0.00    -0.252 OA
BRANCH   6   8
ATOM      8  C   UNL A   1      31.760  27.388  25.778  1.00  0.00     0.130 C 
BRANCH   8   9
ATOM      9  C   UNL A   1      32.944  26.838  24.992  1.00  0.00     0.039 C 
ATOM     10  C   UNL A   1      34.718  24.171  24.181  1.00  0.00     0.228 C 
ATOM     11  O   UNL A   1      34.796  24.159  22.952  1.00  0.00    -0.274 OA
ATOM     12  N   UNL A   1      33.788  24.948  24.832  1.00  0.00    -0.342 N 
ATOM     13  C   UNL A   1      32.610  25.552  24.232  1.00  0.00     0.125 C 
ATOM     14  C   UNL A   1      34.022  26.054  25.757  1.00  0.00     0.125 C 
BRANCH  10  15
ATOM     15  C   UNL A   1      35.509  23.196  25.072  1.00  0.00     0.047 C 
ATOM     16  C   UNL A   1      34.766  22.833  26.363  1.00  0.00     0.022 C 
ATOM     17  C   UNL A   1      36.909  23.752  25.397  1.00  0.00     0.016 C 
ATOM     18  C   UNL A   1      35.866  21.947  24.246  1.00  0.00     0.016 C 
ATOM     19  C   UNL A   1      37.789  22.528  25.636  1.00  0.00     0.001 C 
ATOM     20  C   UNL A   1      37.147  21.386  24.855  1.00  0.00     0.001 C 
ENDBRANCH  10  15
ENDBRANCH   8   9
ENDBRANCH   6   8
ENDBRANCH   5   6
ENDBRANCH   4   5
ENDBRANCH   3   4
ENDBRANCH   2   3
ENDBRANCH   1   2
BRANCH   1  21
ATOM     21  C   UNL A   1      34.906  32.302  30.061  1.00  0.00     0.261 C 
BRANCH  21  22
ATOM     22  O   UNL A   1      36.133  32.026  30.760  1.00  0.00    -0.460 OA
BRANCH  22  23
ATOM     23  C   UNL A   1      36.474  30.714  30.810  1.00  0.00     0.338 C 
ATOM     24  O   UNL A   1      35.723  29.766  30.995  1.00  0.00    -0.246 OA
BRANCH  23  25
ATOM     25  C   UNL A   1      37.884  30.535  30.419  1.00  0.00     0.060 A 
ATOM     26  C   UNL A   1      38.156  30.320  29.061  1.00  0.00     0.016 A 
ATOM     27  C   UNL A   1      38.912  30.499  31.362  1.00  0.00     0.016 A 
ATOM     28  C   UNL A   1      39.456  30.034  28.645  1.00  0.00     0.010 A 
ATOM     29  C   UNL A   1      40.215  30.201  30.944  1.00  0.00     0.010 A 
ATOM     30  C   UNL A   1      40.489  29.939  29.588  1.00  0.00    -0.014 A 
BRANCH  30  31
ATOM     31  C   UNL A   1      41.825  29.448  29.168  1.00  0.00     0.031 A 
ATOM     32  C   UNL A   1      42.986  30.405  29.147  1.00  0.00     0.074 A 
ATOM     33  C   UNL A   1      42.007  28.158  28.833  1.00  0.00     0.049 A 
ATOM     34  N   UNL A   1      44.220  30.201  28.769  1.00  0.00    -0.248 NA
ATOM     35  C   UNL A   1      42.717  31.774  29.615  1.00  0.00     0.031 C 
ATOM     36  C   UNL A   1      40.973  27.124  28.858  1.00  0.00     0.029 A 
ATOM     37  N   UNL A   1      43.130  27.499  28.398  1.00  0.00    -0.354 N 
ATOM     38  C   UNL A   1      44.877  31.413  28.946  1.00  0.00     0.074 A 
ATOM     39  C   UNL A   1      43.896  32.355  29.443  1.00  0.00     0.031 C 
ATOM     40  C   UNL A   1      41.507  25.963  28.440  1.00  0.00     0.029 A 
ATOM     41  C   UNL A   1      42.910  26.178  28.088  1.00  0.00     0.049 A 
ATOM     42  H   UNL A   1      44.011  27.931  28.315  1.00  0.00     0.167 HD
ATOM     43  C   UNL A   1      46.179  31.712  28.723  1.00  0.00     0.037 A 
ATOM     44  C   UNL A   1      43.736  25.255  27.557  1.00  0.00     0.037 A 
ATOM     45  C   UNL A   1      47.152  30.771  28.232  1.00  0.00     0.049 A 
ATOM     46  C   UNL A   1      45.162  25.630  27.246  1.00  0.00     0.074 A 
ATOM     47  C   UNL A   1      48.500  30.973  27.991  1.00  0.00     0.029 A 
ATOM     48  N   UNL A   1      46.881  29.452  27.898  1.00  0.00    -0.354 N 
ATOM     49  N   UNL A   1      45.773  26.775  27.435  1.00  0.00    -0.248 NA
ATOM     50  C   UNL A   1      46.011  24.588  26.649  1.00  0.00     0.031 C 
ATOM     51  C   UNL A   1      49.034  29.792  27.466  1.00  0.00     0.029 A 
ATOM     52  C   UNL A   1      48.030  28.837  27.427  1.00  0.00     0.049 A 
ATOM     53  H   UNL A   1      46.003  29.016  27.983  1.00  0.00     0.167 HD
ATOM     54  C   UNL A   1      47.083  26.585  27.003  1.00  0.00     0.074 A 
ATOM     55  C   UNL A   1      47.178  25.213  26.551  1.00  0.00     0.031 C 
ATOM     56  C   UNL A   1      48.113  27.468  26.986  1.00  0.00     0.037 A 
BRANCH  43  57
ATOM     57  C   UNL A   1      46.625  33.124  28.985  1.00  0.00     0.058 A 
ATOM     58  C   UNL A   1      46.576  34.111  27.989  1.00  0.00     0.135 A 
ATOM     59  C   UNL A   1      47.074  33.501  30.261  1.00  0.00     0.135 A 
ATOM     60  F   UNL A   1      46.171  33.799  26.747  1.00  0.00    -0.206 F 
ATOM     61  C   UNL A   1      46.979  35.418  28.241  1.00  0.00     0.059 A 
ATOM     62  C   UNL A   1      47.459  34.808  30.543  1.00  0.00     0.059 A 
ATOM     63  F   UNL A   1      47.143  32.595  31.248  1.00  0.00    -0.206 F 
ATOM     64  C   UNL A   1      47.420  35.757  29.522  1.00  0.00     0.060 A 
BRANCH  64  65
ATOM     65  S   UNL A   1      47.937  37.458  29.836  1.00  0.00     0.124 S 
ATOM     66  O   UNL A   1      48.764  37.731  28.664  1.00  0.00    -0.237 OA
ATOM     67  O   UNL A   1      46.663  38.167  29.890  1.00  0.00    -0.237 OA
ATOM     68  O   UNL A   1      48.656  37.368  31.103  1.00  0.00    -0.744 OA
ENDBRANCH  64  65
ENDBRANCH  43  57
BRANCH  44  69
ATOM     69  C   UNL A   1      43.231  23.888  27.265  1.00  0.00     0.058 A 
ATOM     70  C   UNL A   1      42.756  23.546  25.990  1.00  0.00     0.135 A 
ATOM     71  C   UNL A   1      43.218  22.894  28.256  1.00  0.00     0.135 A 
ATOM     72  F   UNL A   1      42.736  24.464  25.013  1.00  0.00    -0.206 F 
ATOM     73  C   UNL A   1      42.276  22.270  25.711  1.00  0.00     0.059 A 
ATOM     74  C   UNL A   1      42.766  21.605  27.994  1.00  0.00     0.059 A 
ATOM     75  F   UNL A   1      43.671  23.167  29.489  1.00  0.00    -0.206 F 
ATOM     76  C   UNL A   1      42.288  21.305  26.719  1.00  0.00     0.060 A 
BRANCH  76  77
ATOM     77  S   UNL A   1      41.716  19.636  26.332  1.00  0.00     0.124 S 
ATOM     78  O   UNL A   1      40.311  19.872  26.026  1.00  0.00    -0.237 OA
ATOM     79  O   UNL A   1      42.566  19.276  25.200  1.00  0.00    -0.237 OA
ATOM     80  O   UNL A   1      41.981  18.898  27.564  1.00  0.00    -0.744 OA
ENDBRANCH  76  77
ENDBRANCH  44  69
BRANCH  56  81
ATOM     81  C   UNL A   1      49.444  26.974  26.489  1.00  0.00     0.058 A 
ATOM     82  C   UNL A   1      50.356  26.330  27.340  1.00  0.00     0.135 A 
ATOM     83  C   UNL A   1      49.783  27.085  25.130  1.00  0.00     0.135 A 
ATOM     84  F   UNL A   1      50.085  26.202  28.648  1.00  0.00    -0.206 F 
ATOM     85  C   UNL A   1      51.563  25.828  26.864  1.00  0.00     0.059 A 
ATOM     86  C   UNL A   1      50.972  26.569  24.629  1.00  0.00     0.059 A 
ATOM     87  F   UNL A   1      48.941  27.685  24.272  1.00  0.00    -0.206 F 
ATOM     88  C   UNL A   1      51.861  25.948  25.505  1.00  0.00     0.060 A 
BRANCH  88  89
ATOM     89  S   UNL A   1      53.409  25.250  24.891  1.00  0.00     0.124 S 
ATOM     90  O   UNL A   1      53.236  23.834  25.200  1.00  0.00    -0.237 OA
ATOM     91  O   UNL A   1      53.369  25.599  23.474  1.00  0.00    -0.237 OA
ATOM     92  O   UNL A   1      54.428  25.944  25.673  1.00  0.00    -0.744 OA
ENDBRANCH  88  89
ENDBRANCH  56  81
ENDBRANCH  30  31
ENDBRANCH  23  25
ENDBRANCH  22  23
ENDBRANCH  21  22
ENDBRANCH   1  21
TORSDOF 19
ENDMDL
MODEL 3
REMARK VINA RESULT:     -10.4      6.504     12.242
REMARK SMILES CC1(C(=O)N2CC(CC(=O)OCCOCCOC(=O)c3ccc(-c4c5nc(c(-c6c(F)cc(S(=O)(=O)[O-])cc6F)c6ccc([nH]6)c(-c6c(F)cc(S(=O)(=O)[O-])cc6F)c6nc(c(-c7c(F)cc(S(=O)(=O)[O-])cc7F)c7ccc4[nH]7)C=C6)C=C5)cc3)C2)CCCC1
REMARK SMILES IDX 15 1 14 2 13 3 12 4 11 5 9 6 10 7 8 8 7 9 3 10 4 11 5 12
REMARK SMILES IDX 6 13 86 14 2 15 1 16 87 17 90 18 88 19 89 20 16 21 17 22
REMARK SMILES IDX 18 23 19 24 20 25 21 26 85 27 22 28 84 29 23 30 24 31 25 32
REMARK SMILES IDX 78 33 26 34 83 35 77 36 79 37 27 38 82 39 76 40 75 41 28 43
REMARK SMILES IDX 62 44 41 45 61 46 42 47 45 48 60 49 80 50 43 51 44 52 59 54
REMARK SMILES IDX 81 55 46 56 29 57 30 58 39 59 31 60 32 61 38 62 40 63 33 64
REMARK SMILES IDX 34 65 35 66 36 67 37 68 63 69 64 70 73 71 65 72 66 73 72 74
REMARK SMILES IDX 74 75 67 76 68 77 69 78 70 79 71 80 47 81 48 82 57 83 49 84
REMARK SMILES IDX 50 85 56 86 58 87 51 88 52 89 53 90 54 91 55 92
REMARK H PARENT 79 42 45 53
REMARK Flexibility Score: inf
ROOT
ATOM      1  C   UNL A   1      41.206  21.143  26.557  1.00  0.00     0.202 C 
ENDROOT
BRANCH   1   2
ATOM      2  O   UNL A   1      39.804  21.251  26.792  1.00  0.00    -0.374 OA
BRANCH   2   3
ATOM      3  C   UNL A   1      38.943  21.222  25.653  1.00  0.00     0.202 C 
BRANCH   3   4
ATOM      4  C   UNL A   1      37.799  22.241  25.630  1.00  0.00     0.261 C 
BRANCH   4   5
ATOM      5  O   UNL A   1      36.841  21.953  24.593  1.00  0.00    -0.463 OA
BRANCH   5   6
ATOM      6  C   UNL A   1      35.580  21.689  25.019  1.00  0.00     0.306 C 
ATOM      7  O   UNL A   1      34.923  20.699  24.716  1.00  0.00    -0.252 OA
BRANCH   6   8
ATOM      8  C   UNL A   1      35.024  22.763  25.914  1.00  0.00     0.130 C 
BRANCH   8   9
ATOM      9  C   UNL A   1      33.994  23.712  25.312  1.00  0.00     0.039 C 
ATOM     10  C   UNL A   1      33.037  26.848  24.906  1.00  0.00     0.228 C 
ATOM     11  O   UNL A   1      32.857  27.009  23.699  1.00  0.00    -0.274 OA
ATOM     12  N   UNL A   1      33.746  25.772  25.388  1.00  0.00    -0.342 N 
ATOM     13  C   UNL A   1      34.630  24.916  24.613  1.00  0.00     0.125 C 
ATOM     14  C   UNL A   1      33.275  24.692  26.252  1.00  0.00     0.125 C 
BRANCH  10  15
ATOM     15  C   UNL A   1      32.659  27.914  25.951  1.00  0.00     0.047 C 
ATOM     16  C   UNL A   1      31.512  27.472  26.864  1.00  0.00     0.022 C 
ATOM     17  C   UNL A   1      32.321  29.257  25.275  1.00  0.00     0.016 C 
ATOM     18  C   UNL A   1      33.919  28.291  26.753  1.00  0.00     0.016 C 
ATOM     19  C   UNL A   1      32.646  30.329  26.312  1.00  0.00     0.001 C 
ATOM     20  C   UNL A   1      33.709  29.725  27.225  1.00  0.00     0.001 C 
ENDBRANCH  10  15
ENDBRANCH   8   9
ENDBRANCH   6   8
ENDBRANCH   5   6
ENDBRANCH   4   5
ENDBRANCH   3   4
ENDBRANCH   2   3
ENDBRANCH   1   2
BRANCH   1  21
ATOM     21  C   UNL A   1      42.023  22.443  26.584  1.00  0.00     0.261 C 
BRANCH  21  22
ATOM     22  O   UNL A   1      41.213  23.621  26.425  1.00  0.00    -0.460 OA
BRANCH  22  23
ATOM     23  C   UNL A   1      41.911  24.765  26.216  1.00  0.00     0.338 C 
ATOM     24  O   UNL A   1      42.665  25.006  25.282  1.00  0.00    -0.246 OA
BRANCH  23  25
ATOM     25  C   UNL A   1      41.505  25.800  27.184  1.00  0.00     0.060 A 
ATOM     26  C   UNL A   1      42.265  26.976  27.231  1.00  0.00     0.016 A 
ATOM     27  C   UNL A   1      40.453  25.600  28.080  1.00  0.00     0.016 A 
ATOM     28  C   UNL A   1      41.999  27.943  28.199  1.00  0.00     0.010 A 
ATOM     29  C   UNL A   1      40.194  26.567  29.058  1.00  0.00     0.010 A 
ATOM     30  C   UNL A   1      40.983  27.730  29.142  1.00  0.00    -0.014 A 
BRANCH  30  31
ATOM     31  C   UNL A   1      40.830  28.667  30.283  1.00  0.00     0.031 A 
ATOM     32  C   UNL A   1      41.740  28.530  31.472  1.00  0.00     0.074 A 
ATOM     33  C   UNL A   1      39.907  29.645  30.248  1.00  0.00     0.049 A 
ATOM     34  N   UNL A   1      41.748  29.205  32.592  1.00  0.00    -0.248 NA
ATOM     35  C   UNL A   1      42.781  27.492  31.388  1.00  0.00     0.031 C 
ATOM     36  C   UNL A   1      38.998  29.909  29.133  1.00  0.00     0.029 A 
ATOM     37  N   UNL A   1      39.576  30.593  31.184  1.00  0.00    -0.354 N 
ATOM     38  C   UNL A   1      42.785  28.674  33.349  1.00  0.00     0.074 A 
ATOM     39  C   UNL A   1      43.369  27.602  32.571  1.00  0.00     0.031 C 
ATOM     40  C   UNL A   1      38.201  30.943  29.456  1.00  0.00     0.029 A 
ATOM     41  C   UNL A   1      38.521  31.391  30.811  1.00  0.00     0.049 A 
ATOM     42  H   UNL A   1      40.050  30.693  32.041  1.00  0.00     0.167 HD
ATOM     43  C   UNL A   1      43.216  29.049  34.576  1.00  0.00     0.037 A 
ATOM     44  C   UNL A   1      37.871  32.355  31.493  1.00  0.00     0.037 A 
ATOM     45  C   UNL A   1      42.635  30.119  35.346  1.00  0.00     0.049 A 
ATOM     46  C   UNL A   1      38.320  32.706  32.888  1.00  0.00     0.074 A 
ATOM     47  C   UNL A   1      43.013  30.587  36.593  1.00  0.00     0.029 A 
ATOM     48  N   UNL A   1      41.545  30.880  34.948  1.00  0.00    -0.354 N 
ATOM     49  N   UNL A   1      39.313  32.207  33.584  1.00  0.00    -0.248 NA
ATOM     50  C   UNL A   1      37.559  33.750  33.591  1.00  0.00     0.031 C 
ATOM     51  C   UNL A   1      42.124  31.599  36.969  1.00  0.00     0.029 A 
ATOM     52  C   UNL A   1      41.222  31.796  35.936  1.00  0.00     0.049 A 
ATOM     53  H   UNL A   1      41.073  30.785  34.090  1.00  0.00     0.167 HD
ATOM     54  C   UNL A   1      39.313  32.893  34.796  1.00  0.00     0.074 A 
ATOM     55  C   UNL A   1      38.225  33.847  34.734  1.00  0.00     0.031 C 
ATOM     56  C   UNL A   1      40.140  32.745  35.860  1.00  0.00     0.037 A 
BRANCH  43  57
ATOM     57  C   UNL A   1      44.362  28.283  35.178  1.00  0.00     0.058 A 
ATOM     58  C   UNL A   1      44.157  27.108  35.917  1.00  0.00     0.135 A 
ATOM     59  C   UNL A   1      45.684  28.712  34.982  1.00  0.00     0.135 A 
ATOM     60  F   UNL A   1      42.912  26.663  36.149  1.00  0.00    -0.206 F 
ATOM     61  C   UNL A   1      45.222  26.396  36.461  1.00  0.00     0.059 A 
ATOM     62  C   UNL A   1      46.766  28.003  35.495  1.00  0.00     0.059 A 
ATOM     63  F   UNL A   1      45.935  29.831  34.284  1.00  0.00    -0.206 F 
ATOM     64  C   UNL A   1      46.523  26.854  36.245  1.00  0.00     0.060 A 
BRANCH  64  65
ATOM     65  S   UNL A   1      47.896  25.919  36.954  1.00  0.00     0.124 S 
ATOM     66  O   UNL A   1      48.899  26.965  37.131  1.00  0.00    -0.237 OA
ATOM     67  O   UNL A   1      47.311  25.389  38.182  1.00  0.00    -0.237 OA
ATOM     68  O   UNL A   1      48.199  24.927  35.927  1.00  0.00    -0.744 OA
ENDBRANCH  64  65
ENDBRANCH  43  57
BRANCH  44  69
ATOM     69  C   UNL A   1      36.708  33.046  30.875  1.00  0.00     0.058 A 
ATOM     70  C   UNL A   1      35.396  32.771  31.287  1.00  0.00     0.135 A 
ATOM     71  C   UNL A   1      36.889  33.998  29.860  1.00  0.00     0.135 A 
ATOM     72  F   UNL A   1      35.171  31.859  32.244  1.00  0.00    -0.206 F 
ATOM     73  C   UNL A   1      34.303  33.408  30.709  1.00  0.00     0.059 A 
ATOM     74  C   UNL A   1      35.813  34.667  29.284  1.00  0.00     0.059 A 
ATOM     75  F   UNL A   1      38.124  34.305  29.436  1.00  0.00    -0.206 F 
ATOM     76  C   UNL A   1      34.522  34.358  29.709  1.00  0.00     0.060 A 
BRANCH  76  77
ATOM     77  S   UNL A   1      33.101  35.221  29.004  1.00  0.00     0.124 S 
ATOM     78  O   UNL A   1      32.315  35.514  30.196  1.00  0.00    -0.237 OA
ATOM     79  O   UNL A   1      33.731  36.368  28.355  1.00  0.00    -0.237 OA
ATOM     80  O   UNL A   1      32.528  34.233  28.094  1.00  0.00    -0.744 OA
ENDBRANCH  76  77
ENDBRANCH  44  69
BRANCH  56  81
ATOM     81  C   UNL A   1      39.926  33.654  37.039  1.00  0.00     0.058 A 
ATOM     82  C   UNL A   1      40.521  34.924  37.110  1.00  0.00     0.135 A 
ATOM     83  C   UNL A   1      39.060  33.279  38.079  1.00  0.00     0.135 A 
ATOM     84  F   UNL A   1      41.362  35.330  36.146  1.00  0.00    -0.206 F 
ATOM     85  C   UNL A   1      40.277  35.782  38.177  1.00  0.00     0.059 A 
ATOM     86  C   UNL A   1      38.782  34.131  39.143  1.00  0.00     0.059 A 
ATOM     87  F   UNL A   1      38.457  32.078  38.056  1.00  0.00    -0.206 F 
ATOM     88  C   UNL A   1      39.401  35.378  39.188  1.00  0.00     0.060 A 
BRANCH  88  89
ATOM     89  S   UNL A   1      39.057  36.520  40.544  1.00  0.00     0.124 S 
ATOM     90  O   UNL A   1      38.817  37.767  39.824  1.00  0.00    -0.237 OA
ATOM     91  O   UNL A   1      37.884  35.915  41.171  1.00  0.00    -0.237 OA
ATOM     92  O   UNL A   1      40.278  36.479  41.341  1.00  0.00    -0.744 OA
ENDBRANCH  88  89
ENDBRANCH  56  81
ENDBRANCH  30  31
ENDBRANCH  23  25
ENDBRANCH  22  23
ENDBRANCH  21  22
ENDBRANCH   1  21
TORSDOF 19
ENDMDL
