MODEL 1
REMARK VINA RESULT:     -11.7      0.000      0.000
REMARK SMILES C[C@H](C(=O)OCCOCCOC(=O)c1ccc(-c2c3nc(c(-c4c(F)cc(S(=O)(=O)[O-])cc4F)c4ccc([nH]4)c(-c4c(F)cc(S(=O)(=O)[O-])cc4F)c4nc(c(-c5c(F)cc(S(=O)(=O)[O-])cc5F)c5ccc2[nH]5)C=C4)C=C3)cc1)N1C(=O)C[C@@H](N2C(=O)/C(=C/c3ccccc3)SC2=S)C1=O
REMARK SMILES IDX 8 1 7 2 6 3 5 4 3 5 4 6 2 7 1 8 80 9 81 10 99 11 82 12 83 13
REMARK SMILES IDX 84 14 100 15 85 16 86 17 97 18 87 19 88 20 96 21 98 22 89 23
REMARK SMILES IDX 90 24 91 25 95 26 92 27 94 28 93 29 9 30 10 31 11 32 12 33
REMARK SMILES IDX 13 34 14 35 15 36 79 37 16 38 78 39 17 40 18 41 19 42 72 43
REMARK SMILES IDX 20 44 77 45 71 46 73 47 21 48 76 49 70 50 69 51 22 53 56 54
REMARK SMILES IDX 35 55 55 56 36 57 39 58 54 59 74 60 37 61 38 62 53 64 75 65
REMARK SMILES IDX 40 66 23 67 24 68 33 69 25 70 26 71 32 72 34 73 27 74 28 75
REMARK SMILES IDX 29 76 30 77 31 78 57 79 58 80 67 81 59 82 60 83 66 84 68 85
REMARK SMILES IDX 61 86 62 87 63 88 64 89 65 90 41 91 42 92 51 93 43 94 44 95
REMARK SMILES IDX 50 96 52 97 45 98 46 99 47 100 48 101 49 102
REMARK H PARENT 73 52 39 63
REMARK Flexibility Score: inf
ROOT
ATOM      1  O   UNL A   1      34.431  31.213  27.678  1.00  0.00    -0.374 OA
ENDROOT
BRANCH   1   2
ATOM      2  C   UNL A   1      33.184  30.699  27.212  1.00  0.00     0.202 C 
BRANCH   2   3
ATOM      3  C   UNL A   1      33.238  29.490  26.272  1.00  0.00     0.261 C 
BRANCH   3   4
ATOM      4  O   UNL A   1      31.957  28.852  26.106  1.00  0.00    -0.462 OA
BRANCH   4   5
ATOM      5  C   UNL A   1      32.005  27.501  25.938  1.00  0.00     0.329 C 
ATOM      6  O   UNL A   1      32.628  26.734  26.669  1.00  0.00    -0.250 OA
BRANCH   5   7
ATOM      7  C   UNL A   1      31.191  26.990  24.742  1.00  0.00     0.200 C 
ATOM      8  C   UNL A   1      30.520  28.182  24.044  1.00  0.00     0.044 C 
BRANCH   7   9
ATOM      9  N   UNL A   1      31.867  26.071  23.819  1.00  0.00    -0.267 N 
ATOM     10  C   UNL A   1      33.076  26.390  23.270  1.00  0.00     0.232 C 
ATOM     11  C   UNL A   1      31.444  24.828  23.442  1.00  0.00     0.253 C 
ATOM     12  O   UNL A   1      33.654  27.463  23.371  1.00  0.00    -0.274 OA
ATOM     13  C   UNL A   1      33.615  25.228  22.490  1.00  0.00     0.136 C 
ATOM     14  C   UNL A   1      32.551  24.156  22.647  1.00  0.00     0.191 C 
ATOM     15  O   UNL A   1      30.397  24.271  23.747  1.00  0.00    -0.272 OA
BRANCH  14  16
ATOM     16  N   UNL A   1      32.982  22.929  23.348  1.00  0.00    -0.280 N 
ATOM     17  C   UNL A   1      32.481  21.703  22.939  1.00  0.00     0.266 C 
ATOM     18  C   UNL A   1      33.884  22.893  24.392  1.00  0.00     0.149 C 
ATOM     19  O   UNL A   1      31.686  21.531  22.027  1.00  0.00    -0.268 OA
ATOM     20  C   UNL A   1      33.046  20.598  23.757  1.00  0.00     0.081 C 
ATOM     21  S   UNL A   1      34.119  21.231  24.931  1.00  0.00    -0.054 SA
ATOM     22  S   UNL A   1      34.660  24.171  25.130  1.00  0.00    -0.052 S 
ATOM     23  C   UNL A   1      32.716  19.320  23.526  1.00  0.00     0.029 C 
BRANCH  23  24
ATOM     24  C   UNL A   1      33.160  18.141  24.280  1.00  0.00    -0.024 A 
ATOM     25  C   UNL A   1      34.451  17.639  24.084  1.00  0.00     0.008 A 
ATOM     26  C   UNL A   1      32.285  17.458  25.134  1.00  0.00     0.008 A 
ATOM     27  C   UNL A   1      34.867  16.480  24.745  1.00  0.00     0.001 A 
ATOM     28  C   UNL A   1      32.701  16.300  25.793  1.00  0.00     0.001 A 
ATOM     29  C   UNL A   1      33.992  15.810  25.599  1.00  0.00     0.000 A 
ENDBRANCH  23  24
ENDBRANCH  14  16
ENDBRANCH   7   9
ENDBRANCH   5   7
ENDBRANCH   4   5
ENDBRANCH   3   4
ENDBRANCH   2   3
ENDBRANCH   1   2
BRANCH   1  30
ATOM     30  C   UNL A   1      34.426  32.519  28.255  1.00  0.00     0.202 C 
BRANCH  30  31
ATOM     31  C   UNL A   1      34.808  32.628  29.738  1.00  0.00     0.261 C 
BRANCH  31  32
ATOM     32  O   UNL A   1      36.219  32.434  29.972  1.00  0.00    -0.460 OA
BRANCH  32  33
ATOM     33  C   UNL A   1      36.508  31.398  30.799  1.00  0.00     0.338 C 
ATOM     34  O   UNL A   1      35.851  31.027  31.769  1.00  0.00    -0.246 OA
BRANCH  33  35
ATOM     35  C   UNL A   1      37.649  30.613  30.297  1.00  0.00     0.060 A 
ATOM     36  C   UNL A   1      38.513  30.056  31.251  1.00  0.00     0.016 A 
ATOM     37  C   UNL A   1      37.943  30.518  28.936  1.00  0.00     0.016 A 
ATOM     38  C   UNL A   1      39.703  29.451  30.849  1.00  0.00     0.010 A 
ATOM     39  C   UNL A   1      39.144  29.915  28.536  1.00  0.00     0.010 A 
ATOM     40  C   UNL A   1      40.047  29.416  29.493  1.00  0.00    -0.014 A 
BRANCH  40  41
ATOM     41  C   UNL A   1      41.418  28.996  29.103  1.00  0.00     0.031 A 
ATOM     42  C   UNL A   1      42.543  29.995  29.187  1.00  0.00     0.074 A 
ATOM     43  C   UNL A   1      41.671  27.727  28.733  1.00  0.00     0.049 A 
ATOM     44  N   UNL A   1      43.810  29.844  28.901  1.00  0.00    -0.248 NA
ATOM     45  C   UNL A   1      42.190  31.345  29.656  1.00  0.00     0.031 C 
ATOM     46  C   UNL A   1      40.676  26.658  28.652  1.00  0.00     0.029 A 
ATOM     47  N   UNL A   1      42.843  27.124  28.353  1.00  0.00    -0.354 N 
ATOM     48  C   UNL A   1      44.405  31.076  29.147  1.00  0.00     0.074 A 
ATOM     49  C   UNL A   1      43.354  31.973  29.581  1.00  0.00     0.031 C 
ATOM     50  C   UNL A   1      41.280  25.529  28.245  1.00  0.00     0.029 A 
ATOM     51  C   UNL A   1      42.698  25.801  28.009  1.00  0.00     0.049 A 
ATOM     52  H   UNL A   1      43.708  27.594  28.329  1.00  0.00     0.167 HD
ATOM     53  C   UNL A   1      45.708  31.428  29.032  1.00  0.00     0.037 A 
ATOM     54  C   UNL A   1      43.601  24.915  27.543  1.00  0.00     0.037 A 
ATOM     55  C   UNL A   1      46.752  30.531  28.609  1.00  0.00     0.049 A 
ATOM     56  C   UNL A   1      45.035  25.345  27.367  1.00  0.00     0.074 A 
ATOM     57  C   UNL A   1      48.107  30.785  28.484  1.00  0.00     0.029 A 
ATOM     58  N   UNL A   1      46.558  29.209  28.236  1.00  0.00    -0.354 N 
ATOM     59  N   UNL A   1      45.586  26.508  27.627  1.00  0.00    -0.248 NA
ATOM     60  C   UNL A   1      45.970  24.342  26.837  1.00  0.00     0.031 C 
ATOM     61  C   UNL A   1      48.726  29.630  27.993  1.00  0.00     0.029 A 
ATOM     62  C   UNL A   1      47.764  28.642  27.856  1.00  0.00     0.049 A 
ATOM     63  H   UNL A   1      45.691  28.742  28.241  1.00  0.00     0.167 HD
ATOM     64  C   UNL A   1      46.935  26.367  27.317  1.00  0.00     0.074 A 
ATOM     65  C   UNL A   1      47.119  25.005  26.860  1.00  0.00     0.031 C 
ATOM     66  C   UNL A   1      47.932  27.283  27.408  1.00  0.00     0.037 A 
BRANCH  53  67
ATOM     67  C   UNL A   1      46.076  32.853  29.340  1.00  0.00     0.058 A 
ATOM     68  C   UNL A   1      46.470  33.254  30.626  1.00  0.00     0.135 A 
ATOM     69  C   UNL A   1      46.065  33.825  28.327  1.00  0.00     0.135 A 
ATOM     70  F   UNL A   1      46.482  32.370  31.637  1.00  0.00    -0.206 F 
ATOM     71  C   UNL A   1      46.814  34.575  30.903  1.00  0.00     0.059 A 
ATOM     72  C   UNL A   1      46.429  35.144  28.575  1.00  0.00     0.059 A 
ATOM     73  F   UNL A   1      45.694  33.495  27.079  1.00  0.00    -0.206 F 
ATOM     74  C   UNL A   1      46.788  35.513  29.870  1.00  0.00     0.060 A 
BRANCH  74  75
ATOM     75  S   UNL A   1      47.236  37.222  30.242  1.00  0.00     0.124 S 
ATOM     76  O   UNL A   1      48.229  37.494  29.208  1.00  0.00    -0.237 OA
ATOM     77  O   UNL A   1      45.962  37.919  30.097  1.00  0.00    -0.237 OA
ATOM     78  O   UNL A   1      47.754  37.148  31.605  1.00  0.00    -0.744 OA
ENDBRANCH  74  75
ENDBRANCH  53  67
BRANCH  54  79
ATOM     79  C   UNL A   1      43.176  23.531  27.203  1.00  0.00     0.058 A 
ATOM     80  C   UNL A   1      42.963  23.144  25.872  1.00  0.00     0.135 A 
ATOM     81  C   UNL A   1      42.978  22.567  28.204  1.00  0.00     0.135 A 
ATOM     82  F   UNL A   1      43.127  24.034  24.881  1.00  0.00    -0.206 F 
ATOM     83  C   UNL A   1      42.557  21.854  25.545  1.00  0.00     0.059 A 
ATOM     84  C   UNL A   1      42.596  21.265  27.900  1.00  0.00     0.059 A 
ATOM     85  F   UNL A   1      43.177  22.886  29.493  1.00  0.00    -0.206 F 
ATOM     86  C   UNL A   1      42.379  20.921  26.567  1.00  0.00     0.060 A 
BRANCH  86  87
ATOM     87  S   UNL A   1      41.902  19.234  26.128  1.00  0.00     0.124 S 
ATOM     88  O   UNL A   1      40.464  19.375  25.941  1.00  0.00    -0.237 OA
ATOM     89  O   UNL A   1      42.685  18.999  24.919  1.00  0.00    -0.237 OA
ATOM     90  O   UNL A   1      42.316  18.456  27.293  1.00  0.00    -0.744 OA
ENDBRANCH  86  87
ENDBRANCH  54  79
BRANCH  66  91
ATOM     91  C   UNL A   1      49.319  26.836  27.035  1.00  0.00     0.058 A 
ATOM     92  C   UNL A   1      50.211  26.326  27.991  1.00  0.00     0.135 A 
ATOM     93  C   UNL A   1      49.741  26.868  25.696  1.00  0.00     0.135 A 
ATOM     94  F   UNL A   1      49.858  26.278  29.286  1.00  0.00    -0.206 F 
ATOM     95  C   UNL A   1      51.481  25.881  27.636  1.00  0.00     0.059 A 
ATOM     96  C   UNL A   1      50.997  26.407  25.315  1.00  0.00     0.059 A 
ATOM     97  F   UNL A   1      48.922  27.336  24.740  1.00  0.00    -0.206 F 
ATOM     98  C   UNL A   1      51.865  25.926  26.294  1.00  0.00     0.060 A 
BRANCH  98  99
ATOM     99  S   UNL A   1      53.502  25.316  25.839  1.00  0.00     0.124 S 
ATOM    100  O   UNL A   1      53.191  23.975  25.356  1.00  0.00    -0.237 OA
ATOM    101  O   UNL A   1      53.923  26.275  24.822  1.00  0.00    -0.237 OA
ATOM    102  O   UNL A   1      54.248  25.375  27.094  1.00  0.00    -0.744 OA
ENDBRANCH  98  99
ENDBRANCH  66  91
ENDBRANCH  40  41
ENDBRANCH  33  35
ENDBRANCH  32  33
ENDBRANCH  31  32
ENDBRANCH  30  31
ENDBRANCH   1  30
TORSDOF 20
ENDMDL
MODEL 2
REMARK VINA RESULT:     -11.5      6.165     11.560
REMARK SMILES C[C@H](C(=O)OCCOCCOC(=O)c1ccc(-c2c3nc(c(-c4c(F)cc(S(=O)(=O)[O-])cc4F)c4ccc([nH]4)c(-c4c(F)cc(S(=O)(=O)[O-])cc4F)c4nc(c(-c5c(F)cc(S(=O)(=O)[O-])cc5F)c5ccc2[nH]5)C=C4)C=C3)cc1)N1C(=O)C[C@@H](N2C(=O)/C(=C/c3ccccc3)SC2=S)C1=O
REMARK SMILES IDX 8 1 7 2 6 3 5 4 3 5 4 6 2 7 1 8 80 9 81 10 99 11 82 12 83 13
REMARK SMILES IDX 84 14 100 15 85 16 86 17 97 18 87 19 88 20 96 21 98 22 89 23
REMARK SMILES IDX 90 24 91 25 95 26 92 27 94 28 93 29 9 30 10 31 11 32 12 33
REMARK SMILES IDX 13 34 14 35 15 36 79 37 16 38 78 39 17 40 18 41 19 42 72 43
REMARK SMILES IDX 20 44 77 45 71 46 73 47 21 48 76 49 70 50 69 51 22 53 56 54
REMARK SMILES IDX 35 55 55 56 36 57 39 58 54 59 74 60 37 61 38 62 53 64 75 65
REMARK SMILES IDX 40 66 23 67 24 68 33 69 25 70 26 71 32 72 34 73 27 74 28 75
REMARK SMILES IDX 29 76 30 77 31 78 57 79 58 80 67 81 59 82 60 83 66 84 68 85
REMARK SMILES IDX 61 86 62 87 63 88 64 89 65 90 41 91 42 92 51 93 43 94 44 95
REMARK SMILES IDX 50 96 52 97 45 98 46 99 47 100 48 101 49 102
REMARK H PARENT 73 52 39 63
REMARK Flexibility Score: inf
ROOT
ATOM      1  O   UNL A   1      38.254  21.883  25.676  1.00  0.00    -0.374 OA
ENDROOT
BRANCH   1   2
ATOM      2  C   UNL A   1      37.589  21.148  24.650  1.00  0.00     0.202 C 
BRANCH   2   3
ATOM      3  C   UNL A   1      36.381  20.304  25.071  1.00  0.00     0.261 C 
BRANCH   3   4
ATOM      4  O   UNL A   1      35.140  20.789  24.521  1.00  0.00    -0.462 OA
BRANCH   4   5
ATOM      5  C   UNL A   1      34.018  20.241  25.065  1.00  0.00     0.329 C 
ATOM      6  O   UNL A   1      33.689  19.064  24.936  1.00  0.00    -0.250 OA
BRANCH   5   7
ATOM      7  C   UNL A   1      33.176  21.227  25.884  1.00  0.00     0.200 C 
ATOM      8  C   UNL A   1      34.025  21.778  27.039  1.00  0.00     0.044 C 
BRANCH   7   9
ATOM      9  N   UNL A   1      32.451  22.264  25.140  1.00  0.00    -0.267 N 
ATOM     10  C   UNL A   1      31.131  22.515  25.390  1.00  0.00     0.232 C 
ATOM     11  C   UNL A   1      32.963  23.106  24.195  1.00  0.00     0.253 C 
ATOM     12  O   UNL A   1      30.401  21.869  26.127  1.00  0.00    -0.274 OA
ATOM     13  C   UNL A   1      30.674  23.711  24.610  1.00  0.00     0.136 C 
ATOM     14  C   UNL A   1      31.913  24.148  23.847  1.00  0.00     0.191 C 
ATOM     15  O   UNL A   1      34.101  23.116  23.742  1.00  0.00    -0.272 OA
BRANCH  14  16
ATOM     16  N   UNL A   1      32.426  25.492  24.183  1.00  0.00    -0.280 N 
ATOM     17  C   UNL A   1      32.501  25.876  25.513  1.00  0.00     0.266 C 
ATOM     18  C   UNL A   1      32.871  26.419  23.263  1.00  0.00     0.149 C 
ATOM     19  O   UNL A   1      32.168  25.189  26.468  1.00  0.00    -0.268 OA
ATOM     20  C   UNL A   1      33.054  27.249  25.640  1.00  0.00     0.081 C 
ATOM     21  S   UNL A   1      33.400  27.884  24.088  1.00  0.00    -0.054 SA
ATOM     22  S   UNL A   1      32.908  26.287  21.601  1.00  0.00    -0.052 S 
ATOM     23  C   UNL A   1      33.234  27.821  26.838  1.00  0.00     0.029 C 
BRANCH  23  24
ATOM     24  C   UNL A   1      33.725  29.178  27.106  1.00  0.00    -0.024 A 
ATOM     25  C   UNL A   1      35.094  29.395  27.303  1.00  0.00     0.008 A 
ATOM     26  C   UNL A   1      32.838  30.252  27.251  1.00  0.00     0.008 A 
ATOM     27  C   UNL A   1      35.570  30.669  27.623  1.00  0.00     0.001 A 
ATOM     28  C   UNL A   1      33.314  31.525  27.573  1.00  0.00     0.001 A 
ATOM     29  C   UNL A   1      34.680  31.733  27.759  1.00  0.00     0.000 A 
ENDBRANCH  23  24
ENDBRANCH  14  16
ENDBRANCH   7   9
ENDBRANCH   5   7
ENDBRANCH   4   5
ENDBRANCH   3   4
ENDBRANCH   2   3
ENDBRANCH   1   2
BRANCH   1  30
ATOM     30  C   UNL A   1      39.513  21.383  26.127  1.00  0.00     0.202 C 
BRANCH  30  31
ATOM     31  C   UNL A   1      40.362  22.315  27.004  1.00  0.00     0.261 C 
BRANCH  31  32
ATOM     32  O   UNL A   1      39.864  23.671  27.029  1.00  0.00    -0.460 OA
BRANCH  32  33
ATOM     33  C   UNL A   1      40.833  24.618  26.986  1.00  0.00     0.338 C 
ATOM     34  O   UNL A   1      41.788  24.659  26.213  1.00  0.00    -0.246 OA
BRANCH  33  35
ATOM     35  C   UNL A   1      40.524  25.744  27.886  1.00  0.00     0.060 A 
ATOM     36  C   UNL A   1      41.442  26.802  27.928  1.00  0.00     0.016 A 
ATOM     37  C   UNL A   1      39.432  25.720  28.755  1.00  0.00     0.016 A 
ATOM     38  C   UNL A   1      41.304  27.812  28.879  1.00  0.00     0.010 A 
ATOM     39  C   UNL A   1      39.299  26.734  29.714  1.00  0.00     0.010 A 
ATOM     40  C   UNL A   1      40.256  27.761  29.806  1.00  0.00    -0.014 A 
BRANCH  40  41
ATOM     41  C   UNL A   1      40.262  28.699  30.959  1.00  0.00     0.031 A 
ATOM     42  C   UNL A   1      39.290  29.850  30.972  1.00  0.00     0.074 A 
ATOM     43  C   UNL A   1      41.084  28.499  32.006  1.00  0.00     0.049 A 
ATOM     44  N   UNL A   1      39.121  30.783  31.873  1.00  0.00    -0.248 NA
ATOM     45  C   UNL A   1      38.389  29.963  29.813  1.00  0.00     0.031 C 
ATOM     46  C   UNL A   1      42.039  27.399  32.130  1.00  0.00     0.029 A 
ATOM     47  N   UNL A   1      41.245  29.216  33.164  1.00  0.00    -0.354 N 
ATOM     48  C   UNL A   1      38.102  31.597  31.391  1.00  0.00     0.074 A 
ATOM     49  C   UNL A   1      37.709  31.063  30.103  1.00  0.00     0.031 C 
ATOM     50  C   UNL A   1      42.690  27.516  33.299  1.00  0.00     0.029 A 
ATOM     51  C   UNL A   1      42.218  28.713  33.994  1.00  0.00     0.049 A 
ATOM     52  H   UNL A   1      40.713  30.016  33.382  1.00  0.00     0.167 HD
ATOM     53  C   UNL A   1      37.539  32.684  31.969  1.00  0.00     0.037 A 
ATOM     54  C   UNL A   1      42.686  29.174  35.171  1.00  0.00     0.037 A 
ATOM     55  C   UNL A   1      37.926  33.207  33.254  1.00  0.00     0.049 A 
ATOM     56  C   UNL A   1      42.083  30.420  35.769  1.00  0.00     0.074 A 
ATOM     57  C   UNL A   1      37.397  34.289  33.938  1.00  0.00     0.029 A 
ATOM     58  N   UNL A   1      38.940  32.690  34.047  1.00  0.00    -0.354 N 
ATOM     59  N   UNL A   1      41.105  31.165  35.312  1.00  0.00    -0.248 NA
ATOM     60  C   UNL A   1      42.648  30.886  37.045  1.00  0.00     0.031 C 
ATOM     61  C   UNL A   1      38.122  34.454  35.123  1.00  0.00     0.029 A 
ATOM     62  C   UNL A   1      39.071  33.446  35.200  1.00  0.00     0.049 A 
ATOM     63  H   UNL A   1      39.486  31.902  33.823  1.00  0.00     0.167 HD
ATOM     64  C   UNL A   1      40.919  32.170  36.255  1.00  0.00     0.074 A 
ATOM     65  C   UNL A   1      41.880  31.934  37.313  1.00  0.00     0.031 C 
ATOM     66  C   UNL A   1      40.030  33.195  36.247  1.00  0.00     0.037 A 
BRANCH  53  67
ATOM     67  C   UNL A   1      36.460  33.402  31.204  1.00  0.00     0.058 A 
ATOM     68  C   UNL A   1      35.113  33.344  31.595  1.00  0.00     0.135 A 
ATOM     69  C   UNL A   1      36.784  34.183  30.084  1.00  0.00     0.135 A 
ATOM     70  F   UNL A   1      34.745  32.598  32.649  1.00  0.00    -0.206 F 
ATOM     71  C   UNL A   1      34.121  34.015  30.885  1.00  0.00     0.059 A 
ATOM     72  C   UNL A   1      35.813  34.882  29.375  1.00  0.00     0.059 A 
ATOM     73  F   UNL A   1      38.058  34.271  29.667  1.00  0.00    -0.206 F 
ATOM     74  C   UNL A   1      34.481  34.781  29.774  1.00  0.00     0.060 A 
BRANCH  74  75
ATOM     75  S   UNL A   1      33.185  35.645  28.863  1.00  0.00     0.124 S 
ATOM     76  O   UNL A   1      32.528  34.540  28.174  1.00  0.00    -0.237 OA
ATOM     77  O   UNL A   1      32.415  36.272  29.932  1.00  0.00    -0.237 OA
ATOM     78  O   UNL A   1      33.927  36.565  28.007  1.00  0.00    -0.744 OA
ENDBRANCH  74  75
ENDBRANCH  53  67
BRANCH  54  79
ATOM     79  C   UNL A   1      43.791  28.458  35.863  1.00  0.00     0.058 A 
ATOM     80  C   UNL A   1      45.131  28.809  35.648  1.00  0.00     0.135 A 
ATOM     81  C   UNL A   1      43.526  27.408  36.757  1.00  0.00     0.135 A 
ATOM     82  F   UNL A   1      45.436  29.798  34.793  1.00  0.00    -0.206 F 
ATOM     83  C   UNL A   1      46.171  28.139  36.284  1.00  0.00     0.059 A 
ATOM     84  C   UNL A   1      44.547  26.739  37.423  1.00  0.00     0.059 A 
ATOM     85  F   UNL A   1      42.259  27.039  37.003  1.00  0.00    -0.206 F 
ATOM     86  C   UNL A   1      45.868  27.107  37.172  1.00  0.00     0.060 A 
BRANCH  86  87
ATOM     87  S   UNL A   1      47.222  26.277  38.033  1.00  0.00     0.124 S 
ATOM     88  O   UNL A   1      47.847  25.531  36.948  1.00  0.00    -0.237 OA
ATOM     89  O   UNL A   1      47.988  27.403  38.558  1.00  0.00    -0.237 OA
ATOM     90  O   UNL A   1      46.535  25.473  39.041  1.00  0.00    -0.744 OA
ENDBRANCH  86  87
ENDBRANCH  54  79
BRANCH  66  91
ATOM     91  C   UNL A   1      40.029  34.122  37.432  1.00  0.00     0.058 A 
ATOM     92  C   UNL A   1      39.137  33.949  38.502  1.00  0.00     0.135 A 
ATOM     93  C   UNL A   1      40.969  35.161  37.522  1.00  0.00     0.135 A 
ATOM     94  F   UNL A   1      38.216  32.974  38.463  1.00  0.00    -0.206 F 
ATOM     95  C   UNL A   1      39.164  34.788  39.612  1.00  0.00     0.059 A 
ATOM     96  C   UNL A   1      41.029  35.996  38.634  1.00  0.00     0.059 A 
ATOM     97  F   UNL A   1      41.852  35.362  36.532  1.00  0.00    -0.206 F 
ATOM     98  C   UNL A   1      40.114  35.809  39.669  1.00  0.00     0.060 A 
BRANCH  98  99
ATOM     99  S   UNL A   1      40.162  36.871  41.129  1.00  0.00     0.124 S 
ATOM    100  O   UNL A   1      40.247  35.887  42.204  1.00  0.00    -0.237 OA
ATOM    101  O   UNL A   1      41.365  37.665  40.900  1.00  0.00    -0.237 OA
ATOM    102  O   UNL A   1      38.906  37.612  41.052  1.00  0.00    -0.744 OA
ENDBRANCH  98  99
ENDBRANCH  66  91
ENDBRANCH  40  41
ENDBRANCH  33  35
ENDBRANCH  32  33
ENDBRANCH  31  32
ENDBRANCH  30  31
ENDBRANCH   1  30
TORSDOF 20
ENDMDL
MODEL 3
REMARK VINA RESULT:     -11.3      1.758      2.960
REMARK SMILES C[C@H](C(=O)OCCOCCOC(=O)c1ccc(-c2c3nc(c(-c4c(F)cc(S(=O)(=O)[O-])cc4F)c4ccc([nH]4)c(-c4c(F)cc(S(=O)(=O)[O-])cc4F)c4nc(c(-c5c(F)cc(S(=O)(=O)[O-])cc5F)c5ccc2[nH]5)C=C4)C=C3)cc1)N1C(=O)C[C@@H](N2C(=O)/C(=C/c3ccccc3)SC2=S)C1=O
REMARK SMILES IDX 8 1 7 2 6 3 5 4 3 5 4 6 2 7 1 8 80 9 81 10 99 11 82 12 83 13
REMARK SMILES IDX 84 14 100 15 85 16 86 17 97 18 87 19 88 20 96 21 98 22 89 23
REMARK SMILES IDX 90 24 91 25 95 26 92 27 94 28 93 29 9 30 10 31 11 32 12 33
REMARK SMILES IDX 13 34 14 35 15 36 79 37 16 38 78 39 17 40 18 41 19 42 72 43
REMARK SMILES IDX 20 44 77 45 71 46 73 47 21 48 76 49 70 50 69 51 22 53 56 54
REMARK SMILES IDX 35 55 55 56 36 57 39 58 54 59 74 60 37 61 38 62 53 64 75 65
REMARK SMILES IDX 40 66 23 67 24 68 33 69 25 70 26 71 32 72 34 73 27 74 28 75
REMARK SMILES IDX 29 76 30 77 31 78 57 79 58 80 67 81 59 82 60 83 66 84 68 85
REMARK SMILES IDX 61 86 62 87 63 88 64 89 65 90 41 91 42 92 51 93 43 94 44 95
REMARK SMILES IDX 50 96 52 97 45 98 46 99 47 100 48 101 49 102
REMARK H PARENT 73 52 39 63
REMARK Flexibility Score: inf
ROOT
ATOM      1  O   UNL A   1      33.105  30.162  27.493  1.00  0.00    -0.374 OA
ENDROOT
BRANCH   1   2
ATOM      2  C   UNL A   1      32.408  30.012  26.258  1.00  0.00     0.202 C 
BRANCH   2   3
ATOM      3  C   UNL A   1      32.913  28.926  25.302  1.00  0.00     0.261 C 
BRANCH   3   4
ATOM      4  O   UNL A   1      32.072  27.756  25.290  1.00  0.00    -0.462 OA
BRANCH   4   5
ATOM      5  C   UNL A   1      30.999  27.827  24.453  1.00  0.00     0.329 C 
ATOM      6  O   UNL A   1      30.654  28.842  23.854  1.00  0.00    -0.250 OA
BRANCH   5   7
ATOM      7  C   UNL A   1      30.239  26.503  24.300  1.00  0.00     0.200 C 
ATOM      8  C   UNL A   1      28.815  26.795  23.805  1.00  0.00     0.044 C 
BRANCH   7   9
ATOM      9  N   UNL A   1      30.911  25.429  23.560  1.00  0.00    -0.267 N 
ATOM     10  C   UNL A   1      31.514  25.674  22.359  1.00  0.00     0.232 C 
ATOM     11  C   UNL A   1      31.070  24.132  23.959  1.00  0.00     0.253 C 
ATOM     12  O   UNL A   1      31.466  26.720  21.729  1.00  0.00    -0.274 OA
ATOM     13  C   UNL A   1      32.251  24.455  21.890  1.00  0.00     0.136 C 
ATOM     14  C   UNL A   1      32.004  23.433  22.986  1.00  0.00     0.191 C 
ATOM     15  O   UNL A   1      30.630  23.603  24.972  1.00  0.00    -0.272 OA
BRANCH  14  16
ATOM     16  N   UNL A   1      33.208  22.971  23.707  1.00  0.00    -0.280 N 
ATOM     17  C   UNL A   1      34.222  23.875  23.982  1.00  0.00     0.266 C 
ATOM     18  C   UNL A   1      33.408  21.685  24.166  1.00  0.00     0.149 C 
ATOM     19  O   UNL A   1      34.221  25.057  23.670  1.00  0.00    -0.268 OA
ATOM     20  C   UNL A   1      35.331  23.222  24.723  1.00  0.00     0.081 C 
ATOM     21  S   UNL A   1      34.970  21.567  24.974  1.00  0.00    -0.054 SA
ATOM     22  S   UNL A   1      32.406  20.363  23.998  1.00  0.00    -0.052 S 
ATOM     23  C   UNL A   1      36.413  23.911  25.112  1.00  0.00     0.029 C 
BRANCH  23  24
ATOM     24  C   UNL A   1      37.595  23.386  25.805  1.00  0.00    -0.024 A 
ATOM     25  C   UNL A   1      38.227  24.162  26.783  1.00  0.00     0.008 A 
ATOM     26  C   UNL A   1      38.154  22.153  25.448  1.00  0.00     0.008 A 
ATOM     27  C   UNL A   1      39.391  23.704  27.407  1.00  0.00     0.001 A 
ATOM     28  C   UNL A   1      39.318  21.697  26.071  1.00  0.00     0.001 A 
ATOM     29  C   UNL A   1      39.937  22.472  27.050  1.00  0.00     0.000 A 
ENDBRANCH  23  24
ENDBRANCH  14  16
ENDBRANCH   7   9
ENDBRANCH   5   7
ENDBRANCH   4   5
ENDBRANCH   3   4
ENDBRANCH   2   3
ENDBRANCH   1   2
BRANCH   1  30
ATOM     30  C   UNL A   1      34.002  31.267  27.608  1.00  0.00     0.202 C 
BRANCH  30  31
ATOM     31  C   UNL A   1      35.065  31.192  28.714  1.00  0.00     0.261 C 
BRANCH  31  32
ATOM     32  O   UNL A   1      35.847  29.979  28.660  1.00  0.00    -0.460 OA
BRANCH  32  33
ATOM     33  C   UNL A   1      36.610  29.761  29.760  1.00  0.00     0.338 C 
ATOM     34  O   UNL A   1      36.213  29.444  30.879  1.00  0.00    -0.246 OA
BRANCH  33  35
ATOM     35  C   UNL A   1      38.046  29.772  29.429  1.00  0.00     0.060 A 
ATOM     36  C   UNL A   1      38.393  29.657  28.075  1.00  0.00     0.016 A 
ATOM     37  C   UNL A   1      39.034  29.773  30.414  1.00  0.00     0.016 A 
ATOM     38  C   UNL A   1      39.726  29.485  27.705  1.00  0.00     0.010 A 
ATOM     39  C   UNL A   1      40.374  29.594  30.039  1.00  0.00     0.010 A 
ATOM     40  C   UNL A   1      40.720  29.409  28.688  1.00  0.00    -0.014 A 
BRANCH  40  41
ATOM     41  C   UNL A   1      42.090  28.982  28.301  1.00  0.00     0.031 A 
ATOM     42  C   UNL A   1      43.201  30.000  28.297  1.00  0.00     0.074 A 
ATOM     43  C   UNL A   1      42.354  27.695  28.011  1.00  0.00     0.049 A 
ATOM     44  N   UNL A   1      44.465  29.848  27.998  1.00  0.00    -0.248 NA
ATOM     45  C   UNL A   1      42.836  31.373  28.683  1.00  0.00     0.031 C 
ATOM     46  C   UNL A   1      41.374  26.610  28.020  1.00  0.00     0.029 A 
ATOM     47  N   UNL A   1      43.528  27.084  27.650  1.00  0.00    -0.354 N 
ATOM     48  C   UNL A   1      45.046  31.101  28.151  1.00  0.00     0.074 A 
ATOM     49  C   UNL A   1      43.990  32.010  28.544  1.00  0.00     0.031 C 
ATOM     50  C   UNL A   1      41.987  25.464  27.677  1.00  0.00     0.029 A 
ATOM     51  C   UNL A   1      43.396  25.739  27.397  1.00  0.00     0.049 A 
ATOM     52  H   UNL A   1      44.386  27.563  27.578  1.00  0.00     0.167 HD
ATOM     53  C   UNL A   1      46.341  31.462  27.987  1.00  0.00     0.037 A 
ATOM     54  C   UNL A   1      44.304  24.837  26.974  1.00  0.00     0.037 A 
ATOM     55  C   UNL A   1      47.390  30.553  27.605  1.00  0.00     0.049 A 
ATOM     56  C   UNL A   1      45.728  25.273  26.742  1.00  0.00     0.074 A 
ATOM     57  C   UNL A   1      48.739  30.817  27.438  1.00  0.00     0.029 A 
ATOM     58  N   UNL A   1      47.210  29.207  27.324  1.00  0.00    -0.354 N 
ATOM     59  N   UNL A   1      46.266  26.458  26.914  1.00  0.00    -0.248 NA
ATOM     60  C   UNL A   1      46.668  24.250  26.262  1.00  0.00     0.031 C 
ATOM     61  C   UNL A   1      49.366  29.640  27.013  1.00  0.00     0.029 A 
ATOM     62  C   UNL A   1      48.416  28.632  26.960  1.00  0.00     0.049 A 
ATOM     63  H   UNL A   1      46.350  28.730  27.376  1.00  0.00     0.167 HD
ATOM     64  C   UNL A   1      47.611  26.315  26.589  1.00  0.00     0.074 A 
ATOM     65  C   UNL A   1      47.807  24.928  26.219  1.00  0.00     0.031 C 
ATOM     66  C   UNL A   1      48.596  27.248  26.599  1.00  0.00     0.037 A 
BRANCH  53  67
ATOM     67  C   UNL A   1      46.693  32.910  28.194  1.00  0.00     0.058 A 
ATOM     68  C   UNL A   1      46.459  33.876  27.203  1.00  0.00     0.135 A 
ATOM     69  C   UNL A   1      47.242  33.340  29.411  1.00  0.00     0.135 A 
ATOM     70  F   UNL A   1      45.951  33.517  26.013  1.00  0.00    -0.206 F 
ATOM     71  C   UNL A   1      46.783  35.216  27.403  1.00  0.00     0.059 A 
ATOM     72  C   UNL A   1      47.551  34.677  29.643  1.00  0.00     0.059 A 
ATOM     73  F   UNL A   1      47.488  32.456  30.392  1.00  0.00    -0.206 F 
ATOM     74  C   UNL A   1      47.330  35.606  28.627  1.00  0.00     0.060 A 
BRANCH  74  75
ATOM     75  S   UNL A   1      47.746  37.345  28.873  1.00  0.00     0.124 S 
ATOM     76  O   UNL A   1      46.458  37.988  28.637  1.00  0.00    -0.237 OA
ATOM     77  O   UNL A   1      48.219  37.362  30.254  1.00  0.00    -0.237 OA
ATOM     78  O   UNL A   1      48.767  37.597  27.861  1.00  0.00    -0.744 OA
ENDBRANCH  74  75
ENDBRANCH  53  67
BRANCH  54  79
ATOM     79  C   UNL A   1      43.894  23.428  26.734  1.00  0.00     0.058 A 
ATOM     80  C   UNL A   1      43.752  22.924  25.432  1.00  0.00     0.135 A 
ATOM     81  C   UNL A   1      43.637  22.555  27.803  1.00  0.00     0.135 A 
ATOM     82  F   UNL A   1      43.973  23.724  24.377  1.00  0.00    -0.206 F 
ATOM     83  C   UNL A   1      43.360  21.610  25.198  1.00  0.00     0.059 A 
ATOM     84  C   UNL A   1      43.268  21.231  27.595  1.00  0.00     0.059 A 
ATOM     85  F   UNL A   1      43.766  22.987  29.068  1.00  0.00    -0.206 F 
ATOM     86  C   UNL A   1      43.123  20.770  26.287  1.00  0.00     0.060 A 
BRANCH  86  87
ATOM     87  S   UNL A   1      42.665  19.051  25.974  1.00  0.00     0.124 S 
ATOM     88  O   UNL A   1      43.752  18.611  25.109  1.00  0.00    -0.237 OA
ATOM     89  O   UNL A   1      42.652  18.487  27.320  1.00  0.00    -0.237 OA
ATOM     90  O   UNL A   1      41.355  19.164  25.338  1.00  0.00    -0.744 OA
ENDBRANCH  86  87
ENDBRANCH  54  79
BRANCH  66  91
ATOM     91  C   UNL A   1      49.983  26.797  26.231  1.00  0.00     0.058 A 
ATOM     92  C   UNL A   1      50.439  26.824  24.904  1.00  0.00     0.135 A 
ATOM     93  C   UNL A   1      50.884  26.386  27.227  1.00  0.00     0.135 A 
ATOM     94  F   UNL A   1      49.615  27.204  23.914  1.00  0.00    -0.206 F 
ATOM     95  C   UNL A   1      51.735  26.439  24.574  1.00  0.00     0.059 A 
ATOM     96  C   UNL A   1      52.192  26.019  26.922  1.00  0.00     0.059 A 
ATOM     97  F   UNL A   1      50.503  26.354  28.513  1.00  0.00    -0.206 F 
ATOM     98  C   UNL A   1      52.604  26.038  25.590  1.00  0.00     0.060 A 
BRANCH  98  99
ATOM     99  S   UNL A   1      54.293  25.572  25.154  1.00  0.00     0.124 S 
ATOM    100  O   UNL A   1      54.474  26.277  23.889  1.00  0.00    -0.237 OA
ATOM    101  O   UNL A   1      55.063  26.088  26.282  1.00  0.00    -0.237 OA
ATOM    102  O   UNL A   1      54.231  24.116  25.060  1.00  0.00    -0.744 OA
ENDBRANCH  98  99
ENDBRANCH  66  91
ENDBRANCH  40  41
ENDBRANCH  33  35
ENDBRANCH  32  33
ENDBRANCH  31  32
ENDBRANCH  30  31
ENDBRANCH   1  30
TORSDOF 20
ENDMDL
