MODEL 1
REMARK VINA RESULT:     -10.5      0.000      0.000
REMARK SMILES COc1ccc(CSc2ncccc2C(=O)OCCOCCOC(=O)c2ccc(-c3c4nc(c(-c5c(F)cc(S(=O)(=O)[O-])cc5F)c5ccc([nH]5)c(-c5c(F)cc(S(=O)(=O)[O-])cc5F)c5nc(c(-c6c(F)cc(S(=O)(=O)[O-])cc6F)c6ccc3[nH]6)C=C5)C=C4)cc2)cc1
REMARK SMILES IDX 19 1 18 2 17 3 15 4 16 5 14 6 9 7 10 8 11 9 13 10 12 11 8 12
REMARK SMILES IDX 7 13 6 14 3 15 4 16 93 17 5 18 92 19 2 20 1 21 20 22 21 23
REMARK SMILES IDX 22 24 23 25 24 26 25 27 26 28 27 29 91 30 28 31 90 32 29 33
REMARK SMILES IDX 30 34 31 35 84 36 32 37 89 38 83 39 85 40 33 41 88 42 82 43
REMARK SMILES IDX 81 44 34 46 68 47 47 48 67 49 48 50 51 51 66 52 86 53 49 54
REMARK SMILES IDX 50 55 65 57 87 58 52 59 35 60 36 61 45 62 37 63 38 64 44 65
REMARK SMILES IDX 46 66 39 67 40 68 41 69 42 70 43 71 69 72 70 73 79 74 71 75
REMARK SMILES IDX 72 76 78 77 80 78 73 79 74 80 75 81 76 82 77 83 53 84 54 85
REMARK SMILES IDX 63 86 55 87 56 88 62 89 64 90 57 91 58 92 59 93 60 94 61 95
REMARK H PARENT 85 45 51 56
REMARK Flexibility Score: inf
ROOT
ATOM      1  C   UNL A   1      38.767  21.508  25.650  1.00  0.00     0.202 C 
ENDROOT
BRANCH   1   2
ATOM      2  C   UNL A   1      37.771  20.485  25.091  1.00  0.00     0.261 C 
BRANCH   2   3
ATOM      3  O   UNL A   1      36.580  21.132  24.612  1.00  0.00    -0.460 OA
BRANCH   3   4
ATOM      4  C   UNL A   1      35.494  21.023  25.411  1.00  0.00     0.340 C 
ATOM      5  O   UNL A   1      35.319  21.538  26.507  1.00  0.00    -0.246 OA
BRANCH   4   6
ATOM      6  C   UNL A   1      34.469  20.229  24.721  1.00  0.00     0.092 A 
ATOM      7  C   UNL A   1      33.349  20.840  24.153  1.00  0.00     0.111 A 
ATOM      8  N   UNL A   1      32.361  20.115  23.570  1.00  0.00    -0.249 NA
ATOM      9  C   UNL A   1      32.492  18.771  23.535  1.00  0.00     0.112 A 
ATOM     10  C   UNL A   1      34.604  18.838  24.630  1.00  0.00     0.020 A 
ATOM     11  C   UNL A   1      33.597  18.096  24.023  1.00  0.00     0.021 A 
BRANCH   7  12
ATOM     12  S   UNL A   1      33.244  22.602  23.864  1.00  0.00    -0.101 SA
BRANCH  12  13
ATOM     13  C   UNL A   1      32.393  23.149  25.366  1.00  0.00     0.112 C 
BRANCH  13  14
ATOM     14  C   UNL A   1      32.405  24.642  25.577  1.00  0.00    -0.037 A 
ATOM     15  C   UNL A   1      32.382  27.429  25.949  1.00  0.00     0.118 A 
ATOM     16  C   UNL A   1      33.570  26.774  25.631  1.00  0.00     0.047 A 
ATOM     17  C   UNL A   1      31.202  26.698  26.070  1.00  0.00     0.047 A 
ATOM     18  C   UNL A   1      33.589  25.388  25.466  1.00  0.00     0.008 A 
ATOM     19  C   UNL A   1      31.215  25.311  25.890  1.00  0.00     0.008 A 
BRANCH  15  20
ATOM     20  O   UNL A   1      32.470  28.790  26.066  1.00  0.00    -0.497 OA
ATOM     21  C   UNL A   1      31.942  29.318  27.278  1.00  0.00     0.278 C 
ENDBRANCH  15  20
ENDBRANCH  13  14
ENDBRANCH  12  13
ENDBRANCH   7  12
ENDBRANCH   4   6
ENDBRANCH   3   4
ENDBRANCH   2   3
ENDBRANCH   1   2
BRANCH   1  22
ATOM     22  O   UNL A   1      39.667  21.052  26.662  1.00  0.00    -0.374 OA
BRANCH  22  23
ATOM     23  C   UNL A   1      40.463  22.033  27.324  1.00  0.00     0.202 C 
BRANCH  23  24
ATOM     24  C   UNL A   1      41.096  23.142  26.477  1.00  0.00     0.261 C 
BRANCH  24  25
ATOM     25  O   UNL A   1      40.286  24.323  26.404  1.00  0.00    -0.460 OA
BRANCH  25  26
ATOM     26  C   UNL A   1      40.996  25.464  26.237  1.00  0.00     0.338 C 
ATOM     27  O   UNL A   1      41.431  25.917  25.189  1.00  0.00    -0.246 OA
BRANCH  26  28
ATOM     28  C   UNL A   1      41.039  26.218  27.501  1.00  0.00     0.060 A 
ATOM     29  C   UNL A   1      39.985  26.013  28.398  1.00  0.00     0.016 A 
ATOM     30  C   UNL A   1      42.040  27.152  27.775  1.00  0.00     0.016 A 
ATOM     31  C   UNL A   1      39.897  26.784  29.551  1.00  0.00     0.010 A 
ATOM     32  C   UNL A   1      41.947  27.929  28.936  1.00  0.00     0.010 A 
ATOM     33  C   UNL A   1      40.855  27.775  29.808  1.00  0.00    -0.014 A 
BRANCH  33  34
ATOM     34  C   UNL A   1      40.626  28.712  30.934  1.00  0.00     0.031 A 
ATOM     35  C   UNL A   1      41.484  28.611  32.165  1.00  0.00     0.074 A 
ATOM     36  C   UNL A   1      39.708  29.689  30.821  1.00  0.00     0.049 A 
ATOM     37  N   UNL A   1      41.495  29.370  33.230  1.00  0.00    -0.248 NA
ATOM     38  C   UNL A   1      42.459  27.510  32.202  1.00  0.00     0.031 C 
ATOM     39  C   UNL A   1      38.833  29.894  29.667  1.00  0.00     0.029 A 
ATOM     40  N   UNL A   1      39.365  30.696  31.687  1.00  0.00    -0.354 N 
ATOM     41  C   UNL A   1      42.474  28.842  34.063  1.00  0.00     0.074 A 
ATOM     42  C   UNL A   1      43.008  27.673  33.397  1.00  0.00     0.031 C 
ATOM     43  C   UNL A   1      38.057  30.967  29.894  1.00  0.00     0.029 A 
ATOM     44  C   UNL A   1      38.362  31.508  31.216  1.00  0.00     0.049 A 
ATOM     45  H   UNL A   1      39.797  30.825  32.562  1.00  0.00     0.167 HD
ATOM     46  C   UNL A   1      42.898  29.297  35.267  1.00  0.00     0.037 A 
ATOM     47  C   UNL A   1      37.754  32.565  31.791  1.00  0.00     0.037 A 
ATOM     48  C   UNL A   1      42.360  30.463  35.922  1.00  0.00     0.049 A 
ATOM     49  C   UNL A   1      38.214  33.027  33.148  1.00  0.00     0.074 A 
ATOM     50  C   UNL A   1      42.740  31.024  37.129  1.00  0.00     0.029 A 
ATOM     51  N   UNL A   1      41.319  31.240  35.433  1.00  0.00    -0.354 N 
ATOM     52  N   UNL A   1      39.169  32.542  33.906  1.00  0.00    -0.248 NA
ATOM     53  C   UNL A   1      37.523  34.189  33.721  1.00  0.00     0.031 C 
ATOM     54  C   UNL A   1      41.893  32.105  37.395  1.00  0.00     0.029 A 
ATOM     55  C   UNL A   1      41.023  32.256  36.326  1.00  0.00     0.049 A 
ATOM     56  H   UNL A   1      40.860  31.090  34.575  1.00  0.00     0.167 HD
ATOM     57  C   UNL A   1      39.205  33.349  35.039  1.00  0.00     0.074 A 
ATOM     58  C   UNL A   1      38.192  34.369  34.852  1.00  0.00     0.031 C 
ATOM     59  C   UNL A   1      40.000  33.255  36.135  1.00  0.00     0.037 A 
BRANCH  46  60
ATOM     60  C   UNL A   1      43.980  28.516  35.966  1.00  0.00     0.058 A 
ATOM     61  C   UNL A   1      45.320  28.935  35.959  1.00  0.00     0.135 A 
ATOM     62  C   UNL A   1      43.665  27.347  36.678  1.00  0.00     0.135 A 
ATOM     63  F   UNL A   1      45.682  30.036  35.282  1.00  0.00    -0.206 F 
ATOM     64  C   UNL A   1      46.313  28.207  36.609  1.00  0.00     0.059 A 
ATOM     65  C   UNL A   1      44.637  26.620  37.359  1.00  0.00     0.059 A 
ATOM     66  F   UNL A   1      42.400  26.899  36.715  1.00  0.00    -0.206 F 
ATOM     67  C   UNL A   1      45.962  27.050  37.306  1.00  0.00     0.060 A 
BRANCH  67  68
ATOM     68  S   UNL A   1      47.260  26.119  38.145  1.00  0.00     0.124 S 
ATOM     69  O   UNL A   1      48.377  27.058  38.087  1.00  0.00    -0.237 OA
ATOM     70  O   UNL A   1      46.684  25.902  39.468  1.00  0.00    -0.237 OA
ATOM     71  O   UNL A   1      47.407  24.921  37.323  1.00  0.00    -0.744 OA
ENDBRANCH  67  68
ENDBRANCH  46  60
BRANCH  47  72
ATOM     72  C   UNL A   1      36.644  33.254  31.082  1.00  0.00     0.058 A 
ATOM     73  C   UNL A   1      36.890  34.105  29.994  1.00  0.00     0.135 A 
ATOM     74  C   UNL A   1      35.309  33.062  31.471  1.00  0.00     0.135 A 
ATOM     75  F   UNL A   1      38.150  34.330  29.590  1.00  0.00    -0.206 F 
ATOM     76  C   UNL A   1      35.854  34.751  29.325  1.00  0.00     0.059 A 
ATOM     77  C   UNL A   1      34.255  33.672  30.801  1.00  0.00     0.059 A 
ATOM     78  F   UNL A   1      35.018  32.246  32.498  1.00  0.00    -0.206 F 
ATOM     79  C   UNL A   1      34.539  34.522  29.733  1.00  0.00     0.060 A 
BRANCH  79  80
ATOM     80  S   UNL A   1      33.197  35.313  28.818  1.00  0.00     0.124 S 
ATOM     81  O   UNL A   1      33.925  36.283  28.009  1.00  0.00    -0.237 OA
ATOM     82  O   UNL A   1      32.615  34.185  28.096  1.00  0.00    -0.237 OA
ATOM     83  O   UNL A   1      32.357  35.872  29.873  1.00  0.00    -0.744 OA
ENDBRANCH  79  80
ENDBRANCH  47  72
BRANCH  59  84
ATOM     84  C   UNL A   1      39.814  34.296  37.208  1.00  0.00     0.058 A 
ATOM     85  C   UNL A   1      40.425  35.558  37.127  1.00  0.00     0.135 A 
ATOM     86  C   UNL A   1      39.007  34.031  38.326  1.00  0.00     0.135 A 
ATOM     87  F   UNL A   1      41.209  35.864  36.081  1.00  0.00    -0.206 F 
ATOM     88  C   UNL A   1      40.282  36.502  38.139  1.00  0.00     0.059 A 
ATOM     89  C   UNL A   1      38.823  34.973  39.335  1.00  0.00     0.059 A 
ATOM     90  F   UNL A   1      38.385  32.847  38.449  1.00  0.00    -0.206 F 
ATOM     91  C   UNL A   1      39.484  36.197  39.242  1.00  0.00     0.060 A 
BRANCH  91  92
ATOM     92  S   UNL A   1      39.316  37.425  40.555  1.00  0.00     0.124 S 
ATOM     93  O   UNL A   1      38.328  38.333  39.982  1.00  0.00    -0.237 OA
ATOM     94  O   UNL A   1      38.856  36.619  41.682  1.00  0.00    -0.237 OA
ATOM     95  O   UNL A   1      40.665  37.967  40.688  1.00  0.00    -0.744 OA
ENDBRANCH  91  92
ENDBRANCH  59  84
ENDBRANCH  33  34
ENDBRANCH  26  28
ENDBRANCH  25  26
ENDBRANCH  24  25
ENDBRANCH  23  24
ENDBRANCH  22  23
ENDBRANCH   1  22
TORSDOF 21
ENDMDL
MODEL 2
REMARK VINA RESULT:     -10.5      6.668     12.163
REMARK SMILES COc1ccc(CSc2ncccc2C(=O)OCCOCCOC(=O)c2ccc(-c3c4nc(c(-c5c(F)cc(S(=O)(=O)[O-])cc5F)c5ccc([nH]5)c(-c5c(F)cc(S(=O)(=O)[O-])cc5F)c5nc(c(-c6c(F)cc(S(=O)(=O)[O-])cc6F)c6ccc3[nH]6)C=C5)C=C4)cc2)cc1
REMARK SMILES IDX 19 1 18 2 17 3 15 4 16 5 14 6 9 7 10 8 11 9 13 10 12 11 8 12
REMARK SMILES IDX 7 13 6 14 3 15 4 16 93 17 5 18 92 19 2 20 1 21 20 22 21 23
REMARK SMILES IDX 22 24 23 25 24 26 25 27 26 28 27 29 91 30 28 31 90 32 29 33
REMARK SMILES IDX 30 34 31 35 84 36 32 37 89 38 83 39 85 40 33 41 88 42 82 43
REMARK SMILES IDX 81 44 34 46 68 47 47 48 67 49 48 50 51 51 66 52 86 53 49 54
REMARK SMILES IDX 50 55 65 57 87 58 52 59 35 60 36 61 45 62 37 63 38 64 44 65
REMARK SMILES IDX 46 66 39 67 40 68 41 69 42 70 43 71 69 72 70 73 79 74 71 75
REMARK SMILES IDX 72 76 78 77 80 78 73 79 74 80 75 81 76 82 77 83 53 84 54 85
REMARK SMILES IDX 63 86 55 87 56 88 62 89 64 90 57 91 58 92 59 93 60 94 61 95
REMARK H PARENT 85 45 51 56
REMARK Flexibility Score: inf
ROOT
ATOM      1  C   UNL A   1      34.062  29.837  26.906  1.00  0.00     0.202 C 
ENDROOT
BRANCH   1   2
ATOM      2  C   UNL A   1      32.977  28.757  26.834  1.00  0.00     0.261 C 
BRANCH   2   3
ATOM      3  O   UNL A   1      32.525  28.570  25.482  1.00  0.00    -0.460 OA
BRANCH   3   4
ATOM      4  C   UNL A   1      33.394  27.940  24.658  1.00  0.00     0.340 C 
ATOM      5  O   UNL A   1      34.267  28.447  23.967  1.00  0.00    -0.246 OA
BRANCH   4   6
ATOM      6  C   UNL A   1      33.194  26.489  24.768  1.00  0.00     0.092 A 
ATOM      7  C   UNL A   1      32.200  25.842  24.030  1.00  0.00     0.111 A 
ATOM      8  N   UNL A   1      31.960  24.514  24.170  1.00  0.00    -0.249 NA
ATOM      9  C   UNL A   1      32.723  23.817  25.039  1.00  0.00     0.112 A 
ATOM     10  C   UNL A   1      34.003  25.735  25.627  1.00  0.00     0.020 A 
ATOM     11  C   UNL A   1      33.765  24.372  25.762  1.00  0.00     0.021 A 
BRANCH   7  12
ATOM     12  S   UNL A   1      31.371  26.604  22.640  1.00  0.00    -0.101 SA
BRANCH  12  13
ATOM     13  C   UNL A   1      29.754  26.979  23.365  1.00  0.00     0.112 C 
BRANCH  13  14
ATOM     14  C   UNL A   1      29.203  28.331  22.987  1.00  0.00    -0.037 A 
ATOM     15  C   UNL A   1      28.222  30.871  22.287  1.00  0.00     0.118 A 
ATOM     16  C   UNL A   1      27.436  29.997  23.036  1.00  0.00     0.047 A 
ATOM     17  C   UNL A   1      29.503  30.484  21.897  1.00  0.00     0.047 A 
ATOM     18  C   UNL A   1      27.912  28.727  23.367  1.00  0.00     0.008 A 
ATOM     19  C   UNL A   1      29.988  29.219  22.241  1.00  0.00     0.008 A 
BRANCH  15  20
ATOM     20  O   UNL A   1      27.669  32.098  22.038  1.00  0.00    -0.497 OA
ATOM     21  C   UNL A   1      27.894  32.594  20.723  1.00  0.00     0.278 C 
ENDBRANCH  15  20
ENDBRANCH  13  14
ENDBRANCH  12  13
ENDBRANCH   7  12
ENDBRANCH   4   6
ENDBRANCH   3   4
ENDBRANCH   2   3
ENDBRANCH   1   2
BRANCH   1  22
ATOM     22  O   UNL A   1      33.797  30.971  27.735  1.00  0.00    -0.374 OA
BRANCH  22  23
ATOM     23  C   UNL A   1      34.918  31.654  28.294  1.00  0.00     0.202 C 
BRANCH  23  24
ATOM     24  C   UNL A   1      34.910  31.945  29.798  1.00  0.00     0.261 C 
BRANCH  24  25
ATOM     25  O   UNL A   1      36.218  31.899  30.384  1.00  0.00    -0.460 OA
BRANCH  25  26
ATOM     26  C   UNL A   1      36.651  30.645  30.659  1.00  0.00     0.338 C 
ATOM     27  O   UNL A   1      35.982  29.704  31.059  1.00  0.00    -0.246 OA
BRANCH  26  28
ATOM     28  C   UNL A   1      38.053  30.494  30.239  1.00  0.00     0.060 A 
ATOM     29  C   UNL A   1      38.295  30.373  28.866  1.00  0.00     0.016 A 
ATOM     30  C   UNL A   1      39.099  30.403  31.160  1.00  0.00     0.016 A 
ATOM     31  C   UNL A   1      39.581  30.102  28.410  1.00  0.00     0.010 A 
ATOM     32  C   UNL A   1      40.392  30.127  30.698  1.00  0.00     0.010 A 
ATOM     33  C   UNL A   1      40.630  29.938  29.325  1.00  0.00    -0.014 A 
BRANCH  33  34
ATOM     34  C   UNL A   1      41.939  29.453  28.827  1.00  0.00     0.031 A 
ATOM     35  C   UNL A   1      43.105  30.401  28.772  1.00  0.00     0.074 A 
ATOM     36  C   UNL A   1      42.098  28.158  28.498  1.00  0.00     0.049 A 
ATOM     37  N   UNL A   1      44.347  30.167  28.435  1.00  0.00    -0.248 NA
ATOM     38  C   UNL A   1      42.838  31.799  29.146  1.00  0.00     0.031 C 
ATOM     39  C   UNL A   1      41.043  27.145  28.531  1.00  0.00     0.029 A 
ATOM     40  N   UNL A   1      43.210  27.473  28.079  1.00  0.00    -0.354 N 
ATOM     41  C   UNL A   1      45.010  31.382  28.556  1.00  0.00     0.074 A 
ATOM     42  C   UNL A   1      44.023  32.362  28.959  1.00  0.00     0.031 C 
ATOM     43  C   UNL A   1      41.562  25.965  28.155  1.00  0.00     0.029 A 
ATOM     44  C   UNL A   1      42.975  26.143  27.831  1.00  0.00     0.049 A 
ATOM     45  H   UNL A   1      44.093  27.895  27.968  1.00  0.00     0.167 HD
ATOM     46  C   UNL A   1      46.323  31.655  28.362  1.00  0.00     0.037 A 
ATOM     47  C   UNL A   1      43.805  25.179  27.385  1.00  0.00     0.037 A 
ATOM     48  C   UNL A   1      47.298  30.672  27.960  1.00  0.00     0.049 A 
ATOM     49  C   UNL A   1      45.252  25.515  27.136  1.00  0.00     0.074 A 
ATOM     50  C   UNL A   1      48.658  30.839  27.764  1.00  0.00     0.029 A 
ATOM     51  N   UNL A   1      47.017  29.342  27.681  1.00  0.00    -0.354 N 
ATOM     52  N   UNL A   1      45.873  26.661  27.293  1.00  0.00    -0.248 NA
ATOM     53  C   UNL A   1      46.112  24.424  26.661  1.00  0.00     0.031 C 
ATOM     54  C   UNL A   1      49.188  29.625  27.313  1.00  0.00     0.029 A 
ATOM     55  C   UNL A   1      48.171  28.684  27.286  1.00  0.00     0.049 A 
ATOM     56  H   UNL A   1      46.128  28.926  27.755  1.00  0.00     0.167 HD
ATOM     57  C   UNL A   1      47.201  26.425  26.953  1.00  0.00     0.074 A 
ATOM     58  C   UNL A   1      47.295  25.020  26.607  1.00  0.00     0.031 C 
ATOM     59  C   UNL A   1      48.247  27.289  26.927  1.00  0.00     0.037 A 
BRANCH  46  60
ATOM     60  C   UNL A   1      46.776  33.078  28.554  1.00  0.00     0.058 A 
ATOM     61  C   UNL A   1      46.774  34.007  27.501  1.00  0.00     0.135 A 
ATOM     62  C   UNL A   1      47.192  33.526  29.819  1.00  0.00     0.135 A 
ATOM     63  F   UNL A   1      46.402  33.630  26.268  1.00  0.00    -0.206 F 
ATOM     64  C   UNL A   1      47.194  35.321  27.689  1.00  0.00     0.059 A 
ATOM     65  C   UNL A   1      47.588  34.843  30.035  1.00  0.00     0.059 A 
ATOM     66  F   UNL A   1      47.217  32.680  30.861  1.00  0.00    -0.206 F 
ATOM     67  C   UNL A   1      47.600  35.729  28.959  1.00  0.00     0.060 A 
BRANCH  67  68
ATOM     68  S   UNL A   1      48.140  37.437  29.187  1.00  0.00     0.124 S 
ATOM     69  O   UNL A   1      47.857  37.645  30.604  1.00  0.00    -0.237 OA
ATOM     70  O   UNL A   1      49.552  37.368  28.827  1.00  0.00    -0.237 OA
ATOM     71  O   UNL A   1      47.295  38.188  28.263  1.00  0.00    -0.744 OA
ENDBRANCH  67  68
ENDBRANCH  46  60
BRANCH  47  72
ATOM     72  C   UNL A   1      43.284  23.807  27.147  1.00  0.00     0.058 A 
ATOM     73  C   UNL A   1      42.923  23.377  25.861  1.00  0.00     0.135 A 
ATOM     74  C   UNL A   1      43.152  22.891  28.203  1.00  0.00     0.135 A 
ATOM     75  F   UNL A   1      43.021  24.218  24.821  1.00  0.00    -0.206 F 
ATOM     76  C   UNL A   1      42.438  22.093  25.633  1.00  0.00     0.059 A 
ATOM     77  C   UNL A   1      42.698  21.594  27.995  1.00  0.00     0.059 A 
ATOM     78  F   UNL A   1      43.497  23.250  29.450  1.00  0.00    -0.206 F 
ATOM     79  C   UNL A   1      42.335  21.207  26.706  1.00  0.00     0.060 A 
BRANCH  79  80
ATOM     80  S   UNL A   1      41.765  19.522  26.389  1.00  0.00     0.124 S 
ATOM     81  O   UNL A   1      40.329  19.720  26.243  1.00  0.00    -0.237 OA
ATOM     82  O   UNL A   1      42.492  19.179  25.170  1.00  0.00    -0.237 OA
ATOM     83  O   UNL A   1      42.186  18.796  27.584  1.00  0.00    -0.744 OA
ENDBRANCH  79  80
ENDBRANCH  47  72
BRANCH  59  84
ATOM     84  C   UNL A   1      49.587  26.731  26.524  1.00  0.00     0.058 A 
ATOM     85  C   UNL A   1      50.446  26.126  27.457  1.00  0.00     0.135 A 
ATOM     86  C   UNL A   1      50.014  26.795  25.188  1.00  0.00     0.135 A 
ATOM     87  F   UNL A   1      50.090  26.041  28.748  1.00  0.00    -0.206 F 
ATOM     88  C   UNL A   1      51.699  25.648  27.088  1.00  0.00     0.059 A 
ATOM     89  C   UNL A   1      51.250  26.292  24.791  1.00  0.00     0.059 A 
ATOM     90  F   UNL A   1      49.228  27.348  24.250  1.00  0.00    -0.206 F 
ATOM     91  C   UNL A   1      52.095  25.741  25.753  1.00  0.00     0.060 A 
BRANCH  91  92
ATOM     92  S   UNL A   1      53.728  25.128  25.289  1.00  0.00     0.124 S 
ATOM     93  O   UNL A   1      53.535  23.685  25.376  1.00  0.00    -0.237 OA
ATOM     94  O   UNL A   1      53.893  25.666  23.941  1.00  0.00    -0.237 OA
ATOM     95  O   UNL A   1      54.608  25.707  26.300  1.00  0.00    -0.744 OA
ENDBRANCH  91  92
ENDBRANCH  59  84
ENDBRANCH  33  34
ENDBRANCH  26  28
ENDBRANCH  25  26
ENDBRANCH  24  25
ENDBRANCH  23  24
ENDBRANCH  22  23
ENDBRANCH   1  22
TORSDOF 21
ENDMDL
MODEL 3
REMARK VINA RESULT:     -10.3      6.352     12.200
REMARK SMILES COc1ccc(CSc2ncccc2C(=O)OCCOCCOC(=O)c2ccc(-c3c4nc(c(-c5c(F)cc(S(=O)(=O)[O-])cc5F)c5ccc([nH]5)c(-c5c(F)cc(S(=O)(=O)[O-])cc5F)c5nc(c(-c6c(F)cc(S(=O)(=O)[O-])cc6F)c6ccc3[nH]6)C=C5)C=C4)cc2)cc1
REMARK SMILES IDX 19 1 18 2 17 3 15 4 16 5 14 6 9 7 10 8 11 9 13 10 12 11 8 12
REMARK SMILES IDX 7 13 6 14 3 15 4 16 93 17 5 18 92 19 2 20 1 21 20 22 21 23
REMARK SMILES IDX 22 24 23 25 24 26 25 27 26 28 27 29 91 30 28 31 90 32 29 33
REMARK SMILES IDX 30 34 31 35 84 36 32 37 89 38 83 39 85 40 33 41 88 42 82 43
REMARK SMILES IDX 81 44 34 46 68 47 47 48 67 49 48 50 51 51 66 52 86 53 49 54
REMARK SMILES IDX 50 55 65 57 87 58 52 59 35 60 36 61 45 62 37 63 38 64 44 65
REMARK SMILES IDX 46 66 39 67 40 68 41 69 42 70 43 71 69 72 70 73 79 74 71 75
REMARK SMILES IDX 72 76 78 77 80 78 73 79 74 80 75 81 76 82 77 83 53 84 54 85
REMARK SMILES IDX 63 86 55 87 56 88 62 89 64 90 57 91 58 92 59 93 60 94 61 95
REMARK H PARENT 85 45 51 56
REMARK Flexibility Score: inf
ROOT
ATOM      1  C   UNL A   1      33.760  30.213  27.438  1.00  0.00     0.202 C 
ENDROOT
BRANCH   1   2
ATOM      2  C   UNL A   1      33.934  28.930  26.616  1.00  0.00     0.261 C 
BRANCH   2   3
ATOM      3  O   UNL A   1      32.660  28.351  26.289  1.00  0.00    -0.460 OA
BRANCH   3   4
ATOM      4  C   UNL A   1      32.039  28.878  25.209  1.00  0.00     0.340 C 
ATOM      5  O   UNL A   1      31.359  29.894  25.161  1.00  0.00    -0.246 OA
BRANCH   4   6
ATOM      6  C   UNL A   1      32.371  28.074  24.025  1.00  0.00     0.092 A 
ATOM      7  C   UNL A   1      31.576  26.989  23.647  1.00  0.00     0.111 A 
ATOM      8  N   UNL A   1      31.905  26.198  22.595  1.00  0.00    -0.249 NA
ATOM      9  C   UNL A   1      33.026  26.494  21.901  1.00  0.00     0.112 A 
ATOM     10  C   UNL A   1      33.501  28.388  23.260  1.00  0.00     0.020 A 
ATOM     11  C   UNL A   1      33.833  27.584  22.176  1.00  0.00     0.021 A 
BRANCH   7  12
ATOM     12  S   UNL A   1      29.929  26.719  24.291  1.00  0.00    -0.101 SA
BRANCH  12  13
ATOM     13  C   UNL A   1      30.298  25.810  25.813  1.00  0.00     0.112 C 
BRANCH  13  14
ATOM     14  C   UNL A   1      31.302  24.698  25.644  1.00  0.00    -0.037 A 
ATOM     15  C   UNL A   1      33.210  22.657  25.324  1.00  0.00     0.118 A 
ATOM     16  C   UNL A   1      31.948  22.534  24.746  1.00  0.00     0.047 A 
ATOM     17  C   UNL A   1      33.526  23.803  26.053  1.00  0.00     0.047 A 
ATOM     18  C   UNL A   1      30.992  23.536  24.920  1.00  0.00     0.008 A 
ATOM     19  C   UNL A   1      32.575  24.815  26.215  1.00  0.00     0.008 A 
BRANCH  15  20
ATOM     20  O   UNL A   1      34.079  21.630  25.073  1.00  0.00    -0.497 OA
ATOM     21  C   UNL A   1      35.386  21.814  25.604  1.00  0.00     0.278 C 
ENDBRANCH  15  20
ENDBRANCH  13  14
ENDBRANCH  12  13
ENDBRANCH   7  12
ENDBRANCH   4   6
ENDBRANCH   3   4
ENDBRANCH   2   3
ENDBRANCH   1   2
BRANCH   1  22
ATOM     22  O   UNL A   1      34.791  31.197  27.331  1.00  0.00    -0.374 OA
BRANCH  22  23
ATOM     23  C   UNL A   1      34.686  32.351  28.163  1.00  0.00     0.202 C 
BRANCH  23  24
ATOM     24  C   UNL A   1      34.930  32.183  29.666  1.00  0.00     0.261 C 
BRANCH  24  25
ATOM     25  O   UNL A   1      36.319  32.247  30.018  1.00  0.00    -0.460 OA
BRANCH  25  26
ATOM     26  C   UNL A   1      36.721  31.249  30.843  1.00  0.00     0.338 C 
ATOM     27  O   UNL A   1      36.158  30.854  31.853  1.00  0.00    -0.246 OA
BRANCH  26  28
ATOM     28  C   UNL A   1      37.879  30.552  30.260  1.00  0.00     0.060 A 
ATOM     29  C   UNL A   1      38.872  30.119  31.146  1.00  0.00     0.016 A 
ATOM     30  C   UNL A   1      38.029  30.386  28.882  1.00  0.00     0.016 A 
ATOM     31  C   UNL A   1      40.048  29.567  30.652  1.00  0.00     0.010 A 
ATOM     32  C   UNL A   1      39.216  29.832  28.387  1.00  0.00     0.010 A 
ATOM     33  C   UNL A   1      40.245  29.456  29.269  1.00  0.00    -0.014 A 
BRANCH  33  34
ATOM     34  C   UNL A   1      41.582  29.054  28.769  1.00  0.00     0.031 A 
ATOM     35  C   UNL A   1      42.694  30.067  28.740  1.00  0.00     0.074 A 
ATOM     36  C   UNL A   1      41.814  27.778  28.415  1.00  0.00     0.049 A 
ATOM     37  N   UNL A   1      43.949  29.909  28.405  1.00  0.00    -0.248 NA
ATOM     38  C   UNL A   1      42.347  31.440  29.140  1.00  0.00     0.031 C 
ATOM     39  C   UNL A   1      40.816  26.707  28.422  1.00  0.00     0.029 A 
ATOM     40  N   UNL A   1      42.964  27.163  27.990  1.00  0.00    -0.354 N 
ATOM     41  C   UNL A   1      44.542  31.156  28.554  1.00  0.00     0.074 A 
ATOM     42  C   UNL A   1      43.500  32.071  28.971  1.00  0.00     0.031 C 
ATOM     43  C   UNL A   1      41.402  25.565  28.026  1.00  0.00     0.029 A 
ATOM     44  C   UNL A   1      42.804  25.828  27.713  1.00  0.00     0.049 A 
ATOM     45  H   UNL A   1      43.822  27.636  27.892  1.00  0.00     0.167 HD
ATOM     46  C   UNL A   1      45.838  31.505  28.373  1.00  0.00     0.037 A 
ATOM     47  C   UNL A   1      43.689  24.921  27.254  1.00  0.00     0.037 A 
ATOM     48  C   UNL A   1      46.869  30.586  27.958  1.00  0.00     0.049 A 
ATOM     49  C   UNL A   1      45.116  25.341  27.020  1.00  0.00     0.074 A 
ATOM     50  C   UNL A   1      48.218  30.832  27.773  1.00  0.00     0.029 A 
ATOM     51  N   UNL A   1      46.664  29.248  27.651  1.00  0.00    -0.354 N 
ATOM     52  N   UNL A   1      45.672  26.516  27.204  1.00  0.00    -0.248 NA
ATOM     53  C   UNL A   1      46.038  24.309  26.529  1.00  0.00     0.031 C 
ATOM     54  C   UNL A   1      48.817  29.659  27.301  1.00  0.00     0.029 A 
ATOM     55  C   UNL A   1      47.854  28.664  27.249  1.00  0.00     0.049 A 
ATOM     56  H   UNL A   1      45.798  28.782  27.711  1.00  0.00     0.167 HD
ATOM     57  C   UNL A   1      47.012  26.361  26.867  1.00  0.00     0.074 A 
ATOM     58  C   UNL A   1      47.186  24.971  26.493  1.00  0.00     0.031 C 
ATOM     59  C   UNL A   1      48.009  27.282  26.864  1.00  0.00     0.037 A 
BRANCH  46  60
ATOM     60  C   UNL A   1      46.211  32.947  28.596  1.00  0.00     0.058 A 
ATOM     61  C   UNL A   1      46.635  33.419  29.849  1.00  0.00     0.135 A 
ATOM     62  C   UNL A   1      46.171  33.863  27.533  1.00  0.00     0.135 A 
ATOM     63  F   UNL A   1      46.677  32.591  30.905  1.00  0.00    -0.206 F 
ATOM     64  C   UNL A   1      46.978  34.753  30.046  1.00  0.00     0.059 A 
ATOM     65  C   UNL A   1      46.538  35.196  27.701  1.00  0.00     0.059 A 
ATOM     66  F   UNL A   1      45.771  33.468  26.314  1.00  0.00    -0.206 F 
ATOM     67  C   UNL A   1      46.926  35.635  28.966  1.00  0.00     0.060 A 
BRANCH  67  68
ATOM     68  S   UNL A   1      47.376  37.362  29.237  1.00  0.00     0.124 S 
ATOM     69  O   UNL A   1      46.204  37.860  29.952  1.00  0.00    -0.237 OA
ATOM     70  O   UNL A   1      48.597  37.246  30.026  1.00  0.00    -0.237 OA
ATOM     71  O   UNL A   1      47.553  37.885  27.885  1.00  0.00    -0.744 OA
ENDBRANCH  67  68
ENDBRANCH  46  60
BRANCH  47  72
ATOM     72  C   UNL A   1      43.246  23.527  26.985  1.00  0.00     0.058 A 
ATOM     73  C   UNL A   1      43.005  23.077  25.679  1.00  0.00     0.135 A 
ATOM     74  C   UNL A   1      43.071  22.610  28.034  1.00  0.00     0.135 A 
ATOM     75  F   UNL A   1      43.149  23.917  24.643  1.00  0.00    -0.206 F 
ATOM     76  C   UNL A   1      42.593  21.773  25.422  1.00  0.00     0.059 A 
ATOM     77  C   UNL A   1      42.689  21.294  27.801  1.00  0.00     0.059 A 
ATOM     78  F   UNL A   1      43.301  22.987  29.303  1.00  0.00    -0.206 F 
ATOM     79  C   UNL A   1      42.444  20.887  26.491  1.00  0.00     0.060 A 
BRANCH  79  80
ATOM     80  S   UNL A   1      41.972  19.179  26.142  1.00  0.00     0.124 S 
ATOM     81  O   UNL A   1      40.535  19.306  25.937  1.00  0.00    -0.237 OA
ATOM     82  O   UNL A   1      42.765  18.880  24.953  1.00  0.00    -0.237 OA
ATOM     83  O   UNL A   1      42.378  18.466  27.350  1.00  0.00    -0.744 OA
ENDBRANCH  79  80
ENDBRANCH  47  72
BRANCH  59  84
ATOM     84  C   UNL A   1      49.380  26.808  26.458  1.00  0.00     0.058 A 
ATOM     85  C   UNL A   1      49.852  26.952  25.143  1.00  0.00     0.135 A 
ATOM     86  C   UNL A   1      50.235  26.209  27.397  1.00  0.00     0.135 A 
ATOM     87  F   UNL A   1      49.076  27.515  24.204  1.00  0.00    -0.206 F 
ATOM     88  C   UNL A   1      51.103  26.477  24.763  1.00  0.00     0.059 A 
ATOM     89  C   UNL A   1      51.504  25.756  27.047  1.00  0.00     0.059 A 
ATOM     90  F   UNL A   1      49.842  26.059  28.673  1.00  0.00    -0.206 F 
ATOM     91  C   UNL A   1      51.920  25.874  25.721  1.00  0.00     0.060 A 
BRANCH  91  92
ATOM     92  S   UNL A   1      53.536  25.250  25.214  1.00  0.00     0.124 S 
ATOM     93  O   UNL A   1      54.416  25.891  26.185  1.00  0.00    -0.237 OA
ATOM     94  O   UNL A   1      53.374  23.806  25.360  1.00  0.00    -0.237 OA
ATOM     95  O   UNL A   1      53.667  25.724  23.839  1.00  0.00    -0.744 OA
ENDBRANCH  91  92
ENDBRANCH  59  84
ENDBRANCH  33  34
ENDBRANCH  26  28
ENDBRANCH  25  26
ENDBRANCH  24  25
ENDBRANCH  23  24
ENDBRANCH  22  23
ENDBRANCH   1  22
TORSDOF 21
ENDMDL
