MODEL 1
REMARK VINA RESULT:     -11.5      0.000      0.000
REMARK SMILES O=C(OCCOCCOC(=O)[C@H]1C[C@](O)(c2ccc(Cl)cc2)[C@@H](c2ccc(Cl)cc2)O1)c1ccc(-c2c3nc(c(-c4c(F)cc(S(=O)(=O)[O-])cc4F)c4ccc([nH]4)c(-c4c(F)cc(S(=O)(=O)[O-])cc4F)c4nc(c(-c5c(F)cc(S(=O)(=O)[O-])cc5F)c5ccc2[nH]5)C=C4)C=C3)cc1
REMARK SMILES IDX 5 1 4 2 3 3 2 4 1 5 32 6 33 7 97 8 34 9 96 10 35 11 36 12
REMARK SMILES IDX 37 13 90 14 38 15 95 16 89 17 91 18 39 19 94 20 88 21 87 22
REMARK SMILES IDX 40 24 74 25 53 26 73 27 54 28 57 29 72 30 92 31 55 32 56 33
REMARK SMILES IDX 71 35 93 36 58 37 41 38 42 39 51 40 43 41 44 42 50 43 52 44
REMARK SMILES IDX 45 45 46 46 47 47 48 48 49 49 75 50 76 51 85 52 77 53 78 54
REMARK SMILES IDX 84 55 86 56 79 57 80 58 81 59 82 60 83 61 59 62 60 63 69 64
REMARK SMILES IDX 61 65 62 66 68 67 70 68 63 69 64 70 65 71 66 72 67 73 6 74
REMARK SMILES IDX 7 75 8 76 9 77 10 78 11 79 12 80 13 81 31 82 14 83 23 84
REMARK SMILES IDX 16 85 17 86 22 87 18 88 21 89 19 90 20 91 15 92 24 94 25 95
REMARK SMILES IDX 30 96 26 97 29 98 27 99 28 100
REMARK H PARENT 91 23 57 34 15 93
REMARK Flexibility Score: inf
ROOT
ATOM      1  C   UNL A   1      40.751  21.076  26.327  1.00  0.00     0.202 C 
ENDROOT
BRANCH   1   2
ATOM      2  C   UNL A   1      41.760  22.218  26.182  1.00  0.00     0.261 C 
BRANCH   2   3
ATOM      3  O   UNL A   1      41.148  23.472  26.517  1.00  0.00    -0.460 OA
BRANCH   3   4
ATOM      4  C   UNL A   1      41.726  24.696  26.432  1.00  0.00     0.338 C 
ATOM      5  O   UNL A   1      42.289  25.007  25.383  1.00  0.00    -0.246 OA
BRANCH   4   6
ATOM      6  C   UNL A   1      41.658  25.714  27.524  1.00  0.00     0.060 A 
ATOM      7  C   UNL A   1      42.528  26.798  27.677  1.00  0.00     0.016 A 
ATOM      8  C   UNL A   1      40.563  25.616  28.397  1.00  0.00     0.016 A 
ATOM      9  C   UNL A   1      42.350  27.737  28.682  1.00  0.00     0.010 A 
ATOM     10  C   UNL A   1      40.354  26.575  29.390  1.00  0.00     0.010 A 
ATOM     11  C   UNL A   1      41.253  27.638  29.530  1.00  0.00    -0.014 A 
BRANCH  11  12
ATOM     12  C   UNL A   1      41.098  28.644  30.590  1.00  0.00     0.031 A 
ATOM     13  C   UNL A   1      42.002  28.566  31.776  1.00  0.00     0.074 A 
ATOM     14  C   UNL A   1      40.198  29.632  30.430  1.00  0.00     0.049 A 
ATOM     15  N   UNL A   1      41.964  29.251  32.884  1.00  0.00    -0.248 NA
ATOM     16  C   UNL A   1      43.102  27.587  31.706  1.00  0.00     0.031 C 
ATOM     17  C   UNL A   1      39.364  29.828  29.240  1.00  0.00     0.029 A 
ATOM     18  N   UNL A   1      39.834  30.656  31.261  1.00  0.00    -0.354 N 
ATOM     19  C   UNL A   1      43.002  28.756  33.661  1.00  0.00     0.074 A 
ATOM     20  C   UNL A   1      43.668  27.728  32.896  1.00  0.00     0.031 C 
ATOM     21  C   UNL A   1      38.579  30.902  29.424  1.00  0.00     0.029 A 
ATOM     22  C   UNL A   1      38.799  31.417  30.769  1.00  0.00     0.049 A 
ATOM     23  H   UNL A   1      40.270  30.830  32.127  1.00  0.00     0.167 HD
ATOM     24  C   UNL A   1      43.341  29.129  34.914  1.00  0.00     0.037 A 
ATOM     25  C   UNL A   1      38.075  32.378  31.373  1.00  0.00     0.037 A 
ATOM     26  C   UNL A   1      42.657  30.175  35.627  1.00  0.00     0.049 A 
ATOM     27  C   UNL A   1      38.425  32.715  32.799  1.00  0.00     0.074 A 
ATOM     28  C   UNL A   1      42.899  30.650  36.901  1.00  0.00     0.029 A 
ATOM     29  N   UNL A   1      41.586  30.899  35.119  1.00  0.00    -0.354 N 
ATOM     30  N   UNL A   1      39.397  32.235  33.544  1.00  0.00    -0.248 NA
ATOM     31  C   UNL A   1      37.575  33.698  33.481  1.00  0.00     0.031 C 
ATOM     32  C   UNL A   1      41.936  31.622  37.185  1.00  0.00     0.029 A 
ATOM     33  C   UNL A   1      41.128  31.791  36.070  1.00  0.00     0.049 A 
ATOM     34  H   UNL A   1      41.210  30.794  34.216  1.00  0.00     0.167 HD
ATOM     35  C   UNL A   1      39.276  32.860  34.778  1.00  0.00     0.074 A 
ATOM     36  C   UNL A   1      38.157  33.774  34.670  1.00  0.00     0.031 C 
ATOM     37  C   UNL A   1      40.010  32.688  35.905  1.00  0.00     0.037 A 
BRANCH  24  38
ATOM     38  C   UNL A   1      44.429  28.365  35.608  1.00  0.00     0.058 A 
ATOM     39  C   UNL A   1      45.773  28.765  35.566  1.00  0.00     0.135 A 
ATOM     40  C   UNL A   1      44.106  27.223  36.360  1.00  0.00     0.135 A 
ATOM     41  F   UNL A   1      46.141  29.827  34.834  1.00  0.00    -0.206 F 
ATOM     42  C   UNL A   1      46.761  28.059  36.248  1.00  0.00     0.059 A 
ATOM     43  C   UNL A   1      45.074  26.515  37.066  1.00  0.00     0.059 A 
ATOM     44  F   UNL A   1      42.839  26.786  36.413  1.00  0.00    -0.206 F 
ATOM     45  C   UNL A   1      46.399  26.939  37.001  1.00  0.00     0.060 A 
BRANCH  45  46
ATOM     46  S   UNL A   1      47.685  26.061  37.915  1.00  0.00     0.124 S 
ATOM     47  O   UNL A   1      47.327  26.371  39.296  1.00  0.00    -0.237 OA
ATOM     48  O   UNL A   1      47.470  24.677  37.501  1.00  0.00    -0.237 OA
ATOM     49  O   UNL A   1      48.921  26.671  37.436  1.00  0.00    -0.744 OA
ENDBRANCH  45  46
ENDBRANCH  24  38
BRANCH  25  50
ATOM     50  C   UNL A   1      36.904  32.997  30.690  1.00  0.00     0.058 A 
ATOM     51  C   UNL A   1      37.051  34.093  29.828  1.00  0.00     0.135 A 
ATOM     52  C   UNL A   1      35.600  32.524  30.917  1.00  0.00     0.135 A 
ATOM     53  F   UNL A   1      38.271  34.593  29.579  1.00  0.00    -0.206 F 
ATOM     54  C   UNL A   1      35.951  34.719  29.244  1.00  0.00     0.059 A 
ATOM     55  C   UNL A   1      34.488  33.110  30.321  1.00  0.00     0.059 A 
ATOM     56  F   UNL A   1      35.394  31.473  31.725  1.00  0.00    -0.206 F 
ATOM     57  C   UNL A   1      34.671  34.223  29.502  1.00  0.00     0.060 A 
BRANCH  57  58
ATOM     58  S   UNL A   1      33.248  35.045  28.756  1.00  0.00     0.124 S 
ATOM     59  O   UNL A   1      33.891  36.104  27.988  1.00  0.00    -0.237 OA
ATOM     60  O   UNL A   1      32.641  33.971  27.978  1.00  0.00    -0.237 OA
ATOM     61  O   UNL A   1      32.470  35.487  29.910  1.00  0.00    -0.744 OA
ENDBRANCH  57  58
ENDBRANCH  25  50
BRANCH  37  62
ATOM     62  C   UNL A   1      39.626  33.511  37.098  1.00  0.00     0.058 A 
ATOM     63  C   UNL A   1      38.733  33.021  38.061  1.00  0.00     0.135 A 
ATOM     64  C   UNL A   1      40.230  34.757  37.325  1.00  0.00     0.135 A 
ATOM     65  F   UNL A   1      38.122  31.839  37.880  1.00  0.00    -0.206 F 
ATOM     66  C   UNL A   1      38.447  33.743  39.212  1.00  0.00     0.059 A 
ATOM     67  C   UNL A   1      39.982  35.482  38.483  1.00  0.00     0.059 A 
ATOM     68  F   UNL A   1      41.100  35.260  36.435  1.00  0.00    -0.206 F 
ATOM     69  C   UNL A   1      39.085  34.967  39.419  1.00  0.00     0.060 A 
BRANCH  69  70
ATOM     70  S   UNL A   1      38.763  35.857  40.955  1.00  0.00     0.124 S 
ATOM     71  O   UNL A   1      38.517  37.209  40.467  1.00  0.00    -0.237 OA
ATOM     72  O   UNL A   1      37.601  35.151  41.485  1.00  0.00    -0.237 OA
ATOM     73  O   UNL A   1      39.997  35.679  41.715  1.00  0.00    -0.744 OA
ENDBRANCH  69  70
ENDBRANCH  37  62
ENDBRANCH  11  12
ENDBRANCH   4   6
ENDBRANCH   3   4
ENDBRANCH   2   3
ENDBRANCH   1   2
BRANCH   1  74
ATOM     74  O   UNL A   1      39.407  21.527  26.504  1.00  0.00    -0.374 OA
BRANCH  74  75
ATOM     75  C   UNL A   1      38.529  21.372  25.384  1.00  0.00     0.202 C 
BRANCH  75  76
ATOM     76  C   UNL A   1      37.220  22.122  25.645  1.00  0.00     0.261 C 
BRANCH  76  77
ATOM     77  O   UNL A   1      37.275  23.384  24.953  1.00  0.00    -0.461 OA
BRANCH  77  78
ATOM     78  C   UNL A   1      36.321  23.465  23.971  1.00  0.00     0.335 C 
ATOM     79  O   UNL A   1      36.442  22.982  22.865  1.00  0.00    -0.249 OA
BRANCH  78  80
ATOM     80  C   UNL A   1      35.078  24.187  24.509  1.00  0.00     0.232 C 
ATOM     81  C   UNL A   1      34.304  24.851  23.393  1.00  0.00     0.087 C 
ATOM     82  O   UNL A   1      34.175  23.362  25.234  1.00  0.00    -0.355 OA
ATOM     83  C   UNL A   1      32.984  24.067  23.255  1.00  0.00     0.123 C 
ATOM     84  C   UNL A   1      33.070  22.984  24.382  1.00  0.00     0.186 C 
BRANCH  83  85
ATOM     85  C   UNL A   1      31.808  25.063  23.313  1.00  0.00    -0.013 A 
ATOM     86  C   UNL A   1      31.870  26.221  22.501  1.00  0.00     0.008 A 
ATOM     87  C   UNL A   1      30.649  24.889  24.087  1.00  0.00     0.008 A 
ATOM     88  C   UNL A   1      30.835  27.159  22.473  1.00  0.00     0.021 A 
ATOM     89  C   UNL A   1      29.609  25.828  24.060  1.00  0.00     0.021 A 
ATOM     90  C   UNL A   1      29.705  26.956  23.254  1.00  0.00     0.041 A 
ATOM     91  Cl  UNL A   1      28.416  28.092  23.209  1.00  0.00    -0.084 Cl
ENDBRANCH  83  85
BRANCH  83  92
ATOM     92  O   UNL A   1      32.860  23.507  21.943  1.00  0.00    -0.382 OA
ATOM     93  H   UNL A   1      32.920  24.215  21.284  1.00  0.00     0.212 HD
ENDBRANCH  83  92
BRANCH  84  94
ATOM     94  C   UNL A   1      33.220  21.494  24.102  1.00  0.00    -0.016 A 
ATOM     95  C   UNL A   1      34.137  20.668  24.763  1.00  0.00     0.008 A 
ATOM     96  C   UNL A   1      32.288  20.871  23.247  1.00  0.00     0.008 A 
ATOM     97  C   UNL A   1      34.063  19.274  24.668  1.00  0.00     0.021 A 
ATOM     98  C   UNL A   1      32.237  19.478  23.117  1.00  0.00     0.021 A 
ATOM     99  C   UNL A   1      33.105  18.683  23.855  1.00  0.00     0.041 A 
ATOM    100  Cl  UNL A   1      32.974  16.972  23.789  1.00  0.00    -0.084 Cl
ENDBRANCH  84  94
ENDBRANCH  78  80
ENDBRANCH  77  78
ENDBRANCH  76  77
ENDBRANCH  75  76
ENDBRANCH  74  75
ENDBRANCH   1  74
TORSDOF 20
ENDMDL
MODEL 2
REMARK VINA RESULT:     -11.5      6.565     11.920
REMARK SMILES O=C(OCCOCCOC(=O)[C@H]1C[C@](O)(c2ccc(Cl)cc2)[C@@H](c2ccc(Cl)cc2)O1)c1ccc(-c2c3nc(c(-c4c(F)cc(S(=O)(=O)[O-])cc4F)c4ccc([nH]4)c(-c4c(F)cc(S(=O)(=O)[O-])cc4F)c4nc(c(-c5c(F)cc(S(=O)(=O)[O-])cc5F)c5ccc2[nH]5)C=C4)C=C3)cc1
REMARK SMILES IDX 5 1 4 2 3 3 2 4 1 5 32 6 33 7 97 8 34 9 96 10 35 11 36 12
REMARK SMILES IDX 37 13 90 14 38 15 95 16 89 17 91 18 39 19 94 20 88 21 87 22
REMARK SMILES IDX 40 24 74 25 53 26 73 27 54 28 57 29 72 30 92 31 55 32 56 33
REMARK SMILES IDX 71 35 93 36 58 37 41 38 42 39 51 40 43 41 44 42 50 43 52 44
REMARK SMILES IDX 45 45 46 46 47 47 48 48 49 49 75 50 76 51 85 52 77 53 78 54
REMARK SMILES IDX 84 55 86 56 79 57 80 58 81 59 82 60 83 61 59 62 60 63 69 64
REMARK SMILES IDX 61 65 62 66 68 67 70 68 63 69 64 70 65 71 66 72 67 73 6 74
REMARK SMILES IDX 7 75 8 76 9 77 10 78 11 79 12 80 13 81 31 82 14 83 23 84
REMARK SMILES IDX 16 85 17 86 22 87 18 88 21 89 19 90 20 91 15 92 24 94 25 95
REMARK SMILES IDX 30 96 26 97 29 98 27 99 28 100
REMARK H PARENT 91 23 57 34 15 93
REMARK Flexibility Score: inf
ROOT
ATOM      1  C   UNL A   1      33.236  30.122  26.573  1.00  0.00     0.202 C 
ENDROOT
BRANCH   1   2
ATOM      2  C   UNL A   1      34.370  29.495  27.389  1.00  0.00     0.261 C 
BRANCH   2   3
ATOM      3  O   UNL A   1      35.383  30.471  27.670  1.00  0.00    -0.460 OA
BRANCH   3   4
ATOM      4  C   UNL A   1      36.198  30.492  28.753  1.00  0.00     0.338 C 
ATOM      5  O   UNL A   1      35.715  30.791  29.845  1.00  0.00    -0.246 OA
BRANCH   4   6
ATOM      6  C   UNL A   1      37.642  30.108  28.704  1.00  0.00     0.060 A 
ATOM      7  C   UNL A   1      38.474  29.936  29.815  1.00  0.00     0.016 A 
ATOM      8  C   UNL A   1      38.158  29.799  27.435  1.00  0.00     0.016 A 
ATOM      9  C   UNL A   1      39.786  29.510  29.680  1.00  0.00     0.010 A 
ATOM     10  C   UNL A   1      39.468  29.335  27.293  1.00  0.00     0.010 A 
ATOM     11  C   UNL A   1      40.281  29.191  28.422  1.00  0.00    -0.014 A 
BRANCH  11  12
ATOM     12  C   UNL A   1      41.680  28.751  28.312  1.00  0.00     0.031 A 
ATOM     13  C   UNL A   1      42.757  29.774  28.468  1.00  0.00     0.074 A 
ATOM     14  C   UNL A   1      41.944  27.443  28.142  1.00  0.00     0.049 A 
ATOM     15  N   UNL A   1      44.040  29.650  28.281  1.00  0.00    -0.248 NA
ATOM     16  C   UNL A   1      42.334  31.120  28.897  1.00  0.00     0.031 C 
ATOM     17  C   UNL A   1      40.935  26.378  28.097  1.00  0.00     0.029 A 
ATOM     18  N   UNL A   1      43.130  26.781  27.978  1.00  0.00    -0.354 N 
ATOM     19  C   UNL A   1      44.574  30.908  28.522  1.00  0.00     0.074 A 
ATOM     20  C   UNL A   1      43.483  31.780  28.890  1.00  0.00     0.031 C 
ATOM     21  C   UNL A   1      41.549  25.199  27.908  1.00  0.00     0.029 A 
ATOM     22  C   UNL A   1      42.977  25.435  27.740  1.00  0.00     0.049 A 
ATOM     23  H   UNL A   1      44.007  27.226  28.025  1.00  0.00     0.167 HD
ATOM     24  C   UNL A   1      45.866  31.286  28.419  1.00  0.00     0.037 A 
ATOM     25  C   UNL A   1      43.889  24.519  27.365  1.00  0.00     0.037 A 
ATOM     26  C   UNL A   1      46.919  30.372  28.068  1.00  0.00     0.049 A 
ATOM     27  C   UNL A   1      45.308  24.990  27.180  1.00  0.00     0.074 A 
ATOM     28  C   UNL A   1      48.270  30.626  27.929  1.00  0.00     0.029 A 
ATOM     29  N   UNL A   1      46.729  29.024  27.792  1.00  0.00    -0.354 N 
ATOM     30  N   UNL A   1      45.813  26.185  27.391  1.00  0.00    -0.248 NA
ATOM     31  C   UNL A   1      46.279  24.006  26.685  1.00  0.00     0.031 C 
ATOM     32  C   UNL A   1      48.887  29.444  27.511  1.00  0.00     0.029 A 
ATOM     33  C   UNL A   1      47.931  28.440  27.442  1.00  0.00     0.049 A 
ATOM     34  H   UNL A   1      45.865  28.554  27.840  1.00  0.00     0.167 HD
ATOM     35  C   UNL A   1      47.157  26.097  27.058  1.00  0.00     0.074 A 
ATOM     36  C   UNL A   1      47.394  24.723  26.660  1.00  0.00     0.031 C 
ATOM     37  C   UNL A   1      48.111  27.060  27.063  1.00  0.00     0.037 A 
BRANCH  24  38
ATOM     38  C   UNL A   1      46.193  32.737  28.611  1.00  0.00     0.058 A 
ATOM     39  C   UNL A   1      46.181  33.657  27.552  1.00  0.00     0.135 A 
ATOM     40  C   UNL A   1      46.494  33.219  29.896  1.00  0.00     0.135 A 
ATOM     41  F   UNL A   1      45.936  33.245  26.299  1.00  0.00    -0.206 F 
ATOM     42  C   UNL A   1      46.454  35.006  27.761  1.00  0.00     0.059 A 
ATOM     43  C   UNL A   1      46.749  34.566  30.131  1.00  0.00     0.059 A 
ATOM     44  F   UNL A   1      46.541  32.375  30.939  1.00  0.00    -0.206 F 
ATOM     45  C   UNL A   1      46.730  35.452  29.057  1.00  0.00     0.060 A 
BRANCH  45  46
ATOM     46  S   UNL A   1      47.038  37.212  29.318  1.00  0.00     0.124 S 
ATOM     47  O   UNL A   1      47.635  37.210  30.650  1.00  0.00    -0.237 OA
ATOM     48  O   UNL A   1      47.943  37.534  28.219  1.00  0.00    -0.237 OA
ATOM     49  O   UNL A   1      45.709  37.808  29.227  1.00  0.00    -0.744 OA
ENDBRANCH  45  46
ENDBRANCH  24  38
BRANCH  25  50
ATOM     50  C   UNL A   1      43.481  23.123  27.038  1.00  0.00     0.058 A 
ATOM     51  C   UNL A   1      43.136  22.204  28.040  1.00  0.00     0.135 A 
ATOM     52  C   UNL A   1      43.464  22.667  25.709  1.00  0.00     0.135 A 
ATOM     53  F   UNL A   1      43.142  22.581  29.327  1.00  0.00    -0.206 F 
ATOM     54  C   UNL A   1      42.824  20.879  27.742  1.00  0.00     0.059 A 
ATOM     55  C   UNL A   1      43.124  21.357  25.382  1.00  0.00     0.059 A 
ATOM     56  F   UNL A   1      43.776  23.500  24.704  1.00  0.00    -0.206 F 
ATOM     57  C   UNL A   1      42.827  20.463  26.408  1.00  0.00     0.060 A 
BRANCH  57  58
ATOM     58  S   UNL A   1      42.437  18.742  26.028  1.00  0.00     0.124 S 
ATOM     59  O   UNL A   1      41.033  18.837  25.646  1.00  0.00    -0.237 OA
ATOM     60  O   UNL A   1      43.373  18.442  24.950  1.00  0.00    -0.237 OA
ATOM     61  O   UNL A   1      42.702  18.050  27.287  1.00  0.00    -0.744 OA
ENDBRANCH  57  58
ENDBRANCH  25  50
BRANCH  37  62
ATOM     62  C   UNL A   1      49.489  26.654  26.634  1.00  0.00     0.058 A 
ATOM     63  C   UNL A   1      50.381  26.051  27.532  1.00  0.00     0.135 A 
ATOM     64  C   UNL A   1      49.883  26.785  25.293  1.00  0.00     0.135 A 
ATOM     65  F   UNL A   1      50.050  25.915  28.827  1.00  0.00    -0.206 F 
ATOM     66  C   UNL A   1      51.623  25.591  27.116  1.00  0.00     0.059 A 
ATOM     67  C   UNL A   1      51.108  26.306  24.849  1.00  0.00     0.059 A 
ATOM     68  F   UNL A   1      49.057  27.347  24.397  1.00  0.00    -0.206 F 
ATOM     69  C   UNL A   1      51.973  25.713  25.769  1.00  0.00     0.060 A 
BRANCH  69  70
ATOM     70  S   UNL A   1      53.557  25.042  25.228  1.00  0.00     0.124 S 
ATOM     71  O   UNL A   1      53.678  25.614  23.892  1.00  0.00    -0.237 OA
ATOM     72  O   UNL A   1      54.478  25.569  26.231  1.00  0.00    -0.237 OA
ATOM     73  O   UNL A   1      53.348  23.598  25.275  1.00  0.00    -0.744 OA
ENDBRANCH  69  70
ENDBRANCH  37  62
ENDBRANCH  11  12
ENDBRANCH   4   6
ENDBRANCH   3   4
ENDBRANCH   2   3
ENDBRANCH   1   2
BRANCH   1  74
ATOM     74  O   UNL A   1      32.121  29.250  26.389  1.00  0.00    -0.374 OA
BRANCH  74  75
ATOM     75  C   UNL A   1      32.054  28.110  27.253  1.00  0.00     0.202 C 
BRANCH  75  76
ATOM     76  C   UNL A   1      31.202  27.016  26.602  1.00  0.00     0.261 C 
BRANCH  76  77
ATOM     77  O   UNL A   1      31.505  25.764  27.244  1.00  0.00    -0.461 OA
BRANCH  77  78
ATOM     78  C   UNL A   1      30.993  24.700  26.545  1.00  0.00     0.335 C 
ATOM     79  O   UNL A   1      29.958  24.736  25.914  1.00  0.00    -0.249 OA
BRANCH  78  80
ATOM     80  C   UNL A   1      31.957  23.508  26.630  1.00  0.00     0.232 C 
ATOM     81  C   UNL A   1      31.527  22.389  25.709  1.00  0.00     0.087 C 
ATOM     82  O   UNL A   1      33.314  23.815  26.339  1.00  0.00    -0.355 OA
ATOM     83  C   UNL A   1      32.581  22.322  24.587  1.00  0.00     0.123 C 
ATOM     84  C   UNL A   1      33.620  23.425  24.980  1.00  0.00     0.186 C 
BRANCH  83  85
ATOM     85  C   UNL A   1      33.094  20.871  24.475  1.00  0.00    -0.013 A 
ATOM     86  C   UNL A   1      32.230  19.898  23.917  1.00  0.00     0.008 A 
ATOM     87  C   UNL A   1      34.378  20.444  24.849  1.00  0.00     0.008 A 
ATOM     88  C   UNL A   1      32.625  18.568  23.755  1.00  0.00     0.021 A 
ATOM     89  C   UNL A   1      34.778  19.111  24.685  1.00  0.00     0.021 A 
ATOM     90  C   UNL A   1      33.902  18.180  24.138  1.00  0.00     0.041 A 
ATOM     91  Cl  UNL A   1      34.407  16.551  23.920  1.00  0.00    -0.084 Cl
ENDBRANCH  83  85
BRANCH  83  92
ATOM     92  O   UNL A   1      31.979  22.544  23.308  1.00  0.00    -0.382 OA
ATOM     93  H   UNL A   1      32.286  23.390  22.950  1.00  0.00     0.212 HD
ENDBRANCH  83  92
BRANCH  84  94
ATOM     94  C   UNL A   1      33.814  24.712  24.187  1.00  0.00    -0.016 A 
ATOM     95  C   UNL A   1      33.586  24.817  22.810  1.00  0.00     0.008 A 
ATOM     96  C   UNL A   1      34.088  25.904  24.890  1.00  0.00     0.008 A 
ATOM     97  C   UNL A   1      33.521  26.062  22.174  1.00  0.00     0.021 A 
ATOM     98  C   UNL A   1      34.065  27.148  24.250  1.00  0.00     0.021 A 
ATOM     99  C   UNL A   1      33.748  27.224  22.900  1.00  0.00     0.041 A 
ATOM    100  Cl  UNL A   1      33.606  28.755  22.133  1.00  0.00    -0.084 Cl
ENDBRANCH  84  94
ENDBRANCH  78  80
ENDBRANCH  77  78
ENDBRANCH  76  77
ENDBRANCH  75  76
ENDBRANCH  74  75
ENDBRANCH   1  74
TORSDOF 20
ENDMDL
MODEL 3
REMARK VINA RESULT:     -11.4      0.842      8.142
REMARK SMILES O=C(OCCOCCOC(=O)[C@H]1C[C@](O)(c2ccc(Cl)cc2)[C@@H](c2ccc(Cl)cc2)O1)c1ccc(-c2c3nc(c(-c4c(F)cc(S(=O)(=O)[O-])cc4F)c4ccc([nH]4)c(-c4c(F)cc(S(=O)(=O)[O-])cc4F)c4nc(c(-c5c(F)cc(S(=O)(=O)[O-])cc5F)c5ccc2[nH]5)C=C4)C=C3)cc1
REMARK SMILES IDX 5 1 4 2 3 3 2 4 1 5 32 6 33 7 97 8 34 9 96 10 35 11 36 12
REMARK SMILES IDX 37 13 90 14 38 15 95 16 89 17 91 18 39 19 94 20 88 21 87 22
REMARK SMILES IDX 40 24 74 25 53 26 73 27 54 28 57 29 72 30 92 31 55 32 56 33
REMARK SMILES IDX 71 35 93 36 58 37 41 38 42 39 51 40 43 41 44 42 50 43 52 44
REMARK SMILES IDX 45 45 46 46 47 47 48 48 49 49 75 50 76 51 85 52 77 53 78 54
REMARK SMILES IDX 84 55 86 56 79 57 80 58 81 59 82 60 83 61 59 62 60 63 69 64
REMARK SMILES IDX 61 65 62 66 68 67 70 68 63 69 64 70 65 71 66 72 67 73 6 74
REMARK SMILES IDX 7 75 8 76 9 77 10 78 11 79 12 80 13 81 31 82 14 83 23 84
REMARK SMILES IDX 16 85 17 86 22 87 18 88 21 89 19 90 20 91 15 92 24 94 25 95
REMARK SMILES IDX 30 96 26 97 29 98 27 99 28 100
REMARK H PARENT 91 23 57 34 15 93
REMARK Flexibility Score: inf
ROOT
ATOM      1  C   UNL A   1      41.931  22.303  27.157  1.00  0.00     0.202 C 
ENDROOT
BRANCH   1   2
ATOM      2  C   UNL A   1      42.302  23.110  25.910  1.00  0.00     0.261 C 
BRANCH   2   3
ATOM      3  O   UNL A   1      42.907  24.357  26.282  1.00  0.00    -0.460 OA
BRANCH   3   4
ATOM      4  C   UNL A   1      42.311  25.574  26.270  1.00  0.00     0.338 C 
ATOM      5  O   UNL A   1      41.871  26.002  25.203  1.00  0.00    -0.246 OA
BRANCH   4   6
ATOM      6  C   UNL A   1      42.099  26.398  27.499  1.00  0.00     0.060 A 
ATOM      7  C   UNL A   1      42.784  27.575  27.815  1.00  0.00     0.016 A 
ATOM      8  C   UNL A   1      41.050  25.996  28.342  1.00  0.00     0.016 A 
ATOM      9  C   UNL A   1      42.474  28.315  28.946  1.00  0.00     0.010 A 
ATOM     10  C   UNL A   1      40.707  26.753  29.463  1.00  0.00     0.010 A 
ATOM     11  C   UNL A   1      41.423  27.917  29.763  1.00  0.00    -0.014 A 
BRANCH  11  12
ATOM     12  C   UNL A   1      41.126  28.718  30.959  1.00  0.00     0.031 A 
ATOM     13  C   UNL A   1      39.986  29.682  30.898  1.00  0.00     0.074 A 
ATOM     14  C   UNL A   1      41.841  28.513  32.080  1.00  0.00     0.049 A 
ATOM     15  N   UNL A   1      39.624  30.580  31.770  1.00  0.00    -0.248 NA
ATOM     16  C   UNL A   1      39.135  29.626  29.696  1.00  0.00     0.031 C 
ATOM     17  C   UNL A   1      42.894  27.503  32.236  1.00  0.00     0.029 A 
ATOM     18  N   UNL A   1      41.796  29.133  33.299  1.00  0.00    -0.354 N 
ATOM     19  C   UNL A   1      38.535  31.228  31.204  1.00  0.00     0.074 A 
ATOM     20  C   UNL A   1      38.278  30.610  29.924  1.00  0.00     0.031 C 
ATOM     21  C   UNL A   1      43.399  27.582  33.478  1.00  0.00     0.029 A 
ATOM     22  C   UNL A   1      42.763  28.694  34.172  1.00  0.00     0.049 A 
ATOM     23  H   UNL A   1      41.135  29.827  33.527  1.00  0.00     0.167 HD
ATOM     24  C   UNL A   1      37.835  32.263  31.717  1.00  0.00     0.037 A 
ATOM     25  C   UNL A   1      43.128  29.186  35.371  1.00  0.00     0.037 A 
ATOM     26  C   UNL A   1      38.120  32.830  33.008  1.00  0.00     0.049 A 
ATOM     27  C   UNL A   1      42.381  30.392  35.880  1.00  0.00     0.074 A 
ATOM     28  C   UNL A   1      37.489  33.880  33.645  1.00  0.00     0.029 A 
ATOM     29  N   UNL A   1      39.132  32.391  33.852  1.00  0.00    -0.354 N 
ATOM     30  N   UNL A   1      41.361  31.018  35.338  1.00  0.00    -0.248 NA
ATOM     31  C   UNL A   1      42.843  30.978  37.144  1.00  0.00     0.031 C 
ATOM     32  C   UNL A   1      38.157  34.114  34.850  1.00  0.00     0.029 A 
ATOM     33  C   UNL A   1      39.171  33.176  34.988  1.00  0.00     0.049 A 
ATOM     34  H   UNL A   1      39.732  31.633  33.668  1.00  0.00     0.167 HD
ATOM     35  C   UNL A   1      41.057  32.067  36.194  1.00  0.00     0.074 A 
ATOM     36  C   UNL A   1      41.982  31.974  37.306  1.00  0.00     0.031 C 
ATOM     37  C   UNL A   1      40.112  33.032  36.073  1.00  0.00     0.037 A 
BRANCH  24  38
ATOM     38  C   UNL A   1      36.768  32.884  30.867  1.00  0.00     0.058 A 
ATOM     39  C   UNL A   1      37.063  33.746  29.800  1.00  0.00     0.135 A 
ATOM     40  C   UNL A   1      35.419  32.577  31.110  1.00  0.00     0.135 A 
ATOM     41  F   UNL A   1      38.332  34.100  29.546  1.00  0.00    -0.206 F 
ATOM     42  C   UNL A   1      36.056  34.282  29.003  1.00  0.00     0.059 A 
ATOM     43  C   UNL A   1      34.398  33.085  30.313  1.00  0.00     0.059 A 
ATOM     44  F   UNL A   1      35.082  31.776  32.132  1.00  0.00    -0.206 F 
ATOM     45  C   UNL A   1      34.726  33.939  29.263  1.00  0.00     0.060 A 
BRANCH  45  46
ATOM     46  S   UNL A   1      33.436  34.608  28.192  1.00  0.00     0.124 S 
ATOM     47  O   UNL A   1      32.590  35.308  29.154  1.00  0.00    -0.237 OA
ATOM     48  O   UNL A   1      34.198  35.459  27.283  1.00  0.00    -0.237 OA
ATOM     49  O   UNL A   1      32.845  33.420  27.586  1.00  0.00    -0.744 OA
ENDBRANCH  45  46
ENDBRANCH  24  38
BRANCH  25  50
ATOM     50  C   UNL A   1      44.298  28.626  36.104  1.00  0.00     0.058 A 
ATOM     51  C   UNL A   1      44.150  27.604  37.053  1.00  0.00     0.135 A 
ATOM     52  C   UNL A   1      45.593  29.131  35.896  1.00  0.00     0.135 A 
ATOM     53  F   UNL A   1      42.936  27.088  37.300  1.00  0.00    -0.206 F 
ATOM     54  C   UNL A   1      45.232  27.128  37.792  1.00  0.00     0.059 A 
ATOM     55  C   UNL A   1      46.695  28.650  36.597  1.00  0.00     0.059 A 
ATOM     56  F   UNL A   1      45.802  30.103  34.995  1.00  0.00    -0.206 F 
ATOM     57  C   UNL A   1      46.501  27.663  37.560  1.00  0.00     0.060 A 
BRANCH  57  58
ATOM     58  S   UNL A   1      47.897  27.053  38.530  1.00  0.00     0.124 S 
ATOM     59  O   UNL A   1      47.256  26.740  39.801  1.00  0.00    -0.237 OA
ATOM     60  O   UNL A   1      48.346  25.910  37.743  1.00  0.00    -0.237 OA
ATOM     61  O   UNL A   1      48.815  28.189  38.550  1.00  0.00    -0.744 OA
ENDBRANCH  57  58
ENDBRANCH  25  50
BRANCH  37  62
ATOM     62  C   UNL A   1      40.033  34.048  37.172  1.00  0.00     0.058 A 
ATOM     63  C   UNL A   1      40.768  35.240  37.113  1.00  0.00     0.135 A 
ATOM     64  C   UNL A   1      39.142  33.868  38.243  1.00  0.00     0.135 A 
ATOM     65  F   UNL A   1      41.640  35.450  36.114  1.00  0.00    -0.206 F 
ATOM     66  C   UNL A   1      40.627  36.223  38.084  1.00  0.00     0.059 A 
ATOM     67  C   UNL A   1      38.963  34.851  39.207  1.00  0.00     0.059 A 
ATOM     68  F   UNL A   1      38.410  32.747  38.333  1.00  0.00    -0.206 F 
ATOM     69  C   UNL A   1      39.713  36.023  39.121  1.00  0.00     0.060 A 
BRANCH  69  70
ATOM     70  S   UNL A   1      39.484  37.342  40.331  1.00  0.00     0.124 S 
ATOM     71  O   UNL A   1      40.855  37.794  40.537  1.00  0.00    -0.237 OA
ATOM     72  O   UNL A   1      38.609  38.268  39.620  1.00  0.00    -0.237 OA
ATOM     73  O   UNL A   1      38.871  36.657  41.466  1.00  0.00    -0.744 OA
ENDBRANCH  69  70
ENDBRANCH  37  62
ENDBRANCH  11  12
ENDBRANCH   4   6
ENDBRANCH   3   4
ENDBRANCH   2   3
ENDBRANCH   1   2
BRANCH   1  74
ATOM     74  O   UNL A   1      40.573  21.861  27.163  1.00  0.00    -0.374 OA
BRANCH  74  75
ATOM     75  C   UNL A   1      39.616  22.735  26.553  1.00  0.00     0.202 C 
BRANCH  75  76
ATOM     76  C   UNL A   1      38.605  21.914  25.747  1.00  0.00     0.261 C 
BRANCH  76  77
ATOM     77  O   UNL A   1      37.284  22.397  26.049  1.00  0.00    -0.461 OA
BRANCH  77  78
ATOM     78  C   UNL A   1      36.641  22.852  24.926  1.00  0.00     0.335 C 
ATOM     79  O   UNL A   1      37.025  22.649  23.794  1.00  0.00    -0.249 OA
BRANCH  78  80
ATOM     80  C   UNL A   1      35.349  23.579  25.323  1.00  0.00     0.232 C 
ATOM     81  C   UNL A   1      34.786  24.368  24.163  1.00  0.00     0.087 C 
ATOM     82  O   UNL A   1      34.317  22.736  25.819  1.00  0.00    -0.355 OA
ATOM     83  C   UNL A   1      33.483  23.657  23.747  1.00  0.00     0.123 C 
ATOM     84  C   UNL A   1      33.353  22.480  24.772  1.00  0.00     0.186 C 
BRANCH  83  85
ATOM     85  C   UNL A   1      32.343  24.694  23.708  1.00  0.00    -0.013 A 
ATOM     86  C   UNL A   1      32.189  25.476  22.537  1.00  0.00     0.008 A 
ATOM     87  C   UNL A   1      31.410  24.898  24.737  1.00  0.00     0.008 A 
ATOM     88  C   UNL A   1      31.167  26.419  22.409  1.00  0.00     0.021 A 
ATOM     89  C   UNL A   1      30.381  25.842  24.610  1.00  0.00     0.021 A 
ATOM     90  C   UNL A   1      30.263  26.596  23.448  1.00  0.00     0.041 A 
ATOM     91  Cl  UNL A   1      28.986  27.736  23.291  1.00  0.00    -0.084 Cl
ENDBRANCH  83  85
BRANCH  83  92
ATOM     92  O   UNL A   1      33.556  23.215  22.388  1.00  0.00    -0.382 OA
ATOM     93  H   UNL A   1      32.733  22.761  22.152  1.00  0.00     0.212 HD
ENDBRANCH  83  92
BRANCH  84  94
ATOM     94  C   UNL A   1      33.503  21.013  24.386  1.00  0.00    -0.016 A 
ATOM     95  C   UNL A   1      34.548  20.196  24.832  1.00  0.00     0.008 A 
ATOM     96  C   UNL A   1      32.458  20.395  23.669  1.00  0.00     0.008 A 
ATOM     97  C   UNL A   1      34.506  18.806  24.672  1.00  0.00     0.021 A 
ATOM     98  C   UNL A   1      32.432  19.009  23.471  1.00  0.00     0.021 A 
ATOM     99  C   UNL A   1      33.441  18.217  24.003  1.00  0.00     0.041 A 
ATOM    100  Cl  UNL A   1      33.359  16.506  23.863  1.00  0.00    -0.084 Cl
ENDBRANCH  84  94
ENDBRANCH  78  80
ENDBRANCH  77  78
ENDBRANCH  76  77
ENDBRANCH  75  76
ENDBRANCH  74  75
ENDBRANCH   1  74
TORSDOF 20
ENDMDL
