MODEL 1
REMARK VINA RESULT:     -10.9      0.000      0.000
REMARK SMILES Cc1cc(C[N@H+]2CCN(C)C(=O)C2(C)C)oc1C(=O)OCCOCCOC(=O)c1ccc(-c2c3nc(c(-c4c(F)cc(S(=O)(=O)[O-])cc4F)c4ccc([nH]4)c(-c4c(F)cc(S(=O)(=O)[O-])cc4F)c4nc(c(-c5c(F)cc(S(=O)(=O)[O-])cc5F)c5ccc2[nH]5)C=C4)C=C3)cc1
REMARK SMILES IDX 24 1 23 2 22 3 21 4 20 5 18 6 19 7 17 8 1 9 2 10 3 11 4 12
REMARK SMILES IDX 16 13 5 14 6 15 7 16 13 17 8 19 11 20 14 21 15 22 9 23 12 24
REMARK SMILES IDX 10 25 25 26 26 27 27 28 28 29 29 30 30 31 94 32 31 33 93 34
REMARK SMILES IDX 32 35 33 36 34 37 87 38 35 39 92 40 86 41 88 42 36 43 91 44
REMARK SMILES IDX 85 45 84 46 37 48 71 49 50 50 70 51 51 52 54 53 69 54 89 55
REMARK SMILES IDX 52 56 53 57 68 59 90 60 55 61 38 62 39 63 48 64 40 65 41 66
REMARK SMILES IDX 47 67 49 68 42 69 43 70 44 71 45 72 46 73 72 74 73 75 82 76
REMARK SMILES IDX 74 77 75 78 81 79 83 80 76 81 77 82 78 83 79 84 80 85 56 86
REMARK SMILES IDX 57 87 66 88 58 89 59 90 65 91 67 92 60 93 61 94 62 95 63 96
REMARK SMILES IDX 64 97
REMARK H PARENT 6 18 88 47 54 58
REMARK Flexibility Score: inf
ROOT
ATOM      1  C   UNL A   1      34.847  32.821  28.818  1.00  0.00     0.202 C 
ENDROOT
BRANCH   1   2
ATOM      2  O   UNL A   1      33.875  32.046  28.112  1.00  0.00    -0.374 OA
BRANCH   2   3
ATOM      3  C   UNL A   1      34.387  30.936  27.370  1.00  0.00     0.202 C 
BRANCH   3   4
ATOM      4  C   UNL A   1      33.383  29.788  27.234  1.00  0.00     0.261 C 
BRANCH   4   5
ATOM      5  O   UNL A   1      32.924  29.708  25.875  1.00  0.00    -0.457 OA
BRANCH   5   6
ATOM      6  C   UNL A   1      31.726  30.293  25.601  1.00  0.00     0.374 C 
ATOM      7  O   UNL A   1      31.351  31.363  26.067  1.00  0.00    -0.242 OA
BRANCH   6   8
ATOM      8  C   UNL A   1      31.020  29.523  24.597  1.00  0.00     0.215 A 
ATOM      9  C   UNL A   1      29.121  30.996  23.564  1.00  0.00     0.049 C 
ATOM     10  C   UNL A   1      29.957  29.779  23.736  1.00  0.00     0.003 A 
ATOM     11  C   UNL A   1      29.788  28.592  22.970  1.00  0.00     0.056 A 
ATOM     12  C   UNL A   1      30.616  27.632  23.505  1.00  0.00     0.159 A 
ATOM     13  O   UNL A   1      31.395  28.207  24.463  1.00  0.00    -0.448 OA
BRANCH  12  14
ATOM     14  C   UNL A   1      30.860  26.183  23.241  1.00  0.00     0.339 C 
BRANCH  14  15
ATOM     15  N   UNL A   1      31.901  25.499  24.033  1.00  0.00    -0.315 N 
ATOM     16  C   UNL A   1      31.373  24.452  24.915  1.00  0.00     0.285 C 
ATOM     17  C   UNL A   1      33.144  25.067  23.334  1.00  0.00     0.172 C 
ATOM     18  H   UNL A   1      32.231  26.270  24.613  1.00  0.00     0.349 HD
ATOM     19  C   UNL A   1      31.172  23.094  24.242  1.00  0.00     0.180 C 
ATOM     20  C   UNL A   1      32.999  23.676  22.642  1.00  0.00     0.283 C 
ATOM     21  C   UNL A   1      33.653  26.134  22.338  1.00  0.00     0.090 C 
ATOM     22  C   UNL A   1      34.286  24.885  24.366  1.00  0.00     0.090 C 
ATOM     23  N   UNL A   1      32.198  22.726  23.273  1.00  0.00    -0.335 N 
ATOM     24  O   UNL A   1      33.660  23.402  21.636  1.00  0.00    -0.268 OA
ATOM     25  C   UNL A   1      32.152  21.366  22.763  1.00  0.00     0.147 C 
ENDBRANCH  14  15
ENDBRANCH  12  14
ENDBRANCH   6   8
ENDBRANCH   5   6
ENDBRANCH   4   5
ENDBRANCH   3   4
ENDBRANCH   2   3
ENDBRANCH   1   2
BRANCH   1  26
ATOM     26  C   UNL A   1      34.867  32.561  30.326  1.00  0.00     0.261 C 
BRANCH  26  27
ATOM     27  O   UNL A   1      35.641  31.384  30.622  1.00  0.00    -0.460 OA
BRANCH  27  28
ATOM     28  C   UNL A   1      36.758  31.604  31.355  1.00  0.00     0.338 C 
ATOM     29  O   UNL A   1      36.825  32.156  32.440  1.00  0.00    -0.246 OA
BRANCH  28  30
ATOM     30  C   UNL A   1      37.911  30.922  30.729  1.00  0.00     0.060 A 
ATOM     31  C   UNL A   1      38.915  30.447  31.580  1.00  0.00     0.016 A 
ATOM     32  C   UNL A   1      38.034  30.780  29.343  1.00  0.00     0.016 A 
ATOM     33  C   UNL A   1      40.070  29.874  31.050  1.00  0.00     0.010 A 
ATOM     34  C   UNL A   1      39.196  30.208  28.811  1.00  0.00     0.010 A 
ATOM     35  C   UNL A   1      40.233  29.783  29.661  1.00  0.00    -0.014 A 
BRANCH  35  36
ATOM     36  C   UNL A   1      41.544  29.370  29.106  1.00  0.00     0.031 A 
ATOM     37  C   UNL A   1      42.640  30.394  28.985  1.00  0.00     0.074 A 
ATOM     38  C   UNL A   1      41.767  28.095  28.742  1.00  0.00     0.049 A 
ATOM     39  N   UNL A   1      43.854  30.258  28.519  1.00  0.00    -0.248 NA
ATOM     40  C   UNL A   1      42.323  31.754  29.452  1.00  0.00     0.031 C 
ATOM     41  C   UNL A   1      40.794  27.007  28.839  1.00  0.00     0.029 A 
ATOM     42  N   UNL A   1      42.886  27.501  28.215  1.00  0.00    -0.354 N 
ATOM     43  C   UNL A   1      44.447  31.509  28.635  1.00  0.00     0.074 A 
ATOM     44  C   UNL A   1      43.449  32.400  29.188  1.00  0.00     0.031 C 
ATOM     45  C   UNL A   1      41.358  25.878  28.374  1.00  0.00     0.029 A 
ATOM     46  C   UNL A   1      42.719  26.168  27.927  1.00  0.00     0.049 A 
ATOM     47  H   UNL A   1      43.729  27.984  28.057  1.00  0.00     0.167 HD
ATOM     48  C   UNL A   1      45.711  31.880  28.320  1.00  0.00     0.037 A 
ATOM     49  C   UNL A   1      43.563  25.287  27.354  1.00  0.00     0.037 A 
ATOM     50  C   UNL A   1      46.702  30.993  27.771  1.00  0.00     0.049 A 
ATOM     51  C   UNL A   1      44.946  25.736  26.960  1.00  0.00     0.074 A 
ATOM     52  C   UNL A   1      48.014  31.271  27.432  1.00  0.00     0.029 A 
ATOM     53  N   UNL A   1      46.487  29.655  27.473  1.00  0.00    -0.354 N 
ATOM     54  N   UNL A   1      45.501  26.917  27.098  1.00  0.00    -0.248 NA
ATOM     55  C   UNL A   1      45.820  24.731  26.337  1.00  0.00     0.031 C 
ATOM     56  C   UNL A   1      48.583  30.111  26.895  1.00  0.00     0.029 A 
ATOM     57  C   UNL A   1      47.637  29.099  26.936  1.00  0.00     0.049 A 
ATOM     58  H   UNL A   1      45.642  29.172  27.621  1.00  0.00     0.167 HD
ATOM     59  C   UNL A   1      46.793  26.791  26.600  1.00  0.00     0.074 A 
ATOM     60  C   UNL A   1      46.942  25.417  26.167  1.00  0.00     0.031 C 
ATOM     61  C   UNL A   1      47.770  27.727  26.514  1.00  0.00     0.037 A 
BRANCH  48  62
ATOM     62  C   UNL A   1      46.085  33.317  28.546  1.00  0.00     0.058 A 
ATOM     63  C   UNL A   1      46.645  33.750  29.758  1.00  0.00     0.135 A 
ATOM     64  C   UNL A   1      45.904  34.268  27.529  1.00  0.00     0.135 A 
ATOM     65  F   UNL A   1      46.822  32.884  30.768  1.00  0.00    -0.206 F 
ATOM     66  C   UNL A   1      46.988  35.082  29.964  1.00  0.00     0.059 A 
ATOM     67  C   UNL A   1      46.261  35.602  27.706  1.00  0.00     0.059 A 
ATOM     68  F   UNL A   1      45.369  33.907  26.352  1.00  0.00    -0.206 F 
ATOM     69  C   UNL A   1      46.790  36.001  28.933  1.00  0.00     0.060 A 
BRANCH  69  70
ATOM     70  S   UNL A   1      47.235  37.728  29.215  1.00  0.00     0.124 S 
ATOM     71  O   UNL A   1      48.299  37.917  28.234  1.00  0.00    -0.237 OA
ATOM     72  O   UNL A   1      45.985  38.425  28.937  1.00  0.00    -0.237 OA
ATOM     73  O   UNL A   1      47.660  37.744  30.611  1.00  0.00    -0.744 OA
ENDBRANCH  69  70
ENDBRANCH  48  62
BRANCH  49  74
ATOM     74  C   UNL A   1      43.119  23.891  27.106  1.00  0.00     0.058 A 
ATOM     75  C   UNL A   1      43.086  22.946  28.141  1.00  0.00     0.135 A 
ATOM     76  C   UNL A   1      42.715  23.477  25.827  1.00  0.00     0.135 A 
ATOM     77  F   UNL A   1      43.474  23.292  29.378  1.00  0.00    -0.206 F 
ATOM     78  C   UNL A   1      42.677  21.635  27.916  1.00  0.00     0.059 A 
ATOM     79  C   UNL A   1      42.281  22.179  25.582  1.00  0.00     0.059 A 
ATOM     80  F   UNL A   1      42.720  24.348  24.805  1.00  0.00    -0.206 F 
ATOM     81  C   UNL A   1      42.273  21.262  26.633  1.00  0.00     0.060 A 
BRANCH  81  82
ATOM     82  S   UNL A   1      41.689  19.575  26.362  1.00  0.00     0.124 S 
ATOM     83  O   UNL A   1      42.058  18.930  27.617  1.00  0.00    -0.237 OA
ATOM     84  O   UNL A   1      40.260  19.776  26.141  1.00  0.00    -0.237 OA
ATOM     85  O   UNL A   1      42.442  19.146  25.186  1.00  0.00    -0.744 OA
ENDBRANCH  81  82
ENDBRANCH  49  74
BRANCH  61  86
ATOM     86  C   UNL A   1      49.098  27.296  25.955  1.00  0.00     0.058 A 
ATOM     87  C   UNL A   1      49.371  27.356  24.580  1.00  0.00     0.135 A 
ATOM     88  C   UNL A   1      50.126  26.871  26.812  1.00  0.00     0.135 A 
ATOM     89  F   UNL A   1      48.421  27.751  23.718  1.00  0.00    -0.206 F 
ATOM     90  C   UNL A   1      50.613  26.989  24.070  1.00  0.00     0.059 A 
ATOM     91  C   UNL A   1      51.382  26.522  26.327  1.00  0.00     0.059 A 
ATOM     92  F   UNL A   1      49.918  26.806  28.137  1.00  0.00    -0.206 F 
ATOM     93  C   UNL A   1      51.613  26.574  24.953  1.00  0.00     0.060 A 
BRANCH  93  94
ATOM     94  S   UNL A   1      53.232  26.135  24.286  1.00  0.00     0.124 S 
ATOM     95  O   UNL A   1      53.023  26.329  22.855  1.00  0.00    -0.237 OA
ATOM     96  O   UNL A   1      54.113  27.101  24.935  1.00  0.00    -0.237 OA
ATOM     97  O   UNL A   1      53.410  24.750  24.712  1.00  0.00    -0.744 OA
ENDBRANCH  93  94
ENDBRANCH  61  86
ENDBRANCH  35  36
ENDBRANCH  28  30
ENDBRANCH  27  28
ENDBRANCH  26  27
ENDBRANCH   1  26
TORSDOF 19
ENDMDL
MODEL 2
REMARK VINA RESULT:     -10.9      6.407     12.061
REMARK SMILES Cc1cc(C[N@H+]2CCN(C)C(=O)C2(C)C)oc1C(=O)OCCOCCOC(=O)c1ccc(-c2c3nc(c(-c4c(F)cc(S(=O)(=O)[O-])cc4F)c4ccc([nH]4)c(-c4c(F)cc(S(=O)(=O)[O-])cc4F)c4nc(c(-c5c(F)cc(S(=O)(=O)[O-])cc5F)c5ccc2[nH]5)C=C4)C=C3)cc1
REMARK SMILES IDX 24 1 23 2 22 3 21 4 20 5 18 6 19 7 17 8 1 9 2 10 3 11 4 12
REMARK SMILES IDX 16 13 5 14 6 15 7 16 13 17 8 19 11 20 14 21 15 22 9 23 12 24
REMARK SMILES IDX 10 25 25 26 26 27 27 28 28 29 29 30 30 31 94 32 31 33 93 34
REMARK SMILES IDX 32 35 33 36 34 37 87 38 35 39 92 40 86 41 88 42 36 43 91 44
REMARK SMILES IDX 85 45 84 46 37 48 71 49 50 50 70 51 51 52 54 53 69 54 89 55
REMARK SMILES IDX 52 56 53 57 68 59 90 60 55 61 38 62 39 63 48 64 40 65 41 66
REMARK SMILES IDX 47 67 49 68 42 69 43 70 44 71 45 72 46 73 72 74 73 75 82 76
REMARK SMILES IDX 74 77 75 78 81 79 83 80 76 81 77 82 78 83 79 84 80 85 56 86
REMARK SMILES IDX 57 87 66 88 58 89 59 90 65 91 67 92 60 93 61 94 62 95 63 96
REMARK SMILES IDX 64 97
REMARK H PARENT 6 18 88 47 54 58
REMARK Flexibility Score: inf
ROOT
ATOM      1  C   UNL A   1      38.425  22.253  26.190  1.00  0.00     0.202 C 
ENDROOT
BRANCH   1   2
ATOM      2  O   UNL A   1      38.477  21.183  25.242  1.00  0.00    -0.374 OA
BRANCH   2   3
ATOM      3  C   UNL A   1      37.213  20.652  24.837  1.00  0.00     0.202 C 
BRANCH   3   4
ATOM      4  C   UNL A   1      36.026  21.496  25.309  1.00  0.00     0.261 C 
BRANCH   4   5
ATOM      5  O   UNL A   1      34.804  20.932  24.807  1.00  0.00    -0.457 OA
BRANCH   5   6
ATOM      6  C   UNL A   1      33.664  21.255  25.477  1.00  0.00     0.374 C 
ATOM      7  O   UNL A   1      33.413  20.915  26.628  1.00  0.00    -0.242 OA
BRANCH   6   8
ATOM      8  C   UNL A   1      32.854  22.146  24.671  1.00  0.00     0.215 A 
ATOM      9  C   UNL A   1      32.081  20.886  22.512  1.00  0.00     0.049 C 
ATOM     10  C   UNL A   1      32.182  22.028  23.458  1.00  0.00     0.003 A 
ATOM     11  C   UNL A   1      31.537  23.280  23.253  1.00  0.00     0.056 A 
ATOM     12  C   UNL A   1      31.978  24.139  24.233  1.00  0.00     0.159 A 
ATOM     13  O   UNL A   1      32.743  23.440  25.118  1.00  0.00    -0.448 OA
BRANCH  12  14
ATOM     14  C   UNL A   1      31.770  25.585  24.541  1.00  0.00     0.339 C 
BRANCH  14  15
ATOM     15  N   UNL A   1      32.319  26.581  23.600  1.00  0.00    -0.315 N 
ATOM     16  C   UNL A   1      31.486  26.785  22.410  1.00  0.00     0.285 C 
ATOM     17  C   UNL A   1      32.824  27.868  24.157  1.00  0.00     0.172 C 
ATOM     18  H   UNL A   1      33.178  26.113  23.314  1.00  0.00     0.349 HD
ATOM     19  C   UNL A   1      30.340  27.781  22.598  1.00  0.00     0.180 C 
ATOM     20  C   UNL A   1      31.696  28.928  24.354  1.00  0.00     0.283 C 
ATOM     21  C   UNL A   1      33.628  27.663  25.461  1.00  0.00     0.090 C 
ATOM     22  C   UNL A   1      33.814  28.516  23.156  1.00  0.00     0.090 C 
ATOM     23  N   UNL A   1      30.657  28.940  23.424  1.00  0.00    -0.335 N 
ATOM     24  O   UNL A   1      31.787  29.788  25.235  1.00  0.00    -0.268 OA
ATOM     25  C   UNL A   1      29.666  30.001  23.462  1.00  0.00     0.147 C 
ENDBRANCH  14  15
ENDBRANCH  12  14
ENDBRANCH   6   8
ENDBRANCH   5   6
ENDBRANCH   4   5
ENDBRANCH   3   4
ENDBRANCH   2   3
ENDBRANCH   1   2
BRANCH   1  26
ATOM     26  C   UNL A   1      39.736  23.034  26.311  1.00  0.00     0.261 C 
BRANCH  26  27
ATOM     27  O   UNL A   1      39.472  24.447  26.391  1.00  0.00    -0.460 OA
BRANCH  27  28
ATOM     28  C   UNL A   1      40.567  25.239  26.300  1.00  0.00     0.338 C 
ATOM     29  O   UNL A   1      41.305  25.360  25.336  1.00  0.00    -0.246 OA
BRANCH  28  30
ATOM     30  C   UNL A   1      40.670  26.093  27.503  1.00  0.00     0.060 A 
ATOM     31  C   UNL A   1      39.665  25.961  28.469  1.00  0.00     0.016 A 
ATOM     32  C   UNL A   1      41.695  27.027  27.673  1.00  0.00     0.016 A 
ATOM     33  C   UNL A   1      39.654  26.797  29.585  1.00  0.00     0.010 A 
ATOM     34  C   UNL A   1      41.680  27.870  28.790  1.00  0.00     0.010 A 
ATOM     35  C   UNL A   1      40.641  27.780  29.734  1.00  0.00    -0.014 A 
BRANCH  35  36
ATOM     36  C   UNL A   1      40.502  28.797  30.804  1.00  0.00     0.031 A 
ATOM     37  C   UNL A   1      41.403  28.718  32.007  1.00  0.00     0.074 A 
ATOM     38  C   UNL A   1      39.608  29.795  30.693  1.00  0.00     0.049 A 
ATOM     39  N   UNL A   1      41.447  29.489  33.061  1.00  0.00    -0.248 NA
ATOM     40  C   UNL A   1      42.385  27.622  32.021  1.00  0.00     0.031 C 
ATOM     41  C   UNL A   1      38.701  29.995  29.563  1.00  0.00     0.029 A 
ATOM     42  N   UNL A   1      39.316  30.829  31.547  1.00  0.00    -0.354 N 
ATOM     43  C   UNL A   1      42.457  28.975  33.864  1.00  0.00     0.074 A 
ATOM     44  C   UNL A   1      42.981  27.807  33.190  1.00  0.00     0.031 C 
ATOM     45  C   UNL A   1      37.943  31.080  29.801  1.00  0.00     0.029 A 
ATOM     46  C   UNL A   1      38.296  31.637  31.106  1.00  0.00     0.049 A 
ATOM     47  H   UNL A   1      39.790  30.977  32.396  1.00  0.00     0.167 HD
ATOM     48  C   UNL A   1      42.915  29.440  35.052  1.00  0.00     0.037 A 
ATOM     49  C   UNL A   1      37.704  32.695  31.695  1.00  0.00     0.037 A 
ATOM     50  C   UNL A   1      42.393  30.602  35.722  1.00  0.00     0.049 A 
ATOM     51  C   UNL A   1      38.192  33.161  33.042  1.00  0.00     0.074 A 
ATOM     52  C   UNL A   1      42.800  31.160  36.920  1.00  0.00     0.029 A 
ATOM     53  N   UNL A   1      41.345  31.381  35.253  1.00  0.00    -0.354 N 
ATOM     54  N   UNL A   1      39.165  32.679  33.779  1.00  0.00    -0.248 NA
ATOM     55  C   UNL A   1      37.506  34.317  33.635  1.00  0.00     0.031 C 
ATOM     56  C   UNL A   1      41.973  32.256  37.196  1.00  0.00     0.029 A 
ATOM     57  C   UNL A   1      41.078  32.404  36.148  1.00  0.00     0.049 A 
ATOM     58  H   UNL A   1      40.862  31.229  34.409  1.00  0.00     0.167 HD
ATOM     59  C   UNL A   1      39.221  33.485  34.911  1.00  0.00     0.074 A 
ATOM     60  C   UNL A   1      38.192  34.493  34.757  1.00  0.00     0.031 C 
ATOM     61  C   UNL A   1      40.053  33.402  35.978  1.00  0.00     0.037 A 
BRANCH  48  62
ATOM     62  C   UNL A   1      44.026  28.674  35.711  1.00  0.00     0.058 A 
ATOM     63  C   UNL A   1      45.375  28.979  35.469  1.00  0.00     0.135 A 
ATOM     64  C   UNL A   1      43.739  27.638  36.614  1.00  0.00     0.135 A 
ATOM     65  F   UNL A   1      45.703  29.948  34.600  1.00  0.00    -0.206 F 
ATOM     66  C   UNL A   1      46.401  28.266  36.080  1.00  0.00     0.059 A 
ATOM     67  C   UNL A   1      44.749  26.926  37.253  1.00  0.00     0.059 A 
ATOM     68  F   UNL A   1      42.465  27.304  36.877  1.00  0.00    -0.206 F 
ATOM     69  C   UNL A   1      46.078  27.239  36.969  1.00  0.00     0.060 A 
BRANCH  69  70
ATOM     70  S   UNL A   1      47.420  26.318  37.751  1.00  0.00     0.124 S 
ATOM     71  O   UNL A   1      48.592  26.982  37.189  1.00  0.00    -0.237 OA
ATOM     72  O   UNL A   1      47.177  26.554  39.170  1.00  0.00    -0.237 OA
ATOM     73  O   UNL A   1      47.198  24.948  37.300  1.00  0.00    -0.744 OA
ENDBRANCH  69  70
ENDBRANCH  48  62
BRANCH  49  74
ATOM     74  C   UNL A   1      36.573  33.381  31.019  1.00  0.00     0.058 A 
ATOM     75  C   UNL A   1      35.258  33.245  31.486  1.00  0.00     0.135 A 
ATOM     76  C   UNL A   1      36.789  34.191  29.893  1.00  0.00     0.135 A 
ATOM     77  F   UNL A   1      35.001  32.472  32.552  1.00  0.00    -0.206 F 
ATOM     78  C   UNL A   1      34.192  33.881  30.855  1.00  0.00     0.059 A 
ATOM     79  C   UNL A   1      35.743  34.854  29.259  1.00  0.00     0.059 A 
ATOM     80  F   UNL A   1      38.031  34.360  29.414  1.00  0.00    -0.206 F 
ATOM     81  C   UNL A   1      34.446  34.686  29.743  1.00  0.00     0.060 A 
BRANCH  81  82
ATOM     82  S   UNL A   1      33.066  35.553  28.965  1.00  0.00     0.124 S 
ATOM     83  O   UNL A   1      33.761  36.582  28.199  1.00  0.00    -0.237 OA
ATOM     84  O   UNL A   1      32.436  34.491  28.186  1.00  0.00    -0.237 OA
ATOM     85  O   UNL A   1      32.288  36.030  30.105  1.00  0.00    -0.744 OA
ENDBRANCH  81  82
ENDBRANCH  49  74
BRANCH  61  86
ATOM     86  C   UNL A   1      39.907  34.442  37.054  1.00  0.00     0.058 A 
ATOM     87  C   UNL A   1      40.580  35.672  36.986  1.00  0.00     0.135 A 
ATOM     88  C   UNL A   1      39.041  34.226  38.138  1.00  0.00     0.135 A 
ATOM     89  F   UNL A   1      41.424  35.925  35.973  1.00  0.00    -0.206 F 
ATOM     90  C   UNL A   1      40.414  36.645  37.966  1.00  0.00     0.059 A 
ATOM     91  C   UNL A   1      38.842  35.194  39.117  1.00  0.00     0.059 A 
ATOM     92  F   UNL A   1      38.365  33.071  38.244  1.00  0.00    -0.206 F 
ATOM     93  C   UNL A   1      39.542  36.397  39.028  1.00  0.00     0.060 A 
BRANCH  93  94
ATOM     94  S   UNL A   1      39.306  37.681  40.276  1.00  0.00     0.124 S 
ATOM     95  O   UNL A   1      40.629  38.295  40.319  1.00  0.00    -0.237 OA
ATOM     96  O   UNL A   1      38.246  38.497  39.692  1.00  0.00    -0.237 OA
ATOM     97  O   UNL A   1      38.924  36.929  41.468  1.00  0.00    -0.744 OA
ENDBRANCH  93  94
ENDBRANCH  61  86
ENDBRANCH  35  36
ENDBRANCH  28  30
ENDBRANCH  27  28
ENDBRANCH  26  27
ENDBRANCH   1  26
TORSDOF 19
ENDMDL
MODEL 3
REMARK VINA RESULT:     -10.8      4.938      6.700
REMARK SMILES Cc1cc(C[N@H+]2CCN(C)C(=O)C2(C)C)oc1C(=O)OCCOCCOC(=O)c1ccc(-c2c3nc(c(-c4c(F)cc(S(=O)(=O)[O-])cc4F)c4ccc([nH]4)c(-c4c(F)cc(S(=O)(=O)[O-])cc4F)c4nc(c(-c5c(F)cc(S(=O)(=O)[O-])cc5F)c5ccc2[nH]5)C=C4)C=C3)cc1
REMARK SMILES IDX 24 1 23 2 22 3 21 4 20 5 18 6 19 7 17 8 1 9 2 10 3 11 4 12
REMARK SMILES IDX 16 13 5 14 6 15 7 16 13 17 8 19 11 20 14 21 15 22 9 23 12 24
REMARK SMILES IDX 10 25 25 26 26 27 27 28 28 29 29 30 30 31 94 32 31 33 93 34
REMARK SMILES IDX 32 35 33 36 34 37 87 38 35 39 92 40 86 41 88 42 36 43 91 44
REMARK SMILES IDX 85 45 84 46 37 48 71 49 50 50 70 51 51 52 54 53 69 54 89 55
REMARK SMILES IDX 52 56 53 57 68 59 90 60 55 61 38 62 39 63 48 64 40 65 41 66
REMARK SMILES IDX 47 67 49 68 42 69 43 70 44 71 45 72 46 73 72 74 73 75 82 76
REMARK SMILES IDX 74 77 75 78 81 79 83 80 76 81 77 82 78 83 79 84 80 85 56 86
REMARK SMILES IDX 57 87 66 88 58 89 59 90 65 91 67 92 60 93 61 94 62 95 63 96
REMARK SMILES IDX 64 97
REMARK H PARENT 6 18 88 47 54 58
REMARK Flexibility Score: inf
ROOT
ATOM      1  C   UNL A   1      31.628  29.415  25.916  1.00  0.00     0.202 C 
ENDROOT
BRANCH   1   2
ATOM      2  O   UNL A   1      31.725  29.544  24.496  1.00  0.00    -0.374 OA
BRANCH   2   3
ATOM      3  C   UNL A   1      31.797  28.318  23.765  1.00  0.00     0.202 C 
BRANCH   3   4
ATOM      4  C   UNL A   1      32.536  27.210  24.520  1.00  0.00     0.261 C 
BRANCH   4   5
ATOM      5  O   UNL A   1      31.704  26.041  24.596  1.00  0.00    -0.457 OA
BRANCH   5   6
ATOM      6  C   UNL A   1      31.232  25.708  25.829  1.00  0.00     0.374 C 
ATOM      7  O   UNL A   1      30.368  26.331  26.435  1.00  0.00    -0.242 OA
BRANCH   6   8
ATOM      8  C   UNL A   1      31.819  24.455  26.259  1.00  0.00     0.215 A 
ATOM      9  C   UNL A   1      29.922  22.865  27.106  1.00  0.00     0.049 C 
ATOM     10  C   UNL A   1      31.316  23.266  26.777  1.00  0.00     0.003 A 
ATOM     11  C   UNL A   1      32.442  22.413  26.947  1.00  0.00     0.056 A 
ATOM     12  C   UNL A   1      33.570  23.161  26.698  1.00  0.00     0.159 A 
ATOM     13  O   UNL A   1      33.192  24.387  26.239  1.00  0.00    -0.448 OA
BRANCH  12  14
ATOM     14  C   UNL A   1      35.040  22.912  26.777  1.00  0.00     0.339 C 
BRANCH  14  15
ATOM     15  N   UNL A   1      35.861  23.222  25.590  1.00  0.00    -0.315 N 
ATOM     16  C   UNL A   1      36.982  24.125  25.871  1.00  0.00     0.285 C 
ATOM     17  C   UNL A   1      36.259  22.095  24.700  1.00  0.00     0.172 C 
ATOM     18  H   UNL A   1      35.181  23.722  25.018  1.00  0.00     0.349 HD
ATOM     19  C   UNL A   1      38.239  23.433  26.403  1.00  0.00     0.180 C 
ATOM     20  C   UNL A   1      37.548  21.363  25.188  1.00  0.00     0.283 C 
ATOM     21  C   UNL A   1      35.104  21.094  24.474  1.00  0.00     0.090 C 
ATOM     22  C   UNL A   1      36.616  22.641  23.294  1.00  0.00     0.090 C 
ATOM     23  N   UNL A   1      38.532  22.136  25.803  1.00  0.00    -0.335 N 
ATOM     24  O   UNL A   1      37.728  20.168  24.936  1.00  0.00    -0.268 OA
ATOM     25  C   UNL A   1      39.816  21.543  26.134  1.00  0.00     0.147 C 
ENDBRANCH  14  15
ENDBRANCH  12  14
ENDBRANCH   6   8
ENDBRANCH   5   6
ENDBRANCH   4   5
ENDBRANCH   3   4
ENDBRANCH   2   3
ENDBRANCH   1   2
BRANCH   1  26
ATOM     26  C   UNL A   1      32.355  30.519  26.688  1.00  0.00     0.261 C 
BRANCH  26  27
ATOM     27  O   UNL A   1      33.721  30.140  26.936  1.00  0.00    -0.460 OA
BRANCH  27  28
ATOM     28  C   UNL A   1      34.452  31.054  27.619  1.00  0.00     0.338 C 
ATOM     29  O   UNL A   1      34.102  32.175  27.947  1.00  0.00    -0.246 OA
BRANCH  28  30
ATOM     30  C   UNL A   1      35.718  30.441  28.076  1.00  0.00     0.060 A 
ATOM     31  C   UNL A   1      35.707  29.801  29.321  1.00  0.00     0.016 A 
ATOM     32  C   UNL A   1      36.899  30.520  27.333  1.00  0.00     0.016 A 
ATOM     33  C   UNL A   1      36.887  29.280  29.850  1.00  0.00     0.010 A 
ATOM     34  C   UNL A   1      38.084  30.001  27.867  1.00  0.00     0.010 A 
ATOM     35  C   UNL A   1      38.089  29.408  29.142  1.00  0.00    -0.014 A 
BRANCH  35  36
ATOM     36  C   UNL A   1      39.366  29.044  29.801  1.00  0.00     0.031 A 
ATOM     37  C   UNL A   1      39.802  29.809  31.022  1.00  0.00     0.074 A 
ATOM     38  C   UNL A   1      40.114  28.026  29.339  1.00  0.00     0.049 A 
ATOM     39  N   UNL A   1      40.881  29.670  31.746  1.00  0.00    -0.248 NA
ATOM     40  C   UNL A   1      38.897  30.874  31.487  1.00  0.00     0.031 C 
ATOM     41  C   UNL A   1      39.783  27.192  28.184  1.00  0.00     0.029 A 
ATOM     42  N   UNL A   1      41.310  27.524  29.788  1.00  0.00    -0.354 N 
ATOM     43  C   UNL A   1      40.789  30.625  32.750  1.00  0.00     0.074 A 
ATOM     44  C   UNL A   1      39.562  31.359  32.525  1.00  0.00     0.031 C 
ATOM     45  C   UNL A   1      40.762  26.287  28.007  1.00  0.00     0.029 A 
ATOM     46  C   UNL A   1      41.796  26.492  29.021  1.00  0.00     0.049 A 
ATOM     47  H   UNL A   1      41.776  27.870  30.582  1.00  0.00     0.167 HD
ATOM     48  C   UNL A   1      41.643  30.864  33.775  1.00  0.00     0.037 A 
ATOM     49  C   UNL A   1      42.950  25.804  29.117  1.00  0.00     0.037 A 
ATOM     50  C   UNL A   1      42.862  30.133  33.998  1.00  0.00     0.049 A 
ATOM     51  C   UNL A   1      43.912  26.122  30.231  1.00  0.00     0.074 A 
ATOM     52  C   UNL A   1      43.786  30.289  35.016  1.00  0.00     0.029 A 
ATOM     53  N   UNL A   1      43.331  29.110  33.187  1.00  0.00    -0.354 N 
ATOM     54  N   UNL A   1      43.801  27.013  31.188  1.00  0.00    -0.248 NA
ATOM     55  C   UNL A   1      45.155  25.340  30.282  1.00  0.00     0.031 C 
ATOM     56  C   UNL A   1      44.834  29.387  34.799  1.00  0.00     0.029 A 
ATOM     57  C   UNL A   1      44.541  28.639  33.669  1.00  0.00     0.049 A 
ATOM     58  H   UNL A   1      42.871  28.769  32.386  1.00  0.00     0.167 HD
ATOM     59  C   UNL A   1      44.946  26.883  31.966  1.00  0.00     0.074 A 
ATOM     60  C   UNL A   1      45.733  25.821  31.375  1.00  0.00     0.031 C 
ATOM     61  C   UNL A   1      45.311  27.577  33.072  1.00  0.00     0.037 A 
BRANCH  48  62
ATOM     62  C   UNL A   1      41.294  31.976  34.721  1.00  0.00     0.058 A 
ATOM     63  C   UNL A   1      41.784  33.279  34.540  1.00  0.00     0.135 A 
ATOM     64  C   UNL A   1      40.438  31.743  35.809  1.00  0.00     0.135 A 
ATOM     65  F   UNL A   1      42.621  33.550  33.525  1.00  0.00    -0.206 F 
ATOM     66  C   UNL A   1      41.461  34.306  35.420  1.00  0.00     0.059 A 
ATOM     67  C   UNL A   1      40.083  32.760  36.690  1.00  0.00     0.059 A 
ATOM     68  F   UNL A   1      39.944  30.514  36.030  1.00  0.00    -0.206 F 
ATOM     69  C   UNL A   1      40.611  34.036  36.494  1.00  0.00     0.060 A 
BRANCH  69  70
ATOM     70  S   UNL A   1      40.202  35.377  37.631  1.00  0.00     0.124 S 
ATOM     71  O   UNL A   1      39.886  36.458  36.703  1.00  0.00    -0.237 OA
ATOM     72  O   UNL A   1      39.072  34.828  38.373  1.00  0.00    -0.237 OA
ATOM     73  O   UNL A   1      41.428  35.552  38.403  1.00  0.00    -0.744 OA
ENDBRANCH  69  70
ENDBRANCH  48  62
BRANCH  49  74
ATOM     74  C   UNL A   1      43.267  24.748  28.120  1.00  0.00     0.058 A 
ATOM     75  C   UNL A   1      43.944  25.053  26.930  1.00  0.00     0.135 A 
ATOM     76  C   UNL A   1      42.901  23.411  28.342  1.00  0.00     0.135 A 
ATOM     77  F   UNL A   1      44.303  26.319  26.669  1.00  0.00    -0.206 F 
ATOM     78  C   UNL A   1      44.239  24.071  25.989  1.00  0.00     0.059 A 
ATOM     79  C   UNL A   1      43.205  22.409  27.427  1.00  0.00     0.059 A 
ATOM     80  F   UNL A   1      42.261  23.068  29.471  1.00  0.00    -0.206 F 
ATOM     81  C   UNL A   1      43.868  22.751  26.248  1.00  0.00     0.060 A 
BRANCH  81  82
ATOM     82  S   UNL A   1      44.306  21.473  25.049  1.00  0.00     0.124 S 
ATOM     83  O   UNL A   1      43.270  20.476  25.291  1.00  0.00    -0.237 OA
ATOM     84  O   UNL A   1      44.216  22.195  23.784  1.00  0.00    -0.237 OA
ATOM     85  O   UNL A   1      45.658  21.091  25.449  1.00  0.00    -0.744 OA
ENDBRANCH  81  82
ENDBRANCH  49  74
BRANCH  61  86
ATOM     86  C   UNL A   1      46.605  27.195  33.736  1.00  0.00     0.058 A 
ATOM     87  C   UNL A   1      46.656  26.218  34.741  1.00  0.00     0.135 A 
ATOM     88  C   UNL A   1      47.814  27.776  33.321  1.00  0.00     0.135 A 
ATOM     89  F   UNL A   1      45.527  25.636  35.176  1.00  0.00    -0.206 F 
ATOM     90  C   UNL A   1      47.860  25.842  35.328  1.00  0.00     0.059 A 
ATOM     91  C   UNL A   1      49.033  27.399  33.877  1.00  0.00     0.059 A 
ATOM     92  F   UNL A   1      47.821  28.708  32.355  1.00  0.00    -0.206 F 
ATOM     93  C   UNL A   1      49.044  26.439  34.888  1.00  0.00     0.060 A 
BRANCH  93  94
ATOM     94  S   UNL A   1      50.606  25.918  35.630  1.00  0.00     0.124 S 
ATOM     95  O   UNL A   1      51.562  26.770  34.929  1.00  0.00    -0.237 OA
ATOM     96  O   UNL A   1      50.401  26.223  37.042  1.00  0.00    -0.237 OA
ATOM     97  O   UNL A   1      50.677  24.496  35.307  1.00  0.00    -0.744 OA
ENDBRANCH  93  94
ENDBRANCH  61  86
ENDBRANCH  35  36
ENDBRANCH  28  30
ENDBRANCH  27  28
ENDBRANCH  26  27
ENDBRANCH   1  26
TORSDOF 19
ENDMDL
