MODEL 1
REMARK VINA RESULT:     -10.7      0.000      0.000
REMARK SMILES Cc1nc(C[NH2+][C@@H](C(=O)OCCOCCOC(=O)c2ccc(-c3c4nc(c(-c5c(F)cc(S(=O)(=O)[O-])cc5F)c5ccc([nH]5)c(-c5c(F)cc(S(=O)(=O)[O-])cc5F)c5nc(c(-c6c(F)cc(S(=O)(=O)[O-])cc6F)c6ccc3[nH]6)C=C5)C=C4)cc2)c2ccccc2)sc1C
REMARK SMILES IDX 13 1 12 2 11 3 10 4 8 5 9 6 7 7 6 8 5 11 4 12 1 13 2 14 3 15
REMARK SMILES IDX 92 16 91 17 93 18 85 19 86 20 90 21 87 22 89 23 88 24 14 25
REMARK SMILES IDX 15 26 16 27 17 28 18 29 19 30 20 31 84 32 21 33 83 34 22 35
REMARK SMILES IDX 23 36 24 37 77 38 25 39 82 40 76 41 78 42 26 43 81 44 75 45
REMARK SMILES IDX 74 46 27 48 61 49 40 50 60 51 41 52 44 53 59 54 79 55 42 56
REMARK SMILES IDX 43 57 58 59 80 60 45 61 28 62 29 63 38 64 30 65 31 66 37 67
REMARK SMILES IDX 39 68 32 69 33 70 34 71 35 72 36 73 62 74 63 75 72 76 64 77
REMARK SMILES IDX 65 78 71 79 73 80 66 81 67 82 68 83 69 84 70 85 46 86 47 87
REMARK SMILES IDX 56 88 48 89 49 90 55 91 57 92 50 93 51 94 52 95 53 96 54 97
REMARK H PARENT 6 9 6 10 78 47 44 58
REMARK Flexibility Score: inf
ROOT
ATOM      1  O   UNL A   1      37.953  22.833  25.836  1.00  0.00    -0.374 OA
ENDROOT
BRANCH   1   2
ATOM      2  C   UNL A   1      36.574  22.499  25.662  1.00  0.00     0.202 C 
BRANCH   2   3
ATOM      3  C   UNL A   1      35.877  23.080  24.430  1.00  0.00     0.261 C 
BRANCH   3   4
ATOM      4  O   UNL A   1      34.833  22.190  23.993  1.00  0.00    -0.459 OA
BRANCH   4   5
ATOM      5  C   UNL A   1      33.862  22.752  23.222  1.00  0.00     0.369 C 
ATOM      6  O   UNL A   1      34.102  23.440  22.233  1.00  0.00    -0.245 OA
BRANCH   5   7
ATOM      7  C   UNL A   1      32.415  22.403  23.684  1.00  0.00     0.325 C 
BRANCH   7   8
ATOM      8  N   UNL A   1      31.901  23.128  24.872  1.00  0.00    -0.325 N 
ATOM      9  H   UNL A   1      31.441  22.451  25.480  1.00  0.00     0.347 HD
ATOM     10  H   UNL A   1      32.710  23.577  25.303  1.00  0.00     0.347 HD
BRANCH   8  11
ATOM     11  C   UNL A   1      30.945  24.203  24.581  1.00  0.00     0.330 C 
BRANCH  11  12
ATOM     12  C   UNL A   1      31.560  25.563  24.836  1.00  0.00     0.148 A 
ATOM     13  C   UNL A   1      33.844  28.176  23.877  1.00  0.00     0.068 C 
ATOM     14  C   UNL A   1      32.822  27.381  24.603  1.00  0.00     0.052 A 
ATOM     15  N   UNL A   1      32.458  26.150  24.069  1.00  0.00    -0.240 NA
ATOM     16  C   UNL A   1      32.176  27.721  25.780  1.00  0.00     0.025 A 
ATOM     17  S   UNL A   1      31.111  26.462  26.223  1.00  0.00    -0.118 S 
ATOM     18  C   UNL A   1      32.310  28.945  26.619  1.00  0.00     0.058 C 
ENDBRANCH  11  12
ENDBRANCH   8  11
ENDBRANCH   7   8
BRANCH   7  19
ATOM     19  C   UNL A   1      32.341  20.881  23.891  1.00  0.00     0.021 A 
ATOM     20  C   UNL A   1      32.542  20.272  25.142  1.00  0.00     0.010 A 
ATOM     21  C   UNL A   1      32.214  20.048  22.765  1.00  0.00     0.010 A 
ATOM     22  C   UNL A   1      32.655  18.883  25.256  1.00  0.00     0.001 A 
ATOM     23  C   UNL A   1      32.321  18.660  22.882  1.00  0.00     0.001 A 
ATOM     24  C   UNL A   1      32.555  18.079  24.126  1.00  0.00     0.000 A 
ENDBRANCH   7  19
ENDBRANCH   5   7
ENDBRANCH   4   5
ENDBRANCH   3   4
ENDBRANCH   2   3
ENDBRANCH   1   2
BRANCH   1  25
ATOM     25  C   UNL A   1      38.886  21.757  25.873  1.00  0.00     0.202 C 
BRANCH  25  26
ATOM     26  C   UNL A   1      40.234  22.006  26.564  1.00  0.00     0.261 C 
BRANCH  26  27
ATOM     27  O   UNL A   1      40.239  23.174  27.398  1.00  0.00    -0.460 OA
BRANCH  27  28
ATOM     28  C   UNL A   1      41.142  24.125  27.044  1.00  0.00     0.338 C 
ATOM     29  O   UNL A   1      41.903  24.101  26.087  1.00  0.00    -0.246 OA
BRANCH  28  30
ATOM     30  C   UNL A   1      40.949  25.312  27.893  1.00  0.00     0.060 A 
ATOM     31  C   UNL A   1      42.013  26.208  28.048  1.00  0.00     0.016 A 
ATOM     32  C   UNL A   1      39.743  25.528  28.554  1.00  0.00     0.016 A 
ATOM     33  C   UNL A   1      41.872  27.323  28.875  1.00  0.00     0.010 A 
ATOM     34  C   UNL A   1      39.589  26.661  29.354  1.00  0.00     0.010 A 
ATOM     35  C   UNL A   1      40.665  27.547  29.551  1.00  0.00    -0.014 A 
BRANCH  35  36
ATOM     36  C   UNL A   1      40.561  28.598  30.595  1.00  0.00     0.031 A 
ATOM     37  C   UNL A   1      41.466  28.505  31.796  1.00  0.00     0.074 A 
ATOM     38  C   UNL A   1      39.677  29.607  30.488  1.00  0.00     0.049 A 
ATOM     39  N   UNL A   1      41.476  29.227  32.886  1.00  0.00    -0.248 NA
ATOM     40  C   UNL A   1      42.484  27.441  31.771  1.00  0.00     0.031 C 
ATOM     41  C   UNL A   1      38.768  29.822  29.363  1.00  0.00     0.029 A 
ATOM     42  N   UNL A   1      39.389  30.634  31.353  1.00  0.00    -0.354 N 
ATOM     43  C   UNL A   1      42.480  28.689  33.684  1.00  0.00     0.074 A 
ATOM     44  C   UNL A   1      43.028  27.557  32.972  1.00  0.00     0.031 C 
ATOM     45  C   UNL A   1      38.018  30.911  29.610  1.00  0.00     0.029 A 
ATOM     46  C   UNL A   1      38.362  31.443  30.926  1.00  0.00     0.049 A 
ATOM     47  H   UNL A   1      39.872  30.777  32.198  1.00  0.00     0.167 HD
ATOM     48  C   UNL A   1      42.915  29.109  34.896  1.00  0.00     0.037 A 
ATOM     49  C   UNL A   1      37.753  32.477  31.542  1.00  0.00     0.037 A 
ATOM     50  C   UNL A   1      42.380  30.252  35.588  1.00  0.00     0.049 A 
ATOM     51  C   UNL A   1      38.221  32.899  32.912  1.00  0.00     0.074 A 
ATOM     52  C   UNL A   1      42.771  30.779  36.805  1.00  0.00     0.029 A 
ATOM     53  N   UNL A   1      41.339  31.043  35.123  1.00  0.00    -0.354 N 
ATOM     54  N   UNL A   1      39.181  32.391  33.650  1.00  0.00    -0.248 NA
ATOM     55  C   UNL A   1      37.524  34.033  33.535  1.00  0.00     0.031 C 
ATOM     56  C   UNL A   1      41.932  31.858  37.102  1.00  0.00     0.029 A 
ATOM     57  C   UNL A   1      41.060  32.041  36.041  1.00  0.00     0.049 A 
ATOM     58  H   UNL A   1      40.869  30.914  34.268  1.00  0.00     0.167 HD
ATOM     59  C   UNL A   1      39.226  33.167  34.803  1.00  0.00     0.074 A 
ATOM     60  C   UNL A   1      38.201  34.181  34.665  1.00  0.00     0.031 C 
ATOM     61  C   UNL A   1      40.046  33.054  35.880  1.00  0.00     0.037 A 
BRANCH  48  62
ATOM     62  C   UNL A   1      44.010  28.317  35.557  1.00  0.00     0.058 A 
ATOM     63  C   UNL A   1      43.736  27.265  36.444  1.00  0.00     0.135 A 
ATOM     64  C   UNL A   1      45.358  28.599  35.275  1.00  0.00     0.135 A 
ATOM     65  F   UNL A   1      42.466  26.965  36.766  1.00  0.00    -0.206 F 
ATOM     66  C   UNL A   1      44.755  26.539  37.051  1.00  0.00     0.059 A 
ATOM     67  C   UNL A   1      46.393  27.865  35.845  1.00  0.00     0.059 A 
ATOM     68  F   UNL A   1      45.679  29.597  34.437  1.00  0.00    -0.206 F 
ATOM     69  C   UNL A   1      46.081  26.846  36.744  1.00  0.00     0.060 A 
BRANCH  69  70
ATOM     70  S   UNL A   1      47.393  25.890  37.534  1.00  0.00     0.124 S 
ATOM     71  O   UNL A   1      47.469  24.723  36.660  1.00  0.00    -0.237 OA
ATOM     72  O   UNL A   1      48.527  26.806  37.469  1.00  0.00    -0.237 OA
ATOM     73  O   UNL A   1      46.871  25.637  38.873  1.00  0.00    -0.744 OA
ENDBRANCH  69  70
ENDBRANCH  48  62
BRANCH  49  74
ATOM     74  C   UNL A   1      36.628  33.187  30.871  1.00  0.00     0.058 A 
ATOM     75  C   UNL A   1      36.864  34.102  29.835  1.00  0.00     0.135 A 
ATOM     76  C   UNL A   1      35.295  32.967  31.256  1.00  0.00     0.135 A 
ATOM     77  F   UNL A   1      38.121  34.356  29.439  1.00  0.00    -0.206 F 
ATOM     78  C   UNL A   1      35.824  34.784  29.212  1.00  0.00     0.059 A 
ATOM     79  C   UNL A   1      34.236  33.615  30.629  1.00  0.00     0.059 A 
ATOM     80  F   UNL A   1      35.013  32.094  32.236  1.00  0.00    -0.206 F 
ATOM     81  C   UNL A   1      34.511  34.531  29.614  1.00  0.00     0.060 A 
BRANCH  81  82
ATOM     82  S   UNL A   1      33.166  35.384  28.763  1.00  0.00     0.124 S 
ATOM     83  O   UNL A   1      32.433  35.964  29.881  1.00  0.00    -0.237 OA
ATOM     84  O   UNL A   1      33.891  36.326  27.916  1.00  0.00    -0.237 OA
ATOM     85  O   UNL A   1      32.485  34.308  28.050  1.00  0.00    -0.744 OA
ENDBRANCH  81  82
ENDBRANCH  49  74
BRANCH  61  86
ATOM     86  C   UNL A   1      39.912  34.081  36.972  1.00  0.00     0.058 A 
ATOM     87  C   UNL A   1      40.545  35.330  36.901  1.00  0.00     0.135 A 
ATOM     88  C   UNL A   1      39.077  33.831  38.075  1.00  0.00     0.135 A 
ATOM     89  F   UNL A   1      41.356  35.620  35.872  1.00  0.00    -0.206 F 
ATOM     90  C   UNL A   1      40.375  36.289  37.897  1.00  0.00     0.059 A 
ATOM     91  C   UNL A   1      38.867  34.787  39.065  1.00  0.00     0.059 A 
ATOM     92  F   UNL A   1      38.436  32.657  38.186  1.00  0.00    -0.206 F 
ATOM     93  C   UNL A   1      39.530  36.009  38.972  1.00  0.00     0.060 A 
BRANCH  93  94
ATOM     94  S   UNL A   1      39.285  37.278  40.234  1.00  0.00     0.124 S 
ATOM     95  O   UNL A   1      38.479  38.257  39.513  1.00  0.00    -0.237 OA
ATOM     96  O   UNL A   1      38.596  36.540  41.287  1.00  0.00    -0.237 OA
ATOM     97  O   UNL A   1      40.644  37.701  40.559  1.00  0.00    -0.744 OA
ENDBRANCH  93  94
ENDBRANCH  61  86
ENDBRANCH  35  36
ENDBRANCH  28  30
ENDBRANCH  27  28
ENDBRANCH  26  27
ENDBRANCH  25  26
ENDBRANCH   1  25
TORSDOF 21
ENDMDL
MODEL 2
REMARK VINA RESULT:     -10.6      6.495     11.917
REMARK SMILES Cc1nc(C[NH2+][C@@H](C(=O)OCCOCCOC(=O)c2ccc(-c3c4nc(c(-c5c(F)cc(S(=O)(=O)[O-])cc5F)c5ccc([nH]5)c(-c5c(F)cc(S(=O)(=O)[O-])cc5F)c5nc(c(-c6c(F)cc(S(=O)(=O)[O-])cc6F)c6ccc3[nH]6)C=C5)C=C4)cc2)c2ccccc2)sc1C
REMARK SMILES IDX 13 1 12 2 11 3 10 4 8 5 9 6 7 7 6 8 5 11 4 12 1 13 2 14 3 15
REMARK SMILES IDX 92 16 91 17 93 18 85 19 86 20 90 21 87 22 89 23 88 24 14 25
REMARK SMILES IDX 15 26 16 27 17 28 18 29 19 30 20 31 84 32 21 33 83 34 22 35
REMARK SMILES IDX 23 36 24 37 77 38 25 39 82 40 76 41 78 42 26 43 81 44 75 45
REMARK SMILES IDX 74 46 27 48 61 49 40 50 60 51 41 52 44 53 59 54 79 55 42 56
REMARK SMILES IDX 43 57 58 59 80 60 45 61 28 62 29 63 38 64 30 65 31 66 37 67
REMARK SMILES IDX 39 68 32 69 33 70 34 71 35 72 36 73 62 74 63 75 72 76 64 77
REMARK SMILES IDX 65 78 71 79 73 80 66 81 67 82 68 83 69 84 70 85 46 86 47 87
REMARK SMILES IDX 56 88 48 89 49 90 55 91 57 92 50 93 51 94 52 95 53 96 54 97
REMARK H PARENT 6 9 6 10 78 47 44 58
REMARK Flexibility Score: inf
ROOT
ATOM      1  O   UNL A   1      34.204  30.831  27.364  1.00  0.00    -0.374 OA
ENDROOT
BRANCH   1   2
ATOM      2  C   UNL A   1      33.192  29.838  27.181  1.00  0.00     0.202 C 
BRANCH   2   3
ATOM      3  C   UNL A   1      33.436  28.803  26.081  1.00  0.00     0.261 C 
BRANCH   3   4
ATOM      4  O   UNL A   1      32.906  27.526  26.484  1.00  0.00    -0.459 OA
BRANCH   4   5
ATOM      5  C   UNL A   1      32.129  26.892  25.564  1.00  0.00     0.369 C 
ATOM      6  O   UNL A   1      31.021  26.429  25.823  1.00  0.00    -0.245 OA
BRANCH   5   7
ATOM      7  C   UNL A   1      32.756  26.849  24.138  1.00  0.00     0.325 C 
BRANCH   7   8
ATOM      8  N   UNL A   1      31.886  27.269  23.012  1.00  0.00    -0.325 N 
ATOM      9  H   UNL A   1      32.070  26.650  22.223  1.00  0.00     0.347 HD
ATOM     10  H   UNL A   1      30.928  27.212  23.358  1.00  0.00     0.347 HD
BRANCH   8  11
ATOM     11  C   UNL A   1      32.075  28.652  22.560  1.00  0.00     0.330 C 
BRANCH  11  12
ATOM     12  C   UNL A   1      30.760  29.404  22.541  1.00  0.00     0.148 A 
ATOM     13  C   UNL A   1      28.028  30.852  20.697  1.00  0.00     0.068 C 
ATOM     14  C   UNL A   1      28.922  30.412  21.799  1.00  0.00     0.052 A 
ATOM     15  N   UNL A   1      30.069  29.704  21.460  1.00  0.00    -0.240 NA
ATOM     16  C   UNL A   1      28.751  30.633  23.155  1.00  0.00     0.025 A 
ATOM     17  S   UNL A   1      30.065  29.952  24.007  1.00  0.00    -0.118 S 
ATOM     18  C   UNL A   1      27.654  31.342  23.873  1.00  0.00     0.058 C 
ENDBRANCH  11  12
ENDBRANCH   8  11
ENDBRANCH   7   8
BRANCH   7  19
ATOM     19  C   UNL A   1      33.309  25.431  23.910  1.00  0.00     0.021 A 
ATOM     20  C   UNL A   1      34.407  24.918  24.622  1.00  0.00     0.010 A 
ATOM     21  C   UNL A   1      32.796  24.664  22.849  1.00  0.00     0.010 A 
ATOM     22  C   UNL A   1      34.998  23.705  24.259  1.00  0.00     0.001 A 
ATOM     23  C   UNL A   1      33.383  23.449  22.491  1.00  0.00     0.001 A 
ATOM     24  C   UNL A   1      34.492  22.975  23.187  1.00  0.00     0.000 A 
ENDBRANCH   7  19
ENDBRANCH   5   7
ENDBRANCH   4   5
ENDBRANCH   3   4
ENDBRANCH   2   3
ENDBRANCH   1   2
BRANCH   1  25
ATOM     25  C   UNL A   1      33.818  32.047  27.997  1.00  0.00     0.202 C 
BRANCH  25  26
ATOM     26  C   UNL A   1      34.717  32.583  29.120  1.00  0.00     0.261 C 
BRANCH  26  27
ATOM     27  O   UNL A   1      36.067  32.103  29.046  1.00  0.00    -0.460 OA
BRANCH  27  28
ATOM     28  C   UNL A   1      36.465  31.353  30.106  1.00  0.00     0.338 C 
ATOM     29  O   UNL A   1      35.836  31.127  31.130  1.00  0.00    -0.246 OA
BRANCH  28  30
ATOM     30  C   UNL A   1      37.728  30.673  29.768  1.00  0.00     0.060 A 
ATOM     31  C   UNL A   1      38.619  30.358  30.800  1.00  0.00     0.016 A 
ATOM     32  C   UNL A   1      38.045  30.375  28.446  1.00  0.00     0.016 A 
ATOM     33  C   UNL A   1      39.838  29.747  30.507  1.00  0.00     0.010 A 
ATOM     34  C   UNL A   1      39.249  29.732  28.154  1.00  0.00     0.010 A 
ATOM     35  C   UNL A   1      40.171  29.448  29.179  1.00  0.00    -0.014 A 
BRANCH  35  36
ATOM     36  C   UNL A   1      41.541  28.999  28.821  1.00  0.00     0.031 A 
ATOM     37  C   UNL A   1      42.651  30.017  28.819  1.00  0.00     0.074 A 
ATOM     38  C   UNL A   1      41.795  27.718  28.494  1.00  0.00     0.049 A 
ATOM     39  N   UNL A   1      43.892  29.892  28.427  1.00  0.00    -0.248 NA
ATOM     40  C   UNL A   1      42.308  31.364  29.308  1.00  0.00     0.031 C 
ATOM     41  C   UNL A   1      40.813  26.635  28.486  1.00  0.00     0.029 A 
ATOM     42  N   UNL A   1      42.961  27.117  28.087  1.00  0.00    -0.354 N 
ATOM     43  C   UNL A   1      44.468  31.147  28.597  1.00  0.00     0.074 A 
ATOM     44  C   UNL A   1      43.432  32.028  29.088  1.00  0.00     0.031 C 
ATOM     45  C   UNL A   1      41.417  25.501  28.087  1.00  0.00     0.029 A 
ATOM     46  C   UNL A   1      42.815  25.787  27.770  1.00  0.00     0.049 A 
ATOM     47  H   UNL A   1      43.820  27.594  28.028  1.00  0.00     0.167 HD
ATOM     48  C   UNL A   1      45.749  31.527  28.376  1.00  0.00     0.037 A 
ATOM     49  C   UNL A   1      43.701  24.910  27.257  1.00  0.00     0.037 A 
ATOM     50  C   UNL A   1      46.780  30.639  27.910  1.00  0.00     0.049 A 
ATOM     51  C   UNL A   1      45.110  25.367  26.973  1.00  0.00     0.074 A 
ATOM     52  C   UNL A   1      48.116  30.917  27.684  1.00  0.00     0.029 A 
ATOM     53  N   UNL A   1      46.591  29.300  27.598  1.00  0.00    -0.354 N 
ATOM     54  N   UNL A   1      45.646  26.551  27.152  1.00  0.00    -0.248 NA
ATOM     55  C   UNL A   1      46.036  24.369  26.418  1.00  0.00     0.031 C 
ATOM     56  C   UNL A   1      48.724  29.761  27.185  1.00  0.00     0.029 A 
ATOM     57  C   UNL A   1      47.781  28.745  27.160  1.00  0.00     0.049 A 
ATOM     58  H   UNL A   1      45.737  28.817  27.677  1.00  0.00     0.167 HD
ATOM     59  C   UNL A   1      46.978  26.430  26.768  1.00  0.00     0.074 A 
ATOM     60  C   UNL A   1      47.167  25.056  26.351  1.00  0.00     0.031 C 
ATOM     61  C   UNL A   1      47.957  27.370  26.764  1.00  0.00     0.037 A 
BRANCH  48  62
ATOM     62  C   UNL A   1      46.100  32.970  28.620  1.00  0.00     0.058 A 
ATOM     63  C   UNL A   1      46.480  33.440  29.887  1.00  0.00     0.135 A 
ATOM     64  C   UNL A   1      46.084  33.892  27.559  1.00  0.00     0.135 A 
ATOM     65  F   UNL A   1      46.493  32.608  30.941  1.00  0.00    -0.206 F 
ATOM     66  C   UNL A   1      46.802  34.776  30.102  1.00  0.00     0.059 A 
ATOM     67  C   UNL A   1      46.433  35.226  27.744  1.00  0.00     0.059 A 
ATOM     68  F   UNL A   1      45.725  33.499  26.327  1.00  0.00    -0.206 F 
ATOM     69  C   UNL A   1      46.777  35.661  29.022  1.00  0.00     0.060 A 
BRANCH  69  70
ATOM     70  S   UNL A   1      47.204  37.390  29.316  1.00  0.00     0.124 S 
ATOM     71  O   UNL A   1      47.063  37.481  30.767  1.00  0.00    -0.237 OA
ATOM     72  O   UNL A   1      48.569  37.464  28.806  1.00  0.00    -0.237 OA
ATOM     73  O   UNL A   1      46.208  38.124  28.543  1.00  0.00    -0.744 OA
ENDBRANCH  69  70
ENDBRANCH  48  62
BRANCH  49  74
ATOM     74  C   UNL A   1      43.285  23.509  26.972  1.00  0.00     0.058 A 
ATOM     75  C   UNL A   1      43.129  22.575  28.007  1.00  0.00     0.135 A 
ATOM     76  C   UNL A   1      43.038  23.074  25.660  1.00  0.00     0.135 A 
ATOM     77  F   UNL A   1      43.365  22.937  29.278  1.00  0.00    -0.206 F 
ATOM     78  C   UNL A   1      42.758  21.258  27.753  1.00  0.00     0.059 A 
ATOM     79  C   UNL A   1      42.638  21.770  25.383  1.00  0.00     0.059 A 
ATOM     80  F   UNL A   1      43.164  23.929  24.633  1.00  0.00    -0.206 F 
ATOM     81  C   UNL A   1      42.510  20.866  26.436  1.00  0.00     0.060 A 
BRANCH  81  82
ATOM     82  S   UNL A   1      41.979  19.169  26.124  1.00  0.00     0.124 S 
ATOM     83  O   UNL A   1      42.832  18.795  25.003  1.00  0.00    -0.237 OA
ATOM     84  O   UNL A   1      42.275  18.519  27.397  1.00  0.00    -0.237 OA
ATOM     85  O   UNL A   1      40.559  19.313  25.818  1.00  0.00    -0.744 OA
ENDBRANCH  81  82
ENDBRANCH  49  74
BRANCH  61  86
ATOM     86  C   UNL A   1      49.339  26.939  26.348  1.00  0.00     0.058 A 
ATOM     87  C   UNL A   1      50.275  26.449  27.271  1.00  0.00     0.135 A 
ATOM     88  C   UNL A   1      49.703  26.955  24.991  1.00  0.00     0.135 A 
ATOM     89  F   UNL A   1      49.980  26.416  28.580  1.00  0.00    -0.206 F 
ATOM     90  C   UNL A   1      51.532  26.010  26.866  1.00  0.00     0.059 A 
ATOM     91  C   UNL A   1      50.942  26.491  24.561  1.00  0.00     0.059 A 
ATOM     92  F   UNL A   1      48.841  27.402  24.065  1.00  0.00    -0.206 F 
ATOM     93  C   UNL A   1      51.855  26.031  25.509  1.00  0.00     0.060 A 
BRANCH  93  94
ATOM     94  S   UNL A   1      53.474  25.419  24.994  1.00  0.00     0.124 S 
ATOM     95  O   UNL A   1      53.371  24.002  25.324  1.00  0.00    -0.237 OA
ATOM     96  O   UNL A   1      53.490  25.740  23.570  1.00  0.00    -0.237 OA
ATOM     97  O   UNL A   1      54.405  26.188  25.813  1.00  0.00    -0.744 OA
ENDBRANCH  93  94
ENDBRANCH  61  86
ENDBRANCH  35  36
ENDBRANCH  28  30
ENDBRANCH  27  28
ENDBRANCH  26  27
ENDBRANCH  25  26
ENDBRANCH   1  25
TORSDOF 21
ENDMDL
MODEL 3
REMARK VINA RESULT:     -10.5      6.274     10.768
REMARK SMILES Cc1nc(C[NH2+][C@@H](C(=O)OCCOCCOC(=O)c2ccc(-c3c4nc(c(-c5c(F)cc(S(=O)(=O)[O-])cc5F)c5ccc([nH]5)c(-c5c(F)cc(S(=O)(=O)[O-])cc5F)c5nc(c(-c6c(F)cc(S(=O)(=O)[O-])cc6F)c6ccc3[nH]6)C=C5)C=C4)cc2)c2ccccc2)sc1C
REMARK SMILES IDX 13 1 12 2 11 3 10 4 8 5 9 6 7 7 6 8 5 11 4 12 1 13 2 14 3 15
REMARK SMILES IDX 92 16 91 17 93 18 85 19 86 20 90 21 87 22 89 23 88 24 14 25
REMARK SMILES IDX 15 26 16 27 17 28 18 29 19 30 20 31 84 32 21 33 83 34 22 35
REMARK SMILES IDX 23 36 24 37 77 38 25 39 82 40 76 41 78 42 26 43 81 44 75 45
REMARK SMILES IDX 74 46 27 48 61 49 40 50 60 51 41 52 44 53 59 54 79 55 42 56
REMARK SMILES IDX 43 57 58 59 80 60 45 61 28 62 29 63 38 64 30 65 31 66 37 67
REMARK SMILES IDX 39 68 32 69 33 70 34 71 35 72 36 73 62 74 63 75 72 76 64 77
REMARK SMILES IDX 65 78 71 79 73 80 66 81 67 82 68 83 69 84 70 85 46 86 47 87
REMARK SMILES IDX 56 88 48 89 49 90 55 91 57 92 50 93 51 94 52 95 53 96 54 97
REMARK H PARENT 6 9 6 10 78 47 44 58
REMARK Flexibility Score: inf
ROOT
ATOM      1  O   UNL A   1      37.473  22.690  26.104  1.00  0.00    -0.374 OA
ENDROOT
BRANCH   1   2
ATOM      2  C   UNL A   1      36.865  23.306  24.966  1.00  0.00     0.202 C 
BRANCH   2   3
ATOM      3  C   UNL A   1      36.080  22.389  24.026  1.00  0.00     0.261 C 
BRANCH   3   4
ATOM      4  O   UNL A   1      34.848  21.985  24.652  1.00  0.00    -0.459 OA
BRANCH   4   5
ATOM      5  C   UNL A   1      33.709  22.375  24.018  1.00  0.00     0.369 C 
ATOM      6  O   UNL A   1      33.694  23.192  23.101  1.00  0.00    -0.245 OA
BRANCH   5   7
ATOM      7  C   UNL A   1      32.427  21.654  24.535  1.00  0.00     0.325 C 
BRANCH   7   8
ATOM      8  N   UNL A   1      32.012  21.948  25.929  1.00  0.00    -0.325 N 
ATOM      9  H   UNL A   1      31.940  21.063  26.430  1.00  0.00     0.347 HD
ATOM     10  H   UNL A   1      32.720  22.575  26.310  1.00  0.00     0.347 HD
BRANCH   8  11
ATOM     11  C   UNL A   1      30.730  22.651  26.062  1.00  0.00     0.330 C 
BRANCH  11  12
ATOM     12  C   UNL A   1      30.895  24.136  25.815  1.00  0.00     0.148 A 
ATOM     13  C   UNL A   1      31.887  27.395  26.980  1.00  0.00     0.068 C 
ATOM     14  C   UNL A   1      31.382  26.283  26.136  1.00  0.00     0.052 A 
ATOM     15  N   UNL A   1      31.389  25.003  26.677  1.00  0.00    -0.240 NA
ATOM     16  C   UNL A   1      30.886  26.369  24.846  1.00  0.00     0.025 A 
ATOM     17  S   UNL A   1      30.408  24.816  24.321  1.00  0.00    -0.118 S 
ATOM     18  C   UNL A   1      30.732  27.560  23.963  1.00  0.00     0.058 C 
ENDBRANCH  11  12
ENDBRANCH   8  11
ENDBRANCH   7   8
BRANCH   7  19
ATOM     19  C   UNL A   1      32.619  20.143  24.323  1.00  0.00     0.021 A 
ATOM     20  C   UNL A   1      32.442  19.520  23.075  1.00  0.00     0.010 A 
ATOM     21  C   UNL A   1      32.836  19.321  25.443  1.00  0.00     0.010 A 
ATOM     22  C   UNL A   1      32.440  18.128  22.959  1.00  0.00     0.001 A 
ATOM     23  C   UNL A   1      32.840  17.930  25.325  1.00  0.00     0.001 A 
ATOM     24  C   UNL A   1      32.628  17.333  24.085  1.00  0.00     0.000 A 
ENDBRANCH   7  19
ENDBRANCH   5   7
ENDBRANCH   4   5
ENDBRANCH   3   4
ENDBRANCH   2   3
ENDBRANCH   1   2
BRANCH   1  25
ATOM     25  C   UNL A   1      38.822  22.256  25.969  1.00  0.00     0.202 C 
BRANCH  25  26
ATOM     26  C   UNL A   1      39.070  20.759  25.736  1.00  0.00     0.261 C 
BRANCH  26  27
ATOM     27  O   UNL A   1      39.925  20.163  26.722  1.00  0.00    -0.460 OA
BRANCH  27  28
ATOM     28  C   UNL A   1      41.196  19.927  26.307  1.00  0.00     0.338 C 
ATOM     29  O   UNL A   1      41.603  18.957  25.684  1.00  0.00    -0.246 OA
BRANCH  28  30
ATOM     30  C   UNL A   1      42.015  21.125  26.560  1.00  0.00     0.060 A 
ATOM     31  C   UNL A   1      42.264  21.503  27.884  1.00  0.00     0.016 A 
ATOM     32  C   UNL A   1      42.511  21.886  25.504  1.00  0.00     0.016 A 
ATOM     33  C   UNL A   1      43.006  22.653  28.154  1.00  0.00     0.010 A 
ATOM     34  C   UNL A   1      43.282  23.017  25.772  1.00  0.00     0.010 A 
ATOM     35  C   UNL A   1      43.503  23.431  27.099  1.00  0.00    -0.014 A 
BRANCH  35  36
ATOM     36  C   UNL A   1      44.107  24.763  27.355  1.00  0.00     0.031 A 
ATOM     37  C   UNL A   1      43.210  25.875  27.834  1.00  0.00     0.074 A 
ATOM     38  C   UNL A   1      45.419  24.988  27.158  1.00  0.00     0.049 A 
ATOM     39  N   UNL A   1      43.478  27.143  28.007  1.00  0.00    -0.248 NA
ATOM     40  C   UNL A   1      41.817  25.508  28.141  1.00  0.00     0.031 C 
ATOM     41  C   UNL A   1      46.394  23.988  26.724  1.00  0.00     0.029 A 
ATOM     42  N   UNL A   1      46.154  26.142  27.281  1.00  0.00    -0.354 N 
ATOM     43  C   UNL A   1      42.285  27.728  28.416  1.00  0.00     0.074 A 
ATOM     44  C   UNL A   1      41.282  26.686  28.426  1.00  0.00     0.031 C 
ATOM     45  C   UNL A   1      47.599  24.574  26.612  1.00  0.00     0.029 A 
ATOM     46  C   UNL A   1      47.473  25.997  26.922  1.00  0.00     0.049 A 
ATOM     47  H   UNL A   1      45.772  26.992  27.598  1.00  0.00     0.167 HD
ATOM     48  C   UNL A   1      42.048  29.015  28.765  1.00  0.00     0.037 A 
ATOM     49  C   UNL A   1      48.457  26.914  26.829  1.00  0.00     0.037 A 
ATOM     50  C   UNL A   1      43.057  30.041  28.775  1.00  0.00     0.049 A 
ATOM     51  C   UNL A   1      48.161  28.352  27.176  1.00  0.00     0.074 A 
ATOM     52  C   UNL A   1      42.928  31.368  29.142  1.00  0.00     0.029 A 
ATOM     53  N   UNL A   1      44.380  29.854  28.402  1.00  0.00    -0.354 N 
ATOM     54  N   UNL A   1      47.032  28.889  27.575  1.00  0.00    -0.248 NA
ATOM     55  C   UNL A   1      49.271  29.308  27.060  1.00  0.00     0.031 C 
ATOM     56  C   UNL A   1      44.161  31.997  28.940  1.00  0.00     0.029 A 
ATOM     57  C   UNL A   1      45.073  31.048  28.508  1.00  0.00     0.049 A 
ATOM     58  H   UNL A   1      44.769  29.000  28.106  1.00  0.00     0.167 HD
ATOM     59  C   UNL A   1      47.306  30.235  27.794  1.00  0.00     0.074 A 
ATOM     60  C   UNL A   1      48.708  30.430  27.486  1.00  0.00     0.031 C 
ATOM     61  C   UNL A   1      46.475  31.221  28.215  1.00  0.00     0.037 A 
BRANCH  48  62
ATOM     62  C   UNL A   1      40.641  29.387  29.145  1.00  0.00     0.058 A 
ATOM     63  C   UNL A   1      40.270  29.629  30.478  1.00  0.00     0.135 A 
ATOM     64  C   UNL A   1      39.654  29.533  28.156  1.00  0.00     0.135 A 
ATOM     65  F   UNL A   1      41.167  29.484  31.467  1.00  0.00    -0.206 F 
ATOM     66  C   UNL A   1      38.966  29.972  30.820  1.00  0.00     0.059 A 
ATOM     67  C   UNL A   1      38.352  29.907  28.471  1.00  0.00     0.059 A 
ATOM     68  F   UNL A   1      39.952  29.311  26.866  1.00  0.00    -0.206 F 
ATOM     69  C   UNL A   1      38.014  30.110  29.808  1.00  0.00     0.060 A 
BRANCH  69  70
ATOM     70  S   UNL A   1      36.328  30.563  30.267  1.00  0.00     0.124 S 
ATOM     71  O   UNL A   1      35.607  30.295  29.026  1.00  0.00    -0.237 OA
ATOM     72  O   UNL A   1      36.051  29.650  31.371  1.00  0.00    -0.237 OA
ATOM     73  O   UNL A   1      36.441  31.971  30.635  1.00  0.00    -0.744 OA
ENDBRANCH  69  70
ENDBRANCH  48  62
BRANCH  49  74
ATOM     74  C   UNL A   1      49.818  26.505  26.383  1.00  0.00     0.058 A 
ATOM     75  C   UNL A   1      50.238  26.704  25.060  1.00  0.00     0.135 A 
ATOM     76  C   UNL A   1      50.726  25.905  27.271  1.00  0.00     0.135 A 
ATOM     77  F   UNL A   1      49.404  27.262  24.169  1.00  0.00    -0.206 F 
ATOM     78  C   UNL A   1      51.501  26.311  24.627  1.00  0.00     0.059 A 
ATOM     79  C   UNL A   1      52.004  25.530  26.870  1.00  0.00     0.059 A 
ATOM     80  F   UNL A   1      50.379  25.700  28.552  1.00  0.00    -0.206 F 
ATOM     81  C   UNL A   1      52.379  25.728  25.542  1.00  0.00     0.060 A 
BRANCH  81  82
ATOM     82  S   UNL A   1      54.033  25.270  24.981  1.00  0.00     0.124 S 
ATOM     83  O   UNL A   1      54.097  25.930  23.683  1.00  0.00    -0.237 OA
ATOM     84  O   UNL A   1      54.878  25.836  26.029  1.00  0.00    -0.237 OA
ATOM     85  O   UNL A   1      53.984  23.811  24.947  1.00  0.00    -0.744 OA
ENDBRANCH  81  82
ENDBRANCH  49  74
BRANCH  61  86
ATOM     86  C   UNL A   1      47.063  32.591  28.424  1.00  0.00     0.058 A 
ATOM     87  C   UNL A   1      47.692  32.956  29.623  1.00  0.00     0.135 A 
ATOM     88  C   UNL A   1      47.054  33.529  27.377  1.00  0.00     0.135 A 
ATOM     89  F   UNL A   1      47.725  32.101  30.656  1.00  0.00    -0.206 F 
ATOM     90  C   UNL A   1      48.273  34.211  29.786  1.00  0.00     0.059 A 
ATOM     91  C   UNL A   1      47.656  34.776  27.507  1.00  0.00     0.059 A 
ATOM     92  F   UNL A   1      46.476  33.227  26.204  1.00  0.00    -0.206 F 
ATOM     93  C   UNL A   1      48.254  35.112  28.721  1.00  0.00     0.060 A 
BRANCH  93  94
ATOM     94  S   UNL A   1      49.049  36.720  28.932  1.00  0.00     0.124 S 
ATOM     95  O   UNL A   1      50.051  36.420  29.949  1.00  0.00    -0.237 OA
ATOM     96  O   UNL A   1      49.563  36.991  27.594  1.00  0.00    -0.237 OA
ATOM     97  O   UNL A   1      47.956  37.585  29.365  1.00  0.00    -0.744 OA
ENDBRANCH  93  94
ENDBRANCH  61  86
ENDBRANCH  35  36
ENDBRANCH  28  30
ENDBRANCH  27  28
ENDBRANCH  26  27
ENDBRANCH  25  26
ENDBRANCH   1  25
TORSDOF 21
ENDMDL
