MODEL 1
REMARK VINA RESULT:     -12.3      0.000      0.000
REMARK SMILES Cc1nc(-c2ccccc2Cl)nc2sc(C(=O)OCCOCCOC(=O)c3ccc(-c4c5nc(c(-c6c(F)cc(S(=O)(=O)[O-])cc6F)c6ccc([nH]6)c(-c6c(F)cc(S(=O)(=O)[O-])cc6F)c6nc(c(-c7c(F)cc(S(=O)(=O)[O-])cc7F)c7ccc4[nH]7)C=C6)C=C5)cc3)c(N)c12
REMARK SMILES IDX 22 1 21 2 20 3 19 4 18 5 16 6 17 7 15 8 1 9 2 10 3 11 95 12
REMARK SMILES IDX 4 13 13 14 93 15 12 16 14 17 5 18 6 19 10 20 7 21 9 22 11 23
REMARK SMILES IDX 8 24 94 25 23 28 24 29 25 30 26 31 27 32 28 33 92 34 29 35
REMARK SMILES IDX 91 36 30 37 31 38 32 39 85 40 33 41 90 42 84 43 86 44 34 45
REMARK SMILES IDX 89 46 83 47 82 48 35 50 69 51 48 52 68 53 49 54 52 55 67 56
REMARK SMILES IDX 87 57 50 58 51 59 66 61 88 62 53 63 36 64 37 65 46 66 38 67
REMARK SMILES IDX 39 68 45 69 47 70 40 71 41 72 42 73 43 74 44 75 70 76 71 77
REMARK SMILES IDX 80 78 72 79 73 80 79 81 81 82 74 83 75 84 76 85 77 86 78 87
REMARK SMILES IDX 54 88 55 89 64 90 56 91 57 92 63 93 65 94 58 95 59 96 60 97
REMARK SMILES IDX 61 98 62 99
REMARK H PARENT 94 26 94 27 86 49 52 60
REMARK Flexibility Score: inf
ROOT
ATOM      1  C   UNL A   1      42.602  18.642  26.241  1.00  0.00     0.202 C 
ENDROOT
BRANCH   1   2
ATOM      2  O   UNL A   1      41.378  19.308  25.947  1.00  0.00    -0.374 OA
BRANCH   2   3
ATOM      3  C   UNL A   1      40.989  20.424  26.749  1.00  0.00     0.202 C 
BRANCH   3   4
ATOM      4  C   UNL A   1      40.305  21.582  26.021  1.00  0.00     0.261 C 
BRANCH   4   5
ATOM      5  O   UNL A   1      38.907  21.656  26.330  1.00  0.00    -0.459 OA
BRANCH   5   6
ATOM      6  C   UNL A   1      38.054  21.089  25.425  1.00  0.00     0.350 C 
ATOM      7  O   UNL A   1      38.229  19.999  24.899  1.00  0.00    -0.245 OA
BRANCH   6   8
ATOM      8  C   UNL A   1      36.852  21.891  25.281  1.00  0.00     0.138 A 
ATOM      9  C   UNL A   1      32.330  21.503  24.215  1.00  0.00     0.067 C 
ATOM     10  C   UNL A   1      33.259  22.645  24.494  1.00  0.00     0.052 A 
ATOM     11  N   UNL A   1      32.735  23.889  24.278  1.00  0.00    -0.233 NA
ATOM     12  C   UNL A   1      34.624  22.538  24.845  1.00  0.00     0.057 A 
ATOM     13  C   UNL A   1      33.500  24.977  24.467  1.00  0.00     0.162 A 
ATOM     14  C   UNL A   1      35.289  23.746  24.987  1.00  0.00     0.130 A 
ATOM     15  C   UNL A   1      35.551  21.455  25.078  1.00  0.00     0.069 A 
ATOM     16  N   UNL A   1      34.785  24.971  24.824  1.00  0.00    -0.217 NA
ATOM     17  S   UNL A   1      36.932  23.592  25.367  1.00  0.00    -0.106 S 
BRANCH  13  18
ATOM     18  C   UNL A   1      32.970  26.295  24.118  1.00  0.00     0.038 A 
ATOM     19  C   UNL A   1      33.469  26.931  22.956  1.00  0.00     0.013 A 
ATOM     20  C   UNL A   1      32.056  27.007  24.908  1.00  0.00     0.052 A 
ATOM     21  C   UNL A   1      33.091  28.228  22.608  1.00  0.00     0.001 A 
ATOM     22  C   UNL A   1      31.679  28.312  24.560  1.00  0.00     0.021 A 
ATOM     23  Cl  UNL A   1      31.397  26.362  26.373  1.00  0.00    -0.084 Cl
ATOM     24  C   UNL A   1      32.200  28.921  23.416  1.00  0.00     0.002 A 
ENDBRANCH  13  18
BRANCH  15  25
ATOM     25  N   UNL A   1      35.226  20.141  25.088  1.00  0.00    -0.397 N 
ATOM     26  H   UNL A   1      35.536  19.552  24.363  1.00  0.00     0.156 HD
ATOM     27  H   UNL A   1      34.680  19.775  25.821  1.00  0.00     0.156 HD
ENDBRANCH  15  25
ENDBRANCH   6   8
ENDBRANCH   5   6
ENDBRANCH   4   5
ENDBRANCH   3   4
ENDBRANCH   2   3
ENDBRANCH   1   2
BRANCH   1  28
ATOM     28  C   UNL A   1      43.714  18.689  25.205  1.00  0.00     0.261 C 
BRANCH  28  29
ATOM     29  O   UNL A   1      43.810  19.957  24.572  1.00  0.00    -0.460 OA
BRANCH  29  30
ATOM     30  C   UNL A   1      45.071  20.455  24.550  1.00  0.00     0.338 C 
ATOM     31  O   UNL A   1      46.103  19.824  24.447  1.00  0.00    -0.246 OA
BRANCH  30  32
ATOM     32  C   UNL A   1      45.004  21.886  24.868  1.00  0.00     0.060 A 
ATOM     33  C   UNL A   1      45.799  22.322  25.928  1.00  0.00     0.016 A 
ATOM     34  C   UNL A   1      43.999  22.696  24.312  1.00  0.00     0.016 A 
ATOM     35  C   UNL A   1      45.457  23.498  26.555  1.00  0.00     0.010 A 
ATOM     36  C   UNL A   1      43.657  23.870  24.943  1.00  0.00     0.010 A 
ATOM     37  C   UNL A   1      44.341  24.219  26.102  1.00  0.00    -0.014 A 
BRANCH  37  38
ATOM     38  C   UNL A   1      44.024  25.459  26.778  1.00  0.00     0.031 A 
ATOM     39  C   UNL A   1      45.053  26.485  26.500  1.00  0.00     0.074 A 
ATOM     40  C   UNL A   1      42.909  25.659  27.508  1.00  0.00     0.049 A 
ATOM     41  N   UNL A   1      46.041  26.804  27.266  1.00  0.00    -0.248 NA
ATOM     42  C   UNL A   1      45.168  27.011  25.129  1.00  0.00     0.031 C 
ATOM     43  C   UNL A   1      41.737  24.787  27.621  1.00  0.00     0.029 A 
ATOM     44  N   UNL A   1      42.556  26.739  28.260  1.00  0.00    -0.354 N 
ATOM     45  C   UNL A   1      46.718  27.808  26.585  1.00  0.00     0.074 A 
ATOM     46  C   UNL A   1      46.308  27.699  25.212  1.00  0.00     0.031 C 
ATOM     47  C   UNL A   1      40.721  25.474  28.197  1.00  0.00     0.029 A 
ATOM     48  C   UNL A   1      41.213  26.771  28.630  1.00  0.00     0.049 A 
ATOM     49  H   UNL A   1      43.197  27.439  28.521  1.00  0.00     0.167 HD
ATOM     50  C   UNL A   1      47.253  28.847  27.283  1.00  0.00     0.037 A 
ATOM     51  C   UNL A   1      40.567  27.811  29.221  1.00  0.00     0.037 A 
ATOM     52  C   UNL A   1      47.303  28.523  28.690  1.00  0.00     0.049 A 
ATOM     53  C   UNL A   1      41.611  28.618  29.901  1.00  0.00     0.074 A 
ATOM     54  C   UNL A   1      48.006  27.661  29.501  1.00  0.00     0.029 A 
ATOM     55  N   UNL A   1      46.181  28.909  29.376  1.00  0.00    -0.354 N 
ATOM     56  N   UNL A   1      42.308  28.184  30.917  1.00  0.00    -0.248 NA
ATOM     57  C   UNL A   1      42.168  29.776  29.211  1.00  0.00     0.031 C 
ATOM     58  C   UNL A   1      47.151  27.381  30.608  1.00  0.00     0.029 A 
ATOM     59  C   UNL A   1      45.976  28.122  30.470  1.00  0.00     0.049 A 
ATOM     60  H   UNL A   1      45.597  29.658  29.112  1.00  0.00     0.167 HD
ATOM     61  C   UNL A   1      43.568  28.721  30.727  1.00  0.00     0.074 A 
ATOM     62  C   UNL A   1      43.381  29.805  29.768  1.00  0.00     0.031 C 
ATOM     63  C   UNL A   1      44.681  28.033  31.115  1.00  0.00     0.037 A 
BRANCH  50  64
ATOM     64  C   UNL A   1      47.179  30.302  26.843  1.00  0.00     0.058 A 
ATOM     65  C   UNL A   1      48.337  31.099  26.987  1.00  0.00     0.135 A 
ATOM     66  C   UNL A   1      45.980  31.016  26.624  1.00  0.00     0.135 A 
ATOM     67  F   UNL A   1      49.537  30.531  27.189  1.00  0.00    -0.206 F 
ATOM     68  C   UNL A   1      48.289  32.492  27.021  1.00  0.00     0.059 A 
ATOM     69  C   UNL A   1      45.918  32.405  26.609  1.00  0.00     0.059 A 
ATOM     70  F   UNL A   1      44.789  30.424  26.505  1.00  0.00    -0.206 F 
ATOM     71  C   UNL A   1      47.068  33.135  26.848  1.00  0.00     0.060 A 
BRANCH  71  72
ATOM     72  S   UNL A   1      46.984  34.928  26.972  1.00  0.00     0.124 S 
ATOM     73  O   UNL A   1      48.368  35.303  26.708  1.00  0.00    -0.237 OA
ATOM     74  O   UNL A   1      46.019  35.254  25.927  1.00  0.00    -0.237 OA
ATOM     75  O   UNL A   1      46.519  35.147  28.339  1.00  0.00    -0.744 OA
ENDBRANCH  71  72
ENDBRANCH  50  64
BRANCH  51  76
ATOM     76  C   UNL A   1      39.203  28.349  28.949  1.00  0.00     0.058 A 
ATOM     77  C   UNL A   1      38.244  28.454  29.979  1.00  0.00     0.135 A 
ATOM     78  C   UNL A   1      38.914  29.061  27.769  1.00  0.00     0.135 A 
ATOM     79  F   UNL A   1      38.433  27.812  31.143  1.00  0.00    -0.206 F 
ATOM     80  C   UNL A   1      37.116  29.277  29.876  1.00  0.00     0.059 A 
ATOM     81  C   UNL A   1      37.792  29.882  27.641  1.00  0.00     0.059 A 
ATOM     82  F   UNL A   1      39.767  29.055  26.734  1.00  0.00    -0.206 F 
ATOM     83  C   UNL A   1      36.913  30.012  28.710  1.00  0.00     0.060 A 
BRANCH  83  84
ATOM     84  S   UNL A   1      35.566  31.220  28.642  1.00  0.00     0.124 S 
ATOM     85  O   UNL A   1      34.505  30.457  27.994  1.00  0.00    -0.237 OA
ATOM     86  O   UNL A   1      35.357  31.532  30.051  1.00  0.00    -0.237 OA
ATOM     87  O   UNL A   1      36.126  32.308  27.843  1.00  0.00    -0.744 OA
ENDBRANCH  83  84
ENDBRANCH  51  76
BRANCH  63  88
ATOM     88  C   UNL A   1      44.542  27.016  32.207  1.00  0.00     0.058 A 
ATOM     89  C   UNL A   1      44.381  27.301  33.572  1.00  0.00     0.135 A 
ATOM     90  C   UNL A   1      44.413  25.677  31.803  1.00  0.00     0.135 A 
ATOM     91  F   UNL A   1      44.423  28.564  34.024  1.00  0.00    -0.206 F 
ATOM     92  C   UNL A   1      44.108  26.289  34.496  1.00  0.00     0.059 A 
ATOM     93  C   UNL A   1      44.110  24.662  32.698  1.00  0.00     0.059 A 
ATOM     94  F   UNL A   1      44.516  25.357  30.502  1.00  0.00    -0.206 F 
ATOM     95  C   UNL A   1      43.961  24.974  34.045  1.00  0.00     0.060 A 
BRANCH  95  96
ATOM     96  S   UNL A   1      43.504  23.678  35.217  1.00  0.00     0.124 S 
ATOM     97  O   UNL A   1      42.076  23.915  35.397  1.00  0.00    -0.237 OA
ATOM     98  O   UNL A   1      43.860  22.460  34.494  1.00  0.00    -0.237 OA
ATOM     99  O   UNL A   1      44.335  23.963  36.385  1.00  0.00    -0.744 OA
ENDBRANCH  95  96
ENDBRANCH  63  88
ENDBRANCH  37  38
ENDBRANCH  30  32
ENDBRANCH  29  30
ENDBRANCH  28  29
ENDBRANCH   1  28
TORSDOF 19
ENDMDL
MODEL 2
REMARK VINA RESULT:     -11.8      2.858      4.279
REMARK SMILES Cc1nc(-c2ccccc2Cl)nc2sc(C(=O)OCCOCCOC(=O)c3ccc(-c4c5nc(c(-c6c(F)cc(S(=O)(=O)[O-])cc6F)c6ccc([nH]6)c(-c6c(F)cc(S(=O)(=O)[O-])cc6F)c6nc(c(-c7c(F)cc(S(=O)(=O)[O-])cc7F)c7ccc4[nH]7)C=C6)C=C5)cc3)c(N)c12
REMARK SMILES IDX 22 1 21 2 20 3 19 4 18 5 16 6 17 7 15 8 1 9 2 10 3 11 95 12
REMARK SMILES IDX 4 13 13 14 93 15 12 16 14 17 5 18 6 19 10 20 7 21 9 22 11 23
REMARK SMILES IDX 8 24 94 25 23 28 24 29 25 30 26 31 27 32 28 33 92 34 29 35
REMARK SMILES IDX 91 36 30 37 31 38 32 39 85 40 33 41 90 42 84 43 86 44 34 45
REMARK SMILES IDX 89 46 83 47 82 48 35 50 69 51 48 52 68 53 49 54 52 55 67 56
REMARK SMILES IDX 87 57 50 58 51 59 66 61 88 62 53 63 36 64 37 65 46 66 38 67
REMARK SMILES IDX 39 68 45 69 47 70 40 71 41 72 42 73 43 74 44 75 70 76 71 77
REMARK SMILES IDX 80 78 72 79 73 80 79 81 81 82 74 83 75 84 76 85 77 86 78 87
REMARK SMILES IDX 54 88 55 89 64 90 56 91 57 92 63 93 65 94 58 95 59 96 60 97
REMARK SMILES IDX 61 98 62 99
REMARK H PARENT 94 26 94 27 86 49 52 60
REMARK Flexibility Score: inf
ROOT
ATOM      1  C   UNL A   1      37.446  21.631  25.374  1.00  0.00     0.202 C 
ENDROOT
BRANCH   1   2
ATOM      2  O   UNL A   1      36.782  20.549  24.732  1.00  0.00    -0.374 OA
BRANCH   2   3
ATOM      3  C   UNL A   1      35.416  20.287  25.053  1.00  0.00     0.202 C 
BRANCH   3   4
ATOM      4  C   UNL A   1      34.500  21.506  25.179  1.00  0.00     0.261 C 
BRANCH   4   5
ATOM      5  O   UNL A   1      33.275  21.331  24.454  1.00  0.00    -0.459 OA
BRANCH   5   6
ATOM      6  C   UNL A   1      32.177  21.972  24.955  1.00  0.00     0.350 C 
ATOM      7  O   UNL A   1      31.213  21.407  25.453  1.00  0.00    -0.245 OA
BRANCH   6   8
ATOM      8  C   UNL A   1      32.373  23.411  24.943  1.00  0.00     0.138 A 
ATOM      9  C   UNL A   1      33.439  26.908  22.049  1.00  0.00     0.067 C 
ATOM     10  C   UNL A   1      33.220  26.784  23.526  1.00  0.00     0.052 A 
ATOM     11  N   UNL A   1      33.511  27.903  24.255  1.00  0.00    -0.233 NA
ATOM     12  C   UNL A   1      32.857  25.604  24.216  1.00  0.00     0.057 A 
ATOM     13  C   UNL A   1      33.380  27.881  25.592  1.00  0.00     0.162 A 
ATOM     14  C   UNL A   1      32.781  25.730  25.594  1.00  0.00     0.130 A 
ATOM     15  C   UNL A   1      32.558  24.240  23.846  1.00  0.00     0.069 A 
ATOM     16  N   UNL A   1      33.017  26.825  26.320  1.00  0.00    -0.217 NA
ATOM     17  S   UNL A   1      32.384  24.295  26.399  1.00  0.00    -0.106 S 
BRANCH  13  18
ATOM     18  C   UNL A   1      33.807  29.043  26.372  1.00  0.00     0.038 A 
ATOM     19  C   UNL A   1      35.017  28.951  27.102  1.00  0.00     0.013 A 
ATOM     20  C   UNL A   1      33.051  30.216  26.509  1.00  0.00     0.052 A 
ATOM     21  C   UNL A   1      35.443  29.973  27.949  1.00  0.00     0.001 A 
ATOM     22  C   UNL A   1      33.480  31.242  27.364  1.00  0.00     0.021 A 
ATOM     23  Cl  UNL A   1      31.537  30.443  25.703  1.00  0.00    -0.084 Cl
ATOM     24  C   UNL A   1      34.669  31.118  28.085  1.00  0.00     0.002 A 
ENDBRANCH  13  18
BRANCH  15  25
ATOM     25  N   UNL A   1      32.473  23.778  22.576  1.00  0.00    -0.397 N 
ATOM     26  H   UNL A   1      32.572  24.399  21.819  1.00  0.00     0.156 HD
ATOM     27  H   UNL A   1      32.311  22.822  22.410  1.00  0.00     0.156 HD
ENDBRANCH  15  25
ENDBRANCH   6   8
ENDBRANCH   5   6
ENDBRANCH   4   5
ENDBRANCH   3   4
ENDBRANCH   2   3
ENDBRANCH   1   2
BRANCH   1  28
ATOM     28  C   UNL A   1      38.928  21.487  25.682  1.00  0.00     0.261 C 
BRANCH  28  29
ATOM     29  O   UNL A   1      39.364  22.395  26.682  1.00  0.00    -0.460 OA
BRANCH  29  30
ATOM     30  C   UNL A   1      40.705  22.592  26.686  1.00  0.00     0.338 C 
ATOM     31  O   UNL A   1      41.568  21.738  26.652  1.00  0.00    -0.246 OA
BRANCH  30  32
ATOM     32  C   UNL A   1      40.959  24.016  26.939  1.00  0.00     0.060 A 
ATOM     33  C   UNL A   1      42.032  24.313  27.779  1.00  0.00     0.016 A 
ATOM     34  C   UNL A   1      40.012  24.987  26.572  1.00  0.00     0.016 A 
ATOM     35  C   UNL A   1      42.045  25.538  28.405  1.00  0.00     0.010 A 
ATOM     36  C   UNL A   1      40.027  26.210  27.201  1.00  0.00     0.010 A 
ATOM     37  C   UNL A   1      40.999  26.443  28.167  1.00  0.00    -0.014 A 
BRANCH  37  38
ATOM     38  C   UNL A   1      41.059  27.728  28.831  1.00  0.00     0.031 A 
ATOM     39  C   UNL A   1      42.162  28.548  28.287  1.00  0.00     0.074 A 
ATOM     40  C   UNL A   1      40.185  28.134  29.773  1.00  0.00     0.049 A 
ATOM     41  N   UNL A   1      43.336  28.693  28.804  1.00  0.00    -0.248 NA
ATOM     42  C   UNL A   1      42.061  29.030  26.899  1.00  0.00     0.031 C 
ATOM     43  C   UNL A   1      38.934  27.488  30.181  1.00  0.00     0.029 A 
ATOM     44  N   UNL A   1      40.199  29.267  30.529  1.00  0.00    -0.354 N 
ATOM     45  C   UNL A   1      44.008  29.551  27.944  1.00  0.00     0.074 A 
ATOM     46  C   UNL A   1      43.293  29.502  26.699  1.00  0.00     0.031 C 
ATOM     47  C   UNL A   1      38.205  28.353  30.927  1.00  0.00     0.029 A 
ATOM     48  C   UNL A   1      38.998  29.545  31.177  1.00  0.00     0.049 A 
ATOM     49  H   UNL A   1      40.994  29.843  30.610  1.00  0.00     0.167 HD
ATOM     50  C   UNL A   1      44.857  30.485  28.457  1.00  0.00     0.037 A 
ATOM     51  C   UNL A   1      38.689  30.691  31.840  1.00  0.00     0.037 A 
ATOM     52  C   UNL A   1      45.159  30.173  29.835  1.00  0.00     0.049 A 
ATOM     53  C   UNL A   1      39.980  31.304  32.238  1.00  0.00     0.074 A 
ATOM     54  C   UNL A   1      45.864  29.208  30.517  1.00  0.00     0.029 A 
ATOM     55  N   UNL A   1      44.301  30.762  30.725  1.00  0.00    -0.354 N 
ATOM     56  N   UNL A   1      40.799  30.763  33.100  1.00  0.00    -0.248 NA
ATOM     57  C   UNL A   1      40.563  32.335  31.386  1.00  0.00     0.031 C 
ATOM     58  C   UNL A   1      45.239  29.099  31.796  1.00  0.00     0.029 A 
ATOM     59  C   UNL A   1      44.210  30.037  31.877  1.00  0.00     0.049 A 
ATOM     60  H   UNL A   1      43.812  31.601  30.556  1.00  0.00     0.167 HD
ATOM     61  C   UNL A   1      42.059  31.063  32.616  1.00  0.00     0.074 A 
ATOM     62  C   UNL A   1      41.855  32.152  31.666  1.00  0.00     0.031 C 
ATOM     63  C   UNL A   1      43.094  30.191  32.789  1.00  0.00     0.037 A 
BRANCH  50  64
ATOM     64  C   UNL A   1      44.940  31.924  27.970  1.00  0.00     0.058 A 
ATOM     65  C   UNL A   1      46.192  32.402  27.524  1.00  0.00     0.135 A 
ATOM     66  C   UNL A   1      43.975  32.921  28.237  1.00  0.00     0.135 A 
ATOM     67  F   UNL A   1      47.185  31.547  27.229  1.00  0.00    -0.206 F 
ATOM     68  C   UNL A   1      46.495  33.762  27.455  1.00  0.00     0.059 A 
ATOM     69  C   UNL A   1      44.243  34.281  28.130  1.00  0.00     0.059 A 
ATOM     70  F   UNL A   1      42.753  32.648  28.703  1.00  0.00    -0.206 F 
ATOM     71  C   UNL A   1      45.514  34.694  27.778  1.00  0.00     0.060 A 
BRANCH  71  72
ATOM     72  S   UNL A   1      45.920  36.447  27.771  1.00  0.00     0.124 S 
ATOM     73  O   UNL A   1      45.864  36.764  29.193  1.00  0.00    -0.237 OA
ATOM     74  O   UNL A   1      47.248  36.442  27.165  1.00  0.00    -0.237 OA
ATOM     75  O   UNL A   1      44.864  37.031  26.950  1.00  0.00    -0.744 OA
ENDBRANCH  71  72
ENDBRANCH  50  64
BRANCH  51  76
ATOM     76  C   UNL A   1      37.412  31.463  31.842  1.00  0.00     0.058 A 
ATOM     77  C   UNL A   1      36.743  31.757  33.048  1.00  0.00     0.135 A 
ATOM     78  C   UNL A   1      36.994  32.195  30.714  1.00  0.00     0.135 A 
ATOM     79  F   UNL A   1      37.074  31.111  34.177  1.00  0.00    -0.206 F 
ATOM     80  C   UNL A   1      35.779  32.769  33.146  1.00  0.00     0.059 A 
ATOM     81  C   UNL A   1      36.031  33.204  30.787  1.00  0.00     0.059 A 
ATOM     82  F   UNL A   1      37.578  32.017  29.521  1.00  0.00    -0.206 F 
ATOM     83  C   UNL A   1      35.450  33.509  32.013  1.00  0.00     0.060 A 
BRANCH  83  84
ATOM     84  S   UNL A   1      34.352  34.939  32.171  1.00  0.00     0.124 S 
ATOM     85  O   UNL A   1      33.222  34.376  32.901  1.00  0.00    -0.237 OA
ATOM     86  O   UNL A   1      35.180  35.886  32.909  1.00  0.00    -0.237 OA
ATOM     87  O   UNL A   1      34.074  35.309  30.784  1.00  0.00    -0.744 OA
ENDBRANCH  83  84
ENDBRANCH  51  76
BRANCH  63  88
ATOM     88  C   UNL A   1      43.026  29.227  33.936  1.00  0.00     0.058 A 
ATOM     89  C   UNL A   1      43.319  29.531  35.274  1.00  0.00     0.135 A 
ATOM     90  C   UNL A   1      42.480  27.963  33.659  1.00  0.00     0.135 A 
ATOM     91  F   UNL A   1      43.779  30.741  35.624  1.00  0.00    -0.206 F 
ATOM     92  C   UNL A   1      43.080  28.606  36.295  1.00  0.00     0.059 A 
ATOM     93  C   UNL A   1      42.205  27.043  34.660  1.00  0.00     0.059 A 
ATOM     94  F   UNL A   1      42.142  27.639  32.400  1.00  0.00    -0.206 F 
ATOM     95  C   UNL A   1      42.511  27.370  35.978  1.00  0.00     0.060 A 
BRANCH  95  96
ATOM     96  S   UNL A   1      42.103  26.213  37.303  1.00  0.00     0.124 S 
ATOM     97  O   UNL A   1      40.735  26.594  37.636  1.00  0.00    -0.237 OA
ATOM     98  O   UNL A   1      42.260  24.917  36.648  1.00  0.00    -0.237 OA
ATOM     99  O   UNL A   1      43.099  26.504  38.331  1.00  0.00    -0.744 OA
ENDBRANCH  95  96
ENDBRANCH  63  88
ENDBRANCH  37  38
ENDBRANCH  30  32
ENDBRANCH  29  30
ENDBRANCH  28  29
ENDBRANCH   1  28
TORSDOF 19
ENDMDL
MODEL 3
REMARK VINA RESULT:     -11.7      2.781      9.702
REMARK SMILES Cc1nc(-c2ccccc2Cl)nc2sc(C(=O)OCCOCCOC(=O)c3ccc(-c4c5nc(c(-c6c(F)cc(S(=O)(=O)[O-])cc6F)c6ccc([nH]6)c(-c6c(F)cc(S(=O)(=O)[O-])cc6F)c6nc(c(-c7c(F)cc(S(=O)(=O)[O-])cc7F)c7ccc4[nH]7)C=C6)C=C5)cc3)c(N)c12
REMARK SMILES IDX 22 1 21 2 20 3 19 4 18 5 16 6 17 7 15 8 1 9 2 10 3 11 95 12
REMARK SMILES IDX 4 13 13 14 93 15 12 16 14 17 5 18 6 19 10 20 7 21 9 22 11 23
REMARK SMILES IDX 8 24 94 25 23 28 24 29 25 30 26 31 27 32 28 33 92 34 29 35
REMARK SMILES IDX 91 36 30 37 31 38 32 39 85 40 33 41 90 42 84 43 86 44 34 45
REMARK SMILES IDX 89 46 83 47 82 48 35 50 69 51 48 52 68 53 49 54 52 55 67 56
REMARK SMILES IDX 87 57 50 58 51 59 66 61 88 62 53 63 36 64 37 65 46 66 38 67
REMARK SMILES IDX 39 68 45 69 47 70 40 71 41 72 42 73 43 74 44 75 70 76 71 77
REMARK SMILES IDX 80 78 72 79 73 80 79 81 81 82 74 83 75 84 76 85 77 86 78 87
REMARK SMILES IDX 54 88 55 89 64 90 56 91 57 92 63 93 65 94 58 95 59 96 60 97
REMARK SMILES IDX 61 98 62 99
REMARK H PARENT 94 26 94 27 86 49 52 60
REMARK Flexibility Score: inf
ROOT
ATOM      1  C   UNL A   1      31.928  30.756  26.347  1.00  0.00     0.202 C 
ENDROOT
BRANCH   1   2
ATOM      2  O   UNL A   1      31.812  29.353  26.561  1.00  0.00    -0.374 OA
BRANCH   2   3
ATOM      3  C   UNL A   1      32.567  28.464  25.738  1.00  0.00     0.202 C 
BRANCH   3   4
ATOM      4  C   UNL A   1      32.650  28.816  24.252  1.00  0.00     0.261 C 
BRANCH   4   5
ATOM      5  O   UNL A   1      32.471  27.663  23.419  1.00  0.00    -0.459 OA
BRANCH   5   6
ATOM      6  C   UNL A   1      31.219  27.114  23.404  1.00  0.00     0.350 C 
ATOM      7  O   UNL A   1      30.205  27.713  23.076  1.00  0.00    -0.245 OA
BRANCH   6   8
ATOM      8  C   UNL A   1      31.279  25.693  23.696  1.00  0.00     0.138 A 
ATOM      9  C   UNL A   1      30.025  22.594  26.946  1.00  0.00     0.067 C 
ATOM     10  C   UNL A   1      30.820  22.536  25.677  1.00  0.00     0.052 A 
ATOM     11  N   UNL A   1      31.448  21.346  25.437  1.00  0.00    -0.233 NA
ATOM     12  C   UNL A   1      31.054  23.615  24.795  1.00  0.00     0.057 A 
ATOM     13  C   UNL A   1      32.213  21.206  24.341  1.00  0.00     0.162 A 
ATOM     14  C   UNL A   1      31.880  23.324  23.720  1.00  0.00     0.130 A 
ATOM     15  C   UNL A   1      30.665  25.005  24.733  1.00  0.00     0.069 A 
ATOM     16  N   UNL A   1      32.467  22.158  23.443  1.00  0.00    -0.217 NA
ATOM     17  S   UNL A   1      32.179  24.643  22.701  1.00  0.00    -0.106 S 
BRANCH  13  18
ATOM     18  C   UNL A   1      32.978  19.972  24.155  1.00  0.00     0.038 A 
ATOM     19  C   UNL A   1      32.374  18.914  23.434  1.00  0.00     0.013 A 
ATOM     20  C   UNL A   1      34.242  19.741  24.716  1.00  0.00     0.052 A 
ATOM     21  C   UNL A   1      32.993  17.671  23.298  1.00  0.00     0.001 A 
ATOM     22  C   UNL A   1      34.861  18.490  24.581  1.00  0.00     0.021 A 
ATOM     23  Cl  UNL A   1      35.074  20.936  25.651  1.00  0.00    -0.084 Cl
ATOM     24  C   UNL A   1      34.236  17.458  23.879  1.00  0.00     0.002 A 
ENDBRANCH  13  18
BRANCH  15  25
ATOM     25  N   UNL A   1      29.806  25.611  25.586  1.00  0.00    -0.397 N 
ATOM     26  H   UNL A   1      29.029  26.104  25.234  1.00  0.00     0.156 HD
ATOM     27  H   UNL A   1      29.959  25.561  26.556  1.00  0.00     0.156 HD
ENDBRANCH  15  25
ENDBRANCH   6   8
ENDBRANCH   5   6
ENDBRANCH   4   5
ENDBRANCH   3   4
ENDBRANCH   2   3
ENDBRANCH   1   2
BRANCH   1  28
ATOM     28  C   UNL A   1      32.793  31.561  27.303  1.00  0.00     0.261 C 
BRANCH  28  29
ATOM     29  O   UNL A   1      33.993  30.884  27.647  1.00  0.00    -0.460 OA
BRANCH  29  30
ATOM     30  C   UNL A   1      34.749  31.550  28.554  1.00  0.00     0.338 C 
ATOM     31  O   UNL A   1      34.384  32.442  29.293  1.00  0.00    -0.246 OA
BRANCH  30  32
ATOM     32  C   UNL A   1      36.149  31.150  28.366  1.00  0.00     0.060 A 
ATOM     33  C   UNL A   1      36.363  29.863  27.875  1.00  0.00     0.016 A 
ATOM     34  C   UNL A   1      37.191  31.922  28.906  1.00  0.00     0.016 A 
ATOM     35  C   UNL A   1      37.588  29.278  28.101  1.00  0.00     0.010 A 
ATOM     36  C   UNL A   1      38.414  31.333  29.134  1.00  0.00     0.010 A 
ATOM     37  C   UNL A   1      38.573  29.994  28.797  1.00  0.00    -0.014 A 
BRANCH  37  38
ATOM     38  C   UNL A   1      39.854  29.349  29.000  1.00  0.00     0.031 A 
ATOM     39  C   UNL A   1      40.089  29.093  30.438  1.00  0.00     0.074 A 
ATOM     40  C   UNL A   1      40.683  28.983  28.003  1.00  0.00     0.049 A 
ATOM     41  N   UNL A   1      40.796  29.819  31.239  1.00  0.00    -0.248 NA
ATOM     42  C   UNL A   1      39.241  28.104  31.123  1.00  0.00     0.031 C 
ATOM     43  C   UNL A   1      40.412  28.975  26.563  1.00  0.00     0.029 A 
ATOM     44  N   UNL A   1      41.940  28.465  28.077  1.00  0.00    -0.354 N 
ATOM     45  C   UNL A   1      40.723  29.176  32.468  1.00  0.00     0.074 A 
ATOM     46  C   UNL A   1      39.574  28.317  32.398  1.00  0.00     0.031 C 
ATOM     47  C   UNL A   1      41.374  28.262  25.930  1.00  0.00     0.029 A 
ATOM     48  C   UNL A   1      42.402  27.898  26.891  1.00  0.00     0.049 A 
ATOM     49  H   UNL A   1      42.479  28.488  28.901  1.00  0.00     0.167 HD
ATOM     50  C   UNL A   1      41.822  29.144  33.272  1.00  0.00     0.037 A 
ATOM     51  C   UNL A   1      43.536  27.163  26.740  1.00  0.00     0.037 A 
ATOM     52  C   UNL A   1      42.796  30.108  32.817  1.00  0.00     0.049 A 
ATOM     53  C   UNL A   1      44.437  27.552  27.852  1.00  0.00     0.074 A 
ATOM     54  C   UNL A   1      42.911  31.480  32.774  1.00  0.00     0.029 A 
ATOM     55  N   UNL A   1      43.692  29.592  31.918  1.00  0.00    -0.354 N 
ATOM     56  N   UNL A   1      44.960  28.743  27.972  1.00  0.00    -0.248 NA
ATOM     57  C   UNL A   1      44.455  26.738  29.062  1.00  0.00     0.031 C 
ATOM     58  C   UNL A   1      43.757  31.765  31.660  1.00  0.00     0.029 A 
ATOM     59  C   UNL A   1      44.177  30.562  31.091  1.00  0.00     0.049 A 
ATOM     60  H   UNL A   1      43.953  28.643  31.874  1.00  0.00     0.167 HD
ATOM     61  C   UNL A   1      44.972  28.981  29.334  1.00  0.00     0.074 A 
ATOM     62  C   UNL A   1      44.805  27.670  29.953  1.00  0.00     0.031 C 
ATOM     63  C   UNL A   1      44.794  30.243  29.819  1.00  0.00     0.037 A 
BRANCH  50  64
ATOM     64  C   UNL A   1      42.277  27.917  34.048  1.00  0.00     0.058 A 
ATOM     65  C   UNL A   1      42.318  28.001  35.458  1.00  0.00     0.135 A 
ATOM     66  C   UNL A   1      42.980  26.826  33.490  1.00  0.00     0.135 A 
ATOM     67  F   UNL A   1      41.678  28.991  36.103  1.00  0.00    -0.206 F 
ATOM     68  C   UNL A   1      43.086  27.137  36.240  1.00  0.00     0.059 A 
ATOM     69  C   UNL A   1      43.714  25.926  34.256  1.00  0.00     0.059 A 
ATOM     70  F   UNL A   1      43.078  26.616  32.175  1.00  0.00    -0.206 F 
ATOM     71  C   UNL A   1      43.794  26.111  35.624  1.00  0.00     0.060 A 
BRANCH  71  72
ATOM     72  S   UNL A   1      44.850  25.044  36.614  1.00  0.00     0.124 S 
ATOM     73  O   UNL A   1      44.950  23.863  35.765  1.00  0.00    -0.237 OA
ATOM     74  O   UNL A   1      46.059  25.852  36.737  1.00  0.00    -0.237 OA
ATOM     75  O   UNL A   1      44.089  24.873  37.849  1.00  0.00    -0.744 OA
ENDBRANCH  71  72
ENDBRANCH  50  64
BRANCH  51  76
ATOM     76  C   UNL A   1      43.753  25.920  25.943  1.00  0.00     0.058 A 
ATOM     77  C   UNL A   1      45.001  25.651  25.343  1.00  0.00     0.135 A 
ATOM     78  C   UNL A   1      42.861  24.834  26.016  1.00  0.00     0.135 A 
ATOM     79  F   UNL A   1      45.919  26.624  25.230  1.00  0.00    -0.206 F 
ATOM     80  C   UNL A   1      45.371  24.367  24.920  1.00  0.00     0.059 A 
ATOM     81  C   UNL A   1      43.205  23.548  25.595  1.00  0.00     0.059 A 
ATOM     82  F   UNL A   1      41.656  24.968  26.590  1.00  0.00    -0.206 F 
ATOM     83  C   UNL A   1      44.474  23.313  25.078  1.00  0.00     0.060 A 
BRANCH  83  84
ATOM     84  S   UNL A   1      45.012  21.623  24.713  1.00  0.00     0.124 S 
ATOM     85  O   UNL A   1      44.237  20.843  25.672  1.00  0.00    -0.237 OA
ATOM     86  O   UNL A   1      44.632  21.472  23.313  1.00  0.00    -0.237 OA
ATOM     87  O   UNL A   1      46.451  21.664  24.964  1.00  0.00    -0.744 OA
ENDBRANCH  83  84
ENDBRANCH  51  76
BRANCH  63  88
ATOM     88  C   UNL A   1      45.142  31.401  28.932  1.00  0.00     0.058 A 
ATOM     89  C   UNL A   1      46.436  31.896  28.708  1.00  0.00     0.135 A 
ATOM     90  C   UNL A   1      44.099  31.927  28.152  1.00  0.00     0.135 A 
ATOM     91  F   UNL A   1      47.491  31.395  29.366  1.00  0.00    -0.206 F 
ATOM     92  C   UNL A   1      46.677  32.882  27.747  1.00  0.00     0.059 A 
ATOM     93  C   UNL A   1      44.321  32.881  27.170  1.00  0.00     0.059 A 
ATOM     94  F   UNL A   1      42.849  31.456  28.297  1.00  0.00    -0.206 F 
ATOM     95  C   UNL A   1      45.614  33.358  26.974  1.00  0.00     0.060 A 
BRANCH  95  96
ATOM     96  S   UNL A   1      45.936  34.553  25.659  1.00  0.00     0.124 S 
ATOM     97  O   UNL A   1      47.358  34.354  25.402  1.00  0.00    -0.237 OA
ATOM     98  O   UNL A   1      45.031  34.109  24.602  1.00  0.00    -0.237 OA
ATOM     99  O   UNL A   1      45.586  35.835  26.267  1.00  0.00    -0.744 OA
ENDBRANCH  95  96
ENDBRANCH  63  88
ENDBRANCH  37  38
ENDBRANCH  30  32
ENDBRANCH  29  30
ENDBRANCH  28  29
ENDBRANCH   1  28
TORSDOF 19
ENDMDL
