MODEL 1
REMARK VINA RESULT:     -10.1      0.000      0.000
REMARK SMILES C[NH+](C)[C@H]1CCN(C(=O)C(=O)c2ccccc2)C[C@H]1CCC(=O)OCCOCCOC(=O)c1ccc(-c2c3nc(c(-c4c(F)cc(S(=O)(=O)[O-])cc4F)c4ccc([nH]4)c(-c4c(F)cc(S(=O)(=O)[O-])cc4F)c4nc(c(-c5c(F)cc(S(=O)(=O)[O-])cc5F)c5ccc2[nH]5)C=C4)C=C3)cc1
REMARK SMILES IDX 26 1 25 2 24 3 22 4 23 5 21 6 20 7 19 8 4 9 5 10 6 11 18 12
REMARK SMILES IDX 7 13 2 14 1 15 3 16 8 18 9 19 10 20 11 21 12 22 13 23 17 24
REMARK SMILES IDX 14 25 16 26 15 27 27 28 28 29 29 30 30 31 31 32 32 33 33 34
REMARK SMILES IDX 34 35 98 36 35 37 97 38 36 39 37 40 38 41 91 42 39 43 96 44
REMARK SMILES IDX 90 45 92 46 40 47 95 48 89 49 88 50 41 52 75 53 54 54 74 55
REMARK SMILES IDX 55 56 58 57 73 58 93 59 56 60 57 61 72 63 94 64 59 65 42 66
REMARK SMILES IDX 43 67 52 68 44 69 45 70 51 71 53 72 46 73 47 74 48 75 49 76
REMARK SMILES IDX 50 77 76 78 77 79 86 80 78 81 79 82 85 83 87 84 80 85 81 86
REMARK SMILES IDX 82 87 83 88 84 89 60 90 61 91 70 92 62 93 63 94 69 95 71 96
REMARK SMILES IDX 64 97 65 98 66 99 67 100 68 101
REMARK H PARENT 2 17 92 51 58 62
REMARK Flexibility Score: inf
ROOT
ATOM      1  C   UNL A   1      38.401  21.336  25.396  1.00  0.00     0.202 C 
ENDROOT
BRANCH   1   2
ATOM      2  C   UNL A   1      36.879  21.494  25.408  1.00  0.00     0.261 C 
BRANCH   2   3
ATOM      3  O   UNL A   1      36.523  22.809  24.951  1.00  0.00    -0.463 OA
BRANCH   3   4
ATOM      4  C   UNL A   1      36.111  22.906  23.663  1.00  0.00     0.305 C 
ATOM      5  O   UNL A   1      36.859  23.064  22.703  1.00  0.00    -0.252 OA
BRANCH   4   6
ATOM      6  C   UNL A   1      34.622  22.689  23.495  1.00  0.00     0.123 C 
BRANCH   6   7
ATOM      7  C   UNL A   1      33.638  23.702  24.084  1.00  0.00     0.023 C 
BRANCH   7   8
ATOM      8  C   UNL A   1      32.141  23.662  23.668  1.00  0.00     0.067 C 
ATOM      9  C   UNL A   1      31.102  23.864  24.813  1.00  0.00     0.190 C 
ATOM     10  C   UNL A   1      31.213  25.307  25.348  1.00  0.00     0.087 C 
ATOM     11  C   UNL A   1      31.024  26.319  24.222  1.00  0.00     0.126 C 
ATOM     12  C   UNL A   1      31.926  24.732  22.571  1.00  0.00     0.129 C 
ATOM     13  N   UNL A   1      31.953  26.089  23.123  1.00  0.00    -0.335 N 
BRANCH   9  14
ATOM     14  N   UNL A   1      31.241  22.785  25.817  1.00  0.00    -0.337 N 
ATOM     15  C   UNL A   1      31.508  21.486  25.183  1.00  0.00     0.332 C 
ATOM     16  C   UNL A   1      30.129  22.641  26.754  1.00  0.00     0.332 C 
ATOM     17  H   UNL A   1      32.040  23.087  26.375  1.00  0.00     0.347 HD
ENDBRANCH   9  14
BRANCH  13  18
ATOM     18  C   UNL A   1      32.662  27.189  22.621  1.00  0.00     0.294 C 
ATOM     19  O   UNL A   1      33.558  27.065  21.786  1.00  0.00    -0.265 OA
BRANCH  18  20
ATOM     20  C   UNL A   1      32.361  28.613  23.121  1.00  0.00     0.250 C 
ATOM     21  O   UNL A   1      31.768  29.420  22.416  1.00  0.00    -0.283 OA
BRANCH  20  22
ATOM     22  C   UNL A   1      32.688  28.985  24.530  1.00  0.00     0.028 A 
ATOM     23  C   UNL A   1      33.902  28.524  25.065  1.00  0.00     0.012 A 
ATOM     24  C   UNL A   1      31.854  29.782  25.324  1.00  0.00     0.012 A 
ATOM     25  C   UNL A   1      34.292  28.887  26.356  1.00  0.00     0.001 A 
ATOM     26  C   UNL A   1      32.248  30.142  26.617  1.00  0.00     0.001 A 
ATOM     27  C   UNL A   1      33.467  29.702  27.128  1.00  0.00     0.000 A 
ENDBRANCH  20  22
ENDBRANCH  18  20
ENDBRANCH  13  18
ENDBRANCH   7   8
ENDBRANCH   6   7
ENDBRANCH   4   6
ENDBRANCH   3   4
ENDBRANCH   2   3
ENDBRANCH   1   2
BRANCH   1  28
ATOM     28  O   UNL A   1      39.104  22.060  26.410  1.00  0.00    -0.374 OA
BRANCH  28  29
ATOM     29  C   UNL A   1      40.518  21.882  26.481  1.00  0.00     0.202 C 
BRANCH  29  30
ATOM     30  C   UNL A   1      41.380  23.146  26.349  1.00  0.00     0.261 C 
BRANCH  30  31
ATOM     31  O   UNL A   1      40.612  24.357  26.226  1.00  0.00    -0.460 OA
BRANCH  31  32
ATOM     32  C   UNL A   1      41.360  25.483  26.140  1.00  0.00     0.338 C 
ATOM     33  O   UNL A   1      41.827  25.982  25.122  1.00  0.00    -0.246 OA
BRANCH  32  34
ATOM     34  C   UNL A   1      41.436  26.166  27.444  1.00  0.00     0.060 A 
ATOM     35  C   UNL A   1      40.332  26.050  28.297  1.00  0.00     0.016 A 
ATOM     36  C   UNL A   1      42.506  26.999  27.779  1.00  0.00     0.016 A 
ATOM     37  C   UNL A   1      40.269  26.805  29.468  1.00  0.00     0.010 A 
ATOM     38  C   UNL A   1      42.437  27.762  28.953  1.00  0.00     0.010 A 
ATOM     39  C   UNL A   1      41.304  27.696  29.783  1.00  0.00    -0.014 A 
BRANCH  39  40
ATOM     40  C   UNL A   1      41.126  28.652  30.906  1.00  0.00     0.031 A 
ATOM     41  C   UNL A   1      40.046  29.699  30.817  1.00  0.00     0.074 A 
ATOM     42  C   UNL A   1      41.885  28.562  32.013  1.00  0.00     0.049 A 
ATOM     43  N   UNL A   1      39.734  30.641  31.667  1.00  0.00    -0.248 NA
ATOM     44  C   UNL A   1      39.205  29.676  29.609  1.00  0.00     0.031 C 
ATOM     45  C   UNL A   1      42.928  27.563  32.242  1.00  0.00     0.029 A 
ATOM     46  N   UNL A   1      41.895  29.325  33.153  1.00  0.00    -0.354 N 
ATOM     47  C   UNL A   1      38.664  31.325  31.101  1.00  0.00     0.074 A 
ATOM     48  C   UNL A   1      38.399  30.705  29.820  1.00  0.00     0.031 C 
ATOM     49  C   UNL A   1      43.483  27.781  33.447  1.00  0.00     0.029 A 
ATOM     50  C   UNL A   1      42.856  28.951  34.061  1.00  0.00     0.049 A 
ATOM     51  H   UNL A   1      41.271  30.072  33.306  1.00  0.00     0.167 HD
ATOM     52  C   UNL A   1      37.959  32.365  31.606  1.00  0.00     0.037 A 
ATOM     53  C   UNL A   1      43.206  29.501  35.241  1.00  0.00     0.037 A 
ATOM     54  C   UNL A   1      38.222  32.981  32.881  1.00  0.00     0.049 A 
ATOM     55  C   UNL A   1      42.459  30.709  35.746  1.00  0.00     0.074 A 
ATOM     56  C   UNL A   1      37.559  34.037  33.481  1.00  0.00     0.029 A 
ATOM     57  N   UNL A   1      39.232  32.599  33.751  1.00  0.00    -0.354 N 
ATOM     58  N   UNL A   1      41.445  31.338  35.203  1.00  0.00    -0.248 NA
ATOM     59  C   UNL A   1      42.905  31.281  37.026  1.00  0.00     0.031 C 
ATOM     60  C   UNL A   1      38.194  34.321  34.696  1.00  0.00     0.029 A 
ATOM     61  C   UNL A   1      39.224  33.413  34.872  1.00  0.00     0.049 A 
ATOM     62  H   UNL A   1      39.862  31.858  33.595  1.00  0.00     0.167 HD
ATOM     63  C   UNL A   1      41.116  32.364  36.085  1.00  0.00     0.074 A 
ATOM     64  C   UNL A   1      42.034  32.267  37.200  1.00  0.00     0.031 C 
ATOM     65  C   UNL A   1      40.141  33.300  35.980  1.00  0.00     0.037 A 
BRANCH  52  66
ATOM     66  C   UNL A   1      36.843  32.921  30.767  1.00  0.00     0.058 A 
ATOM     67  C   UNL A   1      37.073  33.905  29.793  1.00  0.00     0.135 A 
ATOM     68  C   UNL A   1      35.531  32.440  30.916  1.00  0.00     0.135 A 
ATOM     69  F   UNL A   1      38.305  34.411  29.622  1.00  0.00    -0.206 F 
ATOM     70  C   UNL A   1      36.038  34.411  29.012  1.00  0.00     0.059 A 
ATOM     71  C   UNL A   1      34.486  32.915  30.130  1.00  0.00     0.059 A 
ATOM     72  F   UNL A   1      35.257  31.500  31.833  1.00  0.00    -0.206 F 
ATOM     73  C   UNL A   1      34.747  33.911  29.190  1.00  0.00     0.060 A 
BRANCH  73  74
ATOM     74  S   UNL A   1      33.415  34.575  28.169  1.00  0.00     0.124 S 
ATOM     75  O   UNL A   1      32.609  33.382  27.929  1.00  0.00    -0.237 OA
ATOM     76  O   UNL A   1      32.817  35.577  29.046  1.00  0.00    -0.237 OA
ATOM     77  O   UNL A   1      34.112  35.106  27.001  1.00  0.00    -0.744 OA
ENDBRANCH  73  74
ENDBRANCH  52  66
BRANCH  53  78
ATOM     78  C   UNL A   1      44.331  28.926  36.024  1.00  0.00     0.058 A 
ATOM     79  C   UNL A   1      44.129  27.856  36.907  1.00  0.00     0.135 A 
ATOM     80  C   UNL A   1      45.631  29.442  35.907  1.00  0.00     0.135 A 
ATOM     81  F   UNL A   1      42.901  27.337  37.063  1.00  0.00    -0.206 F 
ATOM     82  C   UNL A   1      45.173  27.324  37.657  1.00  0.00     0.059 A 
ATOM     83  C   UNL A   1      46.696  28.913  36.628  1.00  0.00     0.059 A 
ATOM     84  F   UNL A   1      45.878  30.460  35.067  1.00  0.00    -0.206 F 
ATOM     85  C   UNL A   1      46.455  27.859  37.509  1.00  0.00     0.060 A 
BRANCH  85  86
ATOM     86  S   UNL A   1      47.816  27.132  38.448  1.00  0.00     0.124 S 
ATOM     87  O   UNL A   1      47.227  25.874  38.892  1.00  0.00    -0.237 OA
ATOM     88  O   UNL A   1      48.864  27.027  37.437  1.00  0.00    -0.237 OA
ATOM     89  O   UNL A   1      48.063  28.121  39.493  1.00  0.00    -0.744 OA
ENDBRANCH  85  86
ENDBRANCH  53  78
BRANCH  65  90
ATOM     90  C   UNL A   1      39.990  34.278  37.112  1.00  0.00     0.058 A 
ATOM     91  C   UNL A   1      40.557  35.560  37.058  1.00  0.00     0.135 A 
ATOM     92  C   UNL A   1      39.218  33.949  38.238  1.00  0.00     0.135 A 
ATOM     93  F   UNL A   1      41.310  35.921  36.006  1.00  0.00    -0.206 F 
ATOM     94  C   UNL A   1      40.378  36.478  38.088  1.00  0.00     0.059 A 
ATOM     95  C   UNL A   1      39.005  34.859  39.269  1.00  0.00     0.059 A 
ATOM     96  F   UNL A   1      38.644  32.739  38.335  1.00  0.00    -0.206 F 
ATOM     97  C   UNL A   1      39.598  36.119  39.189  1.00  0.00     0.060 A 
BRANCH  97  98
ATOM     98  S   UNL A   1      39.337  37.332  40.500  1.00  0.00     0.124 S 
ATOM     99  O   UNL A   1      40.707  37.720  40.819  1.00  0.00    -0.237 OA
ATOM    100  O   UNL A   1      38.531  38.350  39.831  1.00  0.00    -0.237 OA
ATOM    101  O   UNL A   1      38.642  36.571  41.534  1.00  0.00    -0.744 OA
ENDBRANCH  97  98
ENDBRANCH  65  90
ENDBRANCH  39  40
ENDBRANCH  32  34
ENDBRANCH  31  32
ENDBRANCH  30  31
ENDBRANCH  29  30
ENDBRANCH  28  29
ENDBRANCH   1  28
TORSDOF 23
ENDMDL
MODEL 2
REMARK VINA RESULT:      -9.9      1.598      3.883
REMARK SMILES C[NH+](C)[C@H]1CCN(C(=O)C(=O)c2ccccc2)C[C@H]1CCC(=O)OCCOCCOC(=O)c1ccc(-c2c3nc(c(-c4c(F)cc(S(=O)(=O)[O-])cc4F)c4ccc([nH]4)c(-c4c(F)cc(S(=O)(=O)[O-])cc4F)c4nc(c(-c5c(F)cc(S(=O)(=O)[O-])cc5F)c5ccc2[nH]5)C=C4)C=C3)cc1
REMARK SMILES IDX 26 1 25 2 24 3 22 4 23 5 21 6 20 7 19 8 4 9 5 10 6 11 18 12
REMARK SMILES IDX 7 13 2 14 1 15 3 16 8 18 9 19 10 20 11 21 12 22 13 23 17 24
REMARK SMILES IDX 14 25 16 26 15 27 27 28 28 29 29 30 30 31 31 32 32 33 33 34
REMARK SMILES IDX 34 35 98 36 35 37 97 38 36 39 37 40 38 41 91 42 39 43 96 44
REMARK SMILES IDX 90 45 92 46 40 47 95 48 89 49 88 50 41 52 75 53 54 54 74 55
REMARK SMILES IDX 55 56 58 57 73 58 93 59 56 60 57 61 72 63 94 64 59 65 42 66
REMARK SMILES IDX 43 67 52 68 44 69 45 70 51 71 53 72 46 73 47 74 48 75 49 76
REMARK SMILES IDX 50 77 76 78 77 79 86 80 78 81 79 82 85 83 87 84 80 85 81 86
REMARK SMILES IDX 82 87 83 88 84 89 60 90 61 91 70 92 62 93 63 94 69 95 71 96
REMARK SMILES IDX 64 97 65 98 66 99 67 100 68 101
REMARK H PARENT 2 17 92 51 58 62
REMARK Flexibility Score: inf
ROOT
ATOM      1  C   UNL A   1      39.472  21.824  26.268  1.00  0.00     0.202 C 
ENDROOT
BRANCH   1   2
ATOM      2  C   UNL A   1      38.286  22.789  26.222  1.00  0.00     0.261 C 
BRANCH   2   3
ATOM      3  O   UNL A   1      37.777  22.872  24.881  1.00  0.00    -0.463 OA
BRANCH   3   4
ATOM      4  C   UNL A   1      36.429  22.845  24.748  1.00  0.00     0.305 C 
ATOM      5  O   UNL A   1      35.761  21.822  24.624  1.00  0.00    -0.252 OA
BRANCH   4   6
ATOM      6  C   UNL A   1      35.789  24.211  24.877  1.00  0.00     0.123 C 
BRANCH   6   7
ATOM      7  C   UNL A   1      34.321  24.399  24.486  1.00  0.00     0.023 C 
BRANCH   7   8
ATOM      8  C   UNL A   1      33.262  24.723  25.576  1.00  0.00     0.067 C 
ATOM      9  C   UNL A   1      31.822  25.035  25.067  1.00  0.00     0.190 C 
ATOM     10  C   UNL A   1      31.216  23.757  24.450  1.00  0.00     0.087 C 
ATOM     11  C   UNL A   1      31.229  22.610  25.456  1.00  0.00     0.126 C 
ATOM     12  C   UNL A   1      33.222  23.534  26.566  1.00  0.00     0.129 C 
ATOM     13  N   UNL A   1      32.566  22.362  25.981  1.00  0.00    -0.335 N 
BRANCH   9  14
ATOM     14  N   UNL A   1      31.841  26.232  24.196  1.00  0.00    -0.337 N 
ATOM     15  C   UNL A   1      31.335  27.420  24.897  1.00  0.00     0.332 C 
ATOM     16  C   UNL A   1      31.148  26.099  22.916  1.00  0.00     0.332 C 
ATOM     17  H   UNL A   1      32.830  26.339  23.969  1.00  0.00     0.347 HD
ENDBRANCH   9  14
BRANCH  13  18
ATOM     18  C   UNL A   1      33.029  21.040  26.002  1.00  0.00     0.294 C 
ATOM     19  O   UNL A   1      33.631  20.572  26.968  1.00  0.00    -0.265 OA
BRANCH  18  20
ATOM     20  C   UNL A   1      32.824  20.116  24.788  1.00  0.00     0.250 C 
ATOM     21  O   UNL A   1      32.477  20.565  23.702  1.00  0.00    -0.283 OA
BRANCH  20  22
ATOM     22  C   UNL A   1      33.169  18.666  24.897  1.00  0.00     0.028 A 
ATOM     23  C   UNL A   1      34.264  18.196  24.155  1.00  0.00     0.012 A 
ATOM     24  C   UNL A   1      32.466  17.773  25.715  1.00  0.00     0.012 A 
ATOM     25  C   UNL A   1      34.673  16.864  24.260  1.00  0.00     0.001 A 
ATOM     26  C   UNL A   1      32.878  16.440  25.816  1.00  0.00     0.001 A 
ATOM     27  C   UNL A   1      33.983  15.989  25.096  1.00  0.00     0.000 A 
ENDBRANCH  20  22
ENDBRANCH  18  20
ENDBRANCH  13  18
ENDBRANCH   7   8
ENDBRANCH   6   7
ENDBRANCH   4   6
ENDBRANCH   3   4
ENDBRANCH   2   3
ENDBRANCH   1   2
BRANCH   1  28
ATOM     28  O   UNL A   1      40.580  22.244  27.069  1.00  0.00    -0.374 OA
BRANCH  28  29
ATOM     29  C   UNL A   1      41.869  22.241  26.459  1.00  0.00     0.202 C 
BRANCH  29  30
ATOM     30  C   UNL A   1      42.377  23.584  25.913  1.00  0.00     0.261 C 
BRANCH  30  31
ATOM     31  O   UNL A   1      41.393  24.632  25.953  1.00  0.00    -0.460 OA
BRANCH  31  32
ATOM     32  C   UNL A   1      41.911  25.883  25.925  1.00  0.00     0.338 C 
ATOM     33  O   UNL A   1      42.209  26.536  24.931  1.00  0.00    -0.246 OA
BRANCH  32  34
ATOM     34  C   UNL A   1      41.944  26.469  27.277  1.00  0.00     0.060 A 
ATOM     35  C   UNL A   1      40.862  26.199  28.124  1.00  0.00     0.016 A 
ATOM     36  C   UNL A   1      42.947  27.358  27.672  1.00  0.00     0.016 A 
ATOM     37  C   UNL A   1      40.750  26.856  29.349  1.00  0.00     0.010 A 
ATOM     38  C   UNL A   1      42.829  28.022  28.900  1.00  0.00     0.010 A 
ATOM     39  C   UNL A   1      41.712  27.801  29.728  1.00  0.00    -0.014 A 
BRANCH  39  40
ATOM     40  C   UNL A   1      41.469  28.651  30.921  1.00  0.00     0.031 A 
ATOM     41  C   UNL A   1      40.370  29.681  30.879  1.00  0.00     0.074 A 
ATOM     42  C   UNL A   1      42.186  28.479  32.046  1.00  0.00     0.049 A 
ATOM     43  N   UNL A   1      40.004  30.539  31.795  1.00  0.00    -0.248 NA
ATOM     44  C   UNL A   1      39.578  29.748  29.640  1.00  0.00     0.031 C 
ATOM     45  C   UNL A   1      43.242  27.484  32.230  1.00  0.00     0.029 A 
ATOM     46  N   UNL A   1      42.134  29.140  33.248  1.00  0.00    -0.354 N 
ATOM     47  C   UNL A   1      38.942  31.249  31.247  1.00  0.00     0.074 A 
ATOM     48  C   UNL A   1      38.741  30.739  29.907  1.00  0.00     0.031 C 
ATOM     49  C   UNL A   1      43.744  27.607  33.471  1.00  0.00     0.029 A 
ATOM     50  C   UNL A   1      43.068  28.705  34.158  1.00  0.00     0.049 A 
ATOM     51  H   UNL A   1      41.488  29.858  33.440  1.00  0.00     0.167 HD
ATOM     52  C   UNL A   1      38.194  32.227  31.811  1.00  0.00     0.037 A 
ATOM     53  C   UNL A   1      43.358  29.157  35.394  1.00  0.00     0.037 A 
ATOM     54  C   UNL A   1      38.393  32.734  33.144  1.00  0.00     0.049 A 
ATOM     55  C   UNL A   1      42.565  30.301  35.972  1.00  0.00     0.074 A 
ATOM     56  C   UNL A   1      37.683  33.720  33.806  1.00  0.00     0.029 A 
ATOM     57  N   UNL A   1      39.376  32.296  34.018  1.00  0.00    -0.354 N 
ATOM     58  N   UNL A   1      41.559  30.956  35.444  1.00  0.00    -0.248 NA
ATOM     59  C   UNL A   1      42.948  30.768  37.313  1.00  0.00     0.031 C 
ATOM     60  C   UNL A   1      38.263  33.909  35.065  1.00  0.00     0.029 A 
ATOM     61  C   UNL A   1      39.307  33.009  35.205  1.00  0.00     0.049 A 
ATOM     62  H   UNL A   1      40.028  31.585  33.824  1.00  0.00     0.167 HD
ATOM     63  C   UNL A   1      41.173  31.894  36.398  1.00  0.00     0.074 A 
ATOM     64  C   UNL A   1      42.049  31.717  37.537  1.00  0.00     0.031 C 
ATOM     65  C   UNL A   1      40.181  32.817  36.335  1.00  0.00     0.037 A 
BRANCH  52  66
ATOM     66  C   UNL A   1      37.099  32.833  30.978  1.00  0.00     0.058 A 
ATOM     67  C   UNL A   1      37.344  33.906  30.107  1.00  0.00     0.135 A 
ATOM     68  C   UNL A   1      35.795  32.313  31.027  1.00  0.00     0.135 A 
ATOM     69  F   UNL A   1      38.568  34.452  30.035  1.00  0.00    -0.206 F 
ATOM     70  C   UNL A   1      36.329  34.459  29.332  1.00  0.00     0.059 A 
ATOM     71  C   UNL A   1      34.771  32.835  30.243  1.00  0.00     0.059 A 
ATOM     72  F   UNL A   1      35.508  31.288  31.843  1.00  0.00    -0.206 F 
ATOM     73  C   UNL A   1      35.045  33.917  29.408  1.00  0.00     0.060 A 
BRANCH  73  74
ATOM     74  S   UNL A   1      33.739  34.643  28.395  1.00  0.00     0.124 S 
ATOM     75  O   UNL A   1      33.947  33.963  27.121  1.00  0.00    -0.237 OA
ATOM     76  O   UNL A   1      32.531  34.266  29.123  1.00  0.00    -0.237 OA
ATOM     77  O   UNL A   1      34.053  36.068  28.404  1.00  0.00    -0.744 OA
ENDBRANCH  73  74
ENDBRANCH  52  66
BRANCH  53  78
ATOM     78  C   UNL A   1      44.465  28.537  36.170  1.00  0.00     0.058 A 
ATOM     79  C   UNL A   1      45.781  29.009  36.060  1.00  0.00     0.135 A 
ATOM     80  C   UNL A   1      44.227  27.457  37.032  1.00  0.00     0.135 A 
ATOM     81  F   UNL A   1      46.061  30.032  35.238  1.00  0.00    -0.206 F 
ATOM     82  C   UNL A   1      46.825  28.424  36.768  1.00  0.00     0.059 A 
ATOM     83  C   UNL A   1      45.250  26.869  37.769  1.00  0.00     0.059 A 
ATOM     84  F   UNL A   1      42.983  26.975  37.180  1.00  0.00    -0.206 F 
ATOM     85  C   UNL A   1      46.549  27.355  37.623  1.00  0.00     0.060 A 
BRANCH  85  86
ATOM     86  S   UNL A   1      47.901  26.631  38.577  1.00  0.00     0.124 S 
ATOM     87  O   UNL A   1      48.932  26.478  37.558  1.00  0.00    -0.237 OA
ATOM     88  O   UNL A   1      48.146  27.656  39.588  1.00  0.00    -0.237 OA
ATOM     89  O   UNL A   1      47.322  25.390  39.084  1.00  0.00    -0.744 OA
ENDBRANCH  85  86
ENDBRANCH  53  78
BRANCH  65  90
ATOM     90  C   UNL A   1      39.964  33.689  37.541  1.00  0.00     0.058 A 
ATOM     91  C   UNL A   1      40.589  34.938  37.667  1.00  0.00     0.135 A 
ATOM     92  C   UNL A   1      39.073  33.295  38.552  1.00  0.00     0.135 A 
ATOM     93  F   UNL A   1      41.455  35.358  36.730  1.00  0.00    -0.206 F 
ATOM     94  C   UNL A   1      40.351  35.762  38.763  1.00  0.00     0.059 A 
ATOM     95  C   UNL A   1      38.802  34.112  39.645  1.00  0.00     0.059 A 
ATOM     96  F   UNL A   1      38.442  32.113  38.474  1.00  0.00    -0.206 F 
ATOM     97  C   UNL A   1      39.453  35.341  39.746  1.00  0.00     0.060 A 
BRANCH  97  98
ATOM     98  S   UNL A   1      39.120  36.435  41.143  1.00  0.00     0.124 S 
ATOM     99  O   UNL A   1      37.911  35.839  41.701  1.00  0.00    -0.237 OA
ATOM    100  O   UNL A   1      40.328  36.291  41.951  1.00  0.00    -0.237 OA
ATOM    101  O   UNL A   1      38.945  37.742  40.517  1.00  0.00    -0.744 OA
ENDBRANCH  97  98
ENDBRANCH  65  90
ENDBRANCH  39  40
ENDBRANCH  32  34
ENDBRANCH  31  32
ENDBRANCH  30  31
ENDBRANCH  29  30
ENDBRANCH  28  29
ENDBRANCH   1  28
TORSDOF 23
ENDMDL
MODEL 3
REMARK VINA RESULT:      -9.8      6.650     11.448
REMARK SMILES C[NH+](C)[C@H]1CCN(C(=O)C(=O)c2ccccc2)C[C@H]1CCC(=O)OCCOCCOC(=O)c1ccc(-c2c3nc(c(-c4c(F)cc(S(=O)(=O)[O-])cc4F)c4ccc([nH]4)c(-c4c(F)cc(S(=O)(=O)[O-])cc4F)c4nc(c(-c5c(F)cc(S(=O)(=O)[O-])cc5F)c5ccc2[nH]5)C=C4)C=C3)cc1
REMARK SMILES IDX 26 1 25 2 24 3 22 4 23 5 21 6 20 7 19 8 4 9 5 10 6 11 18 12
REMARK SMILES IDX 7 13 2 14 1 15 3 16 8 18 9 19 10 20 11 21 12 22 13 23 17 24
REMARK SMILES IDX 14 25 16 26 15 27 27 28 28 29 29 30 30 31 31 32 32 33 33 34
REMARK SMILES IDX 34 35 98 36 35 37 97 38 36 39 37 40 38 41 91 42 39 43 96 44
REMARK SMILES IDX 90 45 92 46 40 47 95 48 89 49 88 50 41 52 75 53 54 54 74 55
REMARK SMILES IDX 55 56 58 57 73 58 93 59 56 60 57 61 72 63 94 64 59 65 42 66
REMARK SMILES IDX 43 67 52 68 44 69 45 70 51 71 53 72 46 73 47 74 48 75 49 76
REMARK SMILES IDX 50 77 76 78 77 79 86 80 78 81 79 82 85 83 87 84 80 85 81 86
REMARK SMILES IDX 82 87 83 88 84 89 60 90 61 91 70 92 62 93 63 94 69 95 71 96
REMARK SMILES IDX 64 97 65 98 66 99 67 100 68 101
REMARK H PARENT 2 17 92 51 58 62
REMARK Flexibility Score: inf
ROOT
ATOM      1  C   UNL A   1      32.785  30.417  26.413  1.00  0.00     0.202 C 
ENDROOT
BRANCH   1   2
ATOM      2  C   UNL A   1      33.673  29.691  25.400  1.00  0.00     0.261 C 
BRANCH   2   3
ATOM      3  O   UNL A   1      32.985  28.536  24.891  1.00  0.00    -0.463 OA
BRANCH   3   4
ATOM      4  C   UNL A   1      33.284  27.352  25.479  1.00  0.00     0.305 C 
ATOM      5  O   UNL A   1      32.925  27.024  26.605  1.00  0.00    -0.252 OA
BRANCH   4   6
ATOM      6  C   UNL A   1      34.026  26.402  24.563  1.00  0.00     0.123 C 
BRANCH   6   7
ATOM      7  C   UNL A   1      33.989  24.898  24.843  1.00  0.00     0.023 C 
BRANCH   7   8
ATOM      8  C   UNL A   1      33.766  23.895  23.677  1.00  0.00     0.067 C 
ATOM      9  C   UNL A   1      32.937  22.619  24.014  1.00  0.00     0.190 C 
ATOM     10  C   UNL A   1      31.481  23.028  24.321  1.00  0.00     0.087 C 
ATOM     11  C   UNL A   1      30.879  23.808  23.156  1.00  0.00     0.126 C 
ATOM     12  C   UNL A   1      33.096  24.664  22.513  1.00  0.00     0.129 C 
ATOM     13  N   UNL A   1      31.691  24.965  22.799  1.00  0.00    -0.335 N 
BRANCH   9  14
ATOM     14  N   UNL A   1      33.626  21.829  25.060  1.00  0.00    -0.337 N 
ATOM     15  C   UNL A   1      34.947  21.370  24.609  1.00  0.00     0.332 C 
ATOM     16  C   UNL A   1      32.879  20.692  25.594  1.00  0.00     0.332 C 
ATOM     17  H   UNL A   1      33.716  22.492  25.830  1.00  0.00     0.347 HD
ENDBRANCH   9  14
BRANCH  13  18
ATOM     18  C   UNL A   1      31.043  26.196  22.633  1.00  0.00     0.294 C 
ATOM     19  O   UNL A   1      31.173  26.873  21.613  1.00  0.00    -0.265 OA
BRANCH  18  20
ATOM     20  C   UNL A   1      30.151  26.772  23.747  1.00  0.00     0.250 C 
ATOM     21  O   UNL A   1      30.142  26.279  24.869  1.00  0.00    -0.283 OA
BRANCH  20  22
ATOM     22  C   UNL A   1      29.374  28.023  23.500  1.00  0.00     0.028 A 
ATOM     23  C   UNL A   1      27.994  27.903  23.273  1.00  0.00     0.012 A 
ATOM     24  C   UNL A   1      29.955  29.298  23.505  1.00  0.00     0.012 A 
ATOM     25  C   UNL A   1      27.202  29.040  23.095  1.00  0.00     0.001 A 
ATOM     26  C   UNL A   1      29.159  30.434  23.323  1.00  0.00     0.001 A 
ATOM     27  C   UNL A   1      27.785  30.305  23.127  1.00  0.00     0.000 A 
ENDBRANCH  20  22
ENDBRANCH  18  20
ENDBRANCH  13  18
ENDBRANCH   7   8
ENDBRANCH   6   7
ENDBRANCH   4   6
ENDBRANCH   3   4
ENDBRANCH   2   3
ENDBRANCH   1   2
BRANCH   1  28
ATOM     28  O   UNL A   1      33.322  30.529  27.735  1.00  0.00    -0.374 OA
BRANCH  28  29
ATOM     29  C   UNL A   1      34.155  31.654  28.011  1.00  0.00     0.202 C 
BRANCH  29  30
ATOM     30  C   UNL A   1      35.668  31.396  28.064  1.00  0.00     0.261 C 
BRANCH  30  31
ATOM     31  O   UNL A   1      36.014  30.000  28.098  1.00  0.00    -0.460 OA
BRANCH  31  32
ATOM     32  C   UNL A   1      36.791  29.646  29.150  1.00  0.00     0.338 C 
ATOM     33  O   UNL A   1      36.464  29.612  30.331  1.00  0.00    -0.246 OA
BRANCH  32  34
ATOM     34  C   UNL A   1      38.096  29.136  28.691  1.00  0.00     0.060 A 
ATOM     35  C   UNL A   1      38.938  28.561  29.652  1.00  0.00     0.016 A 
ATOM     36  C   UNL A   1      38.540  29.320  27.379  1.00  0.00     0.016 A 
ATOM     37  C   UNL A   1      40.246  28.213  29.318  1.00  0.00     0.010 A 
ATOM     38  C   UNL A   1      39.858  28.977  27.049  1.00  0.00     0.010 A 
ATOM     39  C   UNL A   1      40.727  28.456  28.024  1.00  0.00    -0.014 A 
BRANCH  39  40
ATOM     40  C   UNL A   1      42.176  28.291  27.743  1.00  0.00     0.031 A 
ATOM     41  C   UNL A   1      43.102  29.464  27.937  1.00  0.00     0.074 A 
ATOM     42  C   UNL A   1      42.672  27.100  27.362  1.00  0.00     0.049 A 
ATOM     43  N   UNL A   1      44.390  29.546  27.730  1.00  0.00    -0.248 NA
ATOM     44  C   UNL A   1      42.492  30.708  28.435  1.00  0.00     0.031 C 
ATOM     45  C   UNL A   1      41.890  25.877  27.187  1.00  0.00     0.029 A 
ATOM     46  N   UNL A   1      43.956  26.724  27.053  1.00  0.00    -0.354 N 
ATOM     47  C   UNL A   1      44.747  30.846  28.069  1.00  0.00     0.074 A 
ATOM     48  C   UNL A   1      43.533  31.526  28.470  1.00  0.00     0.031 C 
ATOM     49  C   UNL A   1      42.710  24.887  26.793  1.00  0.00     0.029 A 
ATOM     50  C   UNL A   1      44.068  25.413  26.660  1.00  0.00     0.049 A 
ATOM     51  H   UNL A   1      44.724  27.338  27.109  1.00  0.00     0.167 HD
ATOM     52  C   UNL A   1      45.975  31.418  28.060  1.00  0.00     0.037 A 
ATOM     53  C   UNL A   1      45.138  24.721  26.221  1.00  0.00     0.037 A 
ATOM     54  C   UNL A   1      47.182  30.742  27.662  1.00  0.00     0.049 A 
ATOM     55  C   UNL A   1      46.480  25.402  26.142  1.00  0.00     0.074 A 
ATOM     56  C   UNL A   1      48.474  31.237  27.624  1.00  0.00     0.029 A 
ATOM     57  N   UNL A   1      47.247  29.426  27.230  1.00  0.00    -0.354 N 
ATOM     58  N   UNL A   1      46.803  26.629  26.474  1.00  0.00    -0.248 NA
ATOM     59  C   UNL A   1      47.604  24.604  25.628  1.00  0.00     0.031 C 
ATOM     60  C   UNL A   1      49.314  30.233  27.129  1.00  0.00     0.029 A 
ATOM     61  C   UNL A   1      48.552  29.099  26.901  1.00  0.00     0.049 A 
ATOM     62  H   UNL A   1      46.478  28.815  27.165  1.00  0.00     0.167 HD
ATOM     63  C   UNL A   1      48.170  26.742  26.234  1.00  0.00     0.074 A 
ATOM     64  C   UNL A   1      48.614  25.458  25.734  1.00  0.00     0.031 C 
ATOM     65  C   UNL A   1      48.982  27.813  26.412  1.00  0.00     0.037 A 
BRANCH  52  66
ATOM     66  C   UNL A   1      46.072  32.860  28.475  1.00  0.00     0.058 A 
ATOM     67  C   UNL A   1      45.945  33.904  27.545  1.00  0.00     0.135 A 
ATOM     68  C   UNL A   1      46.263  33.203  29.823  1.00  0.00     0.135 A 
ATOM     69  F   UNL A   1      45.779  33.631  26.241  1.00  0.00    -0.206 F 
ATOM     70  C   UNL A   1      46.028  35.237  27.934  1.00  0.00     0.059 A 
ATOM     71  C   UNL A   1      46.326  34.529  30.238  1.00  0.00     0.059 A 
ATOM     72  F   UNL A   1      46.391  32.243  30.752  1.00  0.00    -0.206 F 
ATOM     73  C   UNL A   1      46.220  35.540  29.283  1.00  0.00     0.060 A 
BRANCH  73  74
ATOM     74  S   UNL A   1      46.324  37.274  29.773  1.00  0.00     0.124 S 
ATOM     75  O   UNL A   1      47.445  37.739  28.962  1.00  0.00    -0.237 OA
ATOM     76  O   UNL A   1      45.012  37.788  29.393  1.00  0.00    -0.237 OA
ATOM     77  O   UNL A   1      46.575  37.207  31.210  1.00  0.00    -0.744 OA
ENDBRANCH  73  74
ENDBRANCH  52  66
BRANCH  53  78
ATOM     78  C   UNL A   1      44.985  23.302  25.802  1.00  0.00     0.058 A 
ATOM     79  C   UNL A   1      45.041  22.934  24.450  1.00  0.00     0.135 A 
ATOM     80  C   UNL A   1      44.774  22.289  26.749  1.00  0.00     0.135 A 
ATOM     81  F   UNL A   1      45.228  23.870  23.507  1.00  0.00    -0.206 F 
ATOM     82  C   UNL A   1      44.881  21.612  24.049  1.00  0.00     0.059 A 
ATOM     83  C   UNL A   1      44.634  20.956  26.375  1.00  0.00     0.059 A 
ATOM     84  F   UNL A   1      44.722  22.588  28.056  1.00  0.00    -0.206 F 
ATOM     85  C   UNL A   1      44.680  20.629  25.020  1.00  0.00     0.060 A 
BRANCH  85  86
ATOM     86  S   UNL A   1      44.522  18.907  24.496  1.00  0.00     0.124 S 
ATOM     87  O   UNL A   1      45.787  18.345  24.952  1.00  0.00    -0.237 OA
ATOM     88  O   UNL A   1      43.330  18.475  25.221  1.00  0.00    -0.237 OA
ATOM     89  O   UNL A   1      44.359  19.014  23.049  1.00  0.00    -0.744 OA
ENDBRANCH  85  86
ENDBRANCH  53  78
BRANCH  65  90
ATOM     90  C   UNL A   1      50.442  27.639  26.097  1.00  0.00     0.058 A 
ATOM     91  C   UNL A   1      50.938  27.801  24.795  1.00  0.00     0.135 A 
ATOM     92  C   UNL A   1      51.363  27.367  27.121  1.00  0.00     0.135 A 
ATOM     93  F   UNL A   1      50.098  28.055  23.779  1.00  0.00    -0.206 F 
ATOM     94  C   UNL A   1      52.296  27.683  24.515  1.00  0.00     0.059 A 
ATOM     95  C   UNL A   1      52.728  27.268  26.869  1.00  0.00     0.059 A 
ATOM     96  F   UNL A   1      50.942  27.213  28.387  1.00  0.00    -0.206 F 
ATOM     97  C   UNL A   1      53.184  27.419  25.560  1.00  0.00     0.060 A 
BRANCH  97  98
ATOM     98  S   UNL A   1      54.949  27.310  25.192  1.00  0.00     0.124 S 
ATOM     99  O   UNL A   1      55.214  28.629  24.630  1.00  0.00    -0.237 OA
ATOM    100  O   UNL A   1      55.528  27.054  26.509  1.00  0.00    -0.237 OA
ATOM    101  O   UNL A   1      55.032  26.196  24.252  1.00  0.00    -0.744 OA
ENDBRANCH  97  98
ENDBRANCH  65  90
ENDBRANCH  39  40
ENDBRANCH  32  34
ENDBRANCH  31  32
ENDBRANCH  30  31
ENDBRANCH  29  30
ENDBRANCH  28  29
ENDBRANCH   1  28
TORSDOF 23
ENDMDL
