MODEL 1
REMARK VINA RESULT:     -10.1      0.000      0.000
REMARK SMILES O=C(OCCOCCOC(=O)c1ccc(C[NH2+]Cc2cc(F)ccc2F)nc1)c1ccc(-c2c3nc(c(-c4c(F)cc(S(=O)(=O)[O-])cc4F)c4ccc([nH]4)c(-c4c(F)cc(S(=O)(=O)[O-])cc4F)c4nc(c(-c5c(F)cc(S(=O)(=O)[O-])cc5F)c5ccc2[nH]5)C=C4)C=C3)cc1
REMARK SMILES IDX 7 1 6 2 5 3 4 4 3 5 2 6 1 7 29 8 30 9 94 10 31 11 93 12
REMARK SMILES IDX 32 13 33 14 34 15 87 16 35 17 92 18 86 19 88 20 36 21 91 22
REMARK SMILES IDX 85 23 84 24 37 26 71 27 50 28 70 29 51 30 54 31 69 32 89 33
REMARK SMILES IDX 52 34 53 35 68 37 90 38 55 39 38 40 39 41 48 42 40 43 41 44
REMARK SMILES IDX 47 45 49 46 42 47 43 48 44 49 45 50 46 51 72 52 73 53 82 54
REMARK SMILES IDX 74 55 75 56 81 57 83 58 76 59 77 60 78 61 79 62 80 63 56 64
REMARK SMILES IDX 57 65 66 66 58 67 59 68 65 69 67 70 60 71 61 72 62 73 63 74
REMARK SMILES IDX 64 75 8 76 9 77 10 78 11 79 12 80 13 81 28 82 14 83 27 84
REMARK SMILES IDX 15 85 16 86 17 87 18 90 19 91 20 92 25 93 21 94 24 95 26 96
REMARK SMILES IDX 22 97 23 98
REMARK H PARENT 88 25 54 36 17 88 17 89
REMARK Flexibility Score: inf
ROOT
ATOM      1  C   UNL A   1      40.922  19.406  26.274  1.00  0.00     0.202 C 
ENDROOT
BRANCH   1   2
ATOM      2  O   UNL A   1      40.783  20.620  27.028  1.00  0.00    -0.374 OA
BRANCH   2   3
ATOM      3  C   UNL A   1      40.404  21.775  26.275  1.00  0.00     0.202 C 
BRANCH   3   4
ATOM      4  C   UNL A   1      40.462  23.097  27.048  1.00  0.00     0.261 C 
BRANCH   4   5
ATOM      5  O   UNL A   1      41.506  23.936  26.520  1.00  0.00    -0.460 OA
BRANCH   5   6
ATOM      6  C   UNL A   1      41.552  25.288  26.464  1.00  0.00     0.338 C 
ATOM      7  O   UNL A   1      41.723  25.826  25.371  1.00  0.00    -0.246 OA
BRANCH   6   8
ATOM      8  C   UNL A   1      41.408  26.166  27.664  1.00  0.00     0.060 A 
ATOM      9  C   UNL A   1      40.390  26.049  28.613  1.00  0.00     0.016 A 
ATOM     10  C   UNL A   1      42.421  27.110  27.895  1.00  0.00     0.016 A 
ATOM     11  C   UNL A   1      40.316  26.905  29.703  1.00  0.00     0.010 A 
ATOM     12  C   UNL A   1      42.388  27.937  29.022  1.00  0.00     0.010 A 
ATOM     13  C   UNL A   1      41.314  27.851  29.916  1.00  0.00    -0.014 A 
BRANCH  13  14
ATOM     14  C   UNL A   1      41.151  28.793  31.038  1.00  0.00     0.031 A 
ATOM     15  C   UNL A   1      40.026  29.782  30.985  1.00  0.00     0.074 A 
ATOM     16  C   UNL A   1      41.926  28.661  32.130  1.00  0.00     0.049 A 
ATOM     17  N   UNL A   1      39.691  30.700  31.848  1.00  0.00    -0.248 NA
ATOM     18  C   UNL A   1      39.153  29.717  29.800  1.00  0.00     0.031 C 
ATOM     19  C   UNL A   1      42.971  27.648  32.301  1.00  0.00     0.029 A 
ATOM     20  N   UNL A   1      41.933  29.349  33.312  1.00  0.00    -0.354 N 
ATOM     21  C   UNL A   1      38.587  31.342  31.301  1.00  0.00     0.074 A 
ATOM     22  C   UNL A   1      38.311  30.711  30.030  1.00  0.00     0.031 C 
ATOM     23  C   UNL A   1      43.492  27.758  33.534  1.00  0.00     0.029 A 
ATOM     24  C   UNL A   1      42.864  28.887  34.211  1.00  0.00     0.049 A 
ATOM     25  H   UNL A   1      41.329  30.104  33.501  1.00  0.00     0.167 HD
ATOM     26  C   UNL A   1      37.878  32.372  31.818  1.00  0.00     0.037 A 
ATOM     27  C   UNL A   1      43.184  29.346  35.437  1.00  0.00     0.037 A 
ATOM     28  C   UNL A   1      38.186  32.979  33.085  1.00  0.00     0.049 A 
ATOM     29  C   UNL A   1      42.432  30.540  35.958  1.00  0.00     0.074 A 
ATOM     30  C   UNL A   1      37.593  34.070  33.691  1.00  0.00     0.029 A 
ATOM     31  N   UNL A   1      39.186  32.535  33.943  1.00  0.00    -0.354 N 
ATOM     32  N   UNL A   1      41.435  31.191  35.402  1.00  0.00    -0.248 NA
ATOM     33  C   UNL A   1      42.853  31.076  37.257  1.00  0.00     0.031 C 
ATOM     34  C   UNL A   1      38.260  34.308  34.899  1.00  0.00     0.029 A 
ATOM     35  C   UNL A   1      39.238  33.337  35.068  1.00  0.00     0.049 A 
ATOM     36  H   UNL A   1      39.771  31.761  33.775  1.00  0.00     0.167 HD
ATOM     37  C   UNL A   1      41.100  32.205  36.289  1.00  0.00     0.074 A 
ATOM     38  C   UNL A   1      41.993  32.072  37.425  1.00  0.00     0.031 C 
ATOM     39  C   UNL A   1      40.144  33.163  36.178  1.00  0.00     0.037 A 
BRANCH  26  40
ATOM     40  C   UNL A   1      36.779  32.936  30.961  1.00  0.00     0.058 A 
ATOM     41  C   UNL A   1      37.042  33.771  29.863  1.00  0.00     0.135 A 
ATOM     42  C   UNL A   1      35.436  32.700  31.296  1.00  0.00     0.135 A 
ATOM     43  F   UNL A   1      38.307  34.055  29.517  1.00  0.00    -0.206 F 
ATOM     44  C   UNL A   1      36.013  34.393  29.159  1.00  0.00     0.059 A 
ATOM     45  C   UNL A   1      34.392  33.292  30.592  1.00  0.00     0.059 A 
ATOM     46  F   UNL A   1      35.128  31.917  32.341  1.00  0.00    -0.206 F 
ATOM     47  C   UNL A   1      34.690  34.158  29.543  1.00  0.00     0.060 A 
BRANCH  47  48
ATOM     48  S   UNL A   1      33.366  35.027  28.674  1.00  0.00     0.124 S 
ATOM     49  O   UNL A   1      32.561  35.515  29.788  1.00  0.00    -0.237 OA
ATOM     50  O   UNL A   1      34.096  36.046  27.927  1.00  0.00    -0.237 OA
ATOM     51  O   UNL A   1      32.751  33.981  27.863  1.00  0.00    -0.744 OA
ENDBRANCH  47  48
ENDBRANCH  26  40
BRANCH  27  52
ATOM     52  C   UNL A   1      44.268  28.694  36.221  1.00  0.00     0.058 A 
ATOM     53  C   UNL A   1      44.010  27.581  37.035  1.00  0.00     0.135 A 
ATOM     54  C   UNL A   1      45.595  29.149  36.143  1.00  0.00     0.135 A 
ATOM     55  F   UNL A   1      42.759  27.111  37.153  1.00  0.00    -0.206 F 
ATOM     56  C   UNL A   1      45.027  26.945  37.745  1.00  0.00     0.059 A 
ATOM     57  C   UNL A   1      46.631  28.514  36.822  1.00  0.00     0.059 A 
ATOM     58  F   UNL A   1      45.900  30.204  35.372  1.00  0.00    -0.206 F 
ATOM     59  C   UNL A   1      46.335  27.416  37.627  1.00  0.00     0.060 A 
BRANCH  59  60
ATOM     60  S   UNL A   1      47.657  26.547  38.502  1.00  0.00     0.124 S 
ATOM     61  O   UNL A   1      47.162  25.175  38.494  1.00  0.00    -0.237 OA
ATOM     62  O   UNL A   1      48.815  26.814  37.654  1.00  0.00    -0.237 OA
ATOM     63  O   UNL A   1      47.681  27.201  39.807  1.00  0.00    -0.744 OA
ENDBRANCH  59  60
ENDBRANCH  27  52
BRANCH  39  64
ATOM     64  C   UNL A   1      40.002  34.115  37.329  1.00  0.00     0.058 A 
ATOM     65  C   UNL A   1      40.771  35.286  37.412  1.00  0.00     0.135 A 
ATOM     66  C   UNL A   1      39.044  33.879  38.326  1.00  0.00     0.135 A 
ATOM     67  F   UNL A   1      41.705  35.549  36.485  1.00  0.00    -0.206 F 
ATOM     68  C   UNL A   1      40.602  36.187  38.457  1.00  0.00     0.059 A 
ATOM     69  C   UNL A   1      38.842  34.778  39.367  1.00  0.00     0.059 A 
ATOM     70  F   UNL A   1      38.279  32.776  38.282  1.00  0.00    -0.206 F 
ATOM     71  C   UNL A   1      39.634  35.924  39.428  1.00  0.00     0.060 A 
BRANCH  71  72
ATOM     72  S   UNL A   1      39.391  37.122  40.755  1.00  0.00     0.124 S 
ATOM     73  O   UNL A   1      38.323  37.953  40.208  1.00  0.00    -0.237 OA
ATOM     74  O   UNL A   1      39.021  36.273  41.883  1.00  0.00    -0.237 OA
ATOM     75  O   UNL A   1      40.695  37.770  40.869  1.00  0.00    -0.744 OA
ENDBRANCH  71  72
ENDBRANCH  39  64
ENDBRANCH  13  14
ENDBRANCH   6   8
ENDBRANCH   5   6
ENDBRANCH   4   5
ENDBRANCH   3   4
ENDBRANCH   2   3
ENDBRANCH   1   2
BRANCH   1  76
ATOM     76  C   UNL A   1      42.397  18.994  26.227  1.00  0.00     0.261 C 
BRANCH  76  77
ATOM     77  O   UNL A   1      42.887  19.262  24.903  1.00  0.00    -0.460 OA
BRANCH  77  78
ATOM     78  C   UNL A   1      44.240  19.250  24.806  1.00  0.00     0.339 C 
ATOM     79  O   UNL A   1      44.957  18.301  24.543  1.00  0.00    -0.246 OA
BRANCH  78  80
ATOM     80  C   UNL A   1      44.706  20.641  24.831  1.00  0.00     0.078 A 
ATOM     81  C   UNL A   1      43.855  21.741  24.724  1.00  0.00     0.019 A 
ATOM     82  C   UNL A   1      46.072  20.861  24.864  1.00  0.00     0.127 A 
ATOM     83  C   UNL A   1      44.407  23.020  24.655  1.00  0.00     0.031 A 
ATOM     84  N   UNL A   1      46.629  22.091  24.785  1.00  0.00    -0.254 NA
ATOM     85  C   UNL A   1      45.796  23.158  24.687  1.00  0.00     0.094 A 
BRANCH  85  86
ATOM     86  C   UNL A   1      46.441  24.535  24.678  1.00  0.00     0.318 C 
BRANCH  86  87
ATOM     87  N   UNL A   1      46.358  25.154  26.002  1.00  0.00    -0.337 N 
ATOM     88  H   UNL A   1      45.418  25.536  26.113  1.00  0.00     0.346 HD
ATOM     89  H   UNL A   1      47.093  25.860  26.029  1.00  0.00     0.346 HD
BRANCH  87  90
ATOM     90  C   UNL A   1      46.615  24.267  27.122  1.00  0.00     0.300 C 
BRANCH  90  91
ATOM     91  C   UNL A   1      45.661  24.365  28.288  1.00  0.00     0.045 A 
ATOM     92  C   UNL A   1      44.516  23.564  28.426  1.00  0.00     0.051 A 
ATOM     93  C   UNL A   1      45.956  25.270  29.316  1.00  0.00     0.132 A 
ATOM     94  C   UNL A   1      43.681  23.722  29.531  1.00  0.00     0.123 A 
ATOM     95  C   UNL A   1      45.127  25.417  30.427  1.00  0.00     0.043 A 
ATOM     96  F   UNL A   1      47.063  26.023  29.243  1.00  0.00    -0.206 F 
ATOM     97  F   UNL A   1      42.573  22.977  29.630  1.00  0.00    -0.207 F 
ATOM     98  C   UNL A   1      43.974  24.644  30.529  1.00  0.00     0.042 A 
ENDBRANCH  90  91
ENDBRANCH  87  90
ENDBRANCH  86  87
ENDBRANCH  85  86
ENDBRANCH  78  80
ENDBRANCH  77  78
ENDBRANCH  76  77
ENDBRANCH   1  76
TORSDOF 21
ENDMDL
MODEL 2
REMARK VINA RESULT:      -9.6      3.351      5.237
REMARK SMILES O=C(OCCOCCOC(=O)c1ccc(C[NH2+]Cc2cc(F)ccc2F)nc1)c1ccc(-c2c3nc(c(-c4c(F)cc(S(=O)(=O)[O-])cc4F)c4ccc([nH]4)c(-c4c(F)cc(S(=O)(=O)[O-])cc4F)c4nc(c(-c5c(F)cc(S(=O)(=O)[O-])cc5F)c5ccc2[nH]5)C=C4)C=C3)cc1
REMARK SMILES IDX 7 1 6 2 5 3 4 4 3 5 2 6 1 7 29 8 30 9 94 10 31 11 93 12
REMARK SMILES IDX 32 13 33 14 34 15 87 16 35 17 92 18 86 19 88 20 36 21 91 22
REMARK SMILES IDX 85 23 84 24 37 26 71 27 50 28 70 29 51 30 54 31 69 32 89 33
REMARK SMILES IDX 52 34 53 35 68 37 90 38 55 39 38 40 39 41 48 42 40 43 41 44
REMARK SMILES IDX 47 45 49 46 42 47 43 48 44 49 45 50 46 51 72 52 73 53 82 54
REMARK SMILES IDX 74 55 75 56 81 57 83 58 76 59 77 60 78 61 79 62 80 63 56 64
REMARK SMILES IDX 57 65 66 66 58 67 59 68 65 69 67 70 60 71 61 72 62 73 63 74
REMARK SMILES IDX 64 75 8 76 9 77 10 78 11 79 12 80 13 81 28 82 14 83 27 84
REMARK SMILES IDX 15 85 16 86 17 87 18 90 19 91 20 92 25 93 21 94 24 95 26 96
REMARK SMILES IDX 22 97 23 98
REMARK H PARENT 88 25 54 36 17 88 17 89
REMARK Flexibility Score: inf
ROOT
ATOM      1  C   UNL A   1      43.923  21.239  25.048  1.00  0.00     0.202 C 
ENDROOT
BRANCH   1   2
ATOM      2  O   UNL A   1      43.867  22.526  24.415  1.00  0.00    -0.374 OA
BRANCH   2   3
ATOM      3  C   UNL A   1      45.021  23.351  24.588  1.00  0.00     0.202 C 
BRANCH   3   4
ATOM      4  C   UNL A   1      44.733  24.768  25.097  1.00  0.00     0.261 C 
BRANCH   4   5
ATOM      5  O   UNL A   1      43.655  24.744  26.051  1.00  0.00    -0.460 OA
BRANCH   5   6
ATOM      6  C   UNL A   1      42.571  25.553  26.117  1.00  0.00     0.338 C 
ATOM      7  O   UNL A   1      41.768  25.536  25.186  1.00  0.00    -0.246 OA
BRANCH   6   8
ATOM      8  C   UNL A   1      42.298  26.469  27.264  1.00  0.00     0.060 A 
ATOM      9  C   UNL A   1      42.863  27.737  27.418  1.00  0.00     0.016 A 
ATOM     10  C   UNL A   1      41.336  26.057  28.200  1.00  0.00     0.016 A 
ATOM     11  C   UNL A   1      42.566  28.534  28.515  1.00  0.00     0.010 A 
ATOM     12  C   UNL A   1      40.986  26.878  29.277  1.00  0.00     0.010 A 
ATOM     13  C   UNL A   1      41.625  28.110  29.449  1.00  0.00    -0.014 A 
BRANCH  13  14
ATOM     14  C   UNL A   1      41.404  28.950  30.640  1.00  0.00     0.031 A 
ATOM     15  C   UNL A   1      40.237  29.890  30.647  1.00  0.00     0.074 A 
ATOM     16  C   UNL A   1      42.168  28.763  31.732  1.00  0.00     0.049 A 
ATOM     17  N   UNL A   1      39.849  30.720  31.575  1.00  0.00    -0.248 NA
ATOM     18  C   UNL A   1      39.384  29.884  29.446  1.00  0.00     0.031 C 
ATOM     19  C   UNL A   1      43.255  27.786  31.839  1.00  0.00     0.029 A 
ATOM     20  N   UNL A   1      42.129  29.354  32.965  1.00  0.00    -0.354 N 
ATOM     21  C   UNL A   1      38.725  31.356  31.062  1.00  0.00     0.074 A 
ATOM     22  C   UNL A   1      38.496  30.819  29.740  1.00  0.00     0.031 C 
ATOM     23  C   UNL A   1      43.753  27.819  33.085  1.00  0.00     0.029 A 
ATOM     24  C   UNL A   1      43.067  28.861  33.840  1.00  0.00     0.049 A 
ATOM     25  H   UNL A   1      41.488  30.063  33.204  1.00  0.00     0.167 HD
ATOM     26  C   UNL A   1      37.964  32.309  31.648  1.00  0.00     0.037 A 
ATOM     27  C   UNL A   1      43.349  29.233  35.104  1.00  0.00     0.037 A 
ATOM     28  C   UNL A   1      38.227  32.825  32.964  1.00  0.00     0.049 A 
ATOM     29  C   UNL A   1      42.537  30.346  35.707  1.00  0.00     0.074 A 
ATOM     30  C   UNL A   1      37.578  33.836  33.646  1.00  0.00     0.029 A 
ATOM     31  N   UNL A   1      39.233  32.356  33.801  1.00  0.00    -0.354 N 
ATOM     32  N   UNL A   1      41.520  30.997  35.187  1.00  0.00    -0.248 NA
ATOM     33  C   UNL A   1      42.916  30.793  37.051  1.00  0.00     0.031 C 
ATOM     34  C   UNL A   1      38.217  34.004  34.881  1.00  0.00     0.029 A 
ATOM     35  C   UNL A   1      39.234  33.065  34.988  1.00  0.00     0.049 A 
ATOM     36  H   UNL A   1      39.855  31.625  33.582  1.00  0.00     0.167 HD
ATOM     37  C   UNL A   1      41.127  31.920  36.146  1.00  0.00     0.074 A 
ATOM     38  C   UNL A   1      42.009  31.734  37.284  1.00  0.00     0.031 C 
ATOM     39  C   UNL A   1      40.132  32.841  36.097  1.00  0.00     0.037 A 
BRANCH  26  40
ATOM     40  C   UNL A   1      36.853  32.893  30.820  1.00  0.00     0.058 A 
ATOM     41  C   UNL A   1      37.070  33.942  29.912  1.00  0.00     0.135 A 
ATOM     42  C   UNL A   1      35.535  32.446  31.000  1.00  0.00     0.135 A 
ATOM     43  F   UNL A   1      38.307  34.428  29.723  1.00  0.00    -0.206 F 
ATOM     44  C   UNL A   1      36.012  34.561  29.250  1.00  0.00     0.059 A 
ATOM     45  C   UNL A   1      34.465  33.035  30.331  1.00  0.00     0.059 A 
ATOM     46  F   UNL A   1      35.269  31.453  31.862  1.00  0.00    -0.206 F 
ATOM     47  C   UNL A   1      34.711  34.110  29.479  1.00  0.00     0.060 A 
BRANCH  47  48
ATOM     48  S   UNL A   1      33.339  34.967  28.675  1.00  0.00     0.124 S 
ATOM     49  O   UNL A   1      34.048  35.963  27.878  1.00  0.00    -0.237 OA
ATOM     50  O   UNL A   1      32.697  33.894  27.921  1.00  0.00    -0.237 OA
ATOM     51  O   UNL A   1      32.565  35.492  29.795  1.00  0.00    -0.744 OA
ENDBRANCH  47  48
ENDBRANCH  26  40
BRANCH  27  52
ATOM     52  C   UNL A   1      44.449  28.566  35.852  1.00  0.00     0.058 A 
ATOM     53  C   UNL A   1      45.775  29.013  35.750  1.00  0.00     0.135 A 
ATOM     54  C   UNL A   1      44.192  27.488  36.716  1.00  0.00     0.135 A 
ATOM     55  F   UNL A   1      46.078  30.033  34.933  1.00  0.00    -0.206 F 
ATOM     56  C   UNL A   1      46.805  28.416  36.474  1.00  0.00     0.059 A 
ATOM     57  C   UNL A   1      45.199  26.892  37.469  1.00  0.00     0.059 A 
ATOM     58  F   UNL A   1      42.940  27.026  36.859  1.00  0.00    -0.206 F 
ATOM     59  C   UNL A   1      46.505  27.359  37.335  1.00  0.00     0.060 A 
BRANCH  59  60
ATOM     60  S   UNL A   1      47.836  26.629  38.317  1.00  0.00     0.124 S 
ATOM     61  O   UNL A   1      48.324  25.587  37.421  1.00  0.00    -0.237 OA
ATOM     62  O   UNL A   1      48.728  27.767  38.520  1.00  0.00    -0.237 OA
ATOM     63  O   UNL A   1      47.150  26.159  39.517  1.00  0.00    -0.744 OA
ENDBRANCH  59  60
ENDBRANCH  27  52
BRANCH  39  64
ATOM     64  C   UNL A   1      39.931  33.690  37.318  1.00  0.00     0.058 A 
ATOM     65  C   UNL A   1      40.658  34.874  37.515  1.00  0.00     0.135 A 
ATOM     66  C   UNL A   1      38.959  33.342  38.267  1.00  0.00     0.135 A 
ATOM     67  F   UNL A   1      41.603  35.243  36.637  1.00  0.00    -0.206 F 
ATOM     68  C   UNL A   1      40.435  35.679  38.626  1.00  0.00     0.059 A 
ATOM     69  C   UNL A   1      38.703  34.145  39.373  1.00  0.00     0.059 A 
ATOM     70  F   UNL A   1      38.233  32.222  38.114  1.00  0.00    -0.206 F 
ATOM     71  C   UNL A   1      39.454  35.307  39.547  1.00  0.00     0.060 A 
BRANCH  71  72
ATOM     72  S   UNL A   1      39.141  36.383  40.962  1.00  0.00     0.124 S 
ATOM     73  O   UNL A   1      38.510  37.532  40.321  1.00  0.00    -0.237 OA
ATOM     74  O   UNL A   1      38.267  35.562  41.795  1.00  0.00    -0.237 OA
ATOM     75  O   UNL A   1      40.474  36.620  41.508  1.00  0.00    -0.744 OA
ENDBRANCH  71  72
ENDBRANCH  39  64
ENDBRANCH  13  14
ENDBRANCH   6   8
ENDBRANCH   5   6
ENDBRANCH   4   5
ENDBRANCH   3   4
ENDBRANCH   2   3
ENDBRANCH   1   2
BRANCH   1  76
ATOM     76  C   UNL A   1      43.063  21.249  26.316  1.00  0.00     0.261 C 
BRANCH  76  77
ATOM     77  O   UNL A   1      41.756  21.728  25.957  1.00  0.00    -0.460 OA
BRANCH  77  78
ATOM     78  C   UNL A   1      41.063  22.259  26.996  1.00  0.00     0.339 C 
ATOM     79  O   UNL A   1      41.497  22.598  28.083  1.00  0.00    -0.246 OA
BRANCH  78  80
ATOM     80  C   UNL A   1      39.718  22.594  26.516  1.00  0.00     0.078 A 
ATOM     81  C   UNL A   1      39.118  23.838  26.708  1.00  0.00     0.019 A 
ATOM     82  C   UNL A   1      38.974  21.584  25.930  1.00  0.00     0.127 A 
ATOM     83  C   UNL A   1      37.797  24.023  26.303  1.00  0.00     0.031 A 
ATOM     84  N   UNL A   1      37.688  21.737  25.542  1.00  0.00    -0.254 NA
ATOM     85  C   UNL A   1      37.112  22.953  25.725  1.00  0.00     0.094 A 
BRANCH  85  86
ATOM     86  C   UNL A   1      35.691  23.125  25.211  1.00  0.00     0.318 C 
BRANCH  86  87
ATOM     87  N   UNL A   1      35.071  24.318  25.790  1.00  0.00    -0.337 N 
ATOM     88  H   UNL A   1      35.601  25.131  25.477  1.00  0.00     0.346 HD
ATOM     89  H   UNL A   1      35.089  24.182  26.800  1.00  0.00     0.346 HD
BRANCH  87  90
ATOM     90  C   UNL A   1      33.678  24.528  25.439  1.00  0.00     0.300 C 
BRANCH  90  91
ATOM     91  C   UNL A   1      33.415  25.177  24.101  1.00  0.00     0.045 A 
ATOM     92  C   UNL A   1      33.629  26.541  23.842  1.00  0.00     0.051 A 
ATOM     93  C   UNL A   1      32.978  24.370  23.043  1.00  0.00     0.132 A 
ATOM     94  C   UNL A   1      33.354  27.064  22.581  1.00  0.00     0.123 A 
ATOM     95  C   UNL A   1      32.716  24.893  21.778  1.00  0.00     0.043 A 
ATOM     96  F   UNL A   1      32.802  23.055  23.237  1.00  0.00    -0.206 F 
ATOM     97  F   UNL A   1      33.527  28.373  22.360  1.00  0.00    -0.207 F 
ATOM     98  C   UNL A   1      32.896  26.254  21.548  1.00  0.00     0.042 A 
ENDBRANCH  90  91
ENDBRANCH  87  90
ENDBRANCH  86  87
ENDBRANCH  85  86
ENDBRANCH  78  80
ENDBRANCH  77  78
ENDBRANCH  76  77
ENDBRANCH   1  76
TORSDOF 21
ENDMDL
MODEL 3
REMARK VINA RESULT:      -9.5      6.666     13.387
REMARK SMILES O=C(OCCOCCOC(=O)c1ccc(C[NH2+]Cc2cc(F)ccc2F)nc1)c1ccc(-c2c3nc(c(-c4c(F)cc(S(=O)(=O)[O-])cc4F)c4ccc([nH]4)c(-c4c(F)cc(S(=O)(=O)[O-])cc4F)c4nc(c(-c5c(F)cc(S(=O)(=O)[O-])cc5F)c5ccc2[nH]5)C=C4)C=C3)cc1
REMARK SMILES IDX 7 1 6 2 5 3 4 4 3 5 2 6 1 7 29 8 30 9 94 10 31 11 93 12
REMARK SMILES IDX 32 13 33 14 34 15 87 16 35 17 92 18 86 19 88 20 36 21 91 22
REMARK SMILES IDX 85 23 84 24 37 26 71 27 50 28 70 29 51 30 54 31 69 32 89 33
REMARK SMILES IDX 52 34 53 35 68 37 90 38 55 39 38 40 39 41 48 42 40 43 41 44
REMARK SMILES IDX 47 45 49 46 42 47 43 48 44 49 45 50 46 51 72 52 73 53 82 54
REMARK SMILES IDX 74 55 75 56 81 57 83 58 76 59 77 60 78 61 79 62 80 63 56 64
REMARK SMILES IDX 57 65 66 66 58 67 59 68 65 69 67 70 60 71 61 72 62 73 63 74
REMARK SMILES IDX 64 75 8 76 9 77 10 78 11 79 12 80 13 81 28 82 14 83 27 84
REMARK SMILES IDX 15 85 16 86 17 87 18 90 19 91 20 92 25 93 21 94 24 95 26 96
REMARK SMILES IDX 22 97 23 98
REMARK H PARENT 88 25 54 36 17 88 17 89
REMARK Flexibility Score: inf
ROOT
ATOM      1  C   UNL A   1      34.806  31.537  27.862  1.00  0.00     0.202 C 
ENDROOT
BRANCH   1   2
ATOM      2  O   UNL A   1      35.290  32.877  27.691  1.00  0.00    -0.374 OA
BRANCH   2   3
ATOM      3  C   UNL A   1      36.060  33.400  28.776  1.00  0.00     0.202 C 
BRANCH   3   4
ATOM      4  C   UNL A   1      35.477  33.136  30.168  1.00  0.00     0.261 C 
BRANCH   4   5
ATOM      5  O   UNL A   1      36.462  32.507  31.008  1.00  0.00    -0.460 OA
BRANCH   5   6
ATOM      6  C   UNL A   1      36.827  31.204  31.047  1.00  0.00     0.338 C 
ATOM      7  O   UNL A   1      36.038  30.386  31.517  1.00  0.00    -0.246 OA
BRANCH   6   8
ATOM      8  C   UNL A   1      38.143  30.704  30.548  1.00  0.00     0.060 A 
ATOM      9  C   UNL A   1      39.191  30.278  31.366  1.00  0.00     0.016 A 
ATOM     10  C   UNL A   1      38.294  30.570  29.158  1.00  0.00     0.016 A 
ATOM     11  C   UNL A   1      40.391  29.828  30.831  1.00  0.00     0.010 A 
ATOM     12  C   UNL A   1      39.477  30.062  28.611  1.00  0.00     0.010 A 
ATOM     13  C   UNL A   1      40.540  29.716  29.452  1.00  0.00    -0.014 A 
BRANCH  13  14
ATOM     14  C   UNL A   1      41.858  29.315  28.927  1.00  0.00     0.031 A 
ATOM     15  C   UNL A   1      42.980  30.306  28.978  1.00  0.00     0.074 A 
ATOM     16  C   UNL A   1      42.054  28.043  28.536  1.00  0.00     0.049 A 
ATOM     17  N   UNL A   1      44.215  30.179  28.577  1.00  0.00    -0.248 NA
ATOM     18  C   UNL A   1      42.670  31.616  29.575  1.00  0.00     0.031 C 
ATOM     19  C   UNL A   1      41.036  26.989  28.561  1.00  0.00     0.029 A 
ATOM     20  N   UNL A   1      43.177  27.409  28.079  1.00  0.00    -0.354 N 
ATOM     21  C   UNL A   1      44.822  31.399  28.846  1.00  0.00     0.074 A 
ATOM     22  C   UNL A   1      43.821  32.255  29.440  1.00  0.00     0.031 C 
ATOM     23  C   UNL A   1      41.593  25.830  28.174  1.00  0.00     0.029 A 
ATOM     24  C   UNL A   1      42.985  26.074  27.813  1.00  0.00     0.049 A 
ATOM     25  H   UNL A   1      44.041  27.865  27.954  1.00  0.00     0.167 HD
ATOM     26  C   UNL A   1      46.103  31.765  28.604  1.00  0.00     0.037 A 
ATOM     27  C   UNL A   1      43.840  25.162  27.311  1.00  0.00     0.037 A 
ATOM     28  C   UNL A   1      47.071  30.888  28.005  1.00  0.00     0.049 A 
ATOM     29  C   UNL A   1      45.236  25.613  26.981  1.00  0.00     0.074 A 
ATOM     30  C   UNL A   1      48.379  31.154  27.644  1.00  0.00     0.029 A 
ATOM     31  N   UNL A   1      46.826  29.559  27.677  1.00  0.00    -0.354 N 
ATOM     32  N   UNL A   1      45.785  26.793  27.170  1.00  0.00    -0.248 NA
ATOM     33  C   UNL A   1      46.123  24.627  26.357  1.00  0.00     0.031 C 
ATOM     34  C   UNL A   1      48.911  29.996  27.063  1.00  0.00     0.029 A 
ATOM     35  C   UNL A   1      47.951  28.994  27.105  1.00  0.00     0.049 A 
ATOM     36  H   UNL A   1      45.975  29.088  27.830  1.00  0.00     0.167 HD
ATOM     37  C   UNL A   1      47.087  26.686  26.700  1.00  0.00     0.074 A 
ATOM     38  C   UNL A   1      47.247  25.322  26.231  1.00  0.00     0.031 C 
ATOM     39  C   UNL A   1      48.064  27.627  26.656  1.00  0.00     0.037 A 
BRANCH  26  40
ATOM     40  C   UNL A   1      46.470  33.190  28.914  1.00  0.00     0.058 A 
ATOM     41  C   UNL A   1      46.987  33.574  30.161  1.00  0.00     0.135 A 
ATOM     42  C   UNL A   1      46.224  34.199  27.969  1.00  0.00     0.135 A 
ATOM     43  F   UNL A   1      47.214  32.654  31.112  1.00  0.00    -0.206 F 
ATOM     44  C   UNL A   1      47.198  34.914  30.480  1.00  0.00     0.059 A 
ATOM     45  C   UNL A   1      46.450  35.542  28.258  1.00  0.00     0.059 A 
ATOM     46  F   UNL A   1      45.721  33.890  26.764  1.00  0.00    -0.206 F 
ATOM     47  C   UNL A   1      46.911  35.892  29.526  1.00  0.00     0.060 A 
BRANCH  47  48
ATOM     48  S   UNL A   1      47.116  37.630  29.973  1.00  0.00     0.124 S 
ATOM     49  O   UNL A   1      48.563  37.786  29.870  1.00  0.00    -0.237 OA
ATOM     50  O   UNL A   1      46.332  38.312  28.948  1.00  0.00    -0.237 OA
ATOM     51  O   UNL A   1      46.570  37.698  31.324  1.00  0.00    -0.744 OA
ENDBRANCH  47  48
ENDBRANCH  26  40
BRANCH  27  52
ATOM     52  C   UNL A   1      43.387  23.764  27.073  1.00  0.00     0.058 A 
ATOM     53  C   UNL A   1      43.300  22.837  28.122  1.00  0.00     0.135 A 
ATOM     54  C   UNL A   1      42.995  23.335  25.794  1.00  0.00     0.135 A 
ATOM     55  F   UNL A   1      43.670  23.191  29.363  1.00  0.00    -0.206 F 
ATOM     56  C   UNL A   1      42.844  21.537  27.913  1.00  0.00     0.059 A 
ATOM     57  C   UNL A   1      42.512  22.050  25.565  1.00  0.00     0.059 A 
ATOM     58  F   UNL A   1      43.048  24.183  24.755  1.00  0.00    -0.206 F 
ATOM     59  C   UNL A   1      42.447  21.155  26.631  1.00  0.00     0.060 A 
BRANCH  59  60
ATOM     60  S   UNL A   1      41.799  19.487  26.379  1.00  0.00     0.124 S 
ATOM     61  O   UNL A   1      42.437  19.110  25.123  1.00  0.00    -0.237 OA
ATOM     62  O   UNL A   1      42.273  18.790  27.571  1.00  0.00    -0.237 OA
ATOM     63  O   UNL A   1      40.355  19.693  26.316  1.00  0.00    -0.744 OA
ENDBRANCH  59  60
ENDBRANCH  27  52
BRANCH  39  64
ATOM     64  C   UNL A   1      49.394  27.198  26.109  1.00  0.00     0.058 A 
ATOM     65  C   UNL A   1      49.678  27.262  24.736  1.00  0.00     0.135 A 
ATOM     66  C   UNL A   1      50.412  26.776  26.978  1.00  0.00     0.135 A 
ATOM     67  F   UNL A   1      48.734  27.652  23.867  1.00  0.00    -0.206 F 
ATOM     68  C   UNL A   1      50.928  26.905  24.241  1.00  0.00     0.059 A 
ATOM     69  C   UNL A   1      51.675  26.439  26.507  1.00  0.00     0.059 A 
ATOM     70  F   UNL A   1      50.187  26.709  28.300  1.00  0.00    -0.206 F 
ATOM     71  C   UNL A   1      51.919  26.497  25.135  1.00  0.00     0.060 A 
BRANCH  71  72
ATOM     72  S   UNL A   1      53.551  26.082  24.488  1.00  0.00     0.124 S 
ATOM     73  O   UNL A   1      54.426  26.734  25.457  1.00  0.00    -0.237 OA
ATOM     74  O   UNL A   1      53.542  24.623  24.522  1.00  0.00    -0.237 OA
ATOM     75  O   UNL A   1      53.544  26.670  23.151  1.00  0.00    -0.744 OA
ENDBRANCH  71  72
ENDBRANCH  39  64
ENDBRANCH  13  14
ENDBRANCH   6   8
ENDBRANCH   5   6
ENDBRANCH   4   5
ENDBRANCH   3   4
ENDBRANCH   2   3
ENDBRANCH   1   2
BRANCH   1  76
ATOM     76  C   UNL A   1      33.331  31.465  27.454  1.00  0.00     0.261 C 
BRANCH  76  77
ATOM     77  O   UNL A   1      33.092  30.162  26.896  1.00  0.00    -0.460 OA
BRANCH  77  78
ATOM     78  C   UNL A   1      31.941  30.074  26.183  1.00  0.00     0.339 C 
ATOM     79  O   UNL A   1      31.351  30.973  25.612  1.00  0.00    -0.246 OA
BRANCH  78  80
ATOM     80  C   UNL A   1      31.633  28.650  25.999  1.00  0.00     0.078 A 
ATOM     81  C   UNL A   1      31.245  28.097  24.780  1.00  0.00     0.019 A 
ATOM     82  C   UNL A   1      31.635  27.842  27.123  1.00  0.00     0.127 A 
ATOM     83  C   UNL A   1      30.876  26.753  24.733  1.00  0.00     0.031 A 
ATOM     84  N   UNL A   1      31.267  26.541  27.103  1.00  0.00    -0.254 NA
ATOM     85  C   UNL A   1      30.897  26.006  25.911  1.00  0.00     0.094 A 
BRANCH  85  86
ATOM     86  C   UNL A   1      30.563  24.522  25.898  1.00  0.00     0.318 C 
BRANCH  86  87
ATOM     87  N   UNL A   1      31.565  23.759  26.644  1.00  0.00    -0.337 N 
ATOM     88  H   UNL A   1      31.123  22.904  26.980  1.00  0.00     0.346 HD
ATOM     89  H   UNL A   1      31.889  24.374  27.390  1.00  0.00     0.346 HD
BRANCH  87  90
ATOM     90  C   UNL A   1      32.750  23.386  25.892  1.00  0.00     0.300 C 
BRANCH  90  91
ATOM     91  C   UNL A   1      32.672  22.091  25.118  1.00  0.00     0.045 A 
ATOM     92  C   UNL A   1      32.295  22.013  23.768  1.00  0.00     0.051 A 
ATOM     93  C   UNL A   1      33.043  20.905  25.766  1.00  0.00     0.132 A 
ATOM     94  C   UNL A   1      32.241  20.776  23.129  1.00  0.00     0.123 A 
ATOM     95  C   UNL A   1      33.001  19.671  25.120  1.00  0.00     0.043 A 
ATOM     96  F   UNL A   1      33.450  20.943  27.043  1.00  0.00    -0.206 F 
ATOM     97  F   UNL A   1      31.844  20.713  21.851  1.00  0.00    -0.207 F 
ATOM     98  C   UNL A   1      32.587  19.605  23.793  1.00  0.00     0.042 A 
ENDBRANCH  90  91
ENDBRANCH  87  90
ENDBRANCH  86  87
ENDBRANCH  85  86
ENDBRANCH  78  80
ENDBRANCH  77  78
ENDBRANCH  76  77
ENDBRANCH   1  76
TORSDOF 21
ENDMDL
