MODEL 1
REMARK VINA RESULT:     -11.1      0.000      0.000
REMARK SMILES O=C(CCN1C(=O)/C(=C/C=C/c2ccco2)SC1=S)Nc1ccc(C(=O)OCCOCCOC(=O)c2ccc(-c3c4nc(c(-c5c(F)cc(S(=O)(=O)[O-])cc5F)c5ccc([nH]5)c(-c5c(F)cc(S(=O)(=O)[O-])cc5F)c5nc(c(-c6c(F)cc(S(=O)(=O)[O-])cc6F)c6ccc3[nH]6)C=C5)C=C4)cc2)c(O)c1
REMARK SMILES IDX 28 1 27 2 25 3 26 4 24 5 21 6 22 7 104 8 23 9 102 10 20 11
REMARK SMILES IDX 1 12 2 13 3 15 4 16 5 17 6 18 18 19 7 20 8 21 17 22 19 23
REMARK SMILES IDX 9 24 10 25 11 26 12 27 13 28 16 29 14 30 15 31 103 32 29 34
REMARK SMILES IDX 30 35 31 36 32 37 33 38 34 39 35 40 36 41 37 42 101 43 38 44
REMARK SMILES IDX 100 45 39 46 40 47 41 48 94 49 42 50 99 51 93 52 95 53 43 54
REMARK SMILES IDX 98 55 92 56 91 57 44 59 78 60 57 61 77 62 58 63 61 64 76 65
REMARK SMILES IDX 96 66 59 67 60 68 75 70 97 71 62 72 45 73 46 74 55 75 47 76
REMARK SMILES IDX 48 77 54 78 56 79 49 80 50 81 51 82 52 83 53 84 79 85 80 86
REMARK SMILES IDX 89 87 81 88 82 89 88 90 90 91 83 92 84 93 85 94 86 95 87 96
REMARK SMILES IDX 63 97 64 98 73 99 65 100 66 101 72 102 74 103 67 104 68 105
REMARK SMILES IDX 69 106 70 107 71 108
REMARK H PARENT 20 14 103 33 95 58 61 69
REMARK Flexibility Score: inf
ROOT
ATOM      1  C   UNL A   1      44.158  20.130  25.388  1.00  0.00     0.261 C 
ENDROOT
BRANCH   1   2
ATOM      2  O   UNL A   1      42.757  20.447  25.352  1.00  0.00    -0.460 OA
BRANCH   2   3
ATOM      3  C   UNL A   1      42.284  21.014  26.492  1.00  0.00     0.341 C 
ATOM      4  O   UNL A   1      42.934  21.334  27.475  1.00  0.00    -0.246 OA
BRANCH   3   5
ATOM      5  C   UNL A   1      40.862  21.383  26.318  1.00  0.00     0.101 A 
ATOM      6  C   UNL A   1      38.214  22.288  26.068  1.00  0.00     0.044 A 
ATOM      7  C   UNL A   1      39.232  23.183  26.394  1.00  0.00     0.027 A 
ATOM      8  C   UNL A   1      38.532  20.940  25.846  1.00  0.00     0.073 A 
ATOM      9  C   UNL A   1      40.544  22.730  26.537  1.00  0.00     0.022 A 
ATOM     10  C   UNL A   1      39.855  20.497  25.935  1.00  0.00     0.132 A 
BRANCH   6  11
ATOM     11  N   UNL A   1      36.857  22.660  26.019  1.00  0.00    -0.326 N 
ATOM     12  O   UNL A   1      36.550  23.077  23.764  1.00  0.00    -0.275 OA
ATOM     13  C   UNL A   1      36.170  23.152  24.931  1.00  0.00     0.226 C 
ATOM     14  H   UNL A   1      36.343  22.558  26.853  1.00  0.00     0.169 HD
BRANCH  13  15
ATOM     15  C   UNL A   1      34.907  23.935  25.258  1.00  0.00     0.122 C 
BRANCH  15  16
ATOM     16  C   UNL A   1      33.562  23.329  24.853  1.00  0.00     0.137 C 
BRANCH  16  17
ATOM     17  N   UNL A   1      32.511  24.284  24.468  1.00  0.00    -0.292 N 
ATOM     18  C   UNL A   1      32.641  25.013  23.292  1.00  0.00     0.266 C 
ATOM     19  C   UNL A   1      31.301  24.420  25.128  1.00  0.00     0.148 C 
ATOM     20  O   UNL A   1      33.524  24.882  22.457  1.00  0.00    -0.268 OA
ATOM     21  C   UNL A   1      31.545  26.011  23.186  1.00  0.00     0.080 C 
ATOM     22  S   UNL A   1      30.362  25.705  24.390  1.00  0.00    -0.054 SA
ATOM     23  S   UNL A   1      30.756  23.582  26.462  1.00  0.00    -0.052 S 
ATOM     24  C   UNL A   1      31.574  27.004  22.288  1.00  0.00     0.021 C 
BRANCH  24  25
ATOM     25  C   UNL A   1      30.587  28.057  22.164  1.00  0.00     0.005 C 
ATOM     26  C   UNL A   1      30.440  29.042  23.062  1.00  0.00     0.047 C 
BRANCH  26  27
ATOM     27  C   UNL A   1      29.479  30.072  22.863  1.00  0.00     0.126 A 
ATOM     28  C   UNL A   1      28.770  30.443  21.725  1.00  0.00     0.050 A 
ATOM     29  O   UNL A   1      29.095  30.918  23.881  1.00  0.00    -0.465 OA
ATOM     30  C   UNL A   1      27.966  31.558  22.055  1.00  0.00     0.042 A 
ATOM     31  C   UNL A   1      28.209  31.813  23.380  1.00  0.00     0.195 A 
ENDBRANCH  26  27
ENDBRANCH  24  25
ENDBRANCH  16  17
ENDBRANCH  15  16
ENDBRANCH  13  15
ENDBRANCH   6  11
BRANCH  10  32
ATOM     32  O   UNL A   1      40.067  19.184  25.627  1.00  0.00    -0.507 OA
ATOM     33  H   UNL A   1      39.425  18.540  25.852  1.00  0.00     0.293 HD
ENDBRANCH  10  32
ENDBRANCH   3   5
ENDBRANCH   2   3
ENDBRANCH   1   2
BRANCH   1  34
ATOM     34  C   UNL A   1      44.963  20.933  24.359  1.00  0.00     0.202 C 
BRANCH  34  35
ATOM     35  O   UNL A   1      44.554  22.275  24.100  1.00  0.00    -0.374 OA
BRANCH  35  36
ATOM     36  C   UNL A   1      44.957  23.284  25.026  1.00  0.00     0.202 C 
BRANCH  36  37
ATOM     37  C   UNL A   1      44.238  24.640  24.979  1.00  0.00     0.261 C 
BRANCH  37  38
ATOM     38  O   UNL A   1      43.366  24.850  26.102  1.00  0.00    -0.460 OA
BRANCH  38  39
ATOM     39  C   UNL A   1      42.438  25.824  25.930  1.00  0.00     0.338 C 
ATOM     40  O   UNL A   1      41.736  26.011  24.948  1.00  0.00    -0.246 OA
BRANCH  39  41
ATOM     41  C   UNL A   1      42.239  26.541  27.202  1.00  0.00     0.060 A 
ATOM     42  C   UNL A   1      41.238  26.079  28.066  1.00  0.00     0.016 A 
ATOM     43  C   UNL A   1      42.994  27.669  27.526  1.00  0.00     0.016 A 
ATOM     44  C   UNL A   1      40.982  26.752  29.260  1.00  0.00     0.010 A 
ATOM     45  C   UNL A   1      42.726  28.349  28.718  1.00  0.00     0.010 A 
ATOM     46  C   UNL A   1      41.713  27.902  29.585  1.00  0.00    -0.014 A 
BRANCH  46  47
ATOM     47  C   UNL A   1      41.383  28.677  30.805  1.00  0.00     0.031 A 
ATOM     48  C   UNL A   1      40.254  29.668  30.773  1.00  0.00     0.074 A 
ATOM     49  C   UNL A   1      42.102  28.504  31.930  1.00  0.00     0.049 A 
ATOM     50  N   UNL A   1      39.867  30.511  31.694  1.00  0.00    -0.248 NA
ATOM     51  C   UNL A   1      39.457  29.717  29.537  1.00  0.00     0.031 C 
ATOM     52  C   UNL A   1      43.196  27.545  32.090  1.00  0.00     0.029 A 
ATOM     53  N   UNL A   1      42.034  29.142  33.142  1.00  0.00    -0.354 N 
ATOM     54  C   UNL A   1      38.789  31.199  31.150  1.00  0.00     0.074 A 
ATOM     55  C   UNL A   1      38.598  30.690  29.809  1.00  0.00     0.031 C 
ATOM     56  C   UNL A   1      43.709  27.672  33.325  1.00  0.00     0.029 A 
ATOM     57  C   UNL A   1      43.012  28.749  34.025  1.00  0.00     0.049 A 
ATOM     58  H   UNL A   1      41.350  29.816  33.360  1.00  0.00     0.167 HD
ATOM     59  C   UNL A   1      38.027  32.162  31.723  1.00  0.00     0.037 A 
ATOM     60  C   UNL A   1      43.332  29.228  35.244  1.00  0.00     0.037 A 
ATOM     61  C   UNL A   1      38.231  32.664  33.059  1.00  0.00     0.049 A 
ATOM     62  C   UNL A   1      42.527  30.360  35.825  1.00  0.00     0.074 A 
ATOM     63  C   UNL A   1      37.495  33.618  33.739  1.00  0.00     0.029 A 
ATOM     64  N   UNL A   1      39.251  32.266  33.910  1.00  0.00    -0.354 N 
ATOM     65  N   UNL A   1      41.488  30.979  35.314  1.00  0.00    -0.248 NA
ATOM     66  C   UNL A   1      42.938  30.863  37.143  1.00  0.00     0.031 C 
ATOM     67  C   UNL A   1      38.107  33.842  34.977  1.00  0.00     0.029 A 
ATOM     68  C   UNL A   1      39.189  32.984  35.094  1.00  0.00     0.049 A 
ATOM     69  H   UNL A   1      39.922  31.575  33.703  1.00  0.00     0.167 HD
ATOM     70  C   UNL A   1      41.111  31.931  36.257  1.00  0.00     0.074 A 
ATOM     71  C   UNL A   1      42.021  31.793  37.375  1.00  0.00     0.031 C 
ATOM     72  C   UNL A   1      40.105  32.839  36.199  1.00  0.00     0.037 A 
BRANCH  59  73
ATOM     73  C   UNL A   1      36.918  32.761  30.900  1.00  0.00     0.058 A 
ATOM     74  C   UNL A   1      35.584  32.348  31.041  1.00  0.00     0.135 A 
ATOM     75  C   UNL A   1      37.190  33.796  29.990  1.00  0.00     0.135 A 
ATOM     76  F   UNL A   1      35.268  31.353  31.885  1.00  0.00    -0.206 F 
ATOM     77  C   UNL A   1      34.561  32.924  30.293  1.00  0.00     0.059 A 
ATOM     78  C   UNL A   1      36.179  34.406  29.253  1.00  0.00     0.059 A 
ATOM     79  F   UNL A   1      38.447  34.229  29.814  1.00  0.00    -0.206 F 
ATOM     80  C   UNL A   1      34.869  33.954  29.401  1.00  0.00     0.060 A 
BRANCH  80  81
ATOM     81  S   UNL A   1      33.529  34.695  28.446  1.00  0.00     0.124 S 
ATOM     82  O   UNL A   1      34.245  35.712  27.681  1.00  0.00    -0.237 OA
ATOM     83  O   UNL A   1      33.030  33.559  27.678  1.00  0.00    -0.237 OA
ATOM     84  O   UNL A   1      32.621  35.205  29.468  1.00  0.00    -0.744 OA
ENDBRANCH  80  81
ENDBRANCH  59  73
BRANCH  60  85
ATOM     85  C   UNL A   1      44.491  28.659  35.983  1.00  0.00     0.058 A 
ATOM     86  C   UNL A   1      44.329  27.595  36.881  1.00  0.00     0.135 A 
ATOM     87  C   UNL A   1      45.788  29.166  35.800  1.00  0.00     0.135 A 
ATOM     88  F   UNL A   1      43.107  27.084  37.101  1.00  0.00    -0.206 F 
ATOM     89  C   UNL A   1      45.407  27.058  37.579  1.00  0.00     0.059 A 
ATOM     90  C   UNL A   1      46.886  28.628  36.464  1.00  0.00     0.059 A 
ATOM     91  F   UNL A   1      46.002  30.178  34.944  1.00  0.00    -0.206 F 
ATOM     92  C   UNL A   1      46.682  27.579  37.359  1.00  0.00     0.060 A 
BRANCH  92  93
ATOM     93  S   UNL A   1      48.083  26.839  38.226  1.00  0.00     0.124 S 
ATOM     94  O   UNL A   1      49.178  27.710  37.815  1.00  0.00    -0.237 OA
ATOM     95  O   UNL A   1      47.669  26.947  39.621  1.00  0.00    -0.237 OA
ATOM     96  O   UNL A   1      48.125  25.478  37.696  1.00  0.00    -0.744 OA
ENDBRANCH  92  93
ENDBRANCH  60  85
BRANCH  72  97
ATOM     97  C   UNL A   1      39.920  33.749  37.385  1.00  0.00     0.058 A 
ATOM     98  C   UNL A   1      40.511  35.021  37.436  1.00  0.00     0.135 A 
ATOM     99  C   UNL A   1      39.091  33.371  38.454  1.00  0.00     0.135 A 
ATOM    100  F   UNL A   1      41.321  35.430  36.446  1.00  0.00    -0.206 F 
ATOM    101  C   UNL A   1      40.301  35.879  38.511  1.00  0.00     0.059 A 
ATOM    102  C   UNL A   1      38.842  34.224  39.525  1.00  0.00     0.059 A 
ATOM    103  F   UNL A   1      38.493  32.168  38.453  1.00  0.00    -0.206 F 
ATOM    104  C   UNL A   1      39.459  35.473  39.548  1.00  0.00     0.060 A 
BRANCH 104 105
ATOM    105  S   UNL A   1      39.160  36.616  40.914  1.00  0.00     0.124 S 
ATOM    106  O   UNL A   1      38.549  37.748  40.223  1.00  0.00    -0.237 OA
ATOM    107  O   UNL A   1      38.270  35.845  41.776  1.00  0.00    -0.237 OA
ATOM    108  O   UNL A   1      40.494  36.857  41.455  1.00  0.00    -0.744 OA
ENDBRANCH 104 105
ENDBRANCH  72  97
ENDBRANCH  46  47
ENDBRANCH  39  41
ENDBRANCH  38  39
ENDBRANCH  37  38
ENDBRANCH  36  37
ENDBRANCH  35  36
ENDBRANCH  34  35
ENDBRANCH   1  34
TORSDOF 24
ENDMDL
MODEL 2
REMARK VINA RESULT:     -11.0      1.853      2.515
REMARK SMILES O=C(CCN1C(=O)/C(=C/C=C/c2ccco2)SC1=S)Nc1ccc(C(=O)OCCOCCOC(=O)c2ccc(-c3c4nc(c(-c5c(F)cc(S(=O)(=O)[O-])cc5F)c5ccc([nH]5)c(-c5c(F)cc(S(=O)(=O)[O-])cc5F)c5nc(c(-c6c(F)cc(S(=O)(=O)[O-])cc6F)c6ccc3[nH]6)C=C5)C=C4)cc2)c(O)c1
REMARK SMILES IDX 28 1 27 2 25 3 26 4 24 5 21 6 22 7 104 8 23 9 102 10 20 11
REMARK SMILES IDX 1 12 2 13 3 15 4 16 5 17 6 18 18 19 7 20 8 21 17 22 19 23
REMARK SMILES IDX 9 24 10 25 11 26 12 27 13 28 16 29 14 30 15 31 103 32 29 34
REMARK SMILES IDX 30 35 31 36 32 37 33 38 34 39 35 40 36 41 37 42 101 43 38 44
REMARK SMILES IDX 100 45 39 46 40 47 41 48 94 49 42 50 99 51 93 52 95 53 43 54
REMARK SMILES IDX 98 55 92 56 91 57 44 59 78 60 57 61 77 62 58 63 61 64 76 65
REMARK SMILES IDX 96 66 59 67 60 68 75 70 97 71 62 72 45 73 46 74 55 75 47 76
REMARK SMILES IDX 48 77 54 78 56 79 49 80 50 81 51 82 52 83 53 84 79 85 80 86
REMARK SMILES IDX 89 87 81 88 82 89 88 90 90 91 83 92 84 93 85 94 86 95 87 96
REMARK SMILES IDX 63 97 64 98 73 99 65 100 66 101 72 102 74 103 67 104 68 105
REMARK SMILES IDX 69 106 70 107 71 108
REMARK H PARENT 20 14 103 33 95 58 61 69
REMARK Flexibility Score: inf
ROOT
ATOM      1  C   UNL A   1      42.501  20.300  26.228  1.00  0.00     0.261 C 
ENDROOT
BRANCH   1   2
ATOM      2  O   UNL A   1      41.231  20.735  25.714  1.00  0.00    -0.460 OA
BRANCH   2   3
ATOM      3  C   UNL A   1      40.434  21.336  26.635  1.00  0.00     0.341 C 
ATOM      4  O   UNL A   1      40.788  21.871  27.674  1.00  0.00    -0.246 OA
BRANCH   3   5
ATOM      5  C   UNL A   1      39.051  21.432  26.117  1.00  0.00     0.101 A 
ATOM      6  C   UNL A   1      36.457  21.415  25.038  1.00  0.00     0.044 A 
ATOM      7  C   UNL A   1      37.255  20.275  24.960  1.00  0.00     0.027 A 
ATOM      8  C   UNL A   1      36.956  22.558  25.679  1.00  0.00     0.073 A 
ATOM      9  C   UNL A   1      38.551  20.290  25.479  1.00  0.00     0.022 A 
ATOM     10  C   UNL A   1      38.233  22.555  26.248  1.00  0.00     0.132 A 
BRANCH   6  11
ATOM     11  N   UNL A   1      35.187  21.500  24.436  1.00  0.00    -0.326 N 
ATOM     12  O   UNL A   1      33.817  20.596  26.068  1.00  0.00    -0.275 OA
ATOM     13  C   UNL A   1      34.006  20.974  24.912  1.00  0.00     0.226 C 
ATOM     14  H   UNL A   1      35.137  21.988  23.583  1.00  0.00     0.169 HD
BRANCH  13  15
ATOM     15  C   UNL A   1      32.920  20.761  23.868  1.00  0.00     0.122 C 
BRANCH  15  16
ATOM     16  C   UNL A   1      32.114  21.978  23.413  1.00  0.00     0.137 C 
BRANCH  16  17
ATOM     17  N   UNL A   1      32.263  23.196  24.226  1.00  0.00    -0.292 N 
ATOM     18  C   UNL A   1      32.995  24.267  23.732  1.00  0.00     0.266 C 
ATOM     19  C   UNL A   1      31.598  23.421  25.420  1.00  0.00     0.148 C 
ATOM     20  O   UNL A   1      33.477  24.355  22.612  1.00  0.00    -0.268 OA
ATOM     21  C   UNL A   1      33.133  25.316  24.775  1.00  0.00     0.080 C 
ATOM     22  S   UNL A   1      32.100  24.960  26.097  1.00  0.00    -0.054 SA
ATOM     23  S   UNL A   1      30.518  22.422  26.203  1.00  0.00    -0.052 S 
ATOM     24  C   UNL A   1      33.998  26.332  24.651  1.00  0.00     0.021 C 
BRANCH  24  25
ATOM     25  C   UNL A   1      34.246  27.354  25.647  1.00  0.00     0.005 C 
ATOM     26  C   UNL A   1      33.926  28.645  25.477  1.00  0.00     0.047 C 
BRANCH  26  27
ATOM     27  C   UNL A   1      34.157  29.596  26.510  1.00  0.00     0.126 A 
ATOM     28  C   UNL A   1      35.237  29.750  27.374  1.00  0.00     0.050 A 
ATOM     29  O   UNL A   1      33.244  30.581  26.812  1.00  0.00    -0.465 OA
ATOM     30  C   UNL A   1      34.952  30.832  28.239  1.00  0.00     0.042 A 
ATOM     31  C   UNL A   1      33.720  31.297  27.860  1.00  0.00     0.195 A 
ENDBRANCH  26  27
ENDBRANCH  24  25
ENDBRANCH  16  17
ENDBRANCH  15  16
ENDBRANCH  13  15
ENDBRANCH   6  11
BRANCH  10  32
ATOM     32  O   UNL A   1      38.594  23.691  26.913  1.00  0.00    -0.507 OA
ATOM     33  H   UNL A   1      38.535  23.726  27.848  1.00  0.00     0.293 HD
ENDBRANCH  10  32
ENDBRANCH   3   5
ENDBRANCH   2   3
ENDBRANCH   1   2
BRANCH   1  34
ATOM     34  C   UNL A   1      43.673  20.782  25.365  1.00  0.00     0.202 C 
BRANCH  34  35
ATOM     35  O   UNL A   1      44.222  22.067  25.653  1.00  0.00    -0.374 OA
BRANCH  35  36
ATOM     36  C   UNL A   1      43.436  23.214  25.330  1.00  0.00     0.202 C 
BRANCH  36  37
ATOM     37  C   UNL A   1      43.098  24.201  26.457  1.00  0.00     0.261 C 
BRANCH  37  38
ATOM     38  O   UNL A   1      41.722  24.615  26.442  1.00  0.00    -0.460 OA
BRANCH  38  39
ATOM     39  C   UNL A   1      41.525  25.929  26.169  1.00  0.00     0.338 C 
ATOM     40  O   UNL A   1      41.295  26.432  25.079  1.00  0.00    -0.246 OA
BRANCH  39  41
ATOM     41  C   UNL A   1      41.427  26.683  27.432  1.00  0.00     0.060 A 
ATOM     42  C   UNL A   1      40.480  26.263  28.375  1.00  0.00     0.016 A 
ATOM     43  C   UNL A   1      42.224  27.803  27.673  1.00  0.00     0.016 A 
ATOM     44  C   UNL A   1      40.320  26.971  29.565  1.00  0.00     0.010 A 
ATOM     45  C   UNL A   1      42.051  28.519  28.862  1.00  0.00     0.010 A 
ATOM     46  C   UNL A   1      41.092  28.115  29.808  1.00  0.00    -0.014 A 
BRANCH  46  47
ATOM     47  C   UNL A   1      40.862  28.928  31.026  1.00  0.00     0.031 A 
ATOM     48  C   UNL A   1      39.803  29.994  31.018  1.00  0.00     0.074 A 
ATOM     49  C   UNL A   1      41.608  28.720  32.127  1.00  0.00     0.049 A 
ATOM     50  N   UNL A   1      39.510  30.875  31.939  1.00  0.00    -0.248 NA
ATOM     51  C   UNL A   1      38.966  30.081  29.812  1.00  0.00     0.031 C 
ATOM     52  C   UNL A   1      42.638  27.690  32.263  1.00  0.00     0.029 A 
ATOM     53  N   UNL A   1      41.629  29.378  33.331  1.00  0.00    -0.354 N 
ATOM     54  C   UNL A   1      38.462  31.628  31.423  1.00  0.00     0.074 A 
ATOM     55  C   UNL A   1      38.187  31.116  30.097  1.00  0.00     0.031 C 
ATOM     56  C   UNL A   1      43.204  27.798  33.477  1.00  0.00     0.029 A 
ATOM     57  C   UNL A   1      42.609  28.930  34.184  1.00  0.00     0.049 A 
ATOM     58  H   UNL A   1      41.001  30.101  33.562  1.00  0.00     0.167 HD
ATOM     59  C   UNL A   1      37.789  32.649  32.007  1.00  0.00     0.037 A 
ATOM     60  C   UNL A   1      43.006  29.402  35.383  1.00  0.00     0.037 A 
ATOM     61  C   UNL A   1      38.077  33.155  33.326  1.00  0.00     0.049 A 
ATOM     62  C   UNL A   1      42.303  30.595  35.973  1.00  0.00     0.074 A 
ATOM     63  C   UNL A   1      37.434  34.167  34.017  1.00  0.00     0.029 A 
ATOM     64  N   UNL A   1      39.098  32.698  34.147  1.00  0.00    -0.354 N 
ATOM     65  N   UNL A   1      41.291  31.279  35.491  1.00  0.00    -0.248 NA
ATOM     66  C   UNL A   1      42.795  31.087  37.268  1.00  0.00     0.031 C 
ATOM     67  C   UNL A   1      38.105  34.364  35.228  1.00  0.00     0.029 A 
ATOM     68  C   UNL A   1      39.129  33.435  35.320  1.00  0.00     0.049 A 
ATOM     69  H   UNL A   1      39.711  31.959  33.927  1.00  0.00     0.167 HD
ATOM     70  C   UNL A   1      41.015  32.268  36.430  1.00  0.00     0.074 A 
ATOM     71  C   UNL A   1      41.954  32.082  37.517  1.00  0.00     0.031 C 
ATOM     72  C   UNL A   1      40.073  33.242  36.394  1.00  0.00     0.037 A 
BRANCH  59  73
ATOM     73  C   UNL A   1      36.695  33.312  31.214  1.00  0.00     0.058 A 
ATOM     74  C   UNL A   1      36.974  34.162  30.133  1.00  0.00     0.135 A 
ATOM     75  C   UNL A   1      35.346  33.055  31.514  1.00  0.00     0.135 A 
ATOM     76  F   UNL A   1      38.243  34.455  29.812  1.00  0.00    -0.206 F 
ATOM     77  C   UNL A   1      35.955  34.752  29.390  1.00  0.00     0.059 A 
ATOM     78  C   UNL A   1      34.312  33.611  30.766  1.00  0.00     0.059 A 
ATOM     79  F   UNL A   1      35.022  32.251  32.538  1.00  0.00    -0.206 F 
ATOM     80  C   UNL A   1      34.627  34.469  29.714  1.00  0.00     0.060 A 
BRANCH  80  81
ATOM     81  S   UNL A   1      33.319  35.236  28.734  1.00  0.00     0.124 S 
ATOM     82  O   UNL A   1      32.678  34.067  28.139  1.00  0.00    -0.237 OA
ATOM     83  O   UNL A   1      32.540  35.937  29.750  1.00  0.00    -0.237 OA
ATOM     84  O   UNL A   1      34.046  36.093  27.804  1.00  0.00    -0.744 OA
ENDBRANCH  80  81
ENDBRANCH  59  73
BRANCH  60  85
ATOM     85  C   UNL A   1      44.149  28.765  36.089  1.00  0.00     0.058 A 
ATOM     86  C   UNL A   1      43.961  27.648  36.916  1.00  0.00     0.135 A 
ATOM     87  C   UNL A   1      45.457  29.257  35.945  1.00  0.00     0.135 A 
ATOM     88  F   UNL A   1      42.729  27.149  37.097  1.00  0.00    -0.206 F 
ATOM     89  C   UNL A   1      45.025  27.047  37.583  1.00  0.00     0.059 A 
ATOM     90  C   UNL A   1      46.540  28.656  36.579  1.00  0.00     0.059 A 
ATOM     91  F   UNL A   1      45.695  30.318  35.158  1.00  0.00    -0.206 F 
ATOM     92  C   UNL A   1      46.312  27.556  37.403  1.00  0.00     0.060 A 
BRANCH  92  93
ATOM     93  S   UNL A   1      47.692  26.734  38.227  1.00  0.00     0.124 S 
ATOM     94  O   UNL A   1      47.010  25.674  38.959  1.00  0.00    -0.237 OA
ATOM     95  O   UNL A   1      48.511  26.308  37.097  1.00  0.00    -0.237 OA
ATOM     96  O   UNL A   1      48.273  27.795  39.047  1.00  0.00    -0.744 OA
ENDBRANCH  92  93
ENDBRANCH  60  85
BRANCH  72  97
ATOM     97  C   UNL A   1      39.994  34.179  37.571  1.00  0.00     0.058 A 
ATOM     98  C   UNL A   1      40.708  35.387  37.598  1.00  0.00     0.135 A 
ATOM     99  C   UNL A   1      39.148  33.896  38.655  1.00  0.00     0.135 A 
ATOM    100  F   UNL A   1      41.539  35.704  36.592  1.00  0.00    -0.206 F 
ATOM    101  C   UNL A   1      40.598  36.273  38.665  1.00  0.00     0.059 A 
ATOM    102  C   UNL A   1      38.999  34.781  39.719  1.00  0.00     0.059 A 
ATOM    103  F   UNL A   1      38.435  32.757  38.678  1.00  0.00    -0.206 F 
ATOM    104  C   UNL A   1      39.736  35.964  39.719  1.00  0.00     0.060 A 
BRANCH 104 105
ATOM    105  S   UNL A   1      39.569  37.146  41.074  1.00  0.00     0.124 S 
ATOM    106  O   UNL A   1      38.913  36.335  42.094  1.00  0.00    -0.237 OA
ATOM    107  O   UNL A   1      40.958  37.505  41.345  1.00  0.00    -0.237 OA
ATOM    108  O   UNL A   1      38.753  38.211  40.497  1.00  0.00    -0.744 OA
ENDBRANCH 104 105
ENDBRANCH  72  97
ENDBRANCH  46  47
ENDBRANCH  39  41
ENDBRANCH  38  39
ENDBRANCH  37  38
ENDBRANCH  36  37
ENDBRANCH  35  36
ENDBRANCH  34  35
ENDBRANCH   1  34
TORSDOF 24
ENDMDL
MODEL 3
REMARK VINA RESULT:     -10.4      2.288      3.645
REMARK SMILES O=C(CCN1C(=O)/C(=C/C=C/c2ccco2)SC1=S)Nc1ccc(C(=O)OCCOCCOC(=O)c2ccc(-c3c4nc(c(-c5c(F)cc(S(=O)(=O)[O-])cc5F)c5ccc([nH]5)c(-c5c(F)cc(S(=O)(=O)[O-])cc5F)c5nc(c(-c6c(F)cc(S(=O)(=O)[O-])cc6F)c6ccc3[nH]6)C=C5)C=C4)cc2)c(O)c1
REMARK SMILES IDX 28 1 27 2 25 3 26 4 24 5 21 6 22 7 104 8 23 9 102 10 20 11
REMARK SMILES IDX 1 12 2 13 3 15 4 16 5 17 6 18 18 19 7 20 8 21 17 22 19 23
REMARK SMILES IDX 9 24 10 25 11 26 12 27 13 28 16 29 14 30 15 31 103 32 29 34
REMARK SMILES IDX 30 35 31 36 32 37 33 38 34 39 35 40 36 41 37 42 101 43 38 44
REMARK SMILES IDX 100 45 39 46 40 47 41 48 94 49 42 50 99 51 93 52 95 53 43 54
REMARK SMILES IDX 98 55 92 56 91 57 44 59 78 60 57 61 77 62 58 63 61 64 76 65
REMARK SMILES IDX 96 66 59 67 60 68 75 70 97 71 62 72 45 73 46 74 55 75 47 76
REMARK SMILES IDX 48 77 54 78 56 79 49 80 50 81 51 82 52 83 53 84 79 85 80 86
REMARK SMILES IDX 89 87 81 88 82 89 88 90 90 91 83 92 84 93 85 94 86 95 87 96
REMARK SMILES IDX 63 97 64 98 73 99 65 100 66 101 72 102 74 103 67 104 68 105
REMARK SMILES IDX 69 106 70 107 71 108
REMARK H PARENT 20 14 103 33 95 58 61 69
REMARK Flexibility Score: inf
ROOT
ATOM      1  C   UNL A   1      40.387  21.701  26.659  1.00  0.00     0.261 C 
ENDROOT
BRANCH   1   2
ATOM      2  O   UNL A   1      39.245  22.108  25.887  1.00  0.00    -0.460 OA
BRANCH   2   3
ATOM      3  C   UNL A   1      38.485  21.078  25.431  1.00  0.00     0.341 C 
ATOM      4  O   UNL A   1      38.776  19.892  25.441  1.00  0.00    -0.246 OA
BRANCH   3   5
ATOM      5  C   UNL A   1      37.135  21.567  25.077  1.00  0.00     0.101 A 
ATOM      6  C   UNL A   1      34.650  22.705  24.423  1.00  0.00     0.044 A 
ATOM      7  C   UNL A   1      35.785  23.509  24.515  1.00  0.00     0.027 A 
ATOM      8  C   UNL A   1      34.769  21.324  24.637  1.00  0.00     0.073 A 
ATOM      9  C   UNL A   1      37.015  22.947  24.860  1.00  0.00     0.022 A 
ATOM     10  C   UNL A   1      36.011  20.754  24.928  1.00  0.00     0.132 A 
BRANCH   6  11
ATOM     11  N   UNL A   1      33.363  23.226  24.190  1.00  0.00    -0.326 N 
ATOM     12  O   UNL A   1      33.273  23.281  21.879  1.00  0.00    -0.275 OA
ATOM     13  C   UNL A   1      32.826  23.603  22.979  1.00  0.00     0.226 C 
ATOM     14  H   UNL A   1      32.784  23.334  24.979  1.00  0.00     0.169 HD
BRANCH  13  15
ATOM     15  C   UNL A   1      31.662  24.579  23.058  1.00  0.00     0.122 C 
BRANCH  15  16
ATOM     16  C   UNL A   1      31.384  25.257  24.400  1.00  0.00     0.137 C 
BRANCH  16  17
ATOM     17  N   UNL A   1      32.094  26.522  24.647  1.00  0.00    -0.292 N 
ATOM     18  C   UNL A   1      33.152  26.553  25.546  1.00  0.00     0.266 C 
ATOM     19  C   UNL A   1      31.879  27.689  23.931  1.00  0.00     0.148 C 
ATOM     20  O   UNL A   1      33.641  25.588  26.116  1.00  0.00    -0.268 OA
ATOM     21  C   UNL A   1      33.614  27.951  25.743  1.00  0.00     0.080 C 
ATOM     22  S   UNL A   1      32.881  28.975  24.579  1.00  0.00    -0.054 SA
ATOM     23  S   UNL A   1      30.813  27.947  22.677  1.00  0.00    -0.052 S 
ATOM     24  C   UNL A   1      34.443  28.291  26.739  1.00  0.00     0.021 C 
BRANCH  24  25
ATOM     25  C   UNL A   1      34.886  29.636  27.046  1.00  0.00     0.005 C 
ATOM     26  C   UNL A   1      34.082  30.579  27.559  1.00  0.00     0.047 C 
BRANCH  26  27
ATOM     27  C   UNL A   1      34.586  31.871  27.878  1.00  0.00     0.126 A 
ATOM     28  C   UNL A   1      33.922  33.071  28.110  1.00  0.00     0.050 A 
ATOM     29  O   UNL A   1      35.936  32.115  28.009  1.00  0.00    -0.465 OA
ATOM     30  C   UNL A   1      34.895  34.069  28.352  1.00  0.00     0.042 A 
ATOM     31  C   UNL A   1      36.107  33.434  28.269  1.00  0.00     0.195 A 
ENDBRANCH  26  27
ENDBRANCH  24  25
ENDBRANCH  16  17
ENDBRANCH  15  16
ENDBRANCH  13  15
ENDBRANCH   6  11
BRANCH  10  32
ATOM     32  O   UNL A   1      36.032  19.393  25.045  1.00  0.00    -0.507 OA
ATOM     33  H   UNL A   1      35.719  18.985  25.828  1.00  0.00     0.293 HD
ENDBRANCH  10  32
ENDBRANCH   3   5
ENDBRANCH   2   3
ENDBRANCH   1   2
BRANCH   1  34
ATOM     34  C   UNL A   1      41.673  22.404  26.208  1.00  0.00     0.202 C 
BRANCH  34  35
ATOM     35  O   UNL A   1      42.118  23.524  26.969  1.00  0.00    -0.374 OA
BRANCH  35  36
ATOM     36  C   UNL A   1      42.518  24.695  26.258  1.00  0.00     0.202 C 
BRANCH  36  37
ATOM     37  C   UNL A   1      41.433  25.519  25.548  1.00  0.00     0.261 C 
BRANCH  37  38
ATOM     38  O   UNL A   1      40.872  26.543  26.386  1.00  0.00    -0.460 OA
BRANCH  38  39
ATOM     39  C   UNL A   1      39.877  26.126  27.208  1.00  0.00     0.338 C 
ATOM     40  O   UNL A   1      39.172  25.138  27.074  1.00  0.00    -0.246 OA
BRANCH  39  41
ATOM     41  C   UNL A   1      39.881  26.942  28.436  1.00  0.00     0.060 A 
ATOM     42  C   UNL A   1      40.730  28.056  28.480  1.00  0.00     0.016 A 
ATOM     43  C   UNL A   1      39.095  26.602  29.537  1.00  0.00     0.016 A 
ATOM     44  C   UNL A   1      40.802  28.832  29.636  1.00  0.00     0.010 A 
ATOM     45  C   UNL A   1      39.180  27.374  30.700  1.00  0.00     0.010 A 
ATOM     46  C   UNL A   1      40.041  28.486  30.760  1.00  0.00    -0.014 A 
BRANCH  46  47
ATOM     47  C   UNL A   1      40.182  29.248  32.024  1.00  0.00     0.031 A 
ATOM     48  C   UNL A   1      39.239  30.380  32.318  1.00  0.00     0.074 A 
ATOM     49  C   UNL A   1      41.160  28.935  32.894  1.00  0.00     0.049 A 
ATOM     50  N   UNL A   1      39.251  31.229  33.312  1.00  0.00    -0.248 NA
ATOM     51  C   UNL A   1      38.139  30.584  31.363  1.00  0.00     0.031 C 
ATOM     52  C   UNL A   1      42.110  27.834  32.732  1.00  0.00     0.029 A 
ATOM     53  N   UNL A   1      41.529  29.527  34.076  1.00  0.00    -0.354 N 
ATOM     54  C   UNL A   1      38.168  32.074  33.101  1.00  0.00     0.074 A 
ATOM     55  C   UNL A   1      37.536  31.651  31.871  1.00  0.00     0.031 C 
ATOM     56  C   UNL A   1      42.966  27.842  33.768  1.00  0.00     0.029 A 
ATOM     57  C   UNL A   1      42.653  28.972  34.640  1.00  0.00     0.049 A 
ATOM     58  H   UNL A   1      41.034  30.276  34.481  1.00  0.00     0.167 HD
ATOM     59  C   UNL A   1      37.742  33.106  33.870  1.00  0.00     0.037 A 
ATOM     60  C   UNL A   1      43.369  29.354  35.716  1.00  0.00     0.037 A 
ATOM     61  C   UNL A   1      38.385  33.522  35.091  1.00  0.00     0.049 A 
ATOM     62  C   UNL A   1      42.927  30.558  36.505  1.00  0.00     0.074 A 
ATOM     63  C   UNL A   1      38.013  34.537  35.955  1.00  0.00     0.029 A 
ATOM     64  N   UNL A   1      39.540  32.958  35.613  1.00  0.00    -0.354 N 
ATOM     65  N   UNL A   1      41.883  31.331  36.315  1.00  0.00    -0.248 NA
ATOM     66  C   UNL A   1      43.762  30.949  37.650  1.00  0.00     0.031 C 
ATOM     67  C   UNL A   1      38.976  34.627  36.965  1.00  0.00     0.029 A 
ATOM     68  C   UNL A   1      39.917  33.629  36.765  1.00  0.00     0.049 A 
ATOM     69  H   UNL A   1      40.021  32.193  35.222  1.00  0.00     0.167 HD
ATOM     70  C   UNL A   1      41.924  32.285  37.326  1.00  0.00     0.074 A 
ATOM     71  C   UNL A   1      43.086  31.982  38.136  1.00  0.00     0.031 C 
ATOM     72  C   UNL A   1      41.080  33.320  37.561  1.00  0.00     0.037 A 
BRANCH  59  73
ATOM     73  C   UNL A   1      36.539  33.880  33.400  1.00  0.00     0.058 A 
ATOM     74  C   UNL A   1      36.597  34.741  32.294  1.00  0.00     0.135 A 
ATOM     75  C   UNL A   1      35.298  33.719  34.040  1.00  0.00     0.135 A 
ATOM     76  F   UNL A   1      37.760  34.944  31.654  1.00  0.00    -0.206 F 
ATOM     77  C   UNL A   1      35.474  35.434  31.851  1.00  0.00     0.059 A 
ATOM     78  C   UNL A   1      34.155  34.379  33.596  1.00  0.00     0.059 A 
ATOM     79  F   UNL A   1      35.185  32.909  35.103  1.00  0.00    -0.206 F 
ATOM     80  C   UNL A   1      34.257  35.246  32.509  1.00  0.00     0.060 A 
BRANCH  80  81
ATOM     81  S   UNL A   1      32.809  36.146  31.916  1.00  0.00     0.124 S 
ATOM     82  O   UNL A   1      33.021  37.462  32.511  1.00  0.00    -0.237 OA
ATOM     83  O   UNL A   1      32.969  36.072  30.468  1.00  0.00    -0.237 OA
ATOM     84  O   UNL A   1      31.688  35.386  32.459  1.00  0.00    -0.744 OA
ENDBRANCH  80  81
ENDBRANCH  59  73
BRANCH  60  85
ATOM     85  C   UNL A   1      44.600  28.607  36.091  1.00  0.00     0.058 A 
ATOM     86  C   UNL A   1      44.542  27.484  36.928  1.00  0.00     0.135 A 
ATOM     87  C   UNL A   1      45.861  28.999  35.612  1.00  0.00     0.135 A 
ATOM     88  F   UNL A   1      43.363  27.078  37.422  1.00  0.00    -0.206 F 
ATOM     89  C   UNL A   1      45.689  26.781  37.286  1.00  0.00     0.059 A 
ATOM     90  C   UNL A   1      47.018  28.297  35.933  1.00  0.00     0.059 A 
ATOM     91  F   UNL A   1      45.973  30.062  34.800  1.00  0.00    -0.206 F 
ATOM     92  C   UNL A   1      46.921  27.193  36.778  1.00  0.00     0.060 A 
BRANCH  92  93
ATOM     93  S   UNL A   1      48.396  26.241  37.202  1.00  0.00     0.124 S 
ATOM     94  O   UNL A   1      47.873  25.316  38.201  1.00  0.00    -0.237 OA
ATOM     95  O   UNL A   1      48.760  25.654  35.917  1.00  0.00    -0.237 OA
ATOM     96  O   UNL A   1      49.319  27.256  37.703  1.00  0.00    -0.744 OA
ENDBRANCH  92  93
ENDBRANCH  60  85
BRANCH  72  97
ATOM     97  C   UNL A   1      41.367  34.197  38.751  1.00  0.00     0.058 A 
ATOM     98  C   UNL A   1      42.168  35.345  38.642  1.00  0.00     0.135 A 
ATOM     99  C   UNL A   1      40.785  33.923  39.999  1.00  0.00     0.135 A 
ATOM    100  F   UNL A   1      42.758  35.649  37.475  1.00  0.00    -0.206 F 
ATOM    101  C   UNL A   1      42.395  36.180  39.731  1.00  0.00     0.059 A 
ATOM    102  C   UNL A   1      40.973  34.760  41.095  1.00  0.00     0.059 A 
ATOM    103  F   UNL A   1      40.003  32.842  40.158  1.00  0.00    -0.206 F 
ATOM    104  C   UNL A   1      41.787  35.882  40.953  1.00  0.00     0.060 A 
BRANCH 104 105
ATOM    105  S   UNL A   1      42.053  37.002  42.345  1.00  0.00     0.124 S 
ATOM    106  O   UNL A   1      41.422  38.227  41.863  1.00  0.00    -0.237 OA
ATOM    107  O   UNL A   1      41.359  36.317  43.432  1.00  0.00    -0.237 OA
ATOM    108  O   UNL A   1      43.507  37.051  42.469  1.00  0.00    -0.744 OA
ENDBRANCH 104 105
ENDBRANCH  72  97
ENDBRANCH  46  47
ENDBRANCH  39  41
ENDBRANCH  38  39
ENDBRANCH  37  38
ENDBRANCH  36  37
ENDBRANCH  35  36
ENDBRANCH  34  35
ENDBRANCH   1  34
TORSDOF 24
ENDMDL
