MODEL 1
REMARK VINA RESULT:     -10.6      0.000      0.000
REMARK SMILES C[C@@H](C(=O)OCCOCCOC(=O)c1ccc(-c2c3nc(c(-c4c(F)cc(S(=O)(=O)[O-])cc4F)c4ccc([nH]4)c(-c4c(F)cc(S(=O)(=O)[O-])cc4F)c4nc(c(-c5c(F)cc(S(=O)(=O)[O-])cc5F)c5ccc2[nH]5)C=C4)C=C3)cc1)c1ccc(C[C@H]2CCC[C@H]2O)cc1
REMARK SMILES IDX 7 1 6 2 5 3 3 4 4 5 2 6 1 7 80 8 81 9 92 10 82 11 91 12
REMARK SMILES IDX 83 13 84 14 85 15 86 16 89 17 87 18 88 19 90 20 8 22 9 23
REMARK SMILES IDX 10 24 11 25 12 26 13 27 14 28 15 29 79 30 16 31 78 32 17 33
REMARK SMILES IDX 18 34 19 35 72 36 20 37 77 38 71 39 73 40 21 41 76 42 70 43
REMARK SMILES IDX 69 44 22 46 56 47 35 48 55 49 36 50 39 51 54 52 74 53 37 54
REMARK SMILES IDX 38 55 53 57 75 58 40 59 23 60 24 61 33 62 25 63 26 64 32 65
REMARK SMILES IDX 34 66 27 67 28 68 29 69 30 70 31 71 57 72 58 73 67 74 59 75
REMARK SMILES IDX 60 76 66 77 68 78 61 79 62 80 63 81 64 82 65 83 41 84 42 85
REMARK SMILES IDX 51 86 43 87 44 88 50 89 52 90 45 91 46 92 47 93 48 94 49 95
REMARK H PARENT 90 21 73 45 39 56
REMARK Flexibility Score: inf
ROOT
ATOM      1  C   UNL A   1      32.153  29.134  23.579  1.00  0.00     0.202 C 
ENDROOT
BRANCH   1   2
ATOM      2  C   UNL A   1      33.432  28.375  23.215  1.00  0.00     0.261 C 
BRANCH   2   3
ATOM      3  O   UNL A   1      33.262  26.968  23.444  1.00  0.00    -0.463 OA
BRANCH   3   4
ATOM      4  C   UNL A   1      33.050  26.221  22.329  1.00  0.00     0.313 C 
ATOM      5  O   UNL A   1      33.654  26.375  21.272  1.00  0.00    -0.252 OA
BRANCH   4   6
ATOM      6  C   UNL A   1      32.028  25.102  22.557  1.00  0.00     0.126 C 
ATOM      7  C   UNL A   1      30.798  25.544  23.361  1.00  0.00     0.025 C 
BRANCH   6   8
ATOM      8  C   UNL A   1      32.702  23.822  23.056  1.00  0.00    -0.034 A 
ATOM      9  C   UNL A   1      31.902  22.687  23.264  1.00  0.00     0.005 A 
ATOM     10  C   UNL A   1      34.069  23.717  23.349  1.00  0.00     0.005 A 
ATOM     11  C   UNL A   1      32.432  21.513  23.795  1.00  0.00     0.004 A 
ATOM     12  C   UNL A   1      34.596  22.545  23.909  1.00  0.00     0.004 A 
ATOM     13  C   UNL A   1      33.767  21.454  24.195  1.00  0.00    -0.048 A 
BRANCH  13  14
ATOM     14  C   UNL A   1      34.267  20.270  24.984  1.00  0.00     0.041 C 
BRANCH  14  15
ATOM     15  C   UNL A   1      33.853  18.875  24.472  1.00  0.00     0.022 C 
ATOM     16  C   UNL A   1      34.981  17.832  24.378  1.00  0.00     0.007 C 
ATOM     17  C   UNL A   1      32.697  18.139  25.176  1.00  0.00     0.117 C 
ATOM     18  C   UNL A   1      34.333  16.471  24.641  1.00  0.00     0.003 C 
ATOM     19  C   UNL A   1      32.828  16.718  24.642  1.00  0.00     0.032 C 
BRANCH  17  20
ATOM     20  O   UNL A   1      32.777  18.087  26.587  1.00  0.00    -0.393 OA
ATOM     21  H   UNL A   1      33.160  18.914  26.920  1.00  0.00     0.210 HD
ENDBRANCH  17  20
ENDBRANCH  14  15
ENDBRANCH  13  14
ENDBRANCH   6   8
ENDBRANCH   4   6
ENDBRANCH   3   4
ENDBRANCH   2   3
ENDBRANCH   1   2
BRANCH   1  22
ATOM     22  O   UNL A   1      31.471  28.704  24.759  1.00  0.00    -0.374 OA
BRANCH  22  23
ATOM     23  C   UNL A   1      31.626  29.493  25.938  1.00  0.00     0.202 C 
BRANCH  23  24
ATOM     24  C   UNL A   1      32.788  29.129  26.873  1.00  0.00     0.261 C 
BRANCH  24  25
ATOM     25  O   UNL A   1      34.015  29.799  26.531  1.00  0.00    -0.460 OA
BRANCH  25  26
ATOM     26  C   UNL A   1      34.502  30.613  27.500  1.00  0.00     0.338 C 
ATOM     27  O   UNL A   1      33.932  31.567  28.016  1.00  0.00    -0.246 OA
BRANCH  26  28
ATOM     28  C   UNL A   1      35.782  30.094  28.018  1.00  0.00     0.060 A 
ATOM     29  C   UNL A   1      35.776  29.527  29.298  1.00  0.00     0.016 A 
ATOM     30  C   UNL A   1      36.977  30.238  27.310  1.00  0.00     0.016 A 
ATOM     31  C   UNL A   1      36.973  29.143  29.898  1.00  0.00     0.010 A 
ATOM     32  C   UNL A   1      38.181  29.863  27.922  1.00  0.00     0.010 A 
ATOM     33  C   UNL A   1      38.186  29.347  29.230  1.00  0.00    -0.014 A 
BRANCH  33  34
ATOM     34  C   UNL A   1      39.459  29.161  29.969  1.00  0.00     0.031 A 
ATOM     35  C   UNL A   1      40.417  28.093  29.514  1.00  0.00     0.074 A 
ATOM     36  C   UNL A   1      39.782  29.965  30.998  1.00  0.00     0.049 A 
ATOM     37  N   UNL A   1      41.571  27.744  30.022  1.00  0.00    -0.248 NA
ATOM     38  C   UNL A   1      40.021  27.315  28.329  1.00  0.00     0.031 C 
ATOM     39  C   UNL A   1      38.955  31.060  31.504  1.00  0.00     0.029 A 
ATOM     40  N   UNL A   1      40.892  29.980  31.805  1.00  0.00    -0.354 N 
ATOM     41  C   UNL A   1      42.040  26.711  29.219  1.00  0.00     0.074 A 
ATOM     42  C   UNL A   1      41.032  26.466  28.211  1.00  0.00     0.031 C 
ATOM     43  C   UNL A   1      39.581  31.632  32.547  1.00  0.00     0.029 A 
ATOM     44  C   UNL A   1      40.838  30.928  32.798  1.00  0.00     0.049 A 
ATOM     45  H   UNL A   1      41.654  29.369  31.684  1.00  0.00     0.167 HD
ATOM     46  C   UNL A   1      43.211  26.035  29.307  1.00  0.00     0.037 A 
ATOM     47  C   UNL A   1      41.694  31.185  33.807  1.00  0.00     0.037 A 
ATOM     48  C   UNL A   1      44.211  26.279  30.312  1.00  0.00     0.049 A 
ATOM     49  C   UNL A   1      42.964  30.383  33.921  1.00  0.00     0.074 A 
ATOM     50  C   UNL A   1      45.427  25.644  30.490  1.00  0.00     0.029 A 
ATOM     51  N   UNL A   1      44.110  27.234  31.314  1.00  0.00    -0.354 N 
ATOM     52  N   UNL A   1      43.394  29.408  33.155  1.00  0.00    -0.248 NA
ATOM     53  C   UNL A   1      43.868  30.718  35.031  1.00  0.00     0.031 C 
ATOM     54  C   UNL A   1      46.046  26.189  31.621  1.00  0.00     0.029 A 
ATOM     55  C   UNL A   1      45.236  27.196  32.120  1.00  0.00     0.049 A 
ATOM     56  H   UNL A   1      43.351  27.849  31.434  1.00  0.00     0.167 HD
ATOM     57  C   UNL A   1      44.627  29.029  33.677  1.00  0.00     0.074 A 
ATOM     58  C   UNL A   1      44.879  29.887  34.816  1.00  0.00     0.031 C 
ATOM     59  C   UNL A   1      45.474  28.059  33.250  1.00  0.00     0.037 A 
BRANCH  46  60
ATOM     60  C   UNL A   1      43.469  24.954  28.294  1.00  0.00     0.058 A 
ATOM     61  C   UNL A   1      43.066  23.628  28.515  1.00  0.00     0.135 A 
ATOM     62  C   UNL A   1      44.091  25.256  27.072  1.00  0.00     0.135 A 
ATOM     63  F   UNL A   1      42.487  23.281  29.676  1.00  0.00    -0.206 F 
ATOM     64  C   UNL A   1      43.287  22.634  27.566  1.00  0.00     0.059 A 
ATOM     65  C   UNL A   1      44.298  24.283  26.099  1.00  0.00     0.059 A 
ATOM     66  F   UNL A   1      44.499  26.508  26.813  1.00  0.00    -0.206 F 
ATOM     67  C   UNL A   1      43.903  22.973  26.360  1.00  0.00     0.060 A 
BRANCH  67  68
ATOM     68  S   UNL A   1      44.167  21.675  25.133  1.00  0.00     0.124 S 
ATOM     69  O   UNL A   1      43.071  20.760  25.436  1.00  0.00    -0.237 OA
ATOM     70  O   UNL A   1      44.052  22.406  23.875  1.00  0.00    -0.237 OA
ATOM     71  O   UNL A   1      45.503  21.178  25.445  1.00  0.00    -0.744 OA
ENDBRANCH  67  68
ENDBRANCH  46  60
BRANCH  47  72
ATOM     72  C   UNL A   1      41.366  32.240  34.802  1.00  0.00     0.058 A 
ATOM     73  C   UNL A   1      41.807  33.561  34.637  1.00  0.00     0.135 A 
ATOM     74  C   UNL A   1      40.586  31.947  35.932  1.00  0.00     0.135 A 
ATOM     75  F   UNL A   1      42.564  33.888  33.579  1.00  0.00    -0.206 F 
ATOM     76  C   UNL A   1      41.492  34.553  35.561  1.00  0.00     0.059 A 
ATOM     77  C   UNL A   1      40.239  32.926  36.856  1.00  0.00     0.059 A 
ATOM     78  F   UNL A   1      40.131  30.699  36.130  1.00  0.00    -0.206 F 
ATOM     79  C   UNL A   1      40.703  34.226  36.665  1.00  0.00     0.060 A 
BRANCH  79  80
ATOM     80  S   UNL A   1      40.246  35.535  37.824  1.00  0.00     0.124 S 
ATOM     81  O   UNL A   1      39.930  36.632  36.919  1.00  0.00    -0.237 OA
ATOM     82  O   UNL A   1      39.115  34.940  38.529  1.00  0.00    -0.237 OA
ATOM     83  O   UNL A   1      41.455  35.706  38.627  1.00  0.00    -0.744 OA
ENDBRANCH  79  80
ENDBRANCH  47  72
BRANCH  59  84
ATOM     84  C   UNL A   1      46.767  27.887  33.998  1.00  0.00     0.058 A 
ATOM     85  C   UNL A   1      46.892  26.969  35.053  1.00  0.00     0.135 A 
ATOM     86  C   UNL A   1      47.912  28.605  33.614  1.00  0.00     0.135 A 
ATOM     87  F   UNL A   1      45.828  26.260  35.461  1.00  0.00    -0.206 F 
ATOM     88  C   UNL A   1      48.102  26.785  35.715  1.00  0.00     0.059 A 
ATOM     89  C   UNL A   1      49.137  28.419  34.246  1.00  0.00     0.059 A 
ATOM     90  F   UNL A   1      47.849  29.487  32.604  1.00  0.00    -0.206 F 
ATOM     91  C   UNL A   1      49.219  27.514  35.304  1.00  0.00     0.060 A 
BRANCH  91  92
ATOM     92  S   UNL A   1      50.791  27.240  36.149  1.00  0.00     0.124 S 
ATOM     93  O   UNL A   1      50.351  26.633  37.400  1.00  0.00    -0.237 OA
ATOM     94  O   UNL A   1      51.494  26.354  35.226  1.00  0.00    -0.237 OA
ATOM     95  O   UNL A   1      51.352  28.584  36.267  1.00  0.00    -0.744 OA
ENDBRANCH  91  92
ENDBRANCH  59  84
ENDBRANCH  33  34
ENDBRANCH  26  28
ENDBRANCH  25  26
ENDBRANCH  24  25
ENDBRANCH  23  24
ENDBRANCH  22  23
ENDBRANCH   1  22
TORSDOF 21
ENDMDL
MODEL 2
REMARK VINA RESULT:     -10.6      3.225      9.155
REMARK SMILES C[C@@H](C(=O)OCCOCCOC(=O)c1ccc(-c2c3nc(c(-c4c(F)cc(S(=O)(=O)[O-])cc4F)c4ccc([nH]4)c(-c4c(F)cc(S(=O)(=O)[O-])cc4F)c4nc(c(-c5c(F)cc(S(=O)(=O)[O-])cc5F)c5ccc2[nH]5)C=C4)C=C3)cc1)c1ccc(C[C@H]2CCC[C@H]2O)cc1
REMARK SMILES IDX 7 1 6 2 5 3 3 4 4 5 2 6 1 7 80 8 81 9 92 10 82 11 91 12
REMARK SMILES IDX 83 13 84 14 85 15 86 16 89 17 87 18 88 19 90 20 8 22 9 23
REMARK SMILES IDX 10 24 11 25 12 26 13 27 14 28 15 29 79 30 16 31 78 32 17 33
REMARK SMILES IDX 18 34 19 35 72 36 20 37 77 38 71 39 73 40 21 41 76 42 70 43
REMARK SMILES IDX 69 44 22 46 56 47 35 48 55 49 36 50 39 51 54 52 74 53 37 54
REMARK SMILES IDX 38 55 53 57 75 58 40 59 23 60 24 61 33 62 25 63 26 64 32 65
REMARK SMILES IDX 34 66 27 67 28 68 29 69 30 70 31 71 57 72 58 73 67 74 59 75
REMARK SMILES IDX 60 76 66 77 68 78 61 79 62 80 63 81 64 82 65 83 41 84 42 85
REMARK SMILES IDX 51 86 43 87 44 88 50 89 52 90 45 91 46 92 47 93 48 94 49 95
REMARK H PARENT 90 21 73 45 39 56
REMARK Flexibility Score: inf
ROOT
ATOM      1  C   UNL A   1      39.722  21.128  26.110  1.00  0.00     0.202 C 
ENDROOT
BRANCH   1   2
ATOM      2  C   UNL A   1      38.454  21.959  25.900  1.00  0.00     0.261 C 
BRANCH   2   3
ATOM      3  O   UNL A   1      37.465  21.193  25.197  1.00  0.00    -0.463 OA
BRANCH   3   4
ATOM      4  C   UNL A   1      36.616  21.917  24.421  1.00  0.00     0.313 C 
ATOM      5  O   UNL A   1      36.922  22.407  23.338  1.00  0.00    -0.252 OA
BRANCH   4   6
ATOM      6  C   UNL A   1      35.199  21.986  25.004  1.00  0.00     0.126 C 
ATOM      7  C   UNL A   1      34.363  20.728  24.740  1.00  0.00     0.025 C 
BRANCH   6   8
ATOM      8  C   UNL A   1      34.513  23.307  24.651  1.00  0.00    -0.034 A 
ATOM      9  C   UNL A   1      33.676  23.340  23.523  1.00  0.00     0.005 A 
ATOM     10  C   UNL A   1      34.688  24.499  25.367  1.00  0.00     0.005 A 
ATOM     11  C   UNL A   1      33.084  24.527  23.094  1.00  0.00     0.004 A 
ATOM     12  C   UNL A   1      34.114  25.697  24.918  1.00  0.00     0.004 A 
ATOM     13  C   UNL A   1      33.358  25.731  23.742  1.00  0.00    -0.048 A 
BRANCH  13  14
ATOM     14  C   UNL A   1      32.909  27.035  23.130  1.00  0.00     0.041 C 
BRANCH  14  15
ATOM     15  C   UNL A   1      31.637  27.675  23.725  1.00  0.00     0.022 C 
ATOM     16  C   UNL A   1      31.817  29.067  24.354  1.00  0.00     0.007 C 
ATOM     17  C   UNL A   1      30.387  27.806  22.835  1.00  0.00     0.117 C 
ATOM     18  C   UNL A   1      30.494  29.808  24.147  1.00  0.00     0.003 C 
ATOM     19  C   UNL A   1      29.509  28.767  23.627  1.00  0.00     0.032 C 
BRANCH  17  20
ATOM     20  O   UNL A   1      30.606  28.365  21.554  1.00  0.00    -0.393 OA
ATOM     21  H   UNL A   1      31.554  28.538  21.435  1.00  0.00     0.210 HD
ENDBRANCH  17  20
ENDBRANCH  14  15
ENDBRANCH  13  14
ENDBRANCH   6   8
ENDBRANCH   4   6
ENDBRANCH   3   4
ENDBRANCH   2   3
ENDBRANCH   1   2
BRANCH   1  22
ATOM     22  O   UNL A   1      40.602  21.559  27.150  1.00  0.00    -0.374 OA
BRANCH  22  23
ATOM     23  C   UNL A   1      41.961  21.822  26.802  1.00  0.00     0.202 C 
BRANCH  23  24
ATOM     24  C   UNL A   1      42.320  23.269  26.434  1.00  0.00     0.261 C 
BRANCH  24  25
ATOM     25  O   UNL A   1      41.172  24.134  26.372  1.00  0.00    -0.460 OA
BRANCH  25  26
ATOM     26  C   UNL A   1      41.460  25.439  26.147  1.00  0.00     0.338 C 
ATOM     27  O   UNL A   1      41.538  25.999  25.060  1.00  0.00    -0.246 OA
BRANCH  26  28
ATOM     28  C   UNL A   1      41.493  26.189  27.416  1.00  0.00     0.060 A 
ATOM     29  C   UNL A   1      40.435  25.987  28.311  1.00  0.00     0.016 A 
ATOM     30  C   UNL A   1      42.484  27.134  27.689  1.00  0.00     0.016 A 
ATOM     31  C   UNL A   1      40.336  26.763  29.463  1.00  0.00     0.010 A 
ATOM     32  C   UNL A   1      42.375  27.922  28.843  1.00  0.00     0.010 A 
ATOM     33  C   UNL A   1      41.283  27.763  29.715  1.00  0.00    -0.014 A 
BRANCH  33  34
ATOM     34  C   UNL A   1      41.036  28.736  30.808  1.00  0.00     0.031 A 
ATOM     35  C   UNL A   1      41.897  28.684  32.041  1.00  0.00     0.074 A 
ATOM     36  C   UNL A   1      40.090  29.685  30.684  1.00  0.00     0.049 A 
ATOM     37  N   UNL A   1      41.845  29.419  33.120  1.00  0.00    -0.248 NA
ATOM     38  C   UNL A   1      42.961  27.667  32.056  1.00  0.00     0.031 C 
ATOM     39  C   UNL A   1      39.221  29.863  29.521  1.00  0.00     0.029 A 
ATOM     40  N   UNL A   1      39.702  30.677  31.549  1.00  0.00    -0.354 N 
ATOM     41  C   UNL A   1      42.866  28.958  33.942  1.00  0.00     0.074 A 
ATOM     42  C   UNL A   1      43.502  27.858  33.251  1.00  0.00     0.031 C 
ATOM     43  C   UNL A   1      38.390  30.893  29.753  1.00  0.00     0.029 A 
ATOM     44  C   UNL A   1      38.650  31.431  31.087  1.00  0.00     0.049 A 
ATOM     45  H   UNL A   1      40.136  30.834  32.418  1.00  0.00     0.167 HD
ATOM     46  C   UNL A   1      43.248  29.418  35.158  1.00  0.00     0.037 A 
ATOM     47  C   UNL A   1      37.962  32.426  31.682  1.00  0.00     0.037 A 
ATOM     48  C   UNL A   1      42.612  30.512  35.843  1.00  0.00     0.049 A 
ATOM     49  C   UNL A   1      38.365  32.884  33.058  1.00  0.00     0.074 A 
ATOM     50  C   UNL A   1      42.920  31.049  37.081  1.00  0.00     0.029 A 
ATOM     51  N   UNL A   1      41.535  31.236  35.352  1.00  0.00    -0.354 N 
ATOM     52  N   UNL A   1      39.334  32.438  33.824  1.00  0.00    -0.248 NA
ATOM     53  C   UNL A   1      37.590  33.984  33.650  1.00  0.00     0.031 C 
ATOM     54  C   UNL A   1      42.007  32.074  37.355  1.00  0.00     0.029 A 
ATOM     55  C   UNL A   1      41.159  32.206  36.268  1.00  0.00     0.049 A 
ATOM     56  H   UNL A   1      41.103  31.085  34.481  1.00  0.00     0.167 HD
ATOM     57  C   UNL A   1      39.297  33.216  34.977  1.00  0.00     0.074 A 
ATOM     58  C   UNL A   1      38.219  34.168  34.803  1.00  0.00     0.031 C 
ATOM     59  C   UNL A   1      40.085  33.149  36.078  1.00  0.00     0.037 A 
BRANCH  46  60
ATOM     60  C   UNL A   1      44.401  28.729  35.832  1.00  0.00     0.058 A 
ATOM     61  C   UNL A   1      44.204  27.641  36.697  1.00  0.00     0.135 A 
ATOM     62  C   UNL A   1      45.721  29.137  35.582  1.00  0.00     0.135 A 
ATOM     63  F   UNL A   1      42.961  27.224  36.987  1.00  0.00    -0.206 F 
ATOM     64  C   UNL A   1      45.275  26.991  37.302  1.00  0.00     0.059 A 
ATOM     65  C   UNL A   1      46.808  28.486  36.157  1.00  0.00     0.059 A 
ATOM     66  F   UNL A   1      45.964  30.176  34.767  1.00  0.00    -0.206 F 
ATOM     67  C   UNL A   1      46.574  27.420  37.024  1.00  0.00     0.060 A 
BRANCH  67  68
ATOM     68  S   UNL A   1      47.954  26.557  37.805  1.00  0.00     0.124 S 
ATOM     69  O   UNL A   1      47.291  25.370  38.338  1.00  0.00    -0.237 OA
ATOM     70  O   UNL A   1      48.856  26.327  36.682  1.00  0.00    -0.237 OA
ATOM     71  O   UNL A   1      48.430  27.509  38.804  1.00  0.00    -0.744 OA
ENDBRANCH  67  68
ENDBRANCH  46  60
BRANCH  47  72
ATOM     72  C   UNL A   1      36.804  33.043  30.981  1.00  0.00     0.058 A 
ATOM     73  C   UNL A   1      35.484  32.732  31.339  1.00  0.00     0.135 A 
ATOM     74  C   UNL A   1      37.001  33.971  29.946  1.00  0.00     0.135 A 
ATOM     75  F   UNL A   1      35.246  31.842  32.313  1.00  0.00    -0.206 F 
ATOM     76  C   UNL A   1      34.400  33.315  30.692  1.00  0.00     0.059 A 
ATOM     77  C   UNL A   1      35.933  34.585  29.301  1.00  0.00     0.059 A 
ATOM     78  F   UNL A   1      38.245  34.309  29.573  1.00  0.00    -0.206 F 
ATOM     79  C   UNL A   1      34.634  34.245  29.676  1.00  0.00     0.060 A 
BRANCH  79  80
ATOM     80  S   UNL A   1      33.220  35.045  28.887  1.00  0.00     0.124 S 
ATOM     81  O   UNL A   1      32.764  34.003  27.975  1.00  0.00    -0.237 OA
ATOM     82  O   UNL A   1      32.350  35.324  30.025  1.00  0.00    -0.237 OA
ATOM     83  O   UNL A   1      33.811  36.222  28.256  1.00  0.00    -0.744 OA
ENDBRANCH  79  80
ENDBRANCH  47  72
BRANCH  59  84
ATOM     84  C   UNL A   1      39.834  34.147  37.175  1.00  0.00     0.058 A 
ATOM     85  C   UNL A   1      38.963  33.869  38.240  1.00  0.00     0.135 A 
ATOM     86  C   UNL A   1      40.521  35.372  37.193  1.00  0.00     0.135 A 
ATOM     87  F   UNL A   1      38.279  32.714  38.269  1.00  0.00    -0.206 F 
ATOM     88  C   UNL A   1      38.765  34.780  39.273  1.00  0.00     0.059 A 
ATOM     89  C   UNL A   1      40.357  36.287  38.228  1.00  0.00     0.059 A 
ATOM     90  F   UNL A   1      41.375  35.683  36.204  1.00  0.00    -0.206 F 
ATOM     91  C   UNL A   1      39.467  35.986  39.258  1.00  0.00     0.060 A 
BRANCH  91  92
ATOM     92  S   UNL A   1      39.227  37.145  40.622  1.00  0.00     0.124 S 
ATOM     93  O   UNL A   1      38.269  38.082  40.046  1.00  0.00    -0.237 OA
ATOM     94  O   UNL A   1      38.713  36.282  41.681  1.00  0.00    -0.237 OA
ATOM     95  O   UNL A   1      40.567  37.679  40.853  1.00  0.00    -0.744 OA
ENDBRANCH  91  92
ENDBRANCH  59  84
ENDBRANCH  33  34
ENDBRANCH  26  28
ENDBRANCH  25  26
ENDBRANCH  24  25
ENDBRANCH  23  24
ENDBRANCH  22  23
ENDBRANCH   1  22
TORSDOF 21
ENDMDL
MODEL 3
REMARK VINA RESULT:     -10.5      3.552      9.798
REMARK SMILES C[C@@H](C(=O)OCCOCCOC(=O)c1ccc(-c2c3nc(c(-c4c(F)cc(S(=O)(=O)[O-])cc4F)c4ccc([nH]4)c(-c4c(F)cc(S(=O)(=O)[O-])cc4F)c4nc(c(-c5c(F)cc(S(=O)(=O)[O-])cc5F)c5ccc2[nH]5)C=C4)C=C3)cc1)c1ccc(C[C@H]2CCC[C@H]2O)cc1
REMARK SMILES IDX 7 1 6 2 5 3 3 4 4 5 2 6 1 7 80 8 81 9 92 10 82 11 91 12
REMARK SMILES IDX 83 13 84 14 85 15 86 16 89 17 87 18 88 19 90 20 8 22 9 23
REMARK SMILES IDX 10 24 11 25 12 26 13 27 14 28 15 29 79 30 16 31 78 32 17 33
REMARK SMILES IDX 18 34 19 35 72 36 20 37 77 38 71 39 73 40 21 41 76 42 70 43
REMARK SMILES IDX 69 44 22 46 56 47 35 48 55 49 36 50 39 51 54 52 74 53 37 54
REMARK SMILES IDX 38 55 53 57 75 58 40 59 23 60 24 61 33 62 25 63 26 64 32 65
REMARK SMILES IDX 34 66 27 67 28 68 29 69 30 70 31 71 57 72 58 73 67 74 59 75
REMARK SMILES IDX 60 76 66 77 68 78 61 79 62 80 63 81 64 82 65 83 41 84 42 85
REMARK SMILES IDX 51 86 43 87 44 88 50 89 52 90 45 91 46 92 47 93 48 94 49 95
REMARK H PARENT 90 21 73 45 39 56
REMARK Flexibility Score: inf
ROOT
ATOM      1  C   UNL A   1      44.484  20.869  24.976  1.00  0.00     0.202 C 
ENDROOT
BRANCH   1   2
ATOM      2  C   UNL A   1      43.577  19.851  25.672  1.00  0.00     0.261 C 
BRANCH   2   3
ATOM      3  O   UNL A   1      42.199  20.227  25.528  1.00  0.00    -0.463 OA
BRANCH   3   4
ATOM      4  C   UNL A   1      41.545  20.485  26.690  1.00  0.00     0.313 C 
ATOM      5  O   UNL A   1      41.182  19.621  27.482  1.00  0.00    -0.252 OA
BRANCH   4   6
ATOM      6  C   UNL A   1      41.381  21.987  26.952  1.00  0.00     0.126 C 
ATOM      7  C   UNL A   1      41.923  22.437  28.315  1.00  0.00     0.025 C 
BRANCH   6   8
ATOM      8  C   UNL A   1      39.961  22.459  26.632  1.00  0.00    -0.034 A 
ATOM      9  C   UNL A   1      39.109  21.583  25.941  1.00  0.00     0.005 A 
ATOM     10  C   UNL A   1      39.463  23.728  26.959  1.00  0.00     0.005 A 
ATOM     11  C   UNL A   1      37.832  21.975  25.543  1.00  0.00     0.004 A 
ATOM     12  C   UNL A   1      38.189  24.132  26.534  1.00  0.00     0.004 A 
ATOM     13  C   UNL A   1      37.388  23.278  25.768  1.00  0.00    -0.048 A 
BRANCH  13  14
ATOM     14  C   UNL A   1      36.111  23.761  25.126  1.00  0.00     0.041 C 
BRANCH  14  15
ATOM     15  C   UNL A   1      34.793  23.242  25.738  1.00  0.00     0.022 C 
ATOM     16  C   UNL A   1      33.744  24.315  26.079  1.00  0.00     0.007 C 
ATOM     17  C   UNL A   1      34.006  22.150  24.988  1.00  0.00     0.117 C 
ATOM     18  C   UNL A   1      32.376  23.654  25.895  1.00  0.00     0.003 C 
ATOM     19  C   UNL A   1      32.653  22.169  25.687  1.00  0.00     0.032 C 
BRANCH  17  20
ATOM     20  O   UNL A   1      33.791  22.391  23.610  1.00  0.00    -0.393 OA
ATOM     21  H   UNL A   1      34.266  23.194  23.344  1.00  0.00     0.210 HD
ENDBRANCH  17  20
ENDBRANCH  14  15
ENDBRANCH  13  14
ENDBRANCH   6   8
ENDBRANCH   4   6
ENDBRANCH   3   4
ENDBRANCH   2   3
ENDBRANCH   1   2
BRANCH   1  22
ATOM     22  O   UNL A   1      44.403  22.218  25.441  1.00  0.00    -0.374 OA
BRANCH  22  23
ATOM     23  C   UNL A   1      44.199  23.243  24.469  1.00  0.00     0.202 C 
BRANCH  23  24
ATOM     24  C   UNL A   1      43.988  24.670  24.994  1.00  0.00     0.261 C 
BRANCH  24  25
ATOM     25  O   UNL A   1      42.899  24.769  25.930  1.00  0.00    -0.460 OA
BRANCH  25  26
ATOM     26  C   UNL A   1      42.228  25.946  25.894  1.00  0.00     0.338 C 
ATOM     27  O   UNL A   1      41.525  26.364  24.982  1.00  0.00    -0.246 OA
BRANCH  26  28
ATOM     28  C   UNL A   1      42.291  26.619  27.204  1.00  0.00     0.060 A 
ATOM     29  C   UNL A   1      41.457  26.132  28.219  1.00  0.00     0.016 A 
ATOM     30  C   UNL A   1      43.077  27.753  27.414  1.00  0.00     0.016 A 
ATOM     31  C   UNL A   1      41.369  26.807  29.434  1.00  0.00     0.010 A 
ATOM     32  C   UNL A   1      42.977  28.437  28.633  1.00  0.00     0.010 A 
ATOM     33  C   UNL A   1      42.097  27.985  29.634  1.00  0.00    -0.014 A 
BRANCH  33  34
ATOM     34  C   UNL A   1      41.813  28.819  30.828  1.00  0.00     0.031 A 
ATOM     35  C   UNL A   1      40.647  29.770  30.794  1.00  0.00     0.074 A 
ATOM     36  C   UNL A   1      42.552  28.695  31.946  1.00  0.00     0.049 A 
ATOM     37  N   UNL A   1      40.231  30.604  31.711  1.00  0.00    -0.248 NA
ATOM     38  C   UNL A   1      39.843  29.780  29.561  1.00  0.00     0.031 C 
ATOM     39  C   UNL A   1      43.680  27.779  32.114  1.00  0.00     0.029 A 
ATOM     40  N   UNL A   1      42.464  29.346  33.150  1.00  0.00    -0.354 N 
ATOM     41  C   UNL A   1      39.117  31.236  31.170  1.00  0.00     0.074 A 
ATOM     42  C   UNL A   1      38.942  30.713  29.832  1.00  0.00     0.031 C 
ATOM     43  C   UNL A   1      44.190  27.940  33.347  1.00  0.00     0.029 A 
ATOM     44  C   UNL A   1      43.442  28.984  34.045  1.00  0.00     0.049 A 
ATOM     45  H   UNL A   1      41.768  30.010  33.354  1.00  0.00     0.167 HD
ATOM     46  C   UNL A   1      38.307  32.159  31.741  1.00  0.00     0.037 A 
ATOM     47  C   UNL A   1      43.716  29.457  35.278  1.00  0.00     0.037 A 
ATOM     48  C   UNL A   1      38.485  32.678  33.071  1.00  0.00     0.049 A 
ATOM     49  C   UNL A   1      42.837  30.524  35.872  1.00  0.00     0.074 A 
ATOM     50  C   UNL A   1      37.722  33.620  33.738  1.00  0.00     0.029 A 
ATOM     51  N   UNL A   1      39.500  32.301  33.939  1.00  0.00    -0.354 N 
ATOM     52  N   UNL A   1      41.787  31.113  35.348  1.00  0.00    -0.248 NA
ATOM     53  C   UNL A   1      43.173  30.989  37.226  1.00  0.00     0.031 C 
ATOM     54  C   UNL A   1      38.296  33.841  34.995  1.00  0.00     0.029 A 
ATOM     55  C   UNL A   1      39.391  33.002  35.129  1.00  0.00     0.049 A 
ATOM     56  H   UNL A   1      40.195  31.634  33.739  1.00  0.00     0.167 HD
ATOM     57  C   UNL A   1      41.326  32.001  36.316  1.00  0.00     0.074 A 
ATOM     58  C   UNL A   1      42.203  31.863  37.460  1.00  0.00     0.031 C 
ATOM     59  C   UNL A   1      40.270  32.851  36.261  1.00  0.00     0.037 A 
BRANCH  46  60
ATOM     60  C   UNL A   1      37.158  32.678  30.922  1.00  0.00     0.058 A 
ATOM     61  C   UNL A   1      37.350  33.623  29.901  1.00  0.00     0.135 A 
ATOM     62  C   UNL A   1      35.856  32.198  31.134  1.00  0.00     0.135 A 
ATOM     63  F   UNL A   1      38.572  34.131  29.671  1.00  0.00    -0.206 F 
ATOM     64  C   UNL A   1      36.288  34.085  29.130  1.00  0.00     0.059 A 
ATOM     65  C   UNL A   1      34.784  32.628  30.359  1.00  0.00     0.059 A 
ATOM     66  F   UNL A   1      35.617  31.298  32.101  1.00  0.00    -0.206 F 
ATOM     67  C   UNL A   1      35.008  33.580  29.366  1.00  0.00     0.060 A 
BRANCH  67  68
ATOM     68  S   UNL A   1      33.644  34.179  28.347  1.00  0.00     0.124 S 
ATOM     69  O   UNL A   1      33.281  32.973  27.608  1.00  0.00    -0.237 OA
ATOM     70  O   UNL A   1      32.677  34.622  29.346  1.00  0.00    -0.237 OA
ATOM     71  O   UNL A   1      34.252  35.241  27.552  1.00  0.00    -0.744 OA
ENDBRANCH  67  68
ENDBRANCH  46  60
BRANCH  47  72
ATOM     72  C   UNL A   1      44.890  28.931  36.024  1.00  0.00     0.058 A 
ATOM     73  C   UNL A   1      46.161  29.508  35.885  1.00  0.00     0.135 A 
ATOM     74  C   UNL A   1      44.756  27.848  36.908  1.00  0.00     0.135 A 
ATOM     75  F   UNL A   1      46.341  30.537  35.043  1.00  0.00    -0.206 F 
ATOM     76  C   UNL A   1      47.259  29.026  36.589  1.00  0.00     0.059 A 
ATOM     77  C   UNL A   1      45.834  27.365  37.641  1.00  0.00     0.059 A 
ATOM     78  F   UNL A   1      43.558  27.268  37.084  1.00  0.00    -0.206 F 
ATOM     79  C   UNL A   1      47.085  27.956  37.469  1.00  0.00     0.060 A 
BRANCH  79  80
ATOM     80  S   UNL A   1      48.503  27.379  38.427  1.00  0.00     0.124 S 
ATOM     81  O   UNL A   1      49.162  28.635  38.763  1.00  0.00    -0.237 OA
ATOM     82  O   UNL A   1      47.861  26.677  39.535  1.00  0.00    -0.237 OA
ATOM     83  O   UNL A   1      49.218  26.522  37.484  1.00  0.00    -0.744 OA
ENDBRANCH  79  80
ENDBRANCH  47  72
BRANCH  59  84
ATOM     84  C   UNL A   1      39.984  33.683  37.481  1.00  0.00     0.058 A 
ATOM     85  C   UNL A   1      40.621  34.915  37.699  1.00  0.00     0.135 A 
ATOM     86  C   UNL A   1      39.015  33.271  38.411  1.00  0.00     0.135 A 
ATOM     87  F   UNL A   1      41.557  35.353  36.843  1.00  0.00    -0.206 F 
ATOM     88  C   UNL A   1      40.323  35.699  38.809  1.00  0.00     0.059 A 
ATOM     89  C   UNL A   1      38.684  34.051  39.514  1.00  0.00     0.059 A 
ATOM     90  F   UNL A   1      38.368  32.107  38.243  1.00  0.00    -0.206 F 
ATOM     91  C   UNL A   1      39.352  35.259  39.711  1.00  0.00     0.060 A 
BRANCH  91  92
ATOM     92  S   UNL A   1      38.949  36.302  41.128  1.00  0.00     0.124 S 
ATOM     93  O   UNL A   1      37.852  35.559  41.738  1.00  0.00    -0.237 OA
ATOM     94  O   UNL A   1      40.202  36.312  41.878  1.00  0.00    -0.237 OA
ATOM     95  O   UNL A   1      38.581  37.577  40.518  1.00  0.00    -0.744 OA
ENDBRANCH  91  92
ENDBRANCH  59  84
ENDBRANCH  33  34
ENDBRANCH  26  28
ENDBRANCH  25  26
ENDBRANCH  24  25
ENDBRANCH  23  24
ENDBRANCH  22  23
ENDBRANCH   1  22
TORSDOF 21
ENDMDL
