MODEL 1
REMARK VINA RESULT:     -11.6      0.000      0.000
REMARK SMILES Cc1ccc(C(=O)OCCOCCOC(=O)c2ccc(-c3c4nc(c(-c5c(F)cc(S(=O)(=O)[O-])cc5F)c5ccc([nH]5)c(-c5c(F)cc(S(=O)(=O)[O-])cc5F)c5nc(c(-c6c(F)cc(S(=O)(=O)[O-])cc6F)c6ccc3[nH]6)C=C5)C=C4)cc2)cc1N1CC(C)C1
REMARK SMILES IDX 12 1 11 2 10 3 9 4 8 5 6 6 7 7 5 8 1 9 2 10 3 11 84 12 4 13
REMARK SMILES IDX 83 14 85 15 86 16 89 17 87 18 88 19 13 20 14 21 15 22 16 23
REMARK SMILES IDX 17 24 18 25 82 26 19 27 81 28 20 29 21 30 22 31 75 32 23 33
REMARK SMILES IDX 80 34 74 35 76 36 24 37 79 38 73 39 72 40 25 42 59 43 38 44
REMARK SMILES IDX 58 45 39 46 42 47 57 48 77 49 40 50 41 51 56 53 78 54 43 55
REMARK SMILES IDX 26 56 27 57 36 58 28 59 29 60 35 61 37 62 30 63 31 64 32 65
REMARK SMILES IDX 33 66 34 67 60 68 61 69 70 70 62 71 63 72 69 73 71 74 64 75
REMARK SMILES IDX 65 76 66 77 67 78 68 79 44 80 45 81 54 82 46 83 47 84 53 85
REMARK SMILES IDX 55 86 48 87 49 88 50 89 51 90 52 91
REMARK H PARENT 76 41 42 52
REMARK Flexibility Score: inf
ROOT
ATOM      1  C   UNL A   1      33.529  28.329  24.748  1.00  0.00     0.202 C 
ENDROOT
BRANCH   1   2
ATOM      2  O   UNL A   1      32.604  28.673  23.749  1.00  0.00    -0.374 OA
BRANCH   2   3
ATOM      3  C   UNL A   1      31.380  27.951  23.759  1.00  0.00     0.202 C 
BRANCH   3   4
ATOM      4  C   UNL A   1      31.345  27.241  22.447  1.00  0.00     0.261 C 
BRANCH   4   5
ATOM      5  O   UNL A   1      31.608  25.831  22.603  1.00  0.00    -0.460 OA
BRANCH   5   6
ATOM      6  C   UNL A   1      32.772  25.258  22.180  1.00  0.00     0.338 C 
ATOM      7  O   UNL A   1      33.594  25.662  21.397  1.00  0.00    -0.246 OA
BRANCH   6   8
ATOM      8  C   UNL A   1      32.953  24.053  23.015  1.00  0.00     0.062 A 
ATOM      9  C   UNL A   1      33.985  20.246  24.689  1.00  0.00     0.046 C 
ATOM     10  C   UNL A   1      33.643  21.611  24.165  1.00  0.00    -0.028 A 
ATOM     11  C   UNL A   1      32.469  21.738  23.392  1.00  0.00     0.006 A 
ATOM     12  C   UNL A   1      34.442  22.743  24.416  1.00  0.00     0.040 A 
ATOM     13  C   UNL A   1      32.123  22.955  22.812  1.00  0.00     0.016 A 
ATOM     14  C   UNL A   1      34.055  23.962  23.865  1.00  0.00     0.041 A 
BRANCH  12  15
ATOM     15  N   UNL A   1      35.662  22.668  25.128  1.00  0.00    -0.371 N 
ATOM     16  C   UNL A   1      36.115  23.567  26.157  1.00  0.00     0.121 C 
ATOM     17  C   UNL A   1      36.942  22.625  24.466  1.00  0.00     0.121 C 
ATOM     18  C   UNL A   1      37.464  23.673  25.451  1.00  0.00     0.025 C 
ATOM     19  C   UNL A   1      38.664  23.295  26.294  1.00  0.00     0.011 C 
ENDBRANCH  12  15
ENDBRANCH   6   8
ENDBRANCH   5   6
ENDBRANCH   4   5
ENDBRANCH   3   4
ENDBRANCH   2   3
ENDBRANCH   1   2
BRANCH   1  20
ATOM     20  C   UNL A   1      32.862  28.019  26.090  1.00  0.00     0.261 C 
BRANCH  20  21
ATOM     21  O   UNL A   1      33.765  28.271  27.191  1.00  0.00    -0.460 OA
BRANCH  21  22
ATOM     22  C   UNL A   1      33.920  29.577  27.569  1.00  0.00     0.338 C 
ATOM     23  O   UNL A   1      33.011  30.388  27.585  1.00  0.00    -0.246 OA
BRANCH  22  24
ATOM     24  C   UNL A   1      35.321  29.836  28.012  1.00  0.00     0.060 A 
ATOM     25  C   UNL A   1      36.383  29.954  27.095  1.00  0.00     0.016 A 
ATOM     26  C   UNL A   1      35.596  29.779  29.372  1.00  0.00     0.016 A 
ATOM     27  C   UNL A   1      37.719  29.861  27.532  1.00  0.00     0.010 A 
ATOM     28  C   UNL A   1      36.894  29.580  29.782  1.00  0.00     0.010 A 
ATOM     29  C   UNL A   1      37.968  29.598  28.875  1.00  0.00    -0.014 A 
BRANCH  29  30
ATOM     30  C   UNL A   1      39.256  29.277  29.504  1.00  0.00     0.031 A 
ATOM     31  C   UNL A   1      39.859  27.967  29.151  1.00  0.00     0.074 A 
ATOM     32  C   UNL A   1      40.033  30.267  30.015  1.00  0.00     0.049 A 
ATOM     33  N   UNL A   1      40.978  27.532  29.610  1.00  0.00    -0.248 NA
ATOM     34  C   UNL A   1      39.228  27.001  28.249  1.00  0.00     0.031 C 
ATOM     35  C   UNL A   1      41.494  30.356  30.033  1.00  0.00     0.029 A 
ATOM     36  N   UNL A   1      39.663  31.476  30.614  1.00  0.00    -0.354 N 
ATOM     37  C   UNL A   1      41.397  26.513  28.782  1.00  0.00     0.074 A 
ATOM     38  C   UNL A   1      40.210  26.111  28.079  1.00  0.00     0.031 C 
ATOM     39  C   UNL A   1      41.883  31.355  30.848  1.00  0.00     0.029 A 
ATOM     40  C   UNL A   1      40.685  31.871  31.489  1.00  0.00     0.049 A 
ATOM     41  H   UNL A   1      38.826  31.967  30.448  1.00  0.00     0.167 HD
ATOM     42  C   UNL A   1      42.739  26.280  28.692  1.00  0.00     0.037 A 
ATOM     43  C   UNL A   1      40.426  32.005  32.818  1.00  0.00     0.037 A 
ATOM     44  C   UNL A   1      43.447  27.085  29.707  1.00  0.00     0.049 A 
ATOM     45  C   UNL A   1      41.212  30.940  33.523  1.00  0.00     0.074 A 
ATOM     46  C   UNL A   1      44.276  28.191  29.637  1.00  0.00     0.029 A 
ATOM     47  N   UNL A   1      43.068  26.972  31.048  1.00  0.00    -0.354 N 
ATOM     48  N   UNL A   1      41.579  29.839  32.924  1.00  0.00    -0.248 NA
ATOM     49  C   UNL A   1      41.795  31.076  34.853  1.00  0.00     0.031 C 
ATOM     50  C   UNL A   1      44.302  28.800  30.927  1.00  0.00     0.029 A 
ATOM     51  C   UNL A   1      43.504  28.057  31.787  1.00  0.00     0.049 A 
ATOM     52  H   UNL A   1      42.557  26.217  31.419  1.00  0.00     0.167 HD
ATOM     53  C   UNL A   1      42.519  29.209  33.673  1.00  0.00     0.074 A 
ATOM     54  C   UNL A   1      42.572  29.977  34.907  1.00  0.00     0.031 C 
ATOM     55  C   UNL A   1      43.230  28.139  33.218  1.00  0.00     0.037 A 
BRANCH  42  56
ATOM     56  C   UNL A   1      43.458  25.524  27.573  1.00  0.00     0.058 A 
ATOM     57  C   UNL A   1      44.036  24.259  27.833  1.00  0.00     0.135 A 
ATOM     58  C   UNL A   1      43.688  25.988  26.256  1.00  0.00     0.135 A 
ATOM     59  F   UNL A   1      43.899  23.661  29.025  1.00  0.00    -0.206 F 
ATOM     60  C   UNL A   1      44.789  23.542  26.894  1.00  0.00     0.059 A 
ATOM     61  C   UNL A   1      44.419  25.280  25.293  1.00  0.00     0.059 A 
ATOM     62  F   UNL A   1      43.233  27.160  25.813  1.00  0.00    -0.206 F 
ATOM     63  C   UNL A   1      44.975  24.059  25.622  1.00  0.00     0.060 A 
BRANCH  63  64
ATOM     64  S   UNL A   1      45.923  23.119  24.413  1.00  0.00     0.124 S 
ATOM     65  O   UNL A   1      46.386  21.981  25.202  1.00  0.00    -0.237 OA
ATOM     66  O   UNL A   1      44.917  22.823  23.398  1.00  0.00    -0.237 OA
ATOM     67  O   UNL A   1      46.968  24.051  23.995  1.00  0.00    -0.744 OA
ENDBRANCH  63  64
ENDBRANCH  42  56
BRANCH  43  68
ATOM     68  C   UNL A   1      39.037  32.524  33.055  1.00  0.00     0.058 A 
ATOM     69  C   UNL A   1      38.804  33.877  32.707  1.00  0.00     0.135 A 
ATOM     70  C   UNL A   1      37.918  31.677  33.058  1.00  0.00     0.135 A 
ATOM     71  F   UNL A   1      39.833  34.742  32.663  1.00  0.00    -0.206 F 
ATOM     72  C   UNL A   1      37.568  34.327  32.237  1.00  0.00     0.059 A 
ATOM     73  C   UNL A   1      36.672  32.105  32.572  1.00  0.00     0.059 A 
ATOM     74  F   UNL A   1      38.057  30.380  33.370  1.00  0.00    -0.206 F 
ATOM     75  C   UNL A   1      36.523  33.416  32.111  1.00  0.00     0.060 A 
BRANCH  75  76
ATOM     76  S   UNL A   1      35.075  33.898  31.120  1.00  0.00     0.124 S 
ATOM     77  O   UNL A   1      34.192  32.752  31.296  1.00  0.00    -0.237 OA
ATOM     78  O   UNL A   1      34.643  35.131  31.777  1.00  0.00    -0.237 OA
ATOM     79  O   UNL A   1      35.631  34.076  29.785  1.00  0.00    -0.744 OA
ENDBRANCH  75  76
ENDBRANCH  43  68
BRANCH  55  80
ATOM     80  C   UNL A   1      43.801  27.106  34.140  1.00  0.00     0.058 A 
ATOM     81  C   UNL A   1      43.005  26.134  34.771  1.00  0.00     0.135 A 
ATOM     82  C   UNL A   1      45.198  26.939  34.259  1.00  0.00     0.135 A 
ATOM     83  F   UNL A   1      41.672  26.106  34.622  1.00  0.00    -0.206 F 
ATOM     84  C   UNL A   1      43.552  25.128  35.554  1.00  0.00     0.059 A 
ATOM     85  C   UNL A   1      45.767  25.897  34.973  1.00  0.00     0.059 A 
ATOM     86  F   UNL A   1      46.065  27.776  33.667  1.00  0.00    -0.206 F 
ATOM     87  C   UNL A   1      44.934  25.022  35.653  1.00  0.00     0.060 A 
BRANCH  87  88
ATOM     88  S   UNL A   1      45.632  23.726  36.679  1.00  0.00     0.124 S 
ATOM     89  O   UNL A   1      45.124  24.105  37.994  1.00  0.00    -0.237 OA
ATOM     90  O   UNL A   1      45.053  22.518  36.100  1.00  0.00    -0.237 OA
ATOM     91  O   UNL A   1      47.070  23.880  36.487  1.00  0.00    -0.744 OA
ENDBRANCH  87  88
ENDBRANCH  55  80
ENDBRANCH  29  30
ENDBRANCH  22  24
ENDBRANCH  21  22
ENDBRANCH  20  21
ENDBRANCH   1  20
TORSDOF 18
ENDMDL
MODEL 2
REMARK VINA RESULT:     -11.3      1.215      2.350
REMARK SMILES Cc1ccc(C(=O)OCCOCCOC(=O)c2ccc(-c3c4nc(c(-c5c(F)cc(S(=O)(=O)[O-])cc5F)c5ccc([nH]5)c(-c5c(F)cc(S(=O)(=O)[O-])cc5F)c5nc(c(-c6c(F)cc(S(=O)(=O)[O-])cc6F)c6ccc3[nH]6)C=C5)C=C4)cc2)cc1N1CC(C)C1
REMARK SMILES IDX 12 1 11 2 10 3 9 4 8 5 6 6 7 7 5 8 1 9 2 10 3 11 84 12 4 13
REMARK SMILES IDX 83 14 85 15 86 16 89 17 87 18 88 19 13 20 14 21 15 22 16 23
REMARK SMILES IDX 17 24 18 25 82 26 19 27 81 28 20 29 21 30 22 31 75 32 23 33
REMARK SMILES IDX 80 34 74 35 76 36 24 37 79 38 73 39 72 40 25 42 59 43 38 44
REMARK SMILES IDX 58 45 39 46 42 47 57 48 77 49 40 50 41 51 56 53 78 54 43 55
REMARK SMILES IDX 26 56 27 57 36 58 28 59 29 60 35 61 37 62 30 63 31 64 32 65
REMARK SMILES IDX 33 66 34 67 60 68 61 69 70 70 62 71 63 72 69 73 71 74 64 75
REMARK SMILES IDX 65 76 66 77 67 78 68 79 44 80 45 81 54 82 46 83 47 84 53 85
REMARK SMILES IDX 55 86 48 87 49 88 50 89 51 90 52 91
REMARK H PARENT 76 41 42 52
REMARK Flexibility Score: inf
ROOT
ATOM      1  C   UNL A   1      32.373  26.542  26.152  1.00  0.00     0.202 C 
ENDROOT
BRANCH   1   2
ATOM      2  O   UNL A   1      31.762  25.464  26.815  1.00  0.00    -0.374 OA
BRANCH   2   3
ATOM      3  C   UNL A   1      30.660  24.866  26.146  1.00  0.00     0.202 C 
BRANCH   3   4
ATOM      4  C   UNL A   1      30.998  23.415  26.075  1.00  0.00     0.261 C 
BRANCH   4   5
ATOM      5  O   UNL A   1      30.945  22.927  24.719  1.00  0.00    -0.460 OA
BRANCH   5   6
ATOM      6  C   UNL A   1      31.771  23.402  23.742  1.00  0.00     0.338 C 
ATOM      7  O   UNL A   1      31.639  24.349  23.010  1.00  0.00    -0.246 OA
BRANCH   6   8
ATOM      8  C   UNL A   1      33.011  22.606  23.843  1.00  0.00     0.062 A 
ATOM      9  C   UNL A   1      36.557  20.531  25.063  1.00  0.00     0.046 C 
ATOM     10  C   UNL A   1      35.294  21.199  24.599  1.00  0.00    -0.028 A 
ATOM     11  C   UNL A   1      35.379  22.552  24.205  1.00  0.00     0.006 A 
ATOM     12  C   UNL A   1      34.056  20.531  24.547  1.00  0.00     0.040 A 
ATOM     13  C   UNL A   1      34.240  23.260  23.831  1.00  0.00     0.016 A 
ATOM     14  C   UNL A   1      32.936  21.243  24.127  1.00  0.00     0.041 A 
BRANCH  12  15
ATOM     15  N   UNL A   1      33.895  19.197  24.989  1.00  0.00    -0.371 N 
ATOM     16  C   UNL A   1      34.021  18.005  24.192  1.00  0.00     0.121 C 
ATOM     17  C   UNL A   1      32.701  18.742  25.656  1.00  0.00     0.121 C 
ATOM     18  C   UNL A   1      32.697  17.501  24.760  1.00  0.00     0.025 C 
ATOM     19  C   UNL A   1      32.760  16.152  25.445  1.00  0.00     0.011 C 
ENDBRANCH  12  15
ENDBRANCH   6   8
ENDBRANCH   5   6
ENDBRANCH   4   5
ENDBRANCH   3   4
ENDBRANCH   2   3
ENDBRANCH   1   2
BRANCH   1  20
ATOM     20  C   UNL A   1      32.405  27.816  26.999  1.00  0.00     0.261 C 
BRANCH  20  21
ATOM     21  O   UNL A   1      33.765  28.239  27.251  1.00  0.00    -0.460 OA
BRANCH  21  22
ATOM     22  C   UNL A   1      33.955  29.572  27.496  1.00  0.00     0.338 C 
ATOM     23  O   UNL A   1      33.079  30.411  27.386  1.00  0.00    -0.246 OA
BRANCH  22  24
ATOM     24  C   UNL A   1      35.346  29.827  27.972  1.00  0.00     0.060 A 
ATOM     25  C   UNL A   1      36.414  30.035  27.078  1.00  0.00     0.016 A 
ATOM     26  C   UNL A   1      35.609  29.677  29.328  1.00  0.00     0.016 A 
ATOM     27  C   UNL A   1      37.748  29.938  27.522  1.00  0.00     0.010 A 
ATOM     28  C   UNL A   1      36.907  29.477  29.736  1.00  0.00     0.010 A 
ATOM     29  C   UNL A   1      37.990  29.583  28.845  1.00  0.00    -0.014 A 
BRANCH  29  30
ATOM     30  C   UNL A   1      39.278  29.245  29.463  1.00  0.00     0.031 A 
ATOM     31  C   UNL A   1      39.861  27.927  29.105  1.00  0.00     0.074 A 
ATOM     32  C   UNL A   1      40.072  30.224  29.969  1.00  0.00     0.049 A 
ATOM     33  N   UNL A   1      40.977  27.476  29.555  1.00  0.00    -0.248 NA
ATOM     34  C   UNL A   1      39.209  26.970  28.207  1.00  0.00     0.031 C 
ATOM     35  C   UNL A   1      41.535  30.292  29.975  1.00  0.00     0.029 A 
ATOM     36  N   UNL A   1      39.724  31.436  30.572  1.00  0.00    -0.354 N 
ATOM     37  C   UNL A   1      41.375  26.452  28.723  1.00  0.00     0.074 A 
ATOM     38  C   UNL A   1      40.177  26.067  28.029  1.00  0.00     0.031 C 
ATOM     39  C   UNL A   1      41.943  31.286  30.787  1.00  0.00     0.029 A 
ATOM     40  C   UNL A   1      40.757  31.818  31.438  1.00  0.00     0.049 A 
ATOM     41  H   UNL A   1      38.892  31.939  30.413  1.00  0.00     0.167 HD
ATOM     42  C   UNL A   1      42.714  26.201  28.621  1.00  0.00     0.037 A 
ATOM     43  C   UNL A   1      40.511  31.954  32.769  1.00  0.00     0.037 A 
ATOM     44  C   UNL A   1      43.441  26.996  29.631  1.00  0.00     0.049 A 
ATOM     45  C   UNL A   1      41.289  30.878  33.468  1.00  0.00     0.074 A 
ATOM     46  C   UNL A   1      44.284  28.091  29.556  1.00  0.00     0.029 A 
ATOM     47  N   UNL A   1      43.071  26.887  30.975  1.00  0.00    -0.354 N 
ATOM     48  N   UNL A   1      41.636  29.772  32.865  1.00  0.00    -0.248 NA
ATOM     49  C   UNL A   1      41.884  31.005  34.793  1.00  0.00     0.031 C 
ATOM     50  C   UNL A   1      44.328  28.699  30.846  1.00  0.00     0.029 A 
ATOM     51  C   UNL A   1      43.527  27.965  31.711  1.00  0.00     0.049 A 
ATOM     52  H   UNL A   1      42.553  26.139  31.349  1.00  0.00     0.167 HD
ATOM     53  C   UNL A   1      42.573  29.129  33.606  1.00  0.00     0.074 A 
ATOM     54  C   UNL A   1      42.646  29.896  34.840  1.00  0.00     0.031 C 
ATOM     55  C   UNL A   1      43.266  28.050  33.145  1.00  0.00     0.037 A 
BRANCH  42  56
ATOM     56  C   UNL A   1      43.413  25.437  27.496  1.00  0.00     0.058 A 
ATOM     57  C   UNL A   1      43.477  24.024  27.536  1.00  0.00     0.135 A 
ATOM     58  C   UNL A   1      44.100  26.001  26.395  1.00  0.00     0.135 A 
ATOM     59  F   UNL A   1      42.866  23.324  28.502  1.00  0.00    -0.206 F 
ATOM     60  C   UNL A   1      44.175  23.252  26.597  1.00  0.00     0.059 A 
ATOM     61  C   UNL A   1      44.786  25.250  25.432  1.00  0.00     0.059 A 
ATOM     62  F   UNL A   1      44.164  27.315  26.179  1.00  0.00    -0.206 F 
ATOM     63  C   UNL A   1      44.827  23.873  25.544  1.00  0.00     0.060 A 
BRANCH  63  64
ATOM     64  S   UNL A   1      45.701  22.872  24.328  1.00  0.00     0.124 S 
ATOM     65  O   UNL A   1      44.623  22.473  23.428  1.00  0.00    -0.237 OA
ATOM     66  O   UNL A   1      46.664  23.823  23.784  1.00  0.00    -0.237 OA
ATOM     67  O   UNL A   1      46.279  21.791  25.123  1.00  0.00    -0.744 OA
ENDBRANCH  63  64
ENDBRANCH  42  56
BRANCH  43  68
ATOM     68  C   UNL A   1      39.132  32.491  33.018  1.00  0.00     0.058 A 
ATOM     69  C   UNL A   1      38.875  33.804  32.551  1.00  0.00     0.135 A 
ATOM     70  C   UNL A   1      38.019  31.646  33.156  1.00  0.00     0.135 A 
ATOM     71  F   UNL A   1      39.895  34.661  32.374  1.00  0.00    -0.206 F 
ATOM     72  C   UNL A   1      37.615  34.203  32.096  1.00  0.00     0.059 A 
ATOM     73  C   UNL A   1      36.749  32.023  32.688  1.00  0.00     0.059 A 
ATOM     74  F   UNL A   1      38.180  30.387  33.587  1.00  0.00    -0.206 F 
ATOM     75  C   UNL A   1      36.571  33.282  32.108  1.00  0.00     0.060 A 
BRANCH  75  76
ATOM     76  S   UNL A   1      35.077  33.662  31.142  1.00  0.00     0.124 S 
ATOM     77  O   UNL A   1      34.135  32.664  31.634  1.00  0.00    -0.237 OA
ATOM     78  O   UNL A   1      34.793  35.042  31.536  1.00  0.00    -0.237 OA
ATOM     79  O   UNL A   1      35.520  33.495  29.764  1.00  0.00    -0.744 OA
ENDBRANCH  75  76
ENDBRANCH  43  68
BRANCH  55  80
ATOM     80  C   UNL A   1      43.831  27.008  34.061  1.00  0.00     0.058 A 
ATOM     81  C   UNL A   1      45.196  26.952  34.389  1.00  0.00     0.135 A 
ATOM     82  C   UNL A   1      42.978  26.154  34.794  1.00  0.00     0.135 A 
ATOM     83  F   UNL A   1      46.088  27.804  33.860  1.00  0.00    -0.206 F 
ATOM     84  C   UNL A   1      45.697  26.038  35.305  1.00  0.00     0.059 A 
ATOM     85  C   UNL A   1      43.448  25.288  35.768  1.00  0.00     0.059 A 
ATOM     86  F   UNL A   1      41.650  26.145  34.603  1.00  0.00    -0.206 F 
ATOM     87  C   UNL A   1      44.815  25.206  35.985  1.00  0.00     0.060 A 
BRANCH  87  88
ATOM     88  S   UNL A   1      45.472  24.019  37.156  1.00  0.00     0.124 S 
ATOM     89  O   UNL A   1      45.022  22.762  36.566  1.00  0.00    -0.237 OA
ATOM     90  O   UNL A   1      46.909  24.270  37.091  1.00  0.00    -0.237 OA
ATOM     91  O   UNL A   1      44.832  24.393  38.413  1.00  0.00    -0.744 OA
ENDBRANCH  87  88
ENDBRANCH  55  80
ENDBRANCH  29  30
ENDBRANCH  22  24
ENDBRANCH  21  22
ENDBRANCH  20  21
ENDBRANCH   1  20
TORSDOF 18
ENDMDL
MODEL 3
REMARK VINA RESULT:     -11.1      3.679      9.849
REMARK SMILES Cc1ccc(C(=O)OCCOCCOC(=O)c2ccc(-c3c4nc(c(-c5c(F)cc(S(=O)(=O)[O-])cc5F)c5ccc([nH]5)c(-c5c(F)cc(S(=O)(=O)[O-])cc5F)c5nc(c(-c6c(F)cc(S(=O)(=O)[O-])cc6F)c6ccc3[nH]6)C=C5)C=C4)cc2)cc1N1CC(C)C1
REMARK SMILES IDX 12 1 11 2 10 3 9 4 8 5 6 6 7 7 5 8 1 9 2 10 3 11 84 12 4 13
REMARK SMILES IDX 83 14 85 15 86 16 89 17 87 18 88 19 13 20 14 21 15 22 16 23
REMARK SMILES IDX 17 24 18 25 82 26 19 27 81 28 20 29 21 30 22 31 75 32 23 33
REMARK SMILES IDX 80 34 74 35 76 36 24 37 79 38 73 39 72 40 25 42 59 43 38 44
REMARK SMILES IDX 58 45 39 46 42 47 57 48 77 49 40 50 41 51 56 53 78 54 43 55
REMARK SMILES IDX 26 56 27 57 36 58 28 59 29 60 35 61 37 62 30 63 31 64 32 65
REMARK SMILES IDX 33 66 34 67 60 68 61 69 70 70 62 71 63 72 69 73 71 74 64 75
REMARK SMILES IDX 65 76 66 77 67 78 68 79 44 80 45 81 54 82 46 83 47 84 53 85
REMARK SMILES IDX 55 86 48 87 49 88 50 89 51 90 52 91
REMARK H PARENT 76 41 42 52
REMARK Flexibility Score: inf
ROOT
ATOM      1  C   UNL A   1      36.025  20.766  25.189  1.00  0.00     0.202 C 
ENDROOT
BRANCH   1   2
ATOM      2  O   UNL A   1      35.287  21.411  26.196  1.00  0.00    -0.374 OA
BRANCH   2   3
ATOM      3  C   UNL A   1      33.873  21.352  26.066  1.00  0.00     0.202 C 
BRANCH   3   4
ATOM      4  C   UNL A   1      33.505  22.594  25.326  1.00  0.00     0.261 C 
BRANCH   4   5
ATOM      5  O   UNL A   1      32.099  22.889  25.459  1.00  0.00    -0.460 OA
BRANCH   5   6
ATOM      6  C   UNL A   1      31.632  23.817  26.343  1.00  0.00     0.338 C 
ATOM      7  O   UNL A   1      31.468  23.738  27.534  1.00  0.00    -0.246 OA
BRANCH   6   8
ATOM      8  C   UNL A   1      31.501  25.073  25.576  1.00  0.00     0.062 A 
ATOM      9  C   UNL A   1      30.509  28.951  24.047  1.00  0.00     0.046 C 
ATOM     10  C   UNL A   1      30.926  27.608  24.573  1.00  0.00    -0.028 A 
ATOM     11  C   UNL A   1      30.153  26.490  24.193  1.00  0.00     0.006 A 
ATOM     12  C   UNL A   1      32.042  27.434  25.415  1.00  0.00     0.040 A 
ATOM     13  C   UNL A   1      30.434  25.222  24.695  1.00  0.00     0.016 A 
ATOM     14  C   UNL A   1      32.334  26.151  25.871  1.00  0.00     0.041 A 
BRANCH  12  15
ATOM     15  N   UNL A   1      32.816  28.522  25.882  1.00  0.00    -0.371 N 
ATOM     16  C   UNL A   1      34.253  28.601  25.923  1.00  0.00     0.121 C 
ATOM     17  C   UNL A   1      32.650  29.079  27.201  1.00  0.00     0.121 C 
ATOM     18  C   UNL A   1      34.171  29.083  27.369  1.00  0.00     0.025 C 
ATOM     19  C   UNL A   1      34.835  30.416  27.643  1.00  0.00     0.011 C 
ENDBRANCH  12  15
ENDBRANCH   6   8
ENDBRANCH   5   6
ENDBRANCH   4   5
ENDBRANCH   3   4
ENDBRANCH   2   3
ENDBRANCH   1   2
BRANCH   1  20
ATOM     20  C   UNL A   1      37.475  21.249  25.118  1.00  0.00     0.261 C 
BRANCH  20  21
ATOM     21  O   UNL A   1      37.720  22.302  26.079  1.00  0.00    -0.460 OA
BRANCH  21  22
ATOM     22  C   UNL A   1      39.018  22.478  26.476  1.00  0.00     0.338 C 
ATOM     23  O   UNL A   1      39.827  21.571  26.560  1.00  0.00    -0.246 OA
BRANCH  22  24
ATOM     24  C   UNL A   1      39.304  23.921  26.722  1.00  0.00     0.060 A 
ATOM     25  C   UNL A   1      40.019  24.708  25.799  1.00  0.00     0.016 A 
ATOM     26  C   UNL A   1      39.005  24.440  27.975  1.00  0.00     0.016 A 
ATOM     27  C   UNL A   1      40.563  25.948  26.186  1.00  0.00     0.010 A 
ATOM     28  C   UNL A   1      39.626  25.598  28.382  1.00  0.00     0.010 A 
ATOM     29  C   UNL A   1      40.426  26.356  27.509  1.00  0.00    -0.014 A 
BRANCH  29  30
ATOM     30  C   UNL A   1      41.067  27.503  28.166  1.00  0.00     0.031 A 
ATOM     31  C   UNL A   1      40.224  28.709  28.366  1.00  0.00     0.074 A 
ATOM     32  C   UNL A   1      42.187  27.326  28.913  1.00  0.00     0.049 A 
ATOM     33  N   UNL A   1      40.625  29.795  28.922  1.00  0.00    -0.248 NA
ATOM     34  C   UNL A   1      38.830  28.805  27.925  1.00  0.00     0.031 C 
ATOM     35  C   UNL A   1      42.584  28.031  30.133  1.00  0.00     0.029 A 
ATOM     36  N   UNL A   1      43.231  26.408  28.757  1.00  0.00    -0.354 N 
ATOM     37  C   UNL A   1      39.506  30.511  29.290  1.00  0.00     0.074 A 
ATOM     38  C   UNL A   1      38.446  29.950  28.498  1.00  0.00     0.031 C 
ATOM     39  C   UNL A   1      43.868  27.749  30.427  1.00  0.00     0.029 A 
ATOM     40  C   UNL A   1      44.389  26.948  29.333  1.00  0.00     0.049 A 
ATOM     41  H   UNL A   1      43.163  25.530  28.317  1.00  0.00     0.167 HD
ATOM     42  C   UNL A   1      39.617  31.364  30.350  1.00  0.00     0.037 A 
ATOM     43  C   UNL A   1      45.486  27.179  28.561  1.00  0.00     0.037 A 
ATOM     44  C   UNL A   1      41.035  31.472  30.747  1.00  0.00     0.049 A 
ATOM     45  C   UNL A   1      45.679  28.666  28.514  1.00  0.00     0.074 A 
ATOM     46  C   UNL A   1      41.755  31.026  31.842  1.00  0.00     0.029 A 
ATOM     47  N   UNL A   1      41.984  31.835  29.785  1.00  0.00    -0.354 N 
ATOM     48  N   UNL A   1      44.691  29.499  28.705  1.00  0.00    -0.248 NA
ATOM     49  C   UNL A   1      46.970  29.337  28.432  1.00  0.00     0.031 C 
ATOM     50  C   UNL A   1      43.136  31.025  31.486  1.00  0.00     0.029 A 
ATOM     51  C   UNL A   1      43.261  31.486  30.182  1.00  0.00     0.049 A 
ATOM     52  H   UNL A   1      41.769  32.282  28.935  1.00  0.00     0.167 HD
ATOM     53  C   UNL A   1      45.185  30.745  28.915  1.00  0.00     0.074 A 
ATOM     54  C   UNL A   1      46.611  30.615  28.662  1.00  0.00     0.031 C 
ATOM     55  C   UNL A   1      44.411  31.785  29.334  1.00  0.00     0.037 A 
BRANCH  42  56
ATOM     56  C   UNL A   1      38.469  31.930  31.187  1.00  0.00     0.058 A 
ATOM     57  C   UNL A   1      37.588  32.884  30.624  1.00  0.00     0.135 A 
ATOM     58  C   UNL A   1      38.203  31.653  32.549  1.00  0.00     0.135 A 
ATOM     59  F   UNL A   1      37.685  33.250  29.338  1.00  0.00    -0.206 F 
ATOM     60  C   UNL A   1      36.569  33.519  31.345  1.00  0.00     0.059 A 
ATOM     61  C   UNL A   1      37.177  32.260  33.285  1.00  0.00     0.059 A 
ATOM     62  F   UNL A   1      38.922  30.788  33.264  1.00  0.00    -0.206 F 
ATOM     63  C   UNL A   1      36.367  33.200  32.678  1.00  0.00     0.060 A 
BRANCH  63  64
ATOM     64  S   UNL A   1      35.039  34.003  33.591  1.00  0.00     0.124 S 
ATOM     65  O   UNL A   1      33.850  33.513  32.900  1.00  0.00    -0.237 OA
ATOM     66  O   UNL A   1      35.244  33.493  34.943  1.00  0.00    -0.237 OA
ATOM     67  O   UNL A   1      35.315  35.428  33.419  1.00  0.00    -0.744 OA
ENDBRANCH  63  64
ENDBRANCH  42  56
BRANCH  43  68
ATOM     68  C   UNL A   1      45.635  26.133  27.495  1.00  0.00     0.058 A 
ATOM     69  C   UNL A   1      46.059  24.851  27.927  1.00  0.00     0.135 A 
ATOM     70  C   UNL A   1      44.899  26.179  26.301  1.00  0.00     0.135 A 
ATOM     71  F   UNL A   1      46.749  24.728  29.074  1.00  0.00    -0.206 F 
ATOM     72  C   UNL A   1      45.643  23.674  27.300  1.00  0.00     0.059 A 
ATOM     73  C   UNL A   1      44.457  25.007  25.665  1.00  0.00     0.059 A 
ATOM     74  F   UNL A   1      44.457  27.353  25.828  1.00  0.00    -0.206 F 
ATOM     75  C   UNL A   1      44.787  23.761  26.205  1.00  0.00     0.060 A 
BRANCH  75  76
ATOM     76  S   UNL A   1      43.924  22.252  25.666  1.00  0.00     0.124 S 
ATOM     77  O   UNL A   1      43.141  22.737  24.537  1.00  0.00    -0.237 OA
ATOM     78  O   UNL A   1      45.034  21.363  25.325  1.00  0.00    -0.237 OA
ATOM     79  O   UNL A   1      43.166  21.862  26.847  1.00  0.00    -0.744 OA
ENDBRANCH  75  76
ENDBRANCH  43  68
BRANCH  55  80
ATOM     80  C   UNL A   1      44.747  33.211  29.023  1.00  0.00     0.058 A 
ATOM     81  C   UNL A   1      44.486  33.792  27.770  1.00  0.00     0.135 A 
ATOM     82  C   UNL A   1      45.163  34.093  30.044  1.00  0.00     0.135 A 
ATOM     83  F   UNL A   1      43.960  33.086  26.757  1.00  0.00    -0.206 F 
ATOM     84  C   UNL A   1      44.721  35.136  27.517  1.00  0.00     0.059 A 
ATOM     85  C   UNL A   1      45.330  35.452  29.834  1.00  0.00     0.059 A 
ATOM     86  F   UNL A   1      45.403  33.667  31.294  1.00  0.00    -0.206 F 
ATOM     87  C   UNL A   1      45.149  35.957  28.555  1.00  0.00     0.060 A 
BRANCH  87  88
ATOM     88  S   UNL A   1      45.463  37.689  28.216  1.00  0.00     0.124 S 
ATOM     89  O   UNL A   1      45.768  37.645  26.789  1.00  0.00    -0.237 OA
ATOM     90  O   UNL A   1      44.195  38.317  28.573  1.00  0.00    -0.237 OA
ATOM     91  O   UNL A   1      46.584  38.008  29.093  1.00  0.00    -0.744 OA
ENDBRANCH  87  88
ENDBRANCH  55  80
ENDBRANCH  29  30
ENDBRANCH  22  24
ENDBRANCH  21  22
ENDBRANCH  20  21
ENDBRANCH   1  20
TORSDOF 18
ENDMDL
