MODEL 1
REMARK VINA RESULT:     -11.2      0.000      0.000
REMARK SMILES Cc1nc(-c2ccc(S(=O)(=O)N3CC[NH2+][C@H](C(=O)OCCOCCOC(=O)c4ccc(-c5c6nc(c(-c7c(F)cc(S(=O)(=O)[O-])cc7F)c7ccc([nH]7)c(-c7c(F)cc(S(=O)(=O)[O-])cc7F)c7nc(c(-c8c(F)cc(S(=O)(=O)[O-])cc8F)c8ccc5[nH]8)C=C7)C=C6)cc4)C3)s2)cs1
REMARK SMILES IDX 22 1 21 2 20 3 19 4 17 5 18 6 16 7 12 8 13 9 94 10 14 11
REMARK SMILES IDX 15 12 9 15 10 16 11 17 8 18 5 19 6 20 95 21 7 22 4 23 1 24
REMARK SMILES IDX 2 25 3 26 97 27 96 28 23 29 24 30 25 31 26 32 27 33 28 34
REMARK SMILES IDX 29 35 93 36 30 37 92 38 31 39 32 40 33 41 86 42 34 43 91 44
REMARK SMILES IDX 85 45 87 46 35 47 90 48 84 49 83 50 36 52 70 53 49 54 69 55
REMARK SMILES IDX 50 56 53 57 68 58 88 59 51 60 52 61 67 63 89 64 54 65 37 66
REMARK SMILES IDX 38 67 47 68 39 69 40 70 46 71 48 72 41 73 42 74 43 75 44 76
REMARK SMILES IDX 45 77 71 78 72 79 81 80 73 81 74 82 80 83 82 84 75 85 76 86
REMARK SMILES IDX 77 87 78 88 79 89 55 90 56 91 65 92 57 93 58 94 64 95 66 96
REMARK SMILES IDX 59 97 60 98 61 99 62 100 63 101
REMARK H PARENT 15 13 15 14 87 51 53 62
REMARK Flexibility Score: inf
ROOT
ATOM      1  O   UNL A   1      34.780  32.987  28.344  1.00  0.00    -0.374 OA
ENDROOT
BRANCH   1   2
ATOM      2  C   UNL A   1      33.660  32.343  27.741  1.00  0.00     0.202 C 
BRANCH   2   3
ATOM      3  C   UNL A   1      33.707  30.827  27.532  1.00  0.00     0.261 C 
BRANCH   3   4
ATOM      4  O   UNL A   1      33.199  30.422  26.246  1.00  0.00    -0.459 OA
BRANCH   4   5
ATOM      5  C   UNL A   1      32.152  29.562  26.319  1.00  0.00     0.366 C 
ATOM      6  O   UNL A   1      31.739  29.042  27.354  1.00  0.00    -0.245 OA
BRANCH   5   7
ATOM      7  C   UNL A   1      31.473  29.301  24.990  1.00  0.00     0.308 C 
ATOM      8  N   UNL A   1      31.636  28.209  22.832  1.00  0.00    -0.185 NA
ATOM      9  C   UNL A   1      30.549  29.062  22.276  1.00  0.00     0.164 C 
ATOM     10  C   UNL A   1      32.434  28.903  23.879  1.00  0.00     0.180 C 
ATOM     11  C   UNL A   1      29.760  29.850  23.355  1.00  0.00     0.278 C 
ATOM     12  N   UNL A   1      30.515  30.351  24.529  1.00  0.00    -0.332 N 
ATOM     13  H   UNL A   1      29.864  30.572  25.282  1.00  0.00     0.347 HD
ATOM     14  H   UNL A   1      31.031  31.191  24.268  1.00  0.00     0.347 HD
BRANCH   8  15
ATOM     15  S   UNL A   1      31.449  26.524  22.965  1.00  0.00     0.253 S 
ATOM     16  O   UNL A   1      31.658  25.984  21.636  1.00  0.00    -0.206 OA
ATOM     17  O   UNL A   1      30.233  26.270  23.704  1.00  0.00    -0.206 OA
BRANCH  15  18
ATOM     18  C   UNL A   1      32.732  25.783  23.987  1.00  0.00     0.135 A 
ATOM     19  C   UNL A   1      34.685  24.407  24.657  1.00  0.00     0.055 A 
ATOM     20  C   UNL A   1      34.135  25.084  25.720  1.00  0.00     0.023 A 
ATOM     21  S   UNL A   1      33.892  24.776  23.194  1.00  0.00    -0.121 S 
ATOM     22  C   UNL A   1      32.981  25.812  25.346  1.00  0.00     0.034 A 
BRANCH  19  23
ATOM     23  C   UNL A   1      35.809  23.447  24.879  1.00  0.00     0.091 A 
ATOM     24  C   UNL A   1      39.049  23.054  26.503  1.00  0.00     0.079 C 
ATOM     25  C   UNL A   1      37.783  22.909  25.737  1.00  0.00     0.090 A 
ATOM     26  N   UNL A   1      36.939  23.895  25.552  1.00  0.00    -0.241 NA
ATOM     27  S   UNL A   1      37.322  21.411  25.037  1.00  0.00    -0.127 S 
ATOM     28  C   UNL A   1      35.841  22.120  24.511  1.00  0.00     0.096 A 
ENDBRANCH  19  23
ENDBRANCH  15  18
ENDBRANCH   8  15
ENDBRANCH   5   7
ENDBRANCH   4   5
ENDBRANCH   3   4
ENDBRANCH   2   3
ENDBRANCH   1   2
BRANCH   1  29
ATOM     29  C   UNL A   1      34.750  33.239  29.745  1.00  0.00     0.202 C 
BRANCH  29  30
ATOM     30  C   UNL A   1      35.406  32.223  30.694  1.00  0.00     0.261 C 
BRANCH  30  31
ATOM     31  O   UNL A   1      35.873  31.025  30.047  1.00  0.00    -0.460 OA
BRANCH  31  32
ATOM     32  C   UNL A   1      36.679  30.261  30.830  1.00  0.00     0.338 C 
ATOM     33  O   UNL A   1      36.329  29.497  31.717  1.00  0.00    -0.246 OA
BRANCH  32  34
ATOM     34  C   UNL A   1      38.077  30.306  30.361  1.00  0.00     0.060 A 
ATOM     35  C   UNL A   1      38.284  30.241  28.976  1.00  0.00     0.016 A 
ATOM     36  C   UNL A   1      39.158  30.271  31.243  1.00  0.00     0.016 A 
ATOM     37  C   UNL A   1      39.567  30.076  28.470  1.00  0.00     0.010 A 
ATOM     38  C   UNL A   1      40.449  30.089  30.732  1.00  0.00     0.010 A 
ATOM     39  C   UNL A   1      40.651  29.942  29.347  1.00  0.00    -0.014 A 
BRANCH  39  40
ATOM     40  C   UNL A   1      41.938  29.447  28.800  1.00  0.00     0.031 A 
ATOM     41  C   UNL A   1      43.105  30.397  28.725  1.00  0.00     0.074 A 
ATOM     42  C   UNL A   1      42.093  28.152  28.469  1.00  0.00     0.049 A 
ATOM     43  N   UNL A   1      44.337  30.170  28.352  1.00  0.00    -0.248 NA
ATOM     44  C   UNL A   1      42.846  31.789  29.131  1.00  0.00     0.031 C 
ATOM     45  C   UNL A   1      41.049  27.132  28.539  1.00  0.00     0.029 A 
ATOM     46  N   UNL A   1      43.197  27.475  28.018  1.00  0.00    -0.354 N 
ATOM     47  C   UNL A   1      45.001  31.386  28.479  1.00  0.00     0.074 A 
ATOM     48  C   UNL A   1      44.027  32.355  28.930  1.00  0.00     0.031 C 
ATOM     49  C   UNL A   1      41.563  25.955  28.145  1.00  0.00     0.029 A 
ATOM     50  C   UNL A   1      42.966  26.141  27.779  1.00  0.00     0.049 A 
ATOM     51  H   UNL A   1      44.073  27.902  27.879  1.00  0.00     0.167 HD
ATOM     52  C   UNL A   1      46.306  31.666  28.254  1.00  0.00     0.037 A 
ATOM     53  C   UNL A   1      43.792  25.185  27.313  1.00  0.00     0.037 A 
ATOM     54  C   UNL A   1      47.273  30.696  27.810  1.00  0.00     0.049 A 
ATOM     55  C   UNL A   1      45.229  25.529  27.025  1.00  0.00     0.074 A 
ATOM     56  C   UNL A   1      48.623  30.876  27.559  1.00  0.00     0.029 A 
ATOM     57  N   UNL A   1      46.991  29.364  27.545  1.00  0.00    -0.354 N 
ATOM     58  N   UNL A   1      45.847  26.679  27.169  1.00  0.00    -0.248 NA
ATOM     59  C   UNL A   1      46.086  24.446  26.523  1.00  0.00     0.031 C 
ATOM     60  C   UNL A   1      49.148  29.661  27.105  1.00  0.00     0.029 A 
ATOM     61  C   UNL A   1      48.137  28.714  27.117  1.00  0.00     0.049 A 
ATOM     62  H   UNL A   1      46.108  28.943  27.647  1.00  0.00     0.167 HD
ATOM     63  C   UNL A   1      47.169  26.450  26.799  1.00  0.00     0.074 A 
ATOM     64  C   UNL A   1      47.263  25.051  26.438  1.00  0.00     0.031 C 
ATOM     65  C   UNL A   1      48.211  27.318  26.764  1.00  0.00     0.037 A 
BRANCH  52  66
ATOM     66  C   UNL A   1      46.758  33.084  28.464  1.00  0.00     0.058 A 
ATOM     67  C   UNL A   1      46.628  34.059  27.461  1.00  0.00     0.135 A 
ATOM     68  C   UNL A   1      47.312  33.480  29.692  1.00  0.00     0.135 A 
ATOM     69  F   UNL A   1      46.123  33.730  26.261  1.00  0.00    -0.206 F 
ATOM     70  C   UNL A   1      47.055  35.368  27.659  1.00  0.00     0.059 A 
ATOM     71  C   UNL A   1      47.724  34.790  29.920  1.00  0.00     0.059 A 
ATOM     72  F   UNL A   1      47.465  32.589  30.684  1.00  0.00    -0.206 F 
ATOM     73  C   UNL A   1      47.605  35.723  28.891  1.00  0.00     0.060 A 
BRANCH  73  74
ATOM     74  S   UNL A   1      48.159  37.425  29.133  1.00  0.00     0.124 S 
ATOM     75  O   UNL A   1      49.018  37.287  30.305  1.00  0.00    -0.237 OA
ATOM     76  O   UNL A   1      48.843  37.713  27.877  1.00  0.00    -0.237 OA
ATOM     77  O   UNL A   1      46.915  38.159  29.348  1.00  0.00    -0.744 OA
ENDBRANCH  73  74
ENDBRANCH  52  66
BRANCH  53  78
ATOM     78  C   UNL A   1      43.280  23.806  27.091  1.00  0.00     0.058 A 
ATOM     79  C   UNL A   1      42.982  23.336  25.805  1.00  0.00     0.135 A 
ATOM     80  C   UNL A   1      43.084  22.928  28.169  1.00  0.00     0.135 A 
ATOM     81  F   UNL A   1      43.143  24.141  24.743  1.00  0.00    -0.206 F 
ATOM     82  C   UNL A   1      42.495  22.050  25.593  1.00  0.00     0.059 A 
ATOM     83  C   UNL A   1      42.621  21.630  27.982  1.00  0.00     0.059 A 
ATOM     84  F   UNL A   1      43.366  23.326  29.420  1.00  0.00    -0.206 F 
ATOM     85  C   UNL A   1      42.321  21.203  26.689  1.00  0.00     0.060 A 
BRANCH  85  86
ATOM     86  S   UNL A   1      41.739  19.518  26.401  1.00  0.00     0.124 S 
ATOM     87  O   UNL A   1      42.417  19.182  25.154  1.00  0.00    -0.237 OA
ATOM     88  O   UNL A   1      42.212  18.821  27.593  1.00  0.00    -0.237 OA
ATOM     89  O   UNL A   1      40.291  19.675  26.311  1.00  0.00    -0.744 OA
ENDBRANCH  85  86
ENDBRANCH  53  78
BRANCH  65  90
ATOM     90  C   UNL A   1      49.549  26.771  26.350  1.00  0.00     0.058 A 
ATOM     91  C   UNL A   1      50.040  26.930  25.045  1.00  0.00     0.135 A 
ATOM     92  C   UNL A   1      50.367  26.113  27.283  1.00  0.00     0.135 A 
ATOM     93  F   UNL A   1      49.296  27.549  24.114  1.00  0.00    -0.206 F 
ATOM     94  C   UNL A   1      51.281  26.427  24.670  1.00  0.00     0.059 A 
ATOM     95  C   UNL A   1      51.624  25.626  26.937  1.00  0.00     0.059 A 
ATOM     96  F   UNL A   1      49.952  25.948  28.549  1.00  0.00    -0.206 F 
ATOM     97  C   UNL A   1      52.065  25.774  25.623  1.00  0.00     0.060 A 
BRANCH  97  98
ATOM     98  S   UNL A   1      53.682  25.138  25.131  1.00  0.00     0.124 S 
ATOM     99  O   UNL A   1      53.492  23.701  25.292  1.00  0.00    -0.237 OA
ATOM    100  O   UNL A   1      53.800  25.611  23.754  1.00  0.00    -0.237 OA
ATOM    101  O   UNL A   1      54.596  25.763  26.082  1.00  0.00    -0.744 OA
ENDBRANCH  97  98
ENDBRANCH  65  90
ENDBRANCH  39  40
ENDBRANCH  32  34
ENDBRANCH  31  32
ENDBRANCH  30  31
ENDBRANCH  29  30
ENDBRANCH   1  29
TORSDOF 20
ENDMDL
MODEL 2
REMARK VINA RESULT:     -11.0      6.191     12.201
REMARK SMILES Cc1nc(-c2ccc(S(=O)(=O)N3CC[NH2+][C@H](C(=O)OCCOCCOC(=O)c4ccc(-c5c6nc(c(-c7c(F)cc(S(=O)(=O)[O-])cc7F)c7ccc([nH]7)c(-c7c(F)cc(S(=O)(=O)[O-])cc7F)c7nc(c(-c8c(F)cc(S(=O)(=O)[O-])cc8F)c8ccc5[nH]8)C=C7)C=C6)cc4)C3)s2)cs1
REMARK SMILES IDX 22 1 21 2 20 3 19 4 17 5 18 6 16 7 12 8 13 9 94 10 14 11
REMARK SMILES IDX 15 12 9 15 10 16 11 17 8 18 5 19 6 20 95 21 7 22 4 23 1 24
REMARK SMILES IDX 2 25 3 26 97 27 96 28 23 29 24 30 25 31 26 32 27 33 28 34
REMARK SMILES IDX 29 35 93 36 30 37 92 38 31 39 32 40 33 41 86 42 34 43 91 44
REMARK SMILES IDX 85 45 87 46 35 47 90 48 84 49 83 50 36 52 70 53 49 54 69 55
REMARK SMILES IDX 50 56 53 57 68 58 88 59 51 60 52 61 67 63 89 64 54 65 37 66
REMARK SMILES IDX 38 67 47 68 39 69 40 70 46 71 48 72 41 73 42 74 43 75 44 76
REMARK SMILES IDX 45 77 71 78 72 79 81 80 73 81 74 82 80 83 82 84 75 85 76 86
REMARK SMILES IDX 77 87 78 88 79 89 55 90 56 91 65 92 57 93 58 94 64 95 66 96
REMARK SMILES IDX 59 97 60 98 61 99 62 100 63 101
REMARK H PARENT 15 13 15 14 87 51 53 62
REMARK Flexibility Score: inf
ROOT
ATOM      1  O   UNL A   1      39.217  22.013  26.177  1.00  0.00    -0.374 OA
ENDROOT
BRANCH   1   2
ATOM      2  C   UNL A   1      38.293  21.211  25.445  1.00  0.00     0.202 C 
BRANCH   2   3
ATOM      3  C   UNL A   1      37.113  21.896  24.750  1.00  0.00     0.261 C 
BRANCH   3   4
ATOM      4  O   UNL A   1      36.019  22.174  25.646  1.00  0.00    -0.459 OA
BRANCH   4   5
ATOM      5  C   UNL A   1      34.823  21.705  25.209  1.00  0.00     0.366 C 
ATOM      6  O   UNL A   1      34.656  20.631  24.635  1.00  0.00    -0.245 OA
BRANCH   5   7
ATOM      7  C   UNL A   1      33.652  22.613  25.524  1.00  0.00     0.308 C 
ATOM      8  N   UNL A   1      32.606  24.759  25.106  1.00  0.00    -0.185 NA
ATOM      9  C   UNL A   1      31.759  24.626  26.323  1.00  0.00     0.164 C 
ATOM     10  C   UNL A   1      33.925  24.084  25.246  1.00  0.00     0.180 C 
ATOM     11  C   UNL A   1      31.757  23.198  26.930  1.00  0.00     0.278 C 
ATOM     12  N   UNL A   1      33.019  22.422  26.865  1.00  0.00    -0.332 N 
ATOM     13  H   UNL A   1      32.817  21.433  27.008  1.00  0.00     0.347 HD
ATOM     14  H   UNL A   1      33.657  22.748  27.591  1.00  0.00     0.347 HD
BRANCH   8  15
ATOM     15  S   UNL A   1      31.910  24.828  23.555  1.00  0.00     0.253 S 
ATOM     16  O   UNL A   1      31.174  23.591  23.384  1.00  0.00    -0.206 OA
ATOM     17  O   UNL A   1      32.940  25.233  22.625  1.00  0.00    -0.206 OA
BRANCH  15  18
ATOM     18  C   UNL A   1      30.679  26.135  23.427  1.00  0.00     0.135 A 
ATOM     19  C   UNL A   1      29.649  28.337  22.934  1.00  0.00     0.055 A 
ATOM     20  C   UNL A   1      28.763  27.468  23.525  1.00  0.00     0.023 A 
ATOM     21  S   UNL A   1      31.165  27.608  22.665  1.00  0.00    -0.121 S 
ATOM     22  C   UNL A   1      29.373  26.238  23.867  1.00  0.00     0.034 A 
BRANCH  19  23
ATOM     23  C   UNL A   1      29.241  29.748  22.653  1.00  0.00     0.091 A 
ATOM     24  C   UNL A   1      27.877  31.947  20.086  1.00  0.00     0.079 C 
ATOM     25  C   UNL A   1      28.441  31.324  21.312  1.00  0.00     0.090 A 
ATOM     26  N   UNL A   1      28.847  30.078  21.363  1.00  0.00    -0.241 NA
ATOM     27  S   UNL A   1      28.595  32.203  22.779  1.00  0.00    -0.127 S 
ATOM     28  C   UNL A   1      29.178  30.782  23.562  1.00  0.00     0.096 A 
ENDBRANCH  19  23
ENDBRANCH  15  18
ENDBRANCH   8  15
ENDBRANCH   5   7
ENDBRANCH   4   5
ENDBRANCH   3   4
ENDBRANCH   2   3
ENDBRANCH   1   2
BRANCH   1  29
ATOM     29  C   UNL A   1      40.448  21.431  26.591  1.00  0.00     0.202 C 
BRANCH  29  30
ATOM     30  C   UNL A   1      41.690  22.330  26.704  1.00  0.00     0.261 C 
BRANCH  30  31
ATOM     31  O   UNL A   1      41.430  23.729  26.489  1.00  0.00    -0.460 OA
BRANCH  31  32
ATOM     32  C   UNL A   1      42.387  24.547  27.000  1.00  0.00     0.338 C 
ATOM     33  O   UNL A   1      43.587  24.499  26.779  1.00  0.00    -0.246 OA
BRANCH  32  34
ATOM     34  C   UNL A   1      41.786  25.669  27.745  1.00  0.00     0.060 A 
ATOM     35  C   UNL A   1      42.587  26.803  27.941  1.00  0.00     0.016 A 
ATOM     36  C   UNL A   1      40.534  25.571  28.355  1.00  0.00     0.016 A 
ATOM     37  C   UNL A   1      42.169  27.813  28.798  1.00  0.00     0.010 A 
ATOM     38  C   UNL A   1      40.120  26.583  29.230  1.00  0.00     0.010 A 
ATOM     39  C   UNL A   1      40.959  27.682  29.492  1.00  0.00    -0.014 A 
BRANCH  39  40
ATOM     40  C   UNL A   1      40.699  28.602  30.627  1.00  0.00     0.031 A 
ATOM     41  C   UNL A   1      41.568  28.499  31.854  1.00  0.00     0.074 A 
ATOM     42  C   UNL A   1      39.773  29.572  30.529  1.00  0.00     0.049 A 
ATOM     43  N   UNL A   1      41.573  29.239  32.931  1.00  0.00    -0.248 NA
ATOM     44  C   UNL A   1      42.571  27.421  31.861  1.00  0.00     0.031 C 
ATOM     45  C   UNL A   1      38.903  29.794  29.376  1.00  0.00     0.029 A 
ATOM     46  N   UNL A   1      39.422  30.560  31.412  1.00  0.00    -0.354 N 
ATOM     47  C   UNL A   1      42.574  28.719  33.744  1.00  0.00     0.074 A 
ATOM     48  C   UNL A   1      43.134  27.580  33.050  1.00  0.00     0.031 C 
ATOM     49  C   UNL A   1      38.115  30.855  29.624  1.00  0.00     0.029 A 
ATOM     50  C   UNL A   1      38.414  31.376  30.956  1.00  0.00     0.049 A 
ATOM     51  H   UNL A   1      39.851  30.675  32.291  1.00  0.00     0.167 HD
ATOM     52  C   UNL A   1      43.000  29.159  34.951  1.00  0.00     0.037 A 
ATOM     53  C   UNL A   1      37.801  32.417  31.550  1.00  0.00     0.037 A 
ATOM     54  C   UNL A   1      42.444  30.296  35.636  1.00  0.00     0.049 A 
ATOM     55  C   UNL A   1      38.260  32.861  32.915  1.00  0.00     0.074 A 
ATOM     56  C   UNL A   1      42.808  30.829  36.861  1.00  0.00     0.029 A 
ATOM     57  N   UNL A   1      41.400  31.074  35.156  1.00  0.00    -0.354 N 
ATOM     58  N   UNL A   1      39.222  32.371  33.662  1.00  0.00    -0.248 NA
ATOM     59  C   UNL A   1      37.559  34.006  33.513  1.00  0.00     0.031 C 
ATOM     60  C   UNL A   1      41.958  31.905  37.139  1.00  0.00     0.029 A 
ATOM     61  C   UNL A   1      41.095  32.071  36.068  1.00  0.00     0.049 A 
ATOM     62  H   UNL A   1      40.944  30.937  34.296  1.00  0.00     0.167 HD
ATOM     63  C   UNL A   1      39.258  33.163  34.805  1.00  0.00     0.074 A 
ATOM     64  C   UNL A   1      38.229  34.171  34.645  1.00  0.00     0.031 C 
ATOM     65  C   UNL A   1      40.069  33.068  35.889  1.00  0.00     0.037 A 
BRANCH  52  66
ATOM     66  C   UNL A   1      44.108  28.392  35.618  1.00  0.00     0.058 A 
ATOM     67  C   UNL A   1      45.460  28.701  35.397  1.00  0.00     0.135 A 
ATOM     68  C   UNL A   1      43.814  27.344  36.505  1.00  0.00     0.135 A 
ATOM     69  F   UNL A   1      45.798  29.680  34.542  1.00  0.00    -0.206 F 
ATOM     70  C   UNL A   1      46.481  27.982  36.010  1.00  0.00     0.059 A 
ATOM     71  C   UNL A   1      44.818  26.626  37.149  1.00  0.00     0.059 A 
ATOM     72  F   UNL A   1      42.539  27.002  36.750  1.00  0.00    -0.206 F 
ATOM     73  C   UNL A   1      46.150  26.944  36.882  1.00  0.00     0.060 A 
BRANCH  73  74
ATOM     74  S   UNL A   1      47.485  26.016  37.668  1.00  0.00     0.124 S 
ATOM     75  O   UNL A   1      46.740  25.143  38.571  1.00  0.00    -0.237 OA
ATOM     76  O   UNL A   1      48.121  25.358  36.532  1.00  0.00    -0.237 OA
ATOM     77  O   UNL A   1      48.283  27.053  38.316  1.00  0.00    -0.744 OA
ENDBRANCH  73  74
ENDBRANCH  52  66
BRANCH  53  78
ATOM     78  C   UNL A   1      36.687  33.117  30.857  1.00  0.00     0.058 A 
ATOM     79  C   UNL A   1      36.928  33.993  29.789  1.00  0.00     0.135 A 
ATOM     80  C   UNL A   1      35.355  32.916  31.249  1.00  0.00     0.135 A 
ATOM     81  F   UNL A   1      38.185  34.225  29.383  1.00  0.00    -0.206 F 
ATOM     82  C   UNL A   1      35.890  34.656  29.142  1.00  0.00     0.059 A 
ATOM     83  C   UNL A   1      34.297  33.548  30.604  1.00  0.00     0.059 A 
ATOM     84  F   UNL A   1      35.070  32.078  32.259  1.00  0.00    -0.206 F 
ATOM     85  C   UNL A   1      34.577  34.424  29.556  1.00  0.00     0.060 A 
BRANCH  85  86
ATOM     86  S   UNL A   1      33.231  35.248  28.676  1.00  0.00     0.124 S 
ATOM     87  O   UNL A   1      33.961  36.193  27.840  1.00  0.00    -0.237 OA
ATOM     88  O   UNL A   1      32.594  34.136  27.978  1.00  0.00    -0.237 OA
ATOM     89  O   UNL A   1      32.440  35.837  29.753  1.00  0.00    -0.744 OA
ENDBRANCH  85  86
ENDBRANCH  53  78
BRANCH  65  90
ATOM     90  C   UNL A   1      39.898  34.098  36.971  1.00  0.00     0.058 A 
ATOM     91  C   UNL A   1      40.480  35.370  36.877  1.00  0.00     0.135 A 
ATOM     92  C   UNL A   1      39.108  33.819  38.099  1.00  0.00     0.135 A 
ATOM     93  F   UNL A   1      41.246  35.687  35.821  1.00  0.00    -0.206 F 
ATOM     94  C   UNL A   1      40.313  36.321  37.879  1.00  0.00     0.059 A 
ATOM     95  C   UNL A   1      38.905  34.764  39.099  1.00  0.00     0.059 A 
ATOM     96  F   UNL A   1      38.516  32.621  38.231  1.00  0.00    -0.206 F 
ATOM     97  C   UNL A   1      39.526  36.007  38.988  1.00  0.00     0.060 A 
BRANCH  97  98
ATOM     98  S   UNL A   1      39.302  37.253  40.275  1.00  0.00     0.124 S 
ATOM     99  O   UNL A   1      38.545  38.277  39.563  1.00  0.00    -0.237 OA
ATOM    100  O   UNL A   1      38.565  36.518  41.299  1.00  0.00    -0.237 OA
ATOM    101  O   UNL A   1      40.668  37.618  40.636  1.00  0.00    -0.744 OA
ENDBRANCH  97  98
ENDBRANCH  65  90
ENDBRANCH  39  40
ENDBRANCH  32  34
ENDBRANCH  31  32
ENDBRANCH  30  31
ENDBRANCH  29  30
ENDBRANCH   1  29
TORSDOF 20
ENDMDL
MODEL 3
REMARK VINA RESULT:     -10.8      3.082      9.352
REMARK SMILES Cc1nc(-c2ccc(S(=O)(=O)N3CC[NH2+][C@H](C(=O)OCCOCCOC(=O)c4ccc(-c5c6nc(c(-c7c(F)cc(S(=O)(=O)[O-])cc7F)c7ccc([nH]7)c(-c7c(F)cc(S(=O)(=O)[O-])cc7F)c7nc(c(-c8c(F)cc(S(=O)(=O)[O-])cc8F)c8ccc5[nH]8)C=C7)C=C6)cc4)C3)s2)cs1
REMARK SMILES IDX 22 1 21 2 20 3 19 4 17 5 18 6 16 7 12 8 13 9 94 10 14 11
REMARK SMILES IDX 15 12 9 15 10 16 11 17 8 18 5 19 6 20 95 21 7 22 4 23 1 24
REMARK SMILES IDX 2 25 3 26 97 27 96 28 23 29 24 30 25 31 26 32 27 33 28 34
REMARK SMILES IDX 29 35 93 36 30 37 92 38 31 39 32 40 33 41 86 42 34 43 91 44
REMARK SMILES IDX 85 45 87 46 35 47 90 48 84 49 83 50 36 52 70 53 49 54 69 55
REMARK SMILES IDX 50 56 53 57 68 58 88 59 51 60 52 61 67 63 89 64 54 65 37 66
REMARK SMILES IDX 38 67 47 68 39 69 40 70 46 71 48 72 41 73 42 74 43 75 44 76
REMARK SMILES IDX 45 77 71 78 72 79 81 80 73 81 74 82 80 83 82 84 75 85 76 86
REMARK SMILES IDX 77 87 78 88 79 89 55 90 56 91 65 92 57 93 58 94 64 95 66 96
REMARK SMILES IDX 59 97 60 98 61 99 62 100 63 101
REMARK H PARENT 15 13 15 14 87 51 53 62
REMARK Flexibility Score: inf
ROOT
ATOM      1  O   UNL A   1      35.552  22.139  23.906  1.00  0.00    -0.374 OA
ENDROOT
BRANCH   1   2
ATOM      2  C   UNL A   1      34.929  21.200  24.778  1.00  0.00     0.202 C 
BRANCH   2   3
ATOM      3  C   UNL A   1      34.168  21.721  25.999  1.00  0.00     0.261 C 
BRANCH   3   4
ATOM      4  O   UNL A   1      33.733  23.086  25.848  1.00  0.00    -0.459 OA
BRANCH   4   5
ATOM      5  C   UNL A   1      32.536  23.212  25.221  1.00  0.00     0.366 C 
ATOM      6  O   UNL A   1      31.537  22.541  25.471  1.00  0.00    -0.245 OA
BRANCH   5   7
ATOM      7  C   UNL A   1      32.500  24.305  24.173  1.00  0.00     0.308 C 
ATOM      8  N   UNL A   1      31.110  25.592  22.660  1.00  0.00    -0.185 NA
ATOM      9  C   UNL A   1      32.300  26.030  21.879  1.00  0.00     0.164 C 
ATOM     10  C   UNL A   1      31.282  24.242  23.263  1.00  0.00     0.180 C 
ATOM     11  C   UNL A   1      33.651  25.742  22.585  1.00  0.00     0.278 C 
ATOM     12  N   UNL A   1      33.756  24.499  23.386  1.00  0.00    -0.332 N 
ATOM     13  H   UNL A   1      34.549  24.571  24.024  1.00  0.00     0.347 HD
ATOM     14  H   UNL A   1      33.892  23.703  22.763  1.00  0.00     0.347 HD
BRANCH   8  15
ATOM     15  S   UNL A   1      30.146  26.717  23.496  1.00  0.00     0.253 S 
ATOM     16  O   UNL A   1      29.027  25.972  24.038  1.00  0.00    -0.206 OA
ATOM     17  O   UNL A   1      29.949  27.860  22.634  1.00  0.00    -0.206 OA
BRANCH  15  18
ATOM     18  C   UNL A   1      30.998  27.402  24.926  1.00  0.00     0.135 A 
ATOM     19  C   UNL A   1      32.516  28.814  26.290  1.00  0.00     0.055 A 
ATOM     20  C   UNL A   1      31.839  27.891  27.051  1.00  0.00     0.023 A 
ATOM     21  S   UNL A   1      32.052  28.744  24.651  1.00  0.00    -0.121 S 
ATOM     22  C   UNL A   1      31.027  27.043  26.260  1.00  0.00     0.034 A 
BRANCH  19  23
ATOM     23  C   UNL A   1      33.552  29.690  26.918  1.00  0.00     0.091 A 
ATOM     24  C   UNL A   1      34.106  32.976  28.396  1.00  0.00     0.079 C 
ATOM     25  C   UNL A   1      34.199  31.594  27.854  1.00  0.00     0.090 A 
ATOM     26  N   UNL A   1      33.210  30.998  27.234  1.00  0.00    -0.241 NA
ATOM     27  S   UNL A   1      35.631  30.660  28.012  1.00  0.00    -0.127 S 
ATOM     28  C   UNL A   1      34.837  29.328  27.260  1.00  0.00     0.096 A 
ENDBRANCH  19  23
ENDBRANCH  15  18
ENDBRANCH   8  15
ENDBRANCH   5   7
ENDBRANCH   4   5
ENDBRANCH   3   4
ENDBRANCH   2   3
ENDBRANCH   1   2
BRANCH   1  29
ATOM     29  C   UNL A   1      36.973  22.232  23.903  1.00  0.00     0.202 C 
BRANCH  29  30
ATOM     30  C   UNL A   1      37.762  21.532  25.021  1.00  0.00     0.261 C 
BRANCH  30  31
ATOM     31  O   UNL A   1      38.111  22.387  26.124  1.00  0.00    -0.460 OA
BRANCH  31  32
ATOM     32  C   UNL A   1      39.416  22.298  26.492  1.00  0.00     0.338 C 
ATOM     33  O   UNL A   1      40.226  21.461  26.125  1.00  0.00    -0.246 OA
BRANCH  32  34
ATOM     34  C   UNL A   1      39.830  23.477  27.277  1.00  0.00     0.060 A 
ATOM     35  C   UNL A   1      39.063  24.640  27.127  1.00  0.00     0.016 A 
ATOM     36  C   UNL A   1      41.008  23.495  28.025  1.00  0.00     0.016 A 
ATOM     37  C   UNL A   1      39.503  25.841  27.671  1.00  0.00     0.010 A 
ATOM     38  C   UNL A   1      41.458  24.709  28.560  1.00  0.00     0.010 A 
ATOM     39  C   UNL A   1      40.731  25.894  28.341  1.00  0.00    -0.014 A 
BRANCH  39  40
ATOM     40  C   UNL A   1      41.321  27.226  28.619  1.00  0.00     0.031 A 
ATOM     41  C   UNL A   1      42.736  27.497  28.178  1.00  0.00     0.074 A 
ATOM     42  C   UNL A   1      40.580  28.207  29.166  1.00  0.00     0.049 A 
ATOM     43  N   UNL A   1      43.430  28.602  28.249  1.00  0.00    -0.248 NA
ATOM     44  C   UNL A   1      43.461  26.370  27.567  1.00  0.00     0.031 C 
ATOM     45  C   UNL A   1      39.189  28.075  29.594  1.00  0.00     0.029 A 
ATOM     46  N   UNL A   1      40.895  29.513  29.441  1.00  0.00    -0.354 N 
ATOM     47  C   UNL A   1      44.671  28.307  27.695  1.00  0.00     0.074 A 
ATOM     48  C   UNL A   1      44.646  26.909  27.322  1.00  0.00     0.031 C 
ATOM     49  C   UNL A   1      38.768  29.256  30.079  1.00  0.00     0.029 A 
ATOM     50  C   UNL A   1      39.864  30.221  30.011  1.00  0.00     0.049 A 
ATOM     51  H   UNL A   1      41.776  29.907  29.248  1.00  0.00     0.167 HD
ATOM     52  C   UNL A   1      45.730  29.128  27.500  1.00  0.00     0.037 A 
ATOM     53  C   UNL A   1      39.815  31.499  30.434  1.00  0.00     0.037 A 
ATOM     54  C   UNL A   1      45.748  30.519  27.868  1.00  0.00     0.049 A 
ATOM     55  C   UNL A   1      41.020  32.382  30.249  1.00  0.00     0.074 A 
ATOM     56  C   UNL A   1      46.769  31.441  27.707  1.00  0.00     0.029 A 
ATOM     57  N   UNL A   1      44.696  31.189  28.475  1.00  0.00    -0.354 N 
ATOM     58  N   UNL A   1      42.180  32.093  29.705  1.00  0.00    -0.248 NA
ATOM     59  C   UNL A   1      40.909  33.769  30.725  1.00  0.00     0.031 C 
ATOM     60  C   UNL A   1      46.347  32.658  28.253  1.00  0.00     0.029 A 
ATOM     61  C   UNL A   1      45.049  32.508  28.712  1.00  0.00     0.049 A 
ATOM     62  H   UNL A   1      43.828  30.788  28.704  1.00  0.00     0.167 HD
ATOM     63  C   UNL A   1      42.925  33.267  29.750  1.00  0.00     0.074 A 
ATOM     64  C   UNL A   1      42.081  34.272  30.363  1.00  0.00     0.031 C 
ATOM     65  C   UNL A   1      44.193  33.495  29.322  1.00  0.00     0.037 A 
BRANCH  52  66
ATOM     66  C   UNL A   1      46.964  28.534  26.880  1.00  0.00     0.058 A 
ATOM     67  C   UNL A   1      47.095  28.383  25.490  1.00  0.00     0.135 A 
ATOM     68  C   UNL A   1      48.039  28.125  27.686  1.00  0.00     0.135 A 
ATOM     69  F   UNL A   1      46.090  28.740  24.674  1.00  0.00    -0.206 F 
ATOM     70  C   UNL A   1      48.236  27.825  24.923  1.00  0.00     0.059 A 
ATOM     71  C   UNL A   1      49.199  27.586  27.139  1.00  0.00     0.059 A 
ATOM     72  F   UNL A   1      47.964  28.241  29.022  1.00  0.00    -0.206 F 
ATOM     73  C   UNL A   1      49.282  27.426  25.757  1.00  0.00     0.060 A 
BRANCH  73  74
ATOM     74  S   UNL A   1      50.756  26.699  25.008  1.00  0.00     0.124 S 
ATOM     75  O   UNL A   1      50.873  25.449  25.753  1.00  0.00    -0.237 OA
ATOM     76  O   UNL A   1      50.364  26.569  23.608  1.00  0.00    -0.237 OA
ATOM     77  O   UNL A   1      51.796  27.689  25.275  1.00  0.00    -0.744 OA
ENDBRANCH  73  74
ENDBRANCH  52  66
BRANCH  53  78
ATOM     78  C   UNL A   1      38.577  32.022  31.071  1.00  0.00     0.058 A 
ATOM     79  C   UNL A   1      37.634  32.757  30.340  1.00  0.00     0.135 A 
ATOM     80  C   UNL A   1      38.313  31.790  32.430  1.00  0.00     0.135 A 
ATOM     81  F   UNL A   1      37.846  33.013  29.040  1.00  0.00    -0.206 F 
ATOM     82  C   UNL A   1      36.479  33.256  30.934  1.00  0.00     0.059 A 
ATOM     83  C   UNL A   1      37.155  32.258  33.042  1.00  0.00     0.059 A 
ATOM     84  F   UNL A   1      39.180  31.082  33.172  1.00  0.00    -0.206 F 
ATOM     85  C   UNL A   1      36.248  32.998  32.286  1.00  0.00     0.060 A 
BRANCH  85  86
ATOM     86  S   UNL A   1      34.720  33.603  33.037  1.00  0.00     0.124 S 
ATOM     87  O   UNL A   1      35.011  33.451  34.458  1.00  0.00    -0.237 OA
ATOM     88  O   UNL A   1      34.656  34.974  32.541  1.00  0.00    -0.237 OA
ATOM     89  O   UNL A   1      33.704  32.703  32.499  1.00  0.00    -0.744 OA
ENDBRANCH  85  86
ENDBRANCH  53  78
BRANCH  65  90
ATOM     90  C   UNL A   1      44.731  34.891  29.473  1.00  0.00     0.058 A 
ATOM     91  C   UNL A   1      45.449  35.286  30.610  1.00  0.00     0.135 A 
ATOM     92  C   UNL A   1      44.557  35.833  28.445  1.00  0.00     0.135 A 
ATOM     93  F   UNL A   1      45.641  34.424  31.622  1.00  0.00    -0.206 F 
ATOM     94  C   UNL A   1      45.950  36.577  30.741  1.00  0.00     0.059 A 
ATOM     95  C   UNL A   1      45.072  37.122  28.543  1.00  0.00     0.059 A 
ATOM     96  F   UNL A   1      43.889  35.502  27.329  1.00  0.00    -0.206 F 
ATOM     97  C   UNL A   1      45.753  37.489  29.703  1.00  0.00     0.060 A 
BRANCH  97  98
ATOM     98  S   UNL A   1      46.420  39.159  29.874  1.00  0.00     0.124 S 
ATOM     99  O   UNL A   1      47.855  38.911  29.780  1.00  0.00    -0.237 OA
ATOM    100  O   UNL A   1      45.821  39.855  28.739  1.00  0.00    -0.237 OA
ATOM    101  O   UNL A   1      45.941  39.583  31.186  1.00  0.00    -0.744 OA
ENDBRANCH  97  98
ENDBRANCH  65  90
ENDBRANCH  39  40
ENDBRANCH  32  34
ENDBRANCH  31  32
ENDBRANCH  30  31
ENDBRANCH  29  30
ENDBRANCH   1  29
TORSDOF 20
ENDMDL
