MODEL 1
REMARK VINA RESULT:     -11.0      0.000      0.000
REMARK SMILES O=C(OCCOCCOC(=O)c1cc2sc(Cl)cc2s1)c1ccc(-c2c3nc(c(-c4c(F)cc(S(=O)(=O)[O-])cc4F)c4ccc([nH]4)c(-c4c(F)cc(S(=O)(=O)[O-])cc4F)c4nc(c(-c5c(F)cc(S(=O)(=O)[O-])cc5F)c5ccc2[nH]5)C=C4)C=C3)cc1
REMARK SMILES IDX 4 1 3 2 2 3 1 4 21 5 22 6 86 7 23 8 85 9 24 10 25 11 26 12
REMARK SMILES IDX 79 13 27 14 84 15 78 16 80 17 28 18 83 19 77 20 76 21 29 23
REMARK SMILES IDX 63 24 42 25 62 26 43 27 46 28 61 29 81 30 44 31 45 32 60 34
REMARK SMILES IDX 82 35 47 36 30 37 31 38 40 39 32 40 33 41 39 42 41 43 34 44
REMARK SMILES IDX 35 45 36 46 37 47 38 48 64 49 65 50 74 51 66 52 67 53 73 54
REMARK SMILES IDX 75 55 68 56 69 57 70 58 71 59 72 60 48 61 49 62 58 63 50 64
REMARK SMILES IDX 51 65 57 66 59 67 52 68 53 69 54 70 55 71 56 72 5 73 6 74
REMARK SMILES IDX 7 75 8 76 9 77 10 78 11 79 12 80 13 81 20 82 14 83 19 84
REMARK SMILES IDX 15 85 18 86 16 87 17 88
REMARK H PARENT 80 22 46 33
REMARK Flexibility Score: inf
ROOT
ATOM      1  C   UNL A   1      33.665  33.396  27.983  1.00  0.00     0.261 C 
ENDROOT
BRANCH   1   2
ATOM      2  O   UNL A   1      34.074  32.216  28.703  1.00  0.00    -0.460 OA
BRANCH   2   3
ATOM      3  C   UNL A   1      34.489  31.070  28.118  1.00  0.00     0.338 C 
ATOM      4  O   UNL A   1      33.705  30.375  27.477  1.00  0.00    -0.246 OA
BRANCH   3   5
ATOM      5  C   UNL A   1      35.951  30.826  28.022  1.00  0.00     0.060 A 
ATOM      6  C   UNL A   1      36.515  29.732  27.372  1.00  0.00     0.016 A 
ATOM      7  C   UNL A   1      36.786  31.694  28.748  1.00  0.00     0.016 A 
ATOM      8  C   UNL A   1      37.823  29.377  27.616  1.00  0.00     0.010 A 
ATOM      9  C   UNL A   1      38.119  31.370  28.957  1.00  0.00     0.010 A 
ATOM     10  C   UNL A   1      38.597  30.157  28.469  1.00  0.00    -0.014 A 
BRANCH  10  11
ATOM     11  C   UNL A   1      39.911  29.629  28.798  1.00  0.00     0.031 A 
ATOM     12  C   UNL A   1      40.246  29.640  30.248  1.00  0.00     0.074 A 
ATOM     13  C   UNL A   1      40.741  29.152  27.854  1.00  0.00     0.049 A 
ATOM     14  N   UNL A   1      41.206  30.261  30.855  1.00  0.00    -0.248 NA
ATOM     15  C   UNL A   1      39.290  28.983  31.153  1.00  0.00     0.031 C 
ATOM     16  C   UNL A   1      40.439  28.863  26.449  1.00  0.00     0.029 A 
ATOM     17  N   UNL A   1      42.020  28.711  27.990  1.00  0.00    -0.354 N 
ATOM     18  C   UNL A   1      41.098  29.899  32.198  1.00  0.00     0.074 A 
ATOM     19  C   UNL A   1      39.819  29.260  32.344  1.00  0.00     0.031 C 
ATOM     20  C   UNL A   1      41.407  28.067  25.946  1.00  0.00     0.029 A 
ATOM     21  C   UNL A   1      42.450  27.907  26.946  1.00  0.00     0.049 A 
ATOM     22  H   UNL A   1      42.589  28.943  28.760  1.00  0.00     0.167 HD
ATOM     23  C   UNL A   1      42.167  29.945  33.042  1.00  0.00     0.037 A 
ATOM     24  C   UNL A   1      43.527  27.086  26.957  1.00  0.00     0.037 A 
ATOM     25  C   UNL A   1      43.176  30.854  32.564  1.00  0.00     0.049 A 
ATOM     26  C   UNL A   1      44.432  27.556  28.041  1.00  0.00     0.074 A 
ATOM     27  C   UNL A   1      43.206  32.205  32.274  1.00  0.00     0.029 A 
ATOM     28  N   UNL A   1      44.311  30.331  31.993  1.00  0.00    -0.354 N 
ATOM     29  N   UNL A   1      45.068  28.696  28.022  1.00  0.00    -0.248 NA
ATOM     30  C   UNL A   1      44.291  26.949  29.357  1.00  0.00     0.031 C 
ATOM     31  C   UNL A   1      44.075  32.326  31.151  1.00  0.00     0.029 A 
ATOM     32  C   UNL A   1      44.556  31.051  30.852  1.00  0.00     0.049 A 
ATOM     33  H   UNL A   1      44.847  29.580  32.337  1.00  0.00     0.167 HD
ATOM     34  C   UNL A   1      45.043  29.146  29.335  1.00  0.00     0.074 A 
ATOM     35  C   UNL A   1      44.638  27.986  30.124  1.00  0.00     0.031 C 
ATOM     36  C   UNL A   1      45.085  30.479  29.633  1.00  0.00     0.037 A 
BRANCH  23  37
ATOM     37  C   UNL A   1      42.451  28.880  34.084  1.00  0.00     0.058 A 
ATOM     38  C   UNL A   1      42.608  27.539  33.673  1.00  0.00     0.135 A 
ATOM     39  C   UNL A   1      42.270  29.065  35.475  1.00  0.00     0.135 A 
ATOM     40  F   UNL A   1      42.809  27.238  32.380  1.00  0.00    -0.206 F 
ATOM     41  C   UNL A   1      42.467  26.465  34.553  1.00  0.00     0.059 A 
ATOM     42  C   UNL A   1      42.180  28.012  36.376  1.00  0.00     0.059 A 
ATOM     43  F   UNL A   1      42.072  30.268  36.026  1.00  0.00    -0.206 F 
ATOM     44  C   UNL A   1      42.219  26.716  35.899  1.00  0.00     0.060 A 
BRANCH  44  45
ATOM     45  S   UNL A   1      41.861  25.346  37.009  1.00  0.00     0.124 S 
ATOM     46  O   UNL A   1      43.122  25.224  37.729  1.00  0.00    -0.237 OA
ATOM     47  O   UNL A   1      40.732  25.863  37.775  1.00  0.00    -0.237 OA
ATOM     48  O   UNL A   1      41.542  24.250  36.098  1.00  0.00    -0.744 OA
ENDBRANCH  44  45
ENDBRANCH  23  37
BRANCH  24  49
ATOM     49  C   UNL A   1      43.608  25.729  26.357  1.00  0.00     0.058 A 
ATOM     50  C   UNL A   1      44.540  25.432  25.349  1.00  0.00     0.135 A 
ATOM     51  C   UNL A   1      42.945  24.625  26.933  1.00  0.00     0.135 A 
ATOM     52  F   UNL A   1      45.240  26.417  24.766  1.00  0.00    -0.206 F 
ATOM     53  C   UNL A   1      44.822  24.117  24.959  1.00  0.00     0.059 A 
ATOM     54  C   UNL A   1      43.195  23.310  26.549  1.00  0.00     0.059 A 
ATOM     55  F   UNL A   1      42.094  24.779  27.959  1.00  0.00    -0.206 F 
ATOM     56  C   UNL A   1      44.152  23.060  25.577  1.00  0.00     0.060 A 
BRANCH  56  57
ATOM     57  S   UNL A   1      44.619  21.357  25.192  1.00  0.00     0.124 S 
ATOM     58  O   UNL A   1      43.620  20.596  25.932  1.00  0.00    -0.237 OA
ATOM     59  O   UNL A   1      44.499  21.325  23.739  1.00  0.00    -0.237 OA
ATOM     60  O   UNL A   1      45.984  21.256  25.702  1.00  0.00    -0.744 OA
ENDBRANCH  56  57
ENDBRANCH  24  49
BRANCH  36  61
ATOM     61  C   UNL A   1      45.455  31.446  28.541  1.00  0.00     0.058 A 
ATOM     62  C   UNL A   1      44.575  31.863  27.526  1.00  0.00     0.135 A 
ATOM     63  C   UNL A   1      46.692  32.106  28.625  1.00  0.00     0.135 A 
ATOM     64  F   UNL A   1      43.334  31.364  27.444  1.00  0.00    -0.206 F 
ATOM     65  C   UNL A   1      44.923  32.860  26.614  1.00  0.00     0.059 A 
ATOM     66  C   UNL A   1      47.048  33.124  27.745  1.00  0.00     0.059 A 
ATOM     67  F   UNL A   1      47.550  31.801  29.613  1.00  0.00    -0.206 F 
ATOM     68  C   UNL A   1      46.162  33.489  26.734  1.00  0.00     0.060 A 
BRANCH  68  69
ATOM     69  S   UNL A   1      46.568  34.847  25.614  1.00  0.00     0.124 S 
ATOM     70  O   UNL A   1      46.342  36.017  26.455  1.00  0.00    -0.237 OA
ATOM     71  O   UNL A   1      47.961  34.573  25.273  1.00  0.00    -0.237 OA
ATOM     72  O   UNL A   1      45.623  34.677  24.513  1.00  0.00    -0.744 OA
ENDBRANCH  68  69
ENDBRANCH  36  61
ENDBRANCH  10  11
ENDBRANCH   3   5
ENDBRANCH   2   3
ENDBRANCH   1   2
BRANCH   1  73
ATOM     73  C   UNL A   1      34.723  34.486  27.853  1.00  0.00     0.202 C 
BRANCH  73  74
ATOM     74  O   UNL A   1      34.412  35.754  28.423  1.00  0.00    -0.374 OA
BRANCH  74  75
ATOM     75  C   UNL A   1      33.050  35.945  28.828  1.00  0.00     0.202 C 
BRANCH  75  76
ATOM     76  C   UNL A   1      32.761  36.129  30.326  1.00  0.00     0.261 C 
BRANCH  76  77
ATOM     77  O   UNL A   1      33.298  35.057  31.126  1.00  0.00    -0.459 OA
BRANCH  77  78
ATOM     78  C   UNL A   1      33.429  35.334  32.455  1.00  0.00     0.348 C 
ATOM     79  O   UNL A   1      32.691  36.084  33.084  1.00  0.00    -0.245 OA
BRANCH  78  80
ATOM     80  C   UNL A   1      34.479  34.511  33.033  1.00  0.00     0.114 A 
ATOM     81  C   UNL A   1      35.273  34.735  34.143  1.00  0.00     0.047 A 
ATOM     82  S   UNL A   1      34.864  33.050  32.210  1.00  0.00    -0.127 S 
ATOM     83  C   UNL A   1      36.168  33.639  34.360  1.00  0.00     0.048 A 
ATOM     84  C   UNL A   1      36.092  32.685  33.380  1.00  0.00     0.047 A 
ATOM     85  S   UNL A   1      37.344  33.214  35.584  1.00  0.00    -0.122 S 
ATOM     86  C   UNL A   1      37.024  31.618  33.559  1.00  0.00     0.052 A 
ATOM     87  C   UNL A   1      37.701  31.790  34.735  1.00  0.00     0.095 A 
ATOM     88  Cl  UNL A   1      38.846  30.686  35.395  1.00  0.00    -0.072 Cl
ENDBRANCH  78  80
ENDBRANCH  77  78
ENDBRANCH  76  77
ENDBRANCH  75  76
ENDBRANCH  74  75
ENDBRANCH  73  74
ENDBRANCH   1  73
TORSDOF 17
ENDMDL
MODEL 2
REMARK VINA RESULT:     -11.0      2.741     11.756
REMARK SMILES O=C(OCCOCCOC(=O)c1cc2sc(Cl)cc2s1)c1ccc(-c2c3nc(c(-c4c(F)cc(S(=O)(=O)[O-])cc4F)c4ccc([nH]4)c(-c4c(F)cc(S(=O)(=O)[O-])cc4F)c4nc(c(-c5c(F)cc(S(=O)(=O)[O-])cc5F)c5ccc2[nH]5)C=C4)C=C3)cc1
REMARK SMILES IDX 4 1 3 2 2 3 1 4 21 5 22 6 86 7 23 8 85 9 24 10 25 11 26 12
REMARK SMILES IDX 79 13 27 14 84 15 78 16 80 17 28 18 83 19 77 20 76 21 29 23
REMARK SMILES IDX 63 24 42 25 62 26 43 27 46 28 61 29 81 30 44 31 45 32 60 34
REMARK SMILES IDX 82 35 47 36 30 37 31 38 40 39 32 40 33 41 39 42 41 43 34 44
REMARK SMILES IDX 35 45 36 46 37 47 38 48 64 49 65 50 74 51 66 52 67 53 73 54
REMARK SMILES IDX 75 55 68 56 69 57 70 58 71 59 72 60 48 61 49 62 58 63 50 64
REMARK SMILES IDX 51 65 57 66 59 67 52 68 53 69 54 70 55 71 56 72 5 73 6 74
REMARK SMILES IDX 7 75 8 76 9 77 10 78 11 79 12 80 13 81 20 82 14 83 19 84
REMARK SMILES IDX 15 85 18 86 16 87 17 88
REMARK H PARENT 80 22 46 33
REMARK Flexibility Score: inf
ROOT
ATOM      1  C   UNL A   1      45.945  22.938  24.282  1.00  0.00     0.261 C 
ENDROOT
BRANCH   1   2
ATOM      2  O   UNL A   1      44.903  23.935  24.281  1.00  0.00    -0.460 OA
BRANCH   2   3
ATOM      3  C   UNL A   1      43.621  23.700  24.640  1.00  0.00     0.338 C 
ATOM      4  O   UNL A   1      43.074  22.639  24.351  1.00  0.00    -0.246 OA
BRANCH   3   5
ATOM      5  C   UNL A   1      42.995  24.616  25.628  1.00  0.00     0.060 A 
ATOM      6  C   UNL A   1      42.071  25.603  25.296  1.00  0.00     0.016 A 
ATOM      7  C   UNL A   1      43.477  24.548  26.947  1.00  0.00     0.016 A 
ATOM      8  C   UNL A   1      41.803  26.628  26.176  1.00  0.00     0.010 A 
ATOM      9  C   UNL A   1      43.171  25.550  27.856  1.00  0.00     0.010 A 
ATOM     10  C   UNL A   1      42.414  26.636  27.426  1.00  0.00    -0.014 A 
BRANCH  10  11
ATOM     11  C   UNL A   1      42.203  27.829  28.230  1.00  0.00     0.031 A 
ATOM     12  C   UNL A   1      43.330  28.801  28.216  1.00  0.00     0.074 A 
ATOM     13  C   UNL A   1      41.063  28.033  28.912  1.00  0.00     0.049 A 
ATOM     14  N   UNL A   1      44.058  29.214  29.203  1.00  0.00    -0.248 NA
ATOM     15  C   UNL A   1      43.792  29.260  26.896  1.00  0.00     0.031 C 
ATOM     16  C   UNL A   1      39.806  27.285  28.812  1.00  0.00     0.029 A 
ATOM     17  N   UNL A   1      40.753  29.042  29.768  1.00  0.00    -0.354 N 
ATOM     18  C   UNL A   1      44.937  30.150  28.657  1.00  0.00     0.074 A 
ATOM     19  C   UNL A   1      44.842  30.009  27.229  1.00  0.00     0.031 C 
ATOM     20  C   UNL A   1      38.815  28.015  29.369  1.00  0.00     0.029 A 
ATOM     21  C   UNL A   1      39.392  29.204  29.975  1.00  0.00     0.049 A 
ATOM     22  H   UNL A   1      41.434  29.606  30.202  1.00  0.00     0.167 HD
ATOM     23  C   UNL A   1      45.506  31.129  29.414  1.00  0.00     0.037 A 
ATOM     24  C   UNL A   1      38.786  30.294  30.504  1.00  0.00     0.037 A 
ATOM     25  C   UNL A   1      45.526  30.770  30.809  1.00  0.00     0.049 A 
ATOM     26  C   UNL A   1      39.814  31.045  31.273  1.00  0.00     0.074 A 
ATOM     27  C   UNL A   1      46.079  29.733  31.535  1.00  0.00     0.029 A 
ATOM     28  N   UNL A   1      44.619  31.367  31.651  1.00  0.00    -0.354 N 
ATOM     29  N   UNL A   1      40.385  30.603  32.360  1.00  0.00    -0.248 NA
ATOM     30  C   UNL A   1      40.533  32.111  30.587  1.00  0.00     0.031 C 
ATOM     31  C   UNL A   1      45.140  29.463  32.572  1.00  0.00     0.029 A 
ATOM     32  C   UNL A   1      44.094  30.377  32.443  1.00  0.00     0.049 A 
ATOM     33  H   UNL A   1      44.389  32.323  31.681  1.00  0.00     0.167 HD
ATOM     34  C   UNL A   1      41.703  31.029  32.275  1.00  0.00     0.074 A 
ATOM     35  C   UNL A   1      41.710  32.030  31.213  1.00  0.00     0.031 C 
ATOM     36  C   UNL A   1      42.716  30.338  32.880  1.00  0.00     0.037 A 
BRANCH  23  37
ATOM     37  C   UNL A   1      45.683  32.557  28.933  1.00  0.00     0.058 A 
ATOM     38  C   UNL A   1      46.935  33.188  29.098  1.00  0.00     0.135 A 
ATOM     39  C   UNL A   1      44.612  33.422  28.608  1.00  0.00     0.135 A 
ATOM     40  F   UNL A   1      48.032  32.469  29.386  1.00  0.00    -0.206 F 
ATOM     41  C   UNL A   1      47.084  34.575  29.071  1.00  0.00     0.059 A 
ATOM     42  C   UNL A   1      44.749  34.801  28.524  1.00  0.00     0.059 A 
ATOM     43  F   UNL A   1      43.355  32.991  28.453  1.00  0.00    -0.206 F 
ATOM     44  C   UNL A   1      45.973  35.373  28.815  1.00  0.00     0.060 A 
BRANCH  44  45
ATOM     45  S   UNL A   1      46.112  37.163  28.950  1.00  0.00     0.124 S 
ATOM     46  O   UNL A   1      46.930  37.474  27.785  1.00  0.00    -0.237 OA
ATOM     47  O   UNL A   1      44.716  37.581  28.884  1.00  0.00    -0.237 OA
ATOM     48  O   UNL A   1      46.756  37.352  30.247  1.00  0.00    -0.744 OA
ENDBRANCH  44  45
ENDBRANCH  23  37
BRANCH  24  49
ATOM     49  C   UNL A   1      37.501  30.892  30.057  1.00  0.00     0.058 A 
ATOM     50  C   UNL A   1      36.618  31.492  30.970  1.00  0.00     0.135 A 
ATOM     51  C   UNL A   1      37.226  31.116  28.691  1.00  0.00     0.135 A 
ATOM     52  F   UNL A   1      36.821  31.358  32.290  1.00  0.00    -0.206 F 
ATOM     53  C   UNL A   1      35.546  32.291  30.555  1.00  0.00     0.059 A 
ATOM     54  C   UNL A   1      36.155  31.891  28.254  1.00  0.00     0.059 A 
ATOM     55  F   UNL A   1      38.045  30.661  27.731  1.00  0.00    -0.206 F 
ATOM     56  C   UNL A   1      35.331  32.496  29.192  1.00  0.00     0.060 A 
BRANCH  56  57
ATOM     57  S   UNL A   1      34.048  33.649  28.652  1.00  0.00     0.124 S 
ATOM     58  O   UNL A   1      33.516  34.124  29.923  1.00  0.00    -0.237 OA
ATOM     59  O   UNL A   1      34.813  34.620  27.876  1.00  0.00    -0.237 OA
ATOM     60  O   UNL A   1      33.144  32.808  27.871  1.00  0.00    -0.744 OA
ENDBRANCH  56  57
ENDBRANCH  24  49
BRANCH  36  61
ATOM     61  C   UNL A   1      42.359  29.276  33.885  1.00  0.00     0.058 A 
ATOM     62  C   UNL A   1      42.113  27.931  33.556  1.00  0.00     0.135 A 
ATOM     63  C   UNL A   1      42.437  29.596  35.250  1.00  0.00     0.135 A 
ATOM     64  F   UNL A   1      42.133  27.520  32.280  1.00  0.00    -0.206 F 
ATOM     65  C   UNL A   1      41.915  26.958  34.537  1.00  0.00     0.059 A 
ATOM     66  C   UNL A   1      42.273  28.637  36.245  1.00  0.00     0.059 A 
ATOM     67  F   UNL A   1      42.735  30.850  35.630  1.00  0.00    -0.206 F 
ATOM     68  C   UNL A   1      42.001  27.319  35.881  1.00  0.00     0.060 A 
BRANCH  68  69
ATOM     69  S   UNL A   1      41.843  26.039  37.146  1.00  0.00     0.124 S 
ATOM     70  O   UNL A   1      40.463  26.212  37.587  1.00  0.00    -0.237 OA
ATOM     71  O   UNL A   1      42.121  24.816  36.398  1.00  0.00    -0.237 OA
ATOM     72  O   UNL A   1      42.863  26.402  38.127  1.00  0.00    -0.744 OA
ENDBRANCH  68  69
ENDBRANCH  36  61
ENDBRANCH  10  11
ENDBRANCH   3   5
ENDBRANCH   2   3
ENDBRANCH   1   2
BRANCH   1  73
ATOM     73  C   UNL A   1      46.036  22.086  25.543  1.00  0.00     0.202 C 
BRANCH  73  74
ATOM     74  O   UNL A   1      46.329  20.704  25.363  1.00  0.00    -0.374 OA
BRANCH  74  75
ATOM     75  C   UNL A   1      45.320  19.927  24.707  1.00  0.00     0.202 C 
BRANCH  75  76
ATOM     76  C   UNL A   1      44.881  18.609  25.366  1.00  0.00     0.261 C 
BRANCH  76  77
ATOM     77  O   UNL A   1      43.462  18.386  25.258  1.00  0.00    -0.459 OA
BRANCH  77  78
ATOM     78  C   UNL A   1      42.777  18.418  26.437  1.00  0.00     0.348 C 
ATOM     79  O   UNL A   1      43.021  17.701  27.402  1.00  0.00    -0.245 OA
BRANCH  78  80
ATOM     80  C   UNL A   1      41.815  19.507  26.424  1.00  0.00     0.114 A 
ATOM     81  C   UNL A   1      40.585  19.598  25.799  1.00  0.00     0.047 A 
ATOM     82  S   UNL A   1      42.257  20.946  27.257  1.00  0.00    -0.127 S 
ATOM     83  C   UNL A   1      39.963  20.858  26.076  1.00  0.00     0.048 A 
ATOM     84  C   UNL A   1      40.759  21.697  26.808  1.00  0.00     0.047 A 
ATOM     85  S   UNL A   1      38.418  21.592  25.709  1.00  0.00    -0.122 S 
ATOM     86  C   UNL A   1      40.168  22.976  27.039  1.00  0.00     0.052 A 
ATOM     87  C   UNL A   1      38.898  22.995  26.532  1.00  0.00     0.095 A 
ATOM     88  Cl  UNL A   1      37.787  24.302  26.677  1.00  0.00    -0.072 Cl
ENDBRANCH  78  80
ENDBRANCH  77  78
ENDBRANCH  76  77
ENDBRANCH  75  76
ENDBRANCH  74  75
ENDBRANCH  73  74
ENDBRANCH   1  73
TORSDOF 17
ENDMDL
MODEL 3
REMARK VINA RESULT:     -10.9      1.068      1.894
REMARK SMILES O=C(OCCOCCOC(=O)c1cc2sc(Cl)cc2s1)c1ccc(-c2c3nc(c(-c4c(F)cc(S(=O)(=O)[O-])cc4F)c4ccc([nH]4)c(-c4c(F)cc(S(=O)(=O)[O-])cc4F)c4nc(c(-c5c(F)cc(S(=O)(=O)[O-])cc5F)c5ccc2[nH]5)C=C4)C=C3)cc1
REMARK SMILES IDX 4 1 3 2 2 3 1 4 21 5 22 6 86 7 23 8 85 9 24 10 25 11 26 12
REMARK SMILES IDX 79 13 27 14 84 15 78 16 80 17 28 18 83 19 77 20 76 21 29 23
REMARK SMILES IDX 63 24 42 25 62 26 43 27 46 28 61 29 81 30 44 31 45 32 60 34
REMARK SMILES IDX 82 35 47 36 30 37 31 38 40 39 32 40 33 41 39 42 41 43 34 44
REMARK SMILES IDX 35 45 36 46 37 47 38 48 64 49 65 50 74 51 66 52 67 53 73 54
REMARK SMILES IDX 75 55 68 56 69 57 70 58 71 59 72 60 48 61 49 62 58 63 50 64
REMARK SMILES IDX 51 65 57 66 59 67 52 68 53 69 54 70 55 71 56 72 5 73 6 74
REMARK SMILES IDX 7 75 8 76 9 77 10 78 11 79 12 80 13 81 20 82 14 83 19 84
REMARK SMILES IDX 15 85 18 86 16 87 17 88
REMARK H PARENT 80 22 46 33
REMARK Flexibility Score: inf
ROOT
ATOM      1  C   UNL A   1      33.592  33.674  28.028  1.00  0.00     0.261 C 
ENDROOT
BRANCH   1   2
ATOM      2  O   UNL A   1      34.799  32.934  27.755  1.00  0.00    -0.460 OA
BRANCH   2   3
ATOM      3  C   UNL A   1      34.896  31.586  27.807  1.00  0.00     0.338 C 
ATOM      4  O   UNL A   1      34.179  30.878  27.104  1.00  0.00    -0.246 OA
BRANCH   3   5
ATOM      5  C   UNL A   1      36.070  30.999  28.503  1.00  0.00     0.060 A 
ATOM      6  C   UNL A   1      37.060  31.752  29.129  1.00  0.00     0.016 A 
ATOM      7  C   UNL A   1      36.236  29.607  28.398  1.00  0.00     0.016 A 
ATOM      8  C   UNL A   1      38.275  31.183  29.438  1.00  0.00     0.010 A 
ATOM      9  C   UNL A   1      37.440  29.017  28.754  1.00  0.00     0.010 A 
ATOM     10  C   UNL A   1      38.485  29.832  29.178  1.00  0.00    -0.014 A 
BRANCH  10  11
ATOM     11  C   UNL A   1      39.841  29.348  29.385  1.00  0.00     0.031 A 
ATOM     12  C   UNL A   1      40.242  29.200  30.810  1.00  0.00     0.074 A 
ATOM     13  C   UNL A   1      40.650  29.043  28.355  1.00  0.00     0.049 A 
ATOM     14  N   UNL A   1      41.193  29.798  31.452  1.00  0.00    -0.248 NA
ATOM     15  C   UNL A   1      39.368  28.378  31.662  1.00  0.00     0.031 C 
ATOM     16  C   UNL A   1      40.298  28.912  26.939  1.00  0.00     0.029 A 
ATOM     17  N   UNL A   1      41.956  28.668  28.383  1.00  0.00    -0.354 N 
ATOM     18  C   UNL A   1      41.170  29.267  32.742  1.00  0.00     0.074 A 
ATOM     19  C   UNL A   1      39.936  28.537  32.856  1.00  0.00     0.031 C 
ATOM     20  C   UNL A   1      41.284  28.246  26.300  1.00  0.00     0.029 A 
ATOM     21  C   UNL A   1      42.380  28.027  27.229  1.00  0.00     0.049 A 
ATOM     22  H   UNL A   1      42.547  28.836  29.153  1.00  0.00     0.167 HD
ATOM     23  C   UNL A   1      42.273  29.272  33.541  1.00  0.00     0.037 A 
ATOM     24  C   UNL A   1      43.501  27.278  27.094  1.00  0.00     0.037 A 
ATOM     25  C   UNL A   1      43.207  30.294  33.142  1.00  0.00     0.049 A 
ATOM     26  C   UNL A   1      44.429  27.664  28.192  1.00  0.00     0.074 A 
ATOM     27  C   UNL A   1      43.148  31.669  33.024  1.00  0.00     0.029 A 
ATOM     28  N   UNL A   1      44.340  29.915  32.464  1.00  0.00    -0.354 N 
ATOM     29  N   UNL A   1      44.999  28.834  28.291  1.00  0.00    -0.248 NA
ATOM     30  C   UNL A   1      44.384  26.891  29.425  1.00  0.00     0.031 C 
ATOM     31  C   UNL A   1      43.955  31.981  31.892  1.00  0.00     0.029 A 
ATOM     32  C   UNL A   1      44.492  30.785  31.415  1.00  0.00     0.049 A 
ATOM     33  H   UNL A   1      44.933  29.162  32.689  1.00  0.00     0.167 HD
ATOM     34  C   UNL A   1      45.011  29.115  29.651  1.00  0.00     0.074 A 
ATOM     35  C   UNL A   1      44.708  27.845  30.302  1.00  0.00     0.031 C 
ATOM     36  C   UNL A   1      44.992  30.401  30.114  1.00  0.00     0.037 A 
BRANCH  23  37
ATOM     37  C   UNL A   1      42.665  28.106  34.428  1.00  0.00     0.058 A 
ATOM     38  C   UNL A   1      42.836  28.322  35.813  1.00  0.00     0.135 A 
ATOM     39  C   UNL A   1      43.175  26.879  33.943  1.00  0.00     0.135 A 
ATOM     40  F   UNL A   1      42.375  29.440  36.394  1.00  0.00    -0.206 F 
ATOM     41  C   UNL A   1      43.567  27.450  36.621  1.00  0.00     0.059 A 
ATOM     42  C   UNL A   1      43.860  25.972  34.742  1.00  0.00     0.059 A 
ATOM     43  F   UNL A   1      43.126  26.534  32.651  1.00  0.00    -0.206 F 
ATOM     44  C   UNL A   1      44.103  26.293  36.064  1.00  0.00     0.060 A 
BRANCH  44  45
ATOM     45  S   UNL A   1      45.193  25.252  37.048  1.00  0.00     0.124 S 
ATOM     46  O   UNL A   1      44.787  23.922  36.611  1.00  0.00    -0.237 OA
ATOM     47  O   UNL A   1      46.512  25.696  36.612  1.00  0.00    -0.237 OA
ATOM     48  O   UNL A   1      44.841  25.603  38.421  1.00  0.00    -0.744 OA
ENDBRANCH  44  45
ENDBRANCH  23  37
BRANCH  24  49
ATOM     49  C   UNL A   1      43.629  26.013  26.324  1.00  0.00     0.058 A 
ATOM     50  C   UNL A   1      44.677  25.818  25.411  1.00  0.00     0.135 A 
ATOM     51  C   UNL A   1      42.870  24.869  26.651  1.00  0.00     0.135 A 
ATOM     52  F   UNL A   1      45.470  26.844  25.066  1.00  0.00    -0.206 F 
ATOM     53  C   UNL A   1      44.977  24.558  24.879  1.00  0.00     0.059 A 
ATOM     54  C   UNL A   1      43.138  23.610  26.121  1.00  0.00     0.059 A 
ATOM     55  F   UNL A   1      41.896  24.917  27.572  1.00  0.00    -0.206 F 
ATOM     56  C   UNL A   1      44.208  23.455  25.252  1.00  0.00     0.060 A 
BRANCH  56  57
ATOM     57  S   UNL A   1      44.682  21.803  24.694  1.00  0.00     0.124 S 
ATOM     58  O   UNL A   1      44.604  21.941  23.245  1.00  0.00    -0.237 OA
ATOM     59  O   UNL A   1      46.023  21.662  25.251  1.00  0.00    -0.237 OA
ATOM     60  O   UNL A   1      43.669  20.938  25.294  1.00  0.00    -0.744 OA
ENDBRANCH  56  57
ENDBRANCH  24  49
BRANCH  36  61
ATOM     61  C   UNL A   1      45.257  31.518  29.138  1.00  0.00     0.058 A 
ATOM     62  C   UNL A   1      46.538  32.011  28.835  1.00  0.00     0.135 A 
ATOM     63  C   UNL A   1      44.189  31.987  28.356  1.00  0.00     0.135 A 
ATOM     64  F   UNL A   1      47.625  31.534  29.458  1.00  0.00    -0.206 F 
ATOM     65  C   UNL A   1      46.743  32.956  27.828  1.00  0.00     0.059 A 
ATOM     66  C   UNL A   1      44.374  32.906  27.327  1.00  0.00     0.059 A 
ATOM     67  F   UNL A   1      42.950  31.504  28.551  1.00  0.00    -0.206 F 
ATOM     68  C   UNL A   1      45.655  33.395  27.076  1.00  0.00     0.060 A 
BRANCH  68  69
ATOM     69  S   UNL A   1      45.938  34.542  25.709  1.00  0.00     0.124 S 
ATOM     70  O   UNL A   1      45.605  35.827  26.312  1.00  0.00    -0.237 OA
ATOM     71  O   UNL A   1      47.351  34.332  25.405  1.00  0.00    -0.237 OA
ATOM     72  O   UNL A   1      45.014  34.077  24.676  1.00  0.00    -0.744 OA
ENDBRANCH  68  69
ENDBRANCH  36  61
ENDBRANCH  10  11
ENDBRANCH   3   5
ENDBRANCH   2   3
ENDBRANCH   1   2
BRANCH   1  73
ATOM     73  C   UNL A   1      33.795  35.106  28.510  1.00  0.00     0.202 C 
BRANCH  73  74
ATOM     74  O   UNL A   1      32.683  35.733  29.141  1.00  0.00    -0.374 OA
BRANCH  74  75
ATOM     75  C   UNL A   1      32.959  36.409  30.374  1.00  0.00     0.202 C 
BRANCH  75  76
ATOM     76  C   UNL A   1      32.511  35.738  31.682  1.00  0.00     0.261 C 
BRANCH  76  77
ATOM     77  O   UNL A   1      33.538  34.905  32.253  1.00  0.00    -0.459 OA
BRANCH  77  78
ATOM     78  C   UNL A   1      34.405  35.543  33.092  1.00  0.00     0.348 C 
ATOM     79  O   UNL A   1      34.310  36.720  33.423  1.00  0.00    -0.245 OA
BRANCH  78  80
ATOM     80  C   UNL A   1      35.364  34.594  33.632  1.00  0.00     0.114 A 
ATOM     81  C   UNL A   1      35.870  34.475  34.913  1.00  0.00     0.047 A 
ATOM     82  S   UNL A   1      36.044  33.462  32.529  1.00  0.00    -0.127 S 
ATOM     83  C   UNL A   1      36.783  33.375  35.002  1.00  0.00     0.048 A 
ATOM     84  C   UNL A   1      37.007  32.769  33.795  1.00  0.00     0.047 A 
ATOM     85  S   UNL A   1      37.688  32.608  36.287  1.00  0.00    -0.122 S 
ATOM     86  C   UNL A   1      37.961  31.709  33.865  1.00  0.00     0.052 A 
ATOM     87  C   UNL A   1      38.342  31.518  35.165  1.00  0.00     0.095 A 
ATOM     88  Cl  UNL A   1      39.400  30.278  35.720  1.00  0.00    -0.072 Cl
ENDBRANCH  78  80
ENDBRANCH  77  78
ENDBRANCH  76  77
ENDBRANCH  75  76
ENDBRANCH  74  75
ENDBRANCH  73  74
ENDBRANCH   1  73
TORSDOF 17
ENDMDL
