MODEL 1
REMARK VINA RESULT:     -11.5      0.000      0.000
REMARK SMILES COc1ccc(-n2ccnc2C[N@@H+]2CCn3nc(C(=O)OCCOCCOC(=O)c4ccc(-c5c6nc(c(-c7c(F)cc(S(=O)(=O)[O-])cc7F)c7ccc([nH]7)c(-c7c(F)cc(S(=O)(=O)[O-])cc7F)c7nc(c(-c8c(F)cc(S(=O)(=O)[O-])cc8F)c8ccc5[nH]8)C=C7)C=C6)cc4)cc3C2)cc1
REMARK SMILES IDX 23 1 22 2 21 3 19 4 20 5 18 6 13 7 14 8 98 9 15 11 97 12
REMARK SMILES IDX 16 13 96 14 17 15 12 16 11 17 7 18 8 19 9 20 10 21 6 22 3 23
REMARK SMILES IDX 4 24 100 25 5 26 99 27 2 28 1 29 24 30 25 31 26 32 27 33
REMARK SMILES IDX 28 34 29 35 30 36 31 37 95 38 32 39 94 40 33 41 34 42 35 43
REMARK SMILES IDX 88 44 36 45 93 46 87 47 89 48 37 49 92 50 86 51 85 52 38 54
REMARK SMILES IDX 72 55 51 56 71 57 52 58 55 59 70 60 90 61 53 62 54 63 69 65
REMARK SMILES IDX 91 66 56 67 39 68 40 69 49 70 41 71 42 72 48 73 50 74 43 75
REMARK SMILES IDX 44 76 45 77 46 78 47 79 73 80 74 81 83 82 75 83 76 84 82 85
REMARK SMILES IDX 84 86 77 87 78 88 79 89 80 90 81 91 57 92 58 93 67 94 59 95
REMARK SMILES IDX 60 96 66 97 68 98 61 99 62 100 63 101 64 102 65 103
REMARK H PARENT 13 10 89 53 55 64
REMARK Flexibility Score: inf
ROOT
ATOM      1  C   UNL A   1      34.296  31.209  27.657  1.00  0.00     0.202 C 
ENDROOT
BRANCH   1   2
ATOM      2  C   UNL A   1      32.811  30.994  27.263  1.00  0.00     0.261 C 
BRANCH   2   3
ATOM      3  O   UNL A   1      32.268  29.646  27.276  1.00  0.00    -0.458 OA
BRANCH   3   4
ATOM      4  C   UNL A   1      32.668  28.862  26.241  1.00  0.00     0.358 C 
ATOM      5  O   UNL A   1      33.293  27.817  26.402  1.00  0.00    -0.244 OA
BRANCH   4   6
ATOM      6  C   UNL A   1      32.345  29.279  24.859  1.00  0.00     0.170 A 
ATOM      7  N   UNL A   1      32.161  25.852  22.747  1.00  0.00    -0.322 N 
ATOM      8  C   UNL A   1      33.371  26.299  22.045  1.00  0.00     0.286 C 
ATOM      9  C   UNL A   1      31.084  26.880  22.543  1.00  0.00     0.319 C 
ATOM     10  H   UNL A   1      31.931  24.946  22.338  1.00  0.00     0.348 HD
ATOM     11  C   UNL A   1      33.689  27.814  22.021  1.00  0.00     0.206 C 
ATOM     12  C   UNL A   1      31.539  28.176  23.141  1.00  0.00     0.094 A 
ATOM     13  N   UNL A   1      32.832  28.561  22.924  1.00  0.00    -0.257 N 
ATOM     14  C   UNL A   1      31.104  28.911  24.229  1.00  0.00     0.067 A 
ATOM     15  N   UNL A   1      33.334  29.305  23.929  1.00  0.00    -0.165 NA
BRANCH   7  16
ATOM     16  C   UNL A   1      32.306  25.586  24.205  1.00  0.00     0.339 C 
BRANCH  16  17
ATOM     17  C   UNL A   1      31.866  24.303  24.915  1.00  0.00     0.168 A 
ATOM     18  N   UNL A   1      32.700  23.545  25.763  1.00  0.00    -0.299 N 
ATOM     19  C   UNL A   1      31.974  23.321  26.914  1.00  0.00     0.113 A 
ATOM     20  C   UNL A   1      30.686  23.668  26.607  1.00  0.00     0.132 A 
ATOM     21  N   UNL A   1      30.607  24.177  25.338  1.00  0.00    -0.236 NA
BRANCH  18  22
ATOM     22  C   UNL A   1      33.992  22.992  25.559  1.00  0.00     0.047 A 
ATOM     23  C   UNL A   1      36.550  21.963  25.112  1.00  0.00     0.119 A 
ATOM     24  C   UNL A   1      36.389  23.065  25.942  1.00  0.00     0.048 A 
ATOM     25  C   UNL A   1      35.428  21.286  24.628  1.00  0.00     0.048 A 
ATOM     26  C   UNL A   1      35.104  23.541  26.209  1.00  0.00     0.030 A 
ATOM     27  C   UNL A   1      34.146  21.811  24.838  1.00  0.00     0.030 A 
BRANCH  23  28
ATOM     28  O   UNL A   1      37.829  21.558  24.846  1.00  0.00    -0.497 OA
ATOM     29  C   UNL A   1      37.965  20.139  24.944  1.00  0.00     0.278 C 
ENDBRANCH  23  28
ENDBRANCH  18  22
ENDBRANCH  16  17
ENDBRANCH   7  16
ENDBRANCH   4   6
ENDBRANCH   3   4
ENDBRANCH   2   3
ENDBRANCH   1   2
BRANCH   1  30
ATOM     30  O   UNL A   1      34.649  32.578  27.816  1.00  0.00    -0.374 OA
BRANCH  30  31
ATOM     31  C   UNL A   1      33.935  33.369  28.770  1.00  0.00     0.202 C 
BRANCH  31  32
ATOM     32  C   UNL A   1      34.530  33.500  30.179  1.00  0.00     0.261 C 
BRANCH  32  33
ATOM     33  O   UNL A   1      34.451  32.312  30.950  1.00  0.00    -0.460 OA
BRANCH  33  34
ATOM     34  C   UNL A   1      35.580  31.930  31.573  1.00  0.00     0.338 C 
ATOM     35  O   UNL A   1      35.858  32.099  32.760  1.00  0.00    -0.246 OA
BRANCH  34  36
ATOM     36  C   UNL A   1      36.434  31.252  30.590  1.00  0.00     0.060 A 
ATOM     37  C   UNL A   1      36.454  29.860  30.616  1.00  0.00     0.016 A 
ATOM     38  C   UNL A   1      37.372  31.989  29.844  1.00  0.00     0.016 A 
ATOM     39  C   UNL A   1      37.592  29.234  30.166  1.00  0.00     0.010 A 
ATOM     40  C   UNL A   1      38.490  31.366  29.357  1.00  0.00     0.010 A 
ATOM     41  C   UNL A   1      38.639  30.029  29.684  1.00  0.00    -0.014 A 
BRANCH  41  42
ATOM     42  C   UNL A   1      39.970  29.484  29.806  1.00  0.00     0.031 A 
ATOM     43  C   UNL A   1      40.460  29.311  31.177  1.00  0.00     0.074 A 
ATOM     44  C   UNL A   1      40.675  29.150  28.709  1.00  0.00     0.049 A 
ATOM     45  N   UNL A   1      41.420  29.943  31.760  1.00  0.00    -0.248 NA
ATOM     46  C   UNL A   1      39.703  28.398  32.042  1.00  0.00     0.031 C 
ATOM     47  C   UNL A   1      40.195  28.982  27.331  1.00  0.00     0.029 A 
ATOM     48  N   UNL A   1      41.974  28.770  28.631  1.00  0.00    -0.354 N 
ATOM     49  C   UNL A   1      41.518  29.374  33.020  1.00  0.00     0.074 A 
ATOM     50  C   UNL A   1      40.351  28.547  33.196  1.00  0.00     0.031 C 
ATOM     51  C   UNL A   1      41.127  28.308  26.622  1.00  0.00     0.029 A 
ATOM     52  C   UNL A   1      42.299  28.115  27.458  1.00  0.00     0.049 A 
ATOM     53  H   UNL A   1      42.627  28.944  29.347  1.00  0.00     0.167 HD
ATOM     54  C   UNL A   1      42.656  29.453  33.757  1.00  0.00     0.037 A 
ATOM     55  C   UNL A   1      43.404  27.354  27.262  1.00  0.00     0.037 A 
ATOM     56  C   UNL A   1      43.556  30.465  33.275  1.00  0.00     0.049 A 
ATOM     57  C   UNL A   1      44.408  27.760  28.286  1.00  0.00     0.074 A 
ATOM     58  C   UNL A   1      43.460  31.834  33.108  1.00  0.00     0.029 A 
ATOM     59  N   UNL A   1      44.647  30.073  32.535  1.00  0.00    -0.354 N 
ATOM     60  N   UNL A   1      44.993  28.928  28.325  1.00  0.00    -0.248 NA
ATOM     61  C   UNL A   1      44.447  27.012  29.536  1.00  0.00     0.031 C 
ATOM     62  C   UNL A   1      44.208  32.125  31.931  1.00  0.00     0.029 A 
ATOM     63  C   UNL A   1      44.730  30.920  31.456  1.00  0.00     0.049 A 
ATOM     64  H   UNL A   1      45.254  29.327  32.741  1.00  0.00     0.167 HD
ATOM     65  C   UNL A   1      45.119  29.229  29.676  1.00  0.00     0.074 A 
ATOM     66  C   UNL A   1      44.858  27.971  30.369  1.00  0.00     0.031 C 
ATOM     67  C   UNL A   1      45.150  30.519  30.128  1.00  0.00     0.037 A 
BRANCH  54  68
ATOM     68  C   UNL A   1      43.059  28.389  34.732  1.00  0.00     0.058 A 
ATOM     69  C   UNL A   1      43.259  28.712  36.083  1.00  0.00     0.135 A 
ATOM     70  C   UNL A   1      43.488  27.106  34.325  1.00  0.00     0.135 A 
ATOM     71  F   UNL A   1      42.909  29.918  36.555  1.00  0.00    -0.206 F 
ATOM     72  C   UNL A   1      43.882  27.831  36.966  1.00  0.00     0.059 A 
ATOM     73  C   UNL A   1      44.054  26.190  35.199  1.00  0.00     0.059 A 
ATOM     74  F   UNL A   1      43.464  26.726  33.039  1.00  0.00    -0.206 F 
ATOM     75  C   UNL A   1      44.289  26.580  36.508  1.00  0.00     0.060 A 
BRANCH  75  76
ATOM     76  S   UNL A   1      45.209  25.486  37.602  1.00  0.00     0.124 S 
ATOM     77  O   UNL A   1      46.546  25.568  37.026  1.00  0.00    -0.237 OA
ATOM     78  O   UNL A   1      45.030  26.126  38.901  1.00  0.00    -0.237 OA
ATOM     79  O   UNL A   1      44.526  24.205  37.442  1.00  0.00    -0.744 OA
ENDBRANCH  75  76
ENDBRANCH  54  68
BRANCH  55  80
ATOM     80  C   UNL A   1      43.446  26.064  26.525  1.00  0.00     0.058 A 
ATOM     81  C   UNL A   1      44.348  25.858  25.470  1.00  0.00     0.135 A 
ATOM     82  C   UNL A   1      42.765  24.917  26.992  1.00  0.00     0.135 A 
ATOM     83  F   UNL A   1      45.070  26.882  24.992  1.00  0.00    -0.206 F 
ATOM     84  C   UNL A   1      44.576  24.590  24.923  1.00  0.00     0.059 A 
ATOM     85  C   UNL A   1      42.957  23.651  26.448  1.00  0.00     0.059 A 
ATOM     86  F   UNL A   1      41.950  24.971  28.056  1.00  0.00    -0.206 F 
ATOM     87  C   UNL A   1      43.879  23.491  25.425  1.00  0.00     0.060 A 
BRANCH  87  88
ATOM     88  S   UNL A   1      44.262  21.833  24.817  1.00  0.00     0.124 S 
ATOM     89  O   UNL A   1      45.525  21.549  25.492  1.00  0.00    -0.237 OA
ATOM     90  O   UNL A   1      43.107  21.067  25.271  1.00  0.00    -0.237 OA
ATOM     91  O   UNL A   1      44.357  22.015  23.371  1.00  0.00    -0.744 OA
ENDBRANCH  87  88
ENDBRANCH  55  80
BRANCH  67  92
ATOM     92  C   UNL A   1      45.342  31.627  29.124  1.00  0.00     0.058 A 
ATOM     93  C   UNL A   1      46.602  32.050  28.666  1.00  0.00     0.135 A 
ATOM     94  C   UNL A   1      44.216  32.143  28.463  1.00  0.00     0.135 A 
ATOM     95  F   UNL A   1      47.727  31.521  29.167  1.00  0.00    -0.206 F 
ATOM     96  C   UNL A   1      46.737  32.969  27.624  1.00  0.00     0.059 A 
ATOM     97  C   UNL A   1      44.327  33.039  27.401  1.00  0.00     0.059 A 
ATOM     98  F   UNL A   1      42.985  31.729  28.807  1.00  0.00    -0.206 F 
ATOM     99  C   UNL A   1      45.594  33.455  26.992  1.00  0.00     0.060 A 
BRANCH  99 100
ATOM    100  S   UNL A   1      45.778  34.550  25.566  1.00  0.00     0.124 S 
ATOM    101  O   UNL A   1      45.256  35.812  26.081  1.00  0.00    -0.237 OA
ATOM    102  O   UNL A   1      47.217  34.515  25.319  1.00  0.00    -0.237 OA
ATOM    103  O   UNL A   1      44.963  33.909  24.537  1.00  0.00    -0.744 OA
ENDBRANCH  99 100
ENDBRANCH  67  92
ENDBRANCH  41  42
ENDBRANCH  34  36
ENDBRANCH  33  34
ENDBRANCH  32  33
ENDBRANCH  31  32
ENDBRANCH  30  31
ENDBRANCH   1  30
TORSDOF 21
ENDMDL
MODEL 2
REMARK VINA RESULT:     -11.3      2.693      3.855
REMARK SMILES COc1ccc(-n2ccnc2C[N@@H+]2CCn3nc(C(=O)OCCOCCOC(=O)c4ccc(-c5c6nc(c(-c7c(F)cc(S(=O)(=O)[O-])cc7F)c7ccc([nH]7)c(-c7c(F)cc(S(=O)(=O)[O-])cc7F)c7nc(c(-c8c(F)cc(S(=O)(=O)[O-])cc8F)c8ccc5[nH]8)C=C7)C=C6)cc4)cc3C2)cc1
REMARK SMILES IDX 23 1 22 2 21 3 19 4 20 5 18 6 13 7 14 8 98 9 15 11 97 12
REMARK SMILES IDX 16 13 96 14 17 15 12 16 11 17 7 18 8 19 9 20 10 21 6 22 3 23
REMARK SMILES IDX 4 24 100 25 5 26 99 27 2 28 1 29 24 30 25 31 26 32 27 33
REMARK SMILES IDX 28 34 29 35 30 36 31 37 95 38 32 39 94 40 33 41 34 42 35 43
REMARK SMILES IDX 88 44 36 45 93 46 87 47 89 48 37 49 92 50 86 51 85 52 38 54
REMARK SMILES IDX 72 55 51 56 71 57 52 58 55 59 70 60 90 61 53 62 54 63 69 65
REMARK SMILES IDX 91 66 56 67 39 68 40 69 49 70 41 71 42 72 48 73 50 74 43 75
REMARK SMILES IDX 44 76 45 77 46 78 47 79 73 80 74 81 83 82 75 83 76 84 82 85
REMARK SMILES IDX 84 86 77 87 78 88 79 89 80 90 81 91 57 92 58 93 67 94 59 95
REMARK SMILES IDX 60 96 66 97 68 98 61 99 62 100 63 101 64 102 65 103
REMARK H PARENT 13 10 89 53 55 64
REMARK Flexibility Score: inf
ROOT
ATOM      1  C   UNL A   1      34.033  31.127  27.846  1.00  0.00     0.202 C 
ENDROOT
BRANCH   1   2
ATOM      2  C   UNL A   1      32.884  30.317  27.192  1.00  0.00     0.261 C 
BRANCH   2   3
ATOM      3  O   UNL A   1      33.023  28.876  27.062  1.00  0.00    -0.458 OA
BRANCH   3   4
ATOM      4  C   UNL A   1      32.031  28.269  26.358  1.00  0.00     0.358 C 
ATOM      5  O   UNL A   1      31.316  27.394  26.837  1.00  0.00    -0.244 OA
BRANCH   4   6
ATOM      6  C   UNL A   1      31.801  28.671  24.953  1.00  0.00     0.170 A 
ATOM      7  N   UNL A   1      32.063  25.255  22.832  1.00  0.00    -0.322 N 
ATOM      8  C   UNL A   1      33.293  25.796  22.241  1.00  0.00     0.286 C 
ATOM      9  C   UNL A   1      30.934  26.200  22.534  1.00  0.00     0.319 C 
ATOM     10  H   UNL A   1      31.939  24.337  22.404  1.00  0.00     0.348 HD
ATOM     11  C   UNL A   1      33.497  27.331  22.244  1.00  0.00     0.206 C 
ATOM     12  C   UNL A   1      31.235  27.522  23.170  1.00  0.00     0.094 A 
ATOM     13  N   UNL A   1      32.509  28.005  23.068  1.00  0.00    -0.257 N 
ATOM     14  C   UNL A   1      30.651  28.215  24.216  1.00  0.00     0.067 A 
ATOM     15  N   UNL A   1      32.863  28.778  24.114  1.00  0.00    -0.165 NA
BRANCH   7  16
ATOM     16  C   UNL A   1      32.100  24.990  24.297  1.00  0.00     0.339 C 
BRANCH  16  17
ATOM     17  C   UNL A   1      33.262  24.331  25.046  1.00  0.00     0.168 A 
ATOM     18  N   UNL A   1      33.926  23.168  24.604  1.00  0.00    -0.299 N 
ATOM     19  C   UNL A   1      35.274  23.451  24.664  1.00  0.00     0.113 A 
ATOM     20  C   UNL A   1      35.374  24.604  25.396  1.00  0.00     0.132 A 
ATOM     21  N   UNL A   1      34.133  25.086  25.716  1.00  0.00    -0.236 NA
BRANCH  18  22
ATOM     22  C   UNL A   1      33.433  21.889  24.236  1.00  0.00     0.047 A 
ATOM     23  C   UNL A   1      32.536  19.350  23.492  1.00  0.00     0.119 A 
ATOM     24  C   UNL A   1      33.240  19.509  24.679  1.00  0.00     0.048 A 
ATOM     25  C   UNL A   1      32.151  20.472  22.755  1.00  0.00     0.048 A 
ATOM     26  C   UNL A   1      33.637  20.786  25.076  1.00  0.00     0.030 A 
ATOM     27  C   UNL A   1      32.615  21.744  23.119  1.00  0.00     0.030 A 
BRANCH  23  28
ATOM     28  O   UNL A   1      32.204  18.075  23.124  1.00  0.00    -0.497 OA
ATOM     29  C   UNL A   1      33.300  17.174  23.294  1.00  0.00     0.278 C 
ENDBRANCH  23  28
ENDBRANCH  18  22
ENDBRANCH  16  17
ENDBRANCH   7  16
ENDBRANCH   4   6
ENDBRANCH   3   4
ENDBRANCH   2   3
ENDBRANCH   1   2
BRANCH   1  30
ATOM     30  O   UNL A   1      33.702  32.489  28.088  1.00  0.00    -0.374 OA
BRANCH  30  31
ATOM     31  C   UNL A   1      34.748  33.406  28.419  1.00  0.00     0.202 C 
BRANCH  31  32
ATOM     32  C   UNL A   1      34.405  34.578  29.348  1.00  0.00     0.261 C 
BRANCH  32  33
ATOM     33  O   UNL A   1      33.600  34.216  30.459  1.00  0.00    -0.460 OA
BRANCH  33  34
ATOM     34  C   UNL A   1      33.737  34.969  31.565  1.00  0.00     0.338 C 
ATOM     35  O   UNL A   1      33.140  36.013  31.821  1.00  0.00    -0.246 OA
BRANCH  34  36
ATOM     36  C   UNL A   1      34.722  34.318  32.437  1.00  0.00     0.060 A 
ATOM     37  C   UNL A   1      35.831  35.069  32.817  1.00  0.00     0.016 A 
ATOM     38  C   UNL A   1      34.663  32.929  32.654  1.00  0.00     0.016 A 
ATOM     39  C   UNL A   1      36.989  34.388  33.109  1.00  0.00     0.010 A 
ATOM     40  C   UNL A   1      35.804  32.247  32.985  1.00  0.00     0.010 A 
ATOM     41  C   UNL A   1      36.970  32.989  33.037  1.00  0.00    -0.014 A 
BRANCH  41  42
ATOM     42  C   UNL A   1      38.224  32.344  32.728  1.00  0.00     0.031 A 
ATOM     43  C   UNL A   1      39.141  32.167  33.858  1.00  0.00     0.074 A 
ATOM     44  C   UNL A   1      38.486  31.926  31.476  1.00  0.00     0.049 A 
ATOM     45  N   UNL A   1      40.283  32.736  34.046  1.00  0.00    -0.248 NA
ATOM     46  C   UNL A   1      38.669  31.341  34.975  1.00  0.00     0.031 C 
ATOM     47  C   UNL A   1      37.552  31.761  30.353  1.00  0.00     0.029 A 
ATOM     48  N   UNL A   1      39.651  31.442  30.980  1.00  0.00    -0.354 N 
ATOM     49  C   UNL A   1      40.770  32.194  35.224  1.00  0.00     0.074 A 
ATOM     50  C   UNL A   1      39.682  31.467  35.830  1.00  0.00     0.031 C 
ATOM     51  C   UNL A   1      38.138  30.997  29.406  1.00  0.00     0.029 A 
ATOM     52  C   UNL A   1      39.510  30.732  29.801  1.00  0.00     0.049 A 
ATOM     53  H   UNL A   1      40.520  31.582  31.421  1.00  0.00     0.167 HD
ATOM     54  C   UNL A   1      42.094  32.200  35.526  1.00  0.00     0.037 A 
ATOM     55  C   UNL A   1      40.428  29.882  29.281  1.00  0.00     0.037 A 
ATOM     56  C   UNL A   1      42.838  33.125  34.714  1.00  0.00     0.049 A 
ATOM     57  C   UNL A   1      41.747  30.232  29.880  1.00  0.00     0.074 A 
ATOM     58  C   UNL A   1      42.782  34.493  34.520  1.00  0.00     0.029 A 
ATOM     59  N   UNL A   1      43.581  32.629  33.669  1.00  0.00    -0.354 N 
ATOM     60  N   UNL A   1      42.386  31.351  29.658  1.00  0.00    -0.248 NA
ATOM     61  C   UNL A   1      42.163  29.516  31.079  1.00  0.00     0.031 C 
ATOM     62  C   UNL A   1      43.098  34.692  33.145  1.00  0.00     0.029 A 
ATOM     63  C   UNL A   1      43.345  33.438  32.584  1.00  0.00     0.049 A 
ATOM     64  H   UNL A   1      44.171  31.842  33.694  1.00  0.00     0.167 HD
ATOM     65  C   UNL A   1      42.987  31.675  30.868  1.00  0.00     0.074 A 
ATOM     66  C   UNL A   1      42.897  30.461  31.672  1.00  0.00     0.031 C 
ATOM     67  C   UNL A   1      43.256  32.970  31.215  1.00  0.00     0.037 A 
BRANCH  54  68
ATOM     68  C   UNL A   1      42.736  31.134  36.358  1.00  0.00     0.058 A 
ATOM     69  C   UNL A   1      43.489  31.483  37.491  1.00  0.00     0.135 A 
ATOM     70  C   UNL A   1      42.830  29.790  35.934  1.00  0.00     0.135 A 
ATOM     71  F   UNL A   1      43.484  32.743  37.951  1.00  0.00    -0.206 F 
ATOM     72  C   UNL A   1      44.314  30.564  38.137  1.00  0.00     0.059 A 
ATOM     73  C   UNL A   1      43.595  28.843  36.599  1.00  0.00     0.059 A 
ATOM     74  F   UNL A   1      42.257  29.363  34.800  1.00  0.00    -0.206 F 
ATOM     75  C   UNL A   1      44.370  29.252  37.672  1.00  0.00     0.060 A 
BRANCH  75  76
ATOM     76  S   UNL A   1      45.528  28.092  38.417  1.00  0.00     0.124 S 
ATOM     77  O   UNL A   1      45.509  27.007  37.443  1.00  0.00    -0.237 OA
ATOM     78  O   UNL A   1      46.756  28.876  38.479  1.00  0.00    -0.237 OA
ATOM     79  O   UNL A   1      44.915  27.795  39.709  1.00  0.00    -0.744 OA
ENDBRANCH  75  76
ENDBRANCH  54  68
BRANCH  55  80
ATOM     80  C   UNL A   1      40.130  28.574  28.642  1.00  0.00     0.058 A 
ATOM     81  C   UNL A   1      40.453  28.330  27.298  1.00  0.00     0.135 A 
ATOM     82  C   UNL A   1      39.735  27.447  29.399  1.00  0.00     0.135 A 
ATOM     83  F   UNL A   1      40.879  29.333  26.516  1.00  0.00    -0.206 F 
ATOM     84  C   UNL A   1      40.406  27.046  26.742  1.00  0.00     0.059 A 
ATOM     85  C   UNL A   1      39.657  26.166  28.862  1.00  0.00     0.059 A 
ATOM     86  F   UNL A   1      39.493  27.538  30.715  1.00  0.00    -0.206 F 
ATOM     87  C   UNL A   1      40.014  25.969  27.537  1.00  0.00     0.060 A 
BRANCH  87  88
ATOM     88  S   UNL A   1      40.077  24.292  26.867  1.00  0.00     0.124 S 
ATOM     89  O   UNL A   1      41.288  24.338  26.054  1.00  0.00    -0.237 OA
ATOM     90  O   UNL A   1      40.149  23.482  28.078  1.00  0.00    -0.237 OA
ATOM     91  O   UNL A   1      38.828  24.178  26.117  1.00  0.00    -0.744 OA
ENDBRANCH  87  88
ENDBRANCH  55  80
BRANCH  67  92
ATOM     92  C   UNL A   1      43.164  34.033  30.149  1.00  0.00     0.058 A 
ATOM     93  C   UNL A   1      41.965  34.675  29.794  1.00  0.00     0.135 A 
ATOM     94  C   UNL A   1      44.352  34.552  29.608  1.00  0.00     0.135 A 
ATOM     95  F   UNL A   1      40.802  34.314  30.353  1.00  0.00    -0.206 F 
ATOM     96  C   UNL A   1      41.942  35.760  28.917  1.00  0.00     0.059 A 
ATOM     97  C   UNL A   1      44.356  35.653  28.753  1.00  0.00     0.059 A 
ATOM     98  F   UNL A   1      45.537  34.027  29.960  1.00  0.00    -0.206 F 
ATOM     99  C   UNL A   1      43.143  36.248  28.404  1.00  0.00     0.060 A 
BRANCH  99 100
ATOM    100  S   UNL A   1      43.119  37.726  27.365  1.00  0.00     0.124 S 
ATOM    101  O   UNL A   1      42.123  37.375  26.357  1.00  0.00    -0.237 OA
ATOM    102  O   UNL A   1      42.727  38.772  28.305  1.00  0.00    -0.237 OA
ATOM    103  O   UNL A   1      44.494  37.823  26.879  1.00  0.00    -0.744 OA
ENDBRANCH  99 100
ENDBRANCH  67  92
ENDBRANCH  41  42
ENDBRANCH  34  36
ENDBRANCH  33  34
ENDBRANCH  32  33
ENDBRANCH  31  32
ENDBRANCH  30  31
ENDBRANCH   1  30
TORSDOF 21
ENDMDL
MODEL 3
REMARK VINA RESULT:     -11.3      2.704      3.722
REMARK SMILES COc1ccc(-n2ccnc2C[N@@H+]2CCn3nc(C(=O)OCCOCCOC(=O)c4ccc(-c5c6nc(c(-c7c(F)cc(S(=O)(=O)[O-])cc7F)c7ccc([nH]7)c(-c7c(F)cc(S(=O)(=O)[O-])cc7F)c7nc(c(-c8c(F)cc(S(=O)(=O)[O-])cc8F)c8ccc5[nH]8)C=C7)C=C6)cc4)cc3C2)cc1
REMARK SMILES IDX 23 1 22 2 21 3 19 4 20 5 18 6 13 7 14 8 98 9 15 11 97 12
REMARK SMILES IDX 16 13 96 14 17 15 12 16 11 17 7 18 8 19 9 20 10 21 6 22 3 23
REMARK SMILES IDX 4 24 100 25 5 26 99 27 2 28 1 29 24 30 25 31 26 32 27 33
REMARK SMILES IDX 28 34 29 35 30 36 31 37 95 38 32 39 94 40 33 41 34 42 35 43
REMARK SMILES IDX 88 44 36 45 93 46 87 47 89 48 37 49 92 50 86 51 85 52 38 54
REMARK SMILES IDX 72 55 51 56 71 57 52 58 55 59 70 60 90 61 53 62 54 63 69 65
REMARK SMILES IDX 91 66 56 67 39 68 40 69 49 70 41 71 42 72 48 73 50 74 43 75
REMARK SMILES IDX 44 76 45 77 46 78 47 79 73 80 74 81 83 82 75 83 76 84 82 85
REMARK SMILES IDX 84 86 77 87 78 88 79 89 80 90 81 91 57 92 58 93 67 94 59 95
REMARK SMILES IDX 60 96 66 97 68 98 61 99 62 100 63 101 64 102 65 103
REMARK H PARENT 13 10 89 53 55 64
REMARK Flexibility Score: inf
ROOT
ATOM      1  C   UNL A   1      34.353  31.806  28.221  1.00  0.00     0.202 C 
ENDROOT
BRANCH   1   2
ATOM      2  C   UNL A   1      34.300  30.533  27.338  1.00  0.00     0.261 C 
BRANCH   2   3
ATOM      3  O   UNL A   1      33.091  29.727  27.336  1.00  0.00    -0.458 OA
BRANCH   3   4
ATOM      4  C   UNL A   1      32.995  28.848  26.304  1.00  0.00     0.358 C 
ATOM      5  O   UNL A   1      33.162  27.640  26.443  1.00  0.00    -0.244 OA
BRANCH   4   6
ATOM      6  C   UNL A   1      32.681  29.361  24.953  1.00  0.00     0.170 A 
ATOM      7  N   UNL A   1      31.820  26.087  22.766  1.00  0.00    -0.322 N 
ATOM      8  C   UNL A   1      33.053  26.349  22.013  1.00  0.00     0.286 C 
ATOM      9  C   UNL A   1      30.924  27.286  22.646  1.00  0.00     0.319 C 
ATOM     10  H   UNL A   1      31.422  25.246  22.347  1.00  0.00     0.348 HD
ATOM     11  C   UNL A   1      33.620  27.790  22.010  1.00  0.00     0.206 C 
ATOM     12  C   UNL A   1      31.618  28.467  23.253  1.00  0.00     0.094 A 
ATOM     13  N   UNL A   1      32.945  28.638  22.976  1.00  0.00    -0.257 N 
ATOM     14  C   UNL A   1      31.366  29.226  24.381  1.00  0.00     0.067 A 
ATOM     15  N   UNL A   1      33.613  29.253  23.972  1.00  0.00    -0.165 NA
BRANCH   7  16
ATOM     16  C   UNL A   1      31.990  25.750  24.206  1.00  0.00     0.339 C 
BRANCH  16  17
ATOM     17  C   UNL A   1      31.634  24.405  24.846  1.00  0.00     0.168 A 
ATOM     18  N   UNL A   1      32.539  23.623  25.593  1.00  0.00    -0.299 N 
ATOM     19  C   UNL A   1      31.884  23.291  26.760  1.00  0.00     0.113 A 
ATOM     20  C   UNL A   1      30.570  23.608  26.546  1.00  0.00     0.132 A 
ATOM     21  N   UNL A   1      30.405  24.201  25.323  1.00  0.00    -0.236 NA
BRANCH  18  22
ATOM     22  C   UNL A   1      33.836  23.136  25.284  1.00  0.00     0.047 A 
ATOM     23  C   UNL A   1      36.357  22.115  24.644  1.00  0.00     0.119 A 
ATOM     24  C   UNL A   1      35.557  22.649  23.641  1.00  0.00     0.048 A 
ATOM     25  C   UNL A   1      35.965  22.227  25.980  1.00  0.00     0.048 A 
ATOM     26  C   UNL A   1      34.323  23.209  23.972  1.00  0.00     0.030 A 
ATOM     27  C   UNL A   1      34.694  22.724  26.300  1.00  0.00     0.030 A 
BRANCH  23  28
ATOM     28  O   UNL A   1      37.538  21.540  24.267  1.00  0.00    -0.497 OA
ATOM     29  C   UNL A   1      38.299  21.104  25.395  1.00  0.00     0.278 C 
ENDBRANCH  23  28
ENDBRANCH  18  22
ENDBRANCH  16  17
ENDBRANCH   7  16
ENDBRANCH   4   6
ENDBRANCH   3   4
ENDBRANCH   2   3
ENDBRANCH   1   2
BRANCH   1  30
ATOM     30  O   UNL A   1      35.046  32.890  27.614  1.00  0.00    -0.374 OA
BRANCH  30  31
ATOM     31  C   UNL A   1      34.747  34.224  28.037  1.00  0.00     0.202 C 
BRANCH  31  32
ATOM     32  C   UNL A   1      33.692  34.407  29.135  1.00  0.00     0.261 C 
BRANCH  32  33
ATOM     33  O   UNL A   1      34.103  35.259  30.193  1.00  0.00    -0.460 OA
BRANCH  33  34
ATOM     34  C   UNL A   1      33.524  35.049  31.388  1.00  0.00     0.338 C 
ATOM     35  O   UNL A   1      32.364  35.316  31.699  1.00  0.00    -0.246 OA
BRANCH  34  36
ATOM     36  C   UNL A   1      34.515  34.421  32.269  1.00  0.00     0.060 A 
ATOM     37  C   UNL A   1      35.595  35.202  32.671  1.00  0.00     0.016 A 
ATOM     38  C   UNL A   1      34.496  33.029  32.474  1.00  0.00     0.016 A 
ATOM     39  C   UNL A   1      36.768  34.554  32.975  1.00  0.00     0.010 A 
ATOM     40  C   UNL A   1      35.651  32.379  32.816  1.00  0.00     0.010 A 
ATOM     41  C   UNL A   1      36.794  33.156  32.892  1.00  0.00    -0.014 A 
BRANCH  41  42
ATOM     42  C   UNL A   1      38.071  32.552  32.595  1.00  0.00     0.031 A 
ATOM     43  C   UNL A   1      38.975  32.388  33.738  1.00  0.00     0.074 A 
ATOM     44  C   UNL A   1      38.366  32.158  31.342  1.00  0.00     0.049 A 
ATOM     45  N   UNL A   1      40.096  32.988  33.952  1.00  0.00    -0.248 NA
ATOM     46  C   UNL A   1      38.508  31.534  34.837  1.00  0.00     0.031 C 
ATOM     47  C   UNL A   1      37.456  31.980  30.202  1.00  0.00     0.029 A 
ATOM     48  N   UNL A   1      39.553  31.714  30.861  1.00  0.00    -0.354 N 
ATOM     49  C   UNL A   1      40.579  32.445  35.132  1.00  0.00     0.074 A 
ATOM     50  C   UNL A   1      39.503  31.678  35.710  1.00  0.00     0.031 C 
ATOM     51  C   UNL A   1      38.080  31.246  29.256  1.00  0.00     0.029 A 
ATOM     52  C   UNL A   1      39.453  31.016  29.671  1.00  0.00     0.049 A 
ATOM     53  H   UNL A   1      40.410  31.875  31.318  1.00  0.00     0.167 HD
ATOM     54  C   UNL A   1      41.897  32.486  35.456  1.00  0.00     0.037 A 
ATOM     55  C   UNL A   1      40.403  30.200  29.156  1.00  0.00     0.037 A 
ATOM     56  C   UNL A   1      42.627  33.443  34.668  1.00  0.00     0.049 A 
ATOM     57  C   UNL A   1      41.702  30.581  29.781  1.00  0.00     0.074 A 
ATOM     58  C   UNL A   1      42.533  34.811  34.490  1.00  0.00     0.029 A 
ATOM     59  N   UNL A   1      43.401  32.982  33.629  1.00  0.00    -0.354 N 
ATOM     60  N   UNL A   1      42.311  31.721  29.583  1.00  0.00    -0.248 NA
ATOM     61  C   UNL A   1      42.119  29.862  30.978  1.00  0.00     0.031 C 
ATOM     62  C   UNL A   1      42.866  35.037  33.123  1.00  0.00     0.029 A 
ATOM     63  C   UNL A   1      43.159  33.798  32.551  1.00  0.00     0.049 A 
ATOM     64  H   UNL A   1      44.014  32.213  33.655  1.00  0.00     0.167 HD
ATOM     65  C   UNL A   1      42.882  32.048  30.807  1.00  0.00     0.074 A 
ATOM     66  C   UNL A   1      42.814  30.821  31.595  1.00  0.00     0.031 C 
ATOM     67  C   UNL A   1      43.106  33.345  31.175  1.00  0.00     0.037 A 
BRANCH  54  68
ATOM     68  C   UNL A   1      42.557  31.429  36.286  1.00  0.00     0.058 A 
ATOM     69  C   UNL A   1      43.270  31.784  37.442  1.00  0.00     0.135 A 
ATOM     70  C   UNL A   1      42.708  30.096  35.842  1.00  0.00     0.135 A 
ATOM     71  F   UNL A   1      43.210  33.035  37.923  1.00  0.00    -0.206 F 
ATOM     72  C   UNL A   1      44.111  30.884  38.093  1.00  0.00     0.059 A 
ATOM     73  C   UNL A   1      43.490  29.166  36.509  1.00  0.00     0.059 A 
ATOM     74  F   UNL A   1      42.178  29.670  34.687  1.00  0.00    -0.206 F 
ATOM     75  C   UNL A   1      44.225  29.582  37.608  1.00  0.00     0.060 A 
BRANCH  75  76
ATOM     76  S   UNL A   1      45.405  28.451  38.361  1.00  0.00     0.124 S 
ATOM     77  O   UNL A   1      45.945  29.277  39.434  1.00  0.00    -0.237 OA
ATOM     78  O   UNL A   1      44.552  27.342  38.773  1.00  0.00    -0.237 OA
ATOM     79  O   UNL A   1      46.325  28.154  37.266  1.00  0.00    -0.744 OA
ENDBRANCH  75  76
ENDBRANCH  54  68
BRANCH  55  80
ATOM     80  C   UNL A   1      40.154  28.892  28.496  1.00  0.00     0.058 A 
ATOM     81  C   UNL A   1      40.725  28.585  27.251  1.00  0.00     0.135 A 
ATOM     82  C   UNL A   1      39.542  27.817  29.179  1.00  0.00     0.135 A 
ATOM     83  F   UNL A   1      41.365  29.534  26.551  1.00  0.00    -0.206 F 
ATOM     84  C   UNL A   1      40.706  27.289  26.722  1.00  0.00     0.059 A 
ATOM     85  C   UNL A   1      39.490  26.526  28.663  1.00  0.00     0.059 A 
ATOM     86  F   UNL A   1      39.047  27.965  30.416  1.00  0.00    -0.206 F 
ATOM     87  C   UNL A   1      40.092  26.264  27.442  1.00  0.00     0.060 A 
BRANCH  87  88
ATOM     88  S   UNL A   1      40.179  24.565  26.833  1.00  0.00     0.124 S 
ATOM     89  O   UNL A   1      40.370  23.812  28.068  1.00  0.00    -0.237 OA
ATOM     90  O   UNL A   1      38.882  24.408  26.182  1.00  0.00    -0.237 OA
ATOM     91  O   UNL A   1      41.328  24.585  25.931  1.00  0.00    -0.744 OA
ENDBRANCH  87  88
ENDBRANCH  55  80
BRANCH  67  92
ATOM     92  C   UNL A   1      43.001  34.418  30.121  1.00  0.00     0.058 A 
ATOM     93  C   UNL A   1      41.778  34.886  29.609  1.00  0.00     0.135 A 
ATOM     94  C   UNL A   1      44.158  35.127  29.760  1.00  0.00     0.135 A 
ATOM     95  F   UNL A   1      40.618  34.337  29.994  1.00  0.00    -0.206 F 
ATOM     96  C   UNL A   1      41.711  35.985  28.751  1.00  0.00     0.059 A 
ATOM     97  C   UNL A   1      44.112  36.245  28.928  1.00  0.00     0.059 A 
ATOM     98  F   UNL A   1      45.350  34.773  30.267  1.00  0.00    -0.206 F 
ATOM     99  C   UNL A   1      42.882  36.664  28.419  1.00  0.00     0.060 A 
BRANCH  99 100
ATOM    100  S   UNL A   1      42.776  38.156  27.407  1.00  0.00     0.124 S 
ATOM    101  O   UNL A   1      42.640  39.202  28.416  1.00  0.00    -0.237 OA
ATOM    102  O   UNL A   1      44.041  38.140  26.678  1.00  0.00    -0.237 OA
ATOM    103  O   UNL A   1      41.591  37.925  26.583  1.00  0.00    -0.744 OA
ENDBRANCH  99 100
ENDBRANCH  67  92
ENDBRANCH  41  42
ENDBRANCH  34  36
ENDBRANCH  33  34
ENDBRANCH  32  33
ENDBRANCH  31  32
ENDBRANCH  30  31
ENDBRANCH   1  30
TORSDOF 21
ENDMDL
