MODEL 1
REMARK VINA RESULT:      -8.9      0.000      0.000
REMARK SMILES COc1cc([C@H]2CC(c3ccc(S(C)(=O)=O)cc3)=NN2c2ccc(C(=O)OCCOCCOC(=O)c3ccc(-c4c5nc(c(-c6c(F)cc(S(=O)(=O)[O-])cc6F)c6ccc([nH]6)c(-c6c(F)cc(S(=O)(=O)[O-])cc6F)c6nc(c(-c7c(F)cc(S(=O)(=O)[O-])cc7F)c7ccc4[nH]7)C=C6)C=C5)cc3)cc2)cc(OC)c1OC
REMARK SMILES IDX 30 1 29 2 28 3 27 4 25 5 26 6 24 7 21 8 22 9 103 10 23 11
REMARK SMILES IDX 102 12 20 13 6 14 7 15 8 16 19 17 5 18 3 19 4 20 108 21
REMARK SMILES IDX 105 22 104 23 2 24 1 25 109 26 110 27 106 28 107 29 9 30
REMARK SMILES IDX 10 31 18 32 11 33 17 34 12 35 13 36 14 37 15 38 16 39 31 40
REMARK SMILES IDX 32 41 33 42 34 43 35 44 36 45 37 46 101 47 38 48 100 49
REMARK SMILES IDX 39 50 40 51 41 52 94 53 42 54 99 55 93 56 95 57 43 58 98 59
REMARK SMILES IDX 92 60 91 61 44 63 78 64 57 65 77 66 58 67 61 68 76 69 96 70
REMARK SMILES IDX 59 71 60 72 75 74 97 75 62 76 45 77 46 78 55 79 47 80 48 81
REMARK SMILES IDX 54 82 56 83 49 84 50 85 51 86 52 87 53 88 79 89 80 90 89 91
REMARK SMILES IDX 81 92 82 93 88 94 90 95 83 96 84 97 85 98 86 99 87 100
REMARK SMILES IDX 63 101 64 102 73 103 65 104 66 105 72 106 74 107 67 108
REMARK SMILES IDX 68 109 69 110 70 111 71 112
REMARK H PARENT 95 62 61 73
REMARK Flexibility Score: inf
ROOT
ATOM      1  O   UNL A   1      44.624  21.634  25.377  1.00  0.00    -0.374 OA
ENDROOT
BRANCH   1   2
ATOM      2  C   UNL A   1      46.002  21.927  25.140  1.00  0.00     0.202 C 
BRANCH   2   3
ATOM      3  C   UNL A   1      46.308  23.230  24.395  1.00  0.00     0.261 C 
BRANCH   3   4
ATOM      4  O   UNL A   1      46.810  24.240  25.284  1.00  0.00    -0.460 OA
BRANCH   4   5
ATOM      5  C   UNL A   1      47.196  25.388  24.678  1.00  0.00     0.338 C 
ATOM      6  O   UNL A   1      47.981  25.498  23.746  1.00  0.00    -0.246 OA
BRANCH   5   7
ATOM      7  C   UNL A   1      46.408  26.528  25.196  1.00  0.00     0.060 A 
ATOM      8  C   UNL A   1      45.057  28.689  26.369  1.00  0.00     0.060 A 
ATOM      9  C   UNL A   1      46.439  28.750  26.152  1.00  0.00     0.029 A 
ATOM     10  C   UNL A   1      44.350  27.571  25.902  1.00  0.00     0.029 A 
ATOM     11  C   UNL A   1      47.115  27.667  25.594  1.00  0.00     0.018 A 
ATOM     12  C   UNL A   1      45.016  26.496  25.304  1.00  0.00     0.018 A 
BRANCH   8  13
ATOM     13  N   UNL A   1      44.421  29.665  27.134  1.00  0.00    -0.257 N 
ATOM     14  C   UNL A   1      44.010  29.405  28.523  1.00  0.00     0.144 C 
ATOM     15  C   UNL A   1      43.719  30.824  29.046  1.00  0.00     0.091 C 
ATOM     16  C   UNL A   1      44.122  31.647  27.850  1.00  0.00     0.071 C 
ATOM     17  N   UNL A   1      44.537  30.983  26.817  1.00  0.00    -0.176 NA
BRANCH  14  18
ATOM     18  C   UNL A   1      45.066  28.628  29.312  1.00  0.00    -0.015 A 
ATOM     19  C   UNL A   1      46.875  28.604  30.974  1.00  0.00     0.164 A 
ATOM     20  C   UNL A   1      45.979  29.304  30.140  1.00  0.00     0.056 A 
ATOM     21  C   UNL A   1      46.892  27.199  31.001  1.00  0.00     0.203 A 
ATOM     22  C   UNL A   1      45.974  26.515  30.174  1.00  0.00     0.164 A 
ATOM     23  C   UNL A   1      45.084  27.229  29.349  1.00  0.00     0.056 A 
BRANCH  19  24
ATOM     24  O   UNL A   1      47.597  29.353  31.868  1.00  0.00    -0.493 OA
ATOM     25  C   UNL A   1      47.944  30.639  31.361  1.00  0.00     0.278 C 
ENDBRANCH  19  24
BRANCH  21  26
ATOM     26  O   UNL A   1      47.717  26.411  31.754  1.00  0.00    -0.490 OA
ATOM     27  C   UNL A   1      48.945  25.921  31.247  1.00  0.00     0.278 C 
ENDBRANCH  21  26
BRANCH  22  28
ATOM     28  O   UNL A   1      45.809  25.155  30.039  1.00  0.00    -0.493 OA
ATOM     29  C   UNL A   1      45.800  24.607  28.728  1.00  0.00     0.278 C 
ENDBRANCH  22  28
ENDBRANCH  14  18
BRANCH  16  30
ATOM     30  C   UNL A   1      43.976  33.113  27.841  1.00  0.00    -0.002 A 
ATOM     31  C   UNL A   1      43.692  33.758  29.052  1.00  0.00     0.011 A 
ATOM     32  C   UNL A   1      44.124  33.848  26.664  1.00  0.00     0.011 A 
ATOM     33  C   UNL A   1      43.584  35.151  29.094  1.00  0.00     0.021 A 
ATOM     34  C   UNL A   1      43.988  35.242  26.698  1.00  0.00     0.021 A 
ATOM     35  C   UNL A   1      43.723  35.886  27.913  1.00  0.00     0.067 A 
BRANCH  35  36
ATOM     36  S   UNL A   1      43.611  37.660  27.975  1.00  0.00     0.175 S 
ATOM     37  C   UNL A   1      44.858  38.233  26.852  1.00  0.00     0.163 C 
ATOM     38  O   UNL A   1      42.313  38.017  27.434  1.00  0.00    -0.224 OA
ATOM     39  O   UNL A   1      44.002  38.081  29.307  1.00  0.00    -0.224 OA
ENDBRANCH  35  36
ENDBRANCH  16  30
ENDBRANCH   8  13
ENDBRANCH   5   7
ENDBRANCH   4   5
ENDBRANCH   3   4
ENDBRANCH   2   3
ENDBRANCH   1   2
BRANCH   1  40
ATOM     40  C   UNL A   1      43.950  22.441  26.345  1.00  0.00     0.202 C 
BRANCH  40  41
ATOM     41  C   UNL A   1      42.580  22.999  25.939  1.00  0.00     0.261 C 
BRANCH  41  42
ATOM     42  O   UNL A   1      42.212  24.153  26.714  1.00  0.00    -0.460 OA
BRANCH  42  43
ATOM     43  C   UNL A   1      40.881  24.314  26.901  1.00  0.00     0.338 C 
ATOM     44  O   UNL A   1      39.988  23.556  26.543  1.00  0.00    -0.246 OA
BRANCH  43  45
ATOM     45  C   UNL A   1      40.636  25.471  27.780  1.00  0.00     0.060 A 
ATOM     46  C   UNL A   1      41.637  26.448  27.863  1.00  0.00     0.016 A 
ATOM     47  C   UNL A   1      39.475  25.580  28.550  1.00  0.00     0.016 A 
ATOM     48  C   UNL A   1      41.500  27.517  28.747  1.00  0.00     0.010 A 
ATOM     49  C   UNL A   1      39.343  26.649  29.441  1.00  0.00     0.010 A 
ATOM     50  C   UNL A   1      40.367  27.605  29.567  1.00  0.00    -0.014 A 
BRANCH  50  51
ATOM     51  C   UNL A   1      40.311  28.630  30.637  1.00  0.00     0.031 A 
ATOM     52  C   UNL A   1      41.253  28.527  31.804  1.00  0.00     0.074 A 
ATOM     53  C   UNL A   1      39.439  29.652  30.560  1.00  0.00     0.049 A 
ATOM     54  N   UNL A   1      41.355  29.294  32.859  1.00  0.00    -0.248 NA
ATOM     55  C   UNL A   1      42.205  27.406  31.779  1.00  0.00     0.031 C 
ATOM     56  C   UNL A   1      38.502  29.879  29.461  1.00  0.00     0.029 A 
ATOM     57  N   UNL A   1      39.198  30.687  31.428  1.00  0.00    -0.354 N 
ATOM     58  C   UNL A   1      42.373  28.744  33.630  1.00  0.00     0.074 A 
ATOM     59  C   UNL A   1      42.835  27.561  32.935  1.00  0.00     0.031 C 
ATOM     60  C   UNL A   1      37.784  30.985  29.722  1.00  0.00     0.029 A 
ATOM     61  C   UNL A   1      38.186  31.523  31.021  1.00  0.00     0.049 A 
ATOM     62  H   UNL A   1      39.702  30.817  32.264  1.00  0.00     0.167 HD
ATOM     63  C   UNL A   1      42.878  29.188  34.806  1.00  0.00     0.037 A 
ATOM     64  C   UNL A   1      37.637  32.589  31.634  1.00  0.00     0.037 A 
ATOM     65  C   UNL A   1      42.410  30.366  35.491  1.00  0.00     0.049 A 
ATOM     66  C   UNL A   1      38.165  33.024  32.975  1.00  0.00     0.074 A 
ATOM     67  C   UNL A   1      42.880  30.920  36.668  1.00  0.00     0.029 A 
ATOM     68  N   UNL A   1      41.353  31.161  35.070  1.00  0.00    -0.354 N 
ATOM     69  N   UNL A   1      39.150  32.516  33.678  1.00  0.00    -0.248 NA
ATOM     70  C   UNL A   1      37.507  34.176  33.607  1.00  0.00     0.031 C 
ATOM     71  C   UNL A   1      42.071  32.015  36.989  1.00  0.00     0.029 A 
ATOM     72  C   UNL A   1      41.132  32.180  35.983  1.00  0.00     0.049 A 
ATOM     73  H   UNL A   1      40.837  31.022  34.244  1.00  0.00     0.167 HD
ATOM     74  C   UNL A   1      39.247  33.301  34.823  1.00  0.00     0.074 A 
ATOM     75  C   UNL A   1      38.224  34.322  34.713  1.00  0.00     0.031 C 
ATOM     76  C   UNL A   1      40.106  33.189  35.867  1.00  0.00     0.037 A 
BRANCH  63  77
ATOM     77  C   UNL A   1      43.968  28.369  35.443  1.00  0.00     0.058 A 
ATOM     78  C   UNL A   1      45.324  28.568  35.139  1.00  0.00     0.135 A 
ATOM     79  C   UNL A   1      43.649  27.369  36.376  1.00  0.00     0.135 A 
ATOM     80  F   UNL A   1      45.687  29.501  34.243  1.00  0.00    -0.206 F 
ATOM     81  C   UNL A   1      46.322  27.777  35.703  1.00  0.00     0.059 A 
ATOM     82  C   UNL A   1      44.632  26.586  36.976  1.00  0.00     0.059 A 
ATOM     83  F   UNL A   1      42.369  27.136  36.707  1.00  0.00    -0.206 F 
ATOM     84  C   UNL A   1      45.963  26.784  36.616  1.00  0.00     0.060 A 
BRANCH  84  85
ATOM     85  S   UNL A   1      47.263  25.745  37.317  1.00  0.00     0.124 S 
ATOM     86  O   UNL A   1      48.080  25.467  36.140  1.00  0.00    -0.237 OA
ATOM     87  O   UNL A   1      47.866  26.626  38.312  1.00  0.00    -0.237 OA
ATOM     88  O   UNL A   1      46.532  24.603  37.856  1.00  0.00    -0.744 OA
ENDBRANCH  84  85
ENDBRANCH  63  77
BRANCH  64  89
ATOM     89  C   UNL A   1      36.522  33.321  30.976  1.00  0.00     0.058 A 
ATOM     90  C   UNL A   1      36.751  34.119  29.845  1.00  0.00     0.135 A 
ATOM     91  C   UNL A   1      35.202  33.209  31.441  1.00  0.00     0.135 A 
ATOM     92  F   UNL A   1      37.998  34.268  29.372  1.00  0.00    -0.206 F 
ATOM     93  C   UNL A   1      35.712  34.778  29.197  1.00  0.00     0.059 A 
ATOM     94  C   UNL A   1      34.143  33.839  30.796  1.00  0.00     0.059 A 
ATOM     95  F   UNL A   1      34.930  32.452  32.516  1.00  0.00    -0.206 F 
ATOM     96  C   UNL A   1      34.408  34.623  29.673  1.00  0.00     0.060 A 
BRANCH  96  97
ATOM     97  S   UNL A   1      33.058  35.415  28.773  1.00  0.00     0.124 S 
ATOM     98  O   UNL A   1      32.219  35.897  29.862  1.00  0.00    -0.237 OA
ATOM     99  O   UNL A   1      33.763  36.438  28.006  1.00  0.00    -0.237 OA
ATOM    100  O   UNL A   1      32.500  34.324  27.980  1.00  0.00    -0.744 OA
ENDBRANCH  96  97
ENDBRANCH  64  89
BRANCH  76 101
ATOM    101  C   UNL A   1      39.998  34.208  36.970  1.00  0.00     0.058 A 
ATOM    102  C   UNL A   1      40.600  35.472  36.870  1.00  0.00     0.135 A 
ATOM    103  C   UNL A   1      39.236  33.935  38.118  1.00  0.00     0.135 A 
ATOM    104  F   UNL A   1      41.347  35.781  35.797  1.00  0.00    -0.206 F 
ATOM    105  C   UNL A   1      40.470  36.422  37.879  1.00  0.00     0.059 A 
ATOM    106  C   UNL A   1      39.068  34.880  39.126  1.00  0.00     0.059 A 
ATOM    107  F   UNL A   1      38.629  32.746  38.261  1.00  0.00    -0.206 F 
ATOM    108  C   UNL A   1      39.699  36.117  39.003  1.00  0.00     0.060 A 
BRANCH 108 109
ATOM    109  S   UNL A   1      39.510  37.372  40.288  1.00  0.00     0.124 S 
ATOM    110  O   UNL A   1      38.761  36.641  41.304  1.00  0.00    -0.237 OA
ATOM    111  O   UNL A   1      40.896  37.685  40.624  1.00  0.00    -0.237 OA
ATOM    112  O   UNL A   1      38.777  38.439  39.614  1.00  0.00    -0.744 OA
ENDBRANCH 108 109
ENDBRANCH  76 101
ENDBRANCH  50  51
ENDBRANCH  43  45
ENDBRANCH  42  43
ENDBRANCH  41  42
ENDBRANCH  40  41
ENDBRANCH   1  40
TORSDOF 24
ENDMDL
MODEL 2
REMARK VINA RESULT:      -7.6      1.862      7.872
REMARK SMILES COc1cc([C@H]2CC(c3ccc(S(C)(=O)=O)cc3)=NN2c2ccc(C(=O)OCCOCCOC(=O)c3ccc(-c4c5nc(c(-c6c(F)cc(S(=O)(=O)[O-])cc6F)c6ccc([nH]6)c(-c6c(F)cc(S(=O)(=O)[O-])cc6F)c6nc(c(-c7c(F)cc(S(=O)(=O)[O-])cc7F)c7ccc4[nH]7)C=C6)C=C5)cc3)cc2)cc(OC)c1OC
REMARK SMILES IDX 30 1 29 2 28 3 27 4 25 5 26 6 24 7 21 8 22 9 103 10 23 11
REMARK SMILES IDX 102 12 20 13 6 14 7 15 8 16 19 17 5 18 3 19 4 20 108 21
REMARK SMILES IDX 105 22 104 23 2 24 1 25 109 26 110 27 106 28 107 29 9 30
REMARK SMILES IDX 10 31 18 32 11 33 17 34 12 35 13 36 14 37 15 38 16 39 31 40
REMARK SMILES IDX 32 41 33 42 34 43 35 44 36 45 37 46 101 47 38 48 100 49
REMARK SMILES IDX 39 50 40 51 41 52 94 53 42 54 99 55 93 56 95 57 43 58 98 59
REMARK SMILES IDX 92 60 91 61 44 63 78 64 57 65 77 66 58 67 61 68 76 69 96 70
REMARK SMILES IDX 59 71 60 72 75 74 97 75 62 76 45 77 46 78 55 79 47 80 48 81
REMARK SMILES IDX 54 82 56 83 49 84 50 85 51 86 52 87 53 88 79 89 80 90 89 91
REMARK SMILES IDX 81 92 82 93 88 94 90 95 83 96 84 97 85 98 86 99 87 100
REMARK SMILES IDX 63 101 64 102 73 103 65 104 66 105 72 106 74 107 67 108
REMARK SMILES IDX 68 109 69 110 70 111 71 112
REMARK H PARENT 95 62 61 73
REMARK Flexibility Score: inf
ROOT
ATOM      1  O   UNL A   1      43.826  21.532  24.970  1.00  0.00    -0.374 OA
ENDROOT
BRANCH   1   2
ATOM      2  C   UNL A   1      45.023  22.264  24.703  1.00  0.00     0.202 C 
BRANCH   2   3
ATOM      3  C   UNL A   1      45.549  23.152  25.835  1.00  0.00     0.261 C 
BRANCH   3   4
ATOM      4  O   UNL A   1      45.703  24.514  25.409  1.00  0.00    -0.460 OA
BRANCH   4   5
ATOM      5  C   UNL A   1      44.550  25.219  25.333  1.00  0.00     0.338 C 
ATOM      6  O   UNL A   1      43.538  24.908  24.717  1.00  0.00    -0.246 OA
BRANCH   5   7
ATOM      7  C   UNL A   1      44.601  26.383  26.243  1.00  0.00     0.060 A 
ATOM      8  C   UNL A   1      44.876  28.678  27.836  1.00  0.00     0.060 A 
ATOM      9  C   UNL A   1      44.647  28.792  26.459  1.00  0.00     0.029 A 
ATOM     10  C   UNL A   1      44.868  27.400  28.415  1.00  0.00     0.029 A 
ATOM     11  C   UNL A   1      44.537  27.654  25.663  1.00  0.00     0.018 A 
ATOM     12  C   UNL A   1      44.718  26.253  27.629  1.00  0.00     0.018 A 
BRANCH   8  13
ATOM     13  N   UNL A   1      45.218  29.799  28.588  1.00  0.00    -0.257 N 
ATOM     14  C   UNL A   1      46.434  29.826  29.417  1.00  0.00     0.144 C 
ATOM     15  C   UNL A   1      46.577  31.327  29.733  1.00  0.00     0.091 C 
ATOM     16  C   UNL A   1      45.438  31.889  28.923  1.00  0.00     0.071 C 
ATOM     17  N   UNL A   1      44.722  31.026  28.274  1.00  0.00    -0.176 NA
BRANCH  14  18
ATOM     18  C   UNL A   1      47.637  29.194  28.714  1.00  0.00    -0.015 A 
ATOM     19  C   UNL A   1      49.428  29.342  27.039  1.00  0.00     0.164 A 
ATOM     20  C   UNL A   1      48.243  29.838  27.620  1.00  0.00     0.056 A 
ATOM     21  C   UNL A   1      50.044  28.177  27.530  1.00  0.00     0.203 A 
ATOM     22  C   UNL A   1      49.441  27.531  28.631  1.00  0.00     0.164 A 
ATOM     23  C   UNL A   1      48.260  28.040  29.202  1.00  0.00     0.056 A 
BRANCH  19  24
ATOM     24  O   UNL A   1      50.031  30.136  26.097  1.00  0.00    -0.493 OA
ATOM     25  C   UNL A   1      51.338  30.556  26.480  1.00  0.00     0.278 C 
ENDBRANCH  19  24
BRANCH  21  26
ATOM     26  O   UNL A   1      51.182  27.595  27.046  1.00  0.00    -0.490 OA
ATOM     27  C   UNL A   1      51.167  26.779  25.888  1.00  0.00     0.278 C 
ENDBRANCH  21  26
BRANCH  22  28
ATOM     28  O   UNL A   1      49.864  26.390  29.274  1.00  0.00    -0.493 OA
ATOM     29  C   UNL A   1      49.440  26.179  30.614  1.00  0.00     0.278 C 
ENDBRANCH  22  28
ENDBRANCH  14  18
BRANCH  16  30
ATOM     30  C   UNL A   1      45.122  33.328  28.938  1.00  0.00    -0.002 A 
ATOM     31  C   UNL A   1      43.986  33.764  28.244  1.00  0.00     0.011 A 
ATOM     32  C   UNL A   1      45.921  34.239  29.632  1.00  0.00     0.011 A 
ATOM     33  C   UNL A   1      43.628  35.115  28.265  1.00  0.00     0.021 A 
ATOM     34  C   UNL A   1      45.580  35.597  29.632  1.00  0.00     0.021 A 
ATOM     35  C   UNL A   1      44.434  36.027  28.952  1.00  0.00     0.067 A 
BRANCH  35  36
ATOM     36  S   UNL A   1      43.962  37.742  28.999  1.00  0.00     0.175 S 
ATOM     37  C   UNL A   1      45.010  38.534  27.808  1.00  0.00     0.163 C 
ATOM     38  O   UNL A   1      42.595  37.814  28.521  1.00  0.00    -0.224 OA
ATOM     39  O   UNL A   1      44.322  38.262  30.305  1.00  0.00    -0.224 OA
ENDBRANCH  35  36
ENDBRANCH  16  30
ENDBRANCH   8  13
ENDBRANCH   5   7
ENDBRANCH   4   5
ENDBRANCH   3   4
ENDBRANCH   2   3
ENDBRANCH   1   2
BRANCH   1  40
ATOM     40  C   UNL A   1      43.097  21.891  26.145  1.00  0.00     0.202 C 
BRANCH  40  41
ATOM     41  C   UNL A   1      41.645  22.344  25.941  1.00  0.00     0.261 C 
BRANCH  41  42
ATOM     42  O   UNL A   1      41.186  23.194  27.006  1.00  0.00    -0.460 OA
BRANCH  42  43
ATOM     43  C   UNL A   1      40.163  24.017  26.679  1.00  0.00     0.338 C 
ATOM     44  O   UNL A   1      39.259  23.791  25.883  1.00  0.00    -0.246 OA
BRANCH  43  45
ATOM     45  C   UNL A   1      40.166  25.196  27.563  1.00  0.00     0.060 A 
ATOM     46  C   UNL A   1      41.147  26.172  27.341  1.00  0.00     0.016 A 
ATOM     47  C   UNL A   1      39.264  25.326  28.622  1.00  0.00     0.016 A 
ATOM     48  C   UNL A   1      41.255  27.262  28.202  1.00  0.00     0.010 A 
ATOM     49  C   UNL A   1      39.379  26.417  29.488  1.00  0.00     0.010 A 
ATOM     50  C   UNL A   1      40.394  27.374  29.302  1.00  0.00    -0.014 A 
BRANCH  50  51
ATOM     51  C   UNL A   1      40.632  28.425  30.321  1.00  0.00     0.031 A 
ATOM     52  C   UNL A   1      39.674  29.579  30.423  1.00  0.00     0.074 A 
ATOM     53  C   UNL A   1      41.682  28.342  31.157  1.00  0.00     0.049 A 
ATOM     54  N   UNL A   1      39.706  30.617  31.219  1.00  0.00    -0.248 NA
ATOM     55  C   UNL A   1      38.526  29.561  29.502  1.00  0.00     0.031 C 
ATOM     56  C   UNL A   1      42.658  27.253  31.178  1.00  0.00     0.029 A 
ATOM     57  N   UNL A   1      42.105  29.193  32.146  1.00  0.00    -0.354 N 
ATOM     58  C   UNL A   1      38.594  31.383  30.888  1.00  0.00     0.074 A 
ATOM     59  C   UNL A   1      37.923  30.703  29.799  1.00  0.00     0.031 C 
ATOM     60  C   UNL A   1      43.569  27.504  32.134  1.00  0.00     0.029 A 
ATOM     61  C   UNL A   1      43.261  28.786  32.767  1.00  0.00     0.049 A 
ATOM     62  H   UNL A   1      41.625  30.019  32.388  1.00  0.00     0.167 HD
ATOM     63  C   UNL A   1      38.168  32.542  31.445  1.00  0.00     0.037 A 
ATOM     64  C   UNL A   1      43.996  29.387  33.722  1.00  0.00     0.037 A 
ATOM     65  C   UNL A   1      38.843  33.212  32.528  1.00  0.00     0.049 A 
ATOM     66  C   UNL A   1      43.544  30.711  34.279  1.00  0.00     0.074 A 
ATOM     67  C   UNL A   1      38.473  34.370  33.187  1.00  0.00     0.029 A 
ATOM     68  N   UNL A   1      40.036  32.791  33.099  1.00  0.00    -0.354 N 
ATOM     69  N   UNL A   1      42.472  31.408  33.982  1.00  0.00    -0.248 NA
ATOM     70  C   UNL A   1      44.401  31.331  35.299  1.00  0.00     0.031 C 
ATOM     71  C   UNL A   1      39.471  34.683  34.115  1.00  0.00     0.029 A 
ATOM     72  C   UNL A   1      40.436  33.688  34.078  1.00  0.00     0.049 A 
ATOM     73  H   UNL A   1      40.526  31.977  32.847  1.00  0.00     0.167 HD
ATOM     74  C   UNL A   1      42.513  32.536  34.796  1.00  0.00     0.074 A 
ATOM     75  C   UNL A   1      43.711  32.423  35.603  1.00  0.00     0.031 C 
ATOM     76  C   UNL A   1      41.635  33.569  34.871  1.00  0.00     0.037 A 
BRANCH  63  77
ATOM     77  C   UNL A   1      36.935  33.178  30.861  1.00  0.00     0.058 A 
ATOM     78  C   UNL A   1      36.976  33.937  29.681  1.00  0.00     0.135 A 
ATOM     79  C   UNL A   1      35.691  33.021  31.493  1.00  0.00     0.135 A 
ATOM     80  F   UNL A   1      38.142  34.132  29.042  1.00  0.00    -0.206 F 
ATOM     81  C   UNL A   1      35.838  34.556  29.172  1.00  0.00     0.059 A 
ATOM     82  C   UNL A   1      34.533  33.605  30.986  1.00  0.00     0.059 A 
ATOM     83  F   UNL A   1      35.591  32.303  32.623  1.00  0.00    -0.206 F 
ATOM     84  C   UNL A   1      34.622  34.388  29.837  1.00  0.00     0.060 A 
BRANCH  84  85
ATOM     85  S   UNL A   1      33.158  35.220  29.183  1.00  0.00     0.124 S 
ATOM     86  O   UNL A   1      32.366  35.408  30.394  1.00  0.00    -0.237 OA
ATOM     87  O   UNL A   1      33.722  36.433  28.600  1.00  0.00    -0.237 OA
ATOM     88  O   UNL A   1      32.621  34.259  28.225  1.00  0.00    -0.744 OA
ENDBRANCH  84  85
ENDBRANCH  63  77
BRANCH  64  89
ATOM     89  C   UNL A   1      45.237  28.732  34.216  1.00  0.00     0.058 A 
ATOM     90  C   UNL A   1      45.188  27.772  35.237  1.00  0.00     0.135 A 
ATOM     91  C   UNL A   1      46.489  29.026  33.653  1.00  0.00     0.135 A 
ATOM     92  F   UNL A   1      44.017  27.468  35.816  1.00  0.00    -0.206 F 
ATOM     93  C   UNL A   1      46.336  27.124  35.682  1.00  0.00     0.059 A 
ATOM     94  C   UNL A   1      47.646  28.375  34.063  1.00  0.00     0.059 A 
ATOM     95  F   UNL A   1      46.587  29.933  32.667  1.00  0.00    -0.206 F 
ATOM     96  C   UNL A   1      47.560  27.424  35.081  1.00  0.00     0.060 A 
BRANCH  96  97
ATOM     97  S   UNL A   1      49.029  26.515  35.608  1.00  0.00     0.124 S 
ATOM     98  O   UNL A   1      48.442  25.429  36.381  1.00  0.00    -0.237 OA
ATOM     99  O   UNL A   1      49.630  26.141  34.331  1.00  0.00    -0.237 OA
ATOM    100  O   UNL A   1      49.777  27.506  36.376  1.00  0.00    -0.744 OA
ENDBRANCH  96  97
ENDBRANCH  64  89
BRANCH  76 101
ATOM    101  C   UNL A   1      41.922  34.653  35.875  1.00  0.00     0.058 A 
ATOM    102  C   UNL A   1      41.580  34.516  37.229  1.00  0.00     0.135 A 
ATOM    103  C   UNL A   1      42.596  35.822  35.486  1.00  0.00     0.135 A 
ATOM    104  F   UNL A   1      40.926  33.422  37.653  1.00  0.00    -0.206 F 
ATOM    105  C   UNL A   1      41.876  35.508  38.159  1.00  0.00     0.059 A 
ATOM    106  C   UNL A   1      42.929  36.814  36.404  1.00  0.00     0.059 A 
ATOM    107  F   UNL A   1      42.957  36.002  34.206  1.00  0.00    -0.206 F 
ATOM    108  C   UNL A   1      42.554  36.654  37.737  1.00  0.00     0.060 A 
BRANCH 108 109
ATOM    109  S   UNL A   1      42.962  37.918  38.960  1.00  0.00     0.124 S 
ATOM    110  O   UNL A   1      41.647  38.237  39.504  1.00  0.00    -0.237 OA
ATOM    111  O   UNL A   1      43.864  37.203  39.858  1.00  0.00    -0.237 OA
ATOM    112  O   UNL A   1      43.585  38.971  38.164  1.00  0.00    -0.744 OA
ENDBRANCH 108 109
ENDBRANCH  76 101
ENDBRANCH  50  51
ENDBRANCH  43  45
ENDBRANCH  42  43
ENDBRANCH  41  42
ENDBRANCH  40  41
ENDBRANCH   1  40
TORSDOF 24
ENDMDL
MODEL 3
REMARK VINA RESULT:      -7.5      6.017     13.960
REMARK SMILES COc1cc([C@H]2CC(c3ccc(S(C)(=O)=O)cc3)=NN2c2ccc(C(=O)OCCOCCOC(=O)c3ccc(-c4c5nc(c(-c6c(F)cc(S(=O)(=O)[O-])cc6F)c6ccc([nH]6)c(-c6c(F)cc(S(=O)(=O)[O-])cc6F)c6nc(c(-c7c(F)cc(S(=O)(=O)[O-])cc7F)c7ccc4[nH]7)C=C6)C=C5)cc3)cc2)cc(OC)c1OC
REMARK SMILES IDX 30 1 29 2 28 3 27 4 25 5 26 6 24 7 21 8 22 9 103 10 23 11
REMARK SMILES IDX 102 12 20 13 6 14 7 15 8 16 19 17 5 18 3 19 4 20 108 21
REMARK SMILES IDX 105 22 104 23 2 24 1 25 109 26 110 27 106 28 107 29 9 30
REMARK SMILES IDX 10 31 18 32 11 33 17 34 12 35 13 36 14 37 15 38 16 39 31 40
REMARK SMILES IDX 32 41 33 42 34 43 35 44 36 45 37 46 101 47 38 48 100 49
REMARK SMILES IDX 39 50 40 51 41 52 94 53 42 54 99 55 93 56 95 57 43 58 98 59
REMARK SMILES IDX 92 60 91 61 44 63 78 64 57 65 77 66 58 67 61 68 76 69 96 70
REMARK SMILES IDX 59 71 60 72 75 74 97 75 62 76 45 77 46 78 55 79 47 80 48 81
REMARK SMILES IDX 54 82 56 83 49 84 50 85 51 86 52 87 53 88 79 89 80 90 89 91
REMARK SMILES IDX 81 92 82 93 88 94 90 95 83 96 84 97 85 98 86 99 87 100
REMARK SMILES IDX 63 101 64 102 73 103 65 104 66 105 72 106 74 107 67 108
REMARK SMILES IDX 68 109 69 110 70 111 71 112
REMARK H PARENT 95 62 61 73
REMARK Flexibility Score: inf
ROOT
ATOM      1  O   UNL A   1      38.581  34.734  30.296  1.00  0.00    -0.374 OA
ENDROOT
BRANCH   1   2
ATOM      2  C   UNL A   1      38.074  34.077  29.133  1.00  0.00     0.202 C 
BRANCH   2   3
ATOM      3  C   UNL A   1      37.448  32.695  29.344  1.00  0.00     0.261 C 
BRANCH   3   4
ATOM      4  O   UNL A   1      37.518  32.290  30.720  1.00  0.00    -0.460 OA
BRANCH   4   5
ATOM      5  C   UNL A   1      37.771  30.974  30.912  1.00  0.00     0.338 C 
ATOM      6  O   UNL A   1      36.963  30.055  30.860  1.00  0.00    -0.246 OA
BRANCH   5   7
ATOM      7  C   UNL A   1      39.227  30.747  31.046  1.00  0.00     0.060 A 
ATOM      8  C   UNL A   1      41.968  30.153  31.130  1.00  0.00     0.060 A 
ATOM      9  C   UNL A   1      41.362  30.538  29.928  1.00  0.00     0.029 A 
ATOM     10  C   UNL A   1      41.201  30.166  32.305  1.00  0.00     0.029 A 
ATOM     11  C   UNL A   1      39.995  30.807  29.879  1.00  0.00     0.018 A 
ATOM     12  C   UNL A   1      39.837  30.474  32.273  1.00  0.00     0.018 A 
BRANCH   8  13
ATOM     13  N   UNL A   1      43.271  29.661  31.135  1.00  0.00    -0.257 N 
ATOM     14  C   UNL A   1      43.551  28.227  30.950  1.00  0.00     0.144 C 
ATOM     15  C   UNL A   1      45.063  28.227  30.660  1.00  0.00     0.091 C 
ATOM     16  C   UNL A   1      45.341  29.708  30.642  1.00  0.00     0.071 C 
ATOM     17  N   UNL A   1      44.326  30.479  30.876  1.00  0.00    -0.176 NA
BRANCH  14  18
ATOM     18  C   UNL A   1      42.681  27.596  29.860  1.00  0.00    -0.015 A 
ATOM     19  C   UNL A   1      40.487  26.792  29.104  1.00  0.00     0.164 A 
ATOM     20  C   UNL A   1      41.344  27.253  30.124  1.00  0.00     0.056 A 
ATOM     21  C   UNL A   1      40.944  26.652  27.782  1.00  0.00     0.203 A 
ATOM     22  C   UNL A   1      42.285  27.000  27.511  1.00  0.00     0.164 A 
ATOM     23  C   UNL A   1      43.127  27.462  28.540  1.00  0.00     0.056 A 
BRANCH  19  24
ATOM     24  O   UNL A   1      39.162  26.653  29.429  1.00  0.00    -0.493 OA
ATOM     25  C   UNL A   1      38.843  27.199  30.707  1.00  0.00     0.278 C 
ENDBRANCH  19  24
BRANCH  21  26
ATOM     26  O   UNL A   1      40.216  26.207  26.714  1.00  0.00    -0.490 OA
ATOM     27  C   UNL A   1      39.938  24.831  26.525  1.00  0.00     0.278 C 
ENDBRANCH  21  26
BRANCH  22  28
ATOM     28  O   UNL A   1      42.943  26.948  26.303  1.00  0.00    -0.493 OA
ATOM     29  C   UNL A   1      42.738  28.010  25.381  1.00  0.00     0.278 C 
ENDBRANCH  22  28
ENDBRANCH  14  18
BRANCH  16  30
ATOM     30  C   UNL A   1      46.704  30.232  30.445  1.00  0.00    -0.002 A 
ATOM     31  C   UNL A   1      47.738  29.317  30.206  1.00  0.00     0.011 A 
ATOM     32  C   UNL A   1      46.965  31.603  30.484  1.00  0.00     0.011 A 
ATOM     33  C   UNL A   1      49.038  29.775  29.976  1.00  0.00     0.021 A 
ATOM     34  C   UNL A   1      48.272  32.062  30.281  1.00  0.00     0.021 A 
ATOM     35  C   UNL A   1      49.301  31.147  30.024  1.00  0.00     0.067 A 
BRANCH  35  36
ATOM     36  S   UNL A   1      50.952  31.728  29.704  1.00  0.00     0.175 S 
ATOM     37  C   UNL A   1      50.798  33.491  29.591  1.00  0.00     0.163 C 
ATOM     38  O   UNL A   1      51.741  31.415  30.880  1.00  0.00    -0.224 OA
ATOM     39  O   UNL A   1      51.344  31.243  28.395  1.00  0.00    -0.224 OA
ENDBRANCH  35  36
ENDBRANCH  16  30
ENDBRANCH   8  13
ENDBRANCH   5   7
ENDBRANCH   4   5
ENDBRANCH   3   4
ENDBRANCH   2   3
ENDBRANCH   1   2
BRANCH   1  40
ATOM     40  C   UNL A   1      39.926  34.434  30.672  1.00  0.00     0.202 C 
BRANCH  40  41
ATOM     41  C   UNL A   1      40.928  34.226  29.529  1.00  0.00     0.261 C 
BRANCH  41  42
ATOM     42  O   UNL A   1      41.708  35.406  29.269  1.00  0.00    -0.460 OA
BRANCH  42  43
ATOM     43  C   UNL A   1      42.015  35.610  27.967  1.00  0.00     0.338 C 
ATOM     44  O   UNL A   1      41.388  36.282  27.156  1.00  0.00    -0.246 OA
BRANCH  43  45
ATOM     45  C   UNL A   1      43.347  35.051  27.673  1.00  0.00     0.060 A 
ATOM     46  C   UNL A   1      43.590  34.605  26.367  1.00  0.00     0.016 A 
ATOM     47  C   UNL A   1      44.325  34.917  28.661  1.00  0.00     0.016 A 
ATOM     48  C   UNL A   1      44.798  33.983  26.055  1.00  0.00     0.010 A 
ATOM     49  C   UNL A   1      45.533  34.288  28.347  1.00  0.00     0.010 A 
ATOM     50  C   UNL A   1      45.764  33.790  27.052  1.00  0.00    -0.014 A 
BRANCH  50  51
ATOM     51  C   UNL A   1      46.962  32.964  26.767  1.00  0.00     0.031 A 
ATOM     52  C   UNL A   1      48.274  33.643  26.490  1.00  0.00     0.074 A 
ATOM     53  C   UNL A   1      46.884  31.621  26.773  1.00  0.00     0.049 A 
ATOM     54  N   UNL A   1      49.435  33.118  26.191  1.00  0.00    -0.248 NA
ATOM     55  C   UNL A   1      48.277  35.113  26.554  1.00  0.00     0.031 C 
ATOM     56  C   UNL A   1      45.677  30.849  27.063  1.00  0.00     0.029 A 
ATOM     57  N   UNL A   1      47.840  30.670  26.520  1.00  0.00    -0.354 N 
ATOM     58  C   UNL A   1      50.303  34.190  26.020  1.00  0.00     0.074 A 
ATOM     59  C   UNL A   1      49.527  35.396  26.219  1.00  0.00     0.031 C 
ATOM     60  C   UNL A   1      45.965  29.539  26.971  1.00  0.00     0.029 A 
ATOM     61  C   UNL A   1      47.366  29.382  26.581  1.00  0.00     0.049 A 
ATOM     62  H   UNL A   1      48.778  30.891  26.314  1.00  0.00     0.167 HD
ATOM     63  C   UNL A   1      51.626  34.170  25.730  1.00  0.00     0.037 A 
ATOM     64  C   UNL A   1      47.986  28.212  26.332  1.00  0.00     0.037 A 
ATOM     65  C   UNL A   1      52.390  32.963  25.532  1.00  0.00     0.049 A 
ATOM     66  C   UNL A   1      49.439  28.215  25.941  1.00  0.00     0.074 A 
ATOM     67  C   UNL A   1      53.742  32.835  25.270  1.00  0.00     0.029 A 
ATOM     68  N   UNL A   1      51.864  31.679  25.557  1.00  0.00    -0.354 N 
ATOM     69  N   UNL A   1      50.258  29.233  25.815  1.00  0.00    -0.248 NA
ATOM     70  C   UNL A   1      50.054  26.911  25.655  1.00  0.00     0.031 C 
ATOM     71  C   UNL A   1      54.022  31.477  25.079  1.00  0.00     0.029 A 
ATOM     72  C   UNL A   1      52.857  30.754  25.278  1.00  0.00     0.049 A 
ATOM     73  H   UNL A   1      50.923  31.458  25.745  1.00  0.00     0.167 HD
ATOM     74  C   UNL A   1      51.490  28.691  25.461  1.00  0.00     0.074 A 
ATOM     75  C   UNL A   1      51.309  27.254  25.400  1.00  0.00     0.031 C 
ATOM     76  C   UNL A   1      52.664  29.325  25.214  1.00  0.00     0.037 A 
BRANCH  63  77
ATOM     77  C   UNL A   1      52.319  35.496  25.569  1.00  0.00     0.058 A 
ATOM     78  C   UNL A   1      52.507  36.090  24.310  1.00  0.00     0.135 A 
ATOM     79  C   UNL A   1      52.801  36.184  26.694  1.00  0.00     0.135 A 
ATOM     80  F   UNL A   1      52.079  35.470  23.198  1.00  0.00    -0.206 F 
ATOM     81  C   UNL A   1      53.186  37.297  24.169  1.00  0.00     0.059 A 
ATOM     82  C   UNL A   1      53.456  37.407  26.579  1.00  0.00     0.059 A 
ATOM     83  F   UNL A   1      52.647  35.665  27.922  1.00  0.00    -0.206 F 
ATOM     84  C   UNL A   1      53.663  37.944  25.310  1.00  0.00     0.060 A 
BRANCH  84  85
ATOM     85  S   UNL A   1      54.568  39.494  25.110  1.00  0.00     0.124 S 
ATOM     86  O   UNL A   1      55.931  39.011  24.916  1.00  0.00    -0.237 OA
ATOM     87  O   UNL A   1      53.930  40.080  23.936  1.00  0.00    -0.237 OA
ATOM     88  O   UNL A   1      54.324  40.194  26.367  1.00  0.00    -0.744 OA
ENDBRANCH  84  85
ENDBRANCH  63  77
BRANCH  64  89
ATOM     89  C   UNL A   1      47.228  26.939  26.453  1.00  0.00     0.058 A 
ATOM     90  C   UNL A   1      47.242  26.201  27.646  1.00  0.00     0.135 A 
ATOM     91  C   UNL A   1      46.446  26.453  25.393  1.00  0.00     0.135 A 
ATOM     92  F   UNL A   1      47.986  26.618  28.682  1.00  0.00    -0.206 F 
ATOM     93  C   UNL A   1      46.507  25.029  27.786  1.00  0.00     0.059 A 
ATOM     94  C   UNL A   1      45.684  25.296  25.517  1.00  0.00     0.059 A 
ATOM     95  F   UNL A   1      46.393  27.126  24.233  1.00  0.00    -0.206 F 
ATOM     96  C   UNL A   1      45.721  24.589  26.719  1.00  0.00     0.060 A 
BRANCH  96  97
ATOM     97  S   UNL A   1      44.706  23.113  26.942  1.00  0.00     0.124 S 
ATOM     98  O   UNL A   1      44.764  22.930  28.386  1.00  0.00    -0.237 OA
ATOM     99  O   UNL A   1      43.420  23.543  26.402  1.00  0.00    -0.237 OA
ATOM    100  O   UNL A   1      45.403  22.104  26.149  1.00  0.00    -0.744 OA
ENDBRANCH  96  97
ENDBRANCH  64  89
BRANCH  76 101
ATOM    101  C   UNL A   1      53.857  28.472  24.874  1.00  0.00     0.058 A 
ATOM    102  C   UNL A   1      54.213  28.194  23.545  1.00  0.00     0.135 A 
ATOM    103  C   UNL A   1      54.686  27.971  25.891  1.00  0.00     0.135 A 
ATOM    104  F   UNL A   1      53.450  28.641  22.534  1.00  0.00    -0.206 F 
ATOM    105  C   UNL A   1      55.335  27.431  23.236  1.00  0.00     0.059 A 
ATOM    106  C   UNL A   1      55.830  27.231  25.605  1.00  0.00     0.059 A 
ATOM    107  F   UNL A   1      54.400  28.215  27.180  1.00  0.00    -0.206 F 
ATOM    108  C   UNL A   1      56.140  26.956  24.274  1.00  0.00     0.060 A 
BRANCH 108 109
ATOM    109  S   UNL A   1      57.612  25.997  23.858  1.00  0.00     0.124 S 
ATOM    110  O   UNL A   1      58.657  26.747  24.548  1.00  0.00    -0.237 OA
ATOM    111  O   UNL A   1      57.299  24.685  24.417  1.00  0.00    -0.237 OA
ATOM    112  O   UNL A   1      57.655  26.057  22.401  1.00  0.00    -0.744 OA
ENDBRANCH 108 109
ENDBRANCH  76 101
ENDBRANCH  50  51
ENDBRANCH  43  45
ENDBRANCH  42  43
ENDBRANCH  41  42
ENDBRANCH  40  41
ENDBRANCH   1  40
TORSDOF 24
ENDMDL
