MODEL 1
REMARK VINA RESULT:     -11.2      0.000      0.000
REMARK SMILES CCOc1ccc2[nH]c(C)c/c(=N\c3cccc(C(=O)OCCOCCOC(=O)c4ccc(-c5c6nc(c(-c7c(F)cc(S(=O)(=O)[O-])cc7F)c7ccc([nH]7)c(-c7c(F)cc(S(=O)(=O)[O-])cc7F)c7nc(c(-c8c(F)cc(S(=O)(=O)[O-])cc8F)c8ccc5[nH]8)C=C7)C=C6)cc4)c3)c2c1
REMARK SMILES IDX 24 1 23 2 22 3 21 4 19 5 20 6 18 7 14 8 15 9 96 10 16 11
REMARK SMILES IDX 17 12 13 13 4 14 5 15 98 16 6 17 97 18 7 19 12 20 8 21 11 22
REMARK SMILES IDX 9 23 10 25 3 26 2 27 1 28 25 29 26 30 27 31 28 32 29 33
REMARK SMILES IDX 30 34 31 35 95 36 32 37 94 38 33 39 34 40 35 41 88 42 36 43
REMARK SMILES IDX 93 44 87 45 89 46 37 47 92 48 86 49 85 50 38 52 72 53 51 54
REMARK SMILES IDX 71 55 52 56 55 57 70 58 90 59 53 60 54 61 69 63 91 64 56 65
REMARK SMILES IDX 39 66 40 67 49 68 41 69 42 70 48 71 50 72 43 73 44 74 45 75
REMARK SMILES IDX 46 76 47 77 73 78 74 79 83 80 75 81 76 82 82 83 84 84 77 85
REMARK SMILES IDX 78 86 79 87 80 88 81 89 57 90 58 91 67 92 59 93 60 94 66 95
REMARK SMILES IDX 68 96 61 97 62 98 63 99 64 100 65 101
REMARK H PARENT 8 24 89 51 55 62
REMARK Flexibility Score: inf
ROOT
ATOM      1  O   UNL A   1      41.201  22.267  27.740  1.00  0.00    -0.374 OA
ENDROOT
BRANCH   1   2
ATOM      2  C   UNL A   1      40.389  22.568  26.606  1.00  0.00     0.202 C 
BRANCH   2   3
ATOM      3  C   UNL A   1      39.461  21.466  26.082  1.00  0.00     0.261 C 
BRANCH   3   4
ATOM      4  O   UNL A   1      38.353  22.000  25.339  1.00  0.00    -0.460 OA
BRANCH   4   5
ATOM      5  C   UNL A   1      37.455  21.075  24.922  1.00  0.00     0.338 C 
ATOM      6  O   UNL A   1      37.688  19.907  24.649  1.00  0.00    -0.246 OA
BRANCH   5   7
ATOM      7  C   UNL A   1      36.070  21.601  25.014  1.00  0.00     0.062 A 
ATOM      8  C   UNL A   1      34.428  23.358  25.318  1.00  0.00     0.065 A 
ATOM      9  C   UNL A   1      33.411  22.407  25.133  1.00  0.00     0.028 A 
ATOM     10  C   UNL A   1      35.765  22.952  25.231  1.00  0.00     0.044 A 
ATOM     11  C   UNL A   1      33.710  21.056  24.970  1.00  0.00     0.003 A 
ATOM     12  C   UNL A   1      35.039  20.654  24.916  1.00  0.00     0.016 A 
BRANCH   8  13
ATOM     13  N   UNL A   1      34.107  24.706  25.569  1.00  0.00    -0.248 NA
ATOM     14  C   UNL A   1      33.359  28.856  26.335  1.00  0.00     0.120 A 
ATOM     15  C   UNL A   1      33.007  29.670  25.261  1.00  0.00     0.048 A 
ATOM     16  C   UNL A   1      33.573  27.488  26.150  1.00  0.00     0.059 A 
ATOM     17  C   UNL A   1      32.814  29.115  24.000  1.00  0.00     0.030 A 
ATOM     18  C   UNL A   1      33.387  26.926  24.878  1.00  0.00     0.027 A 
ATOM     19  C   UNL A   1      33.004  27.746  23.796  1.00  0.00     0.048 A 
ATOM     20  C   UNL A   1      33.630  25.462  24.618  1.00  0.00     0.075 A 
ATOM     21  N   UNL A   1      32.841  27.210  22.513  1.00  0.00    -0.359 N 
ATOM     22  C   UNL A   1      33.312  24.994  23.223  1.00  0.00     0.050 A 
ATOM     23  C   UNL A   1      32.978  25.869  22.263  1.00  0.00     0.014 A 
ATOM     24  H   UNL A   1      32.622  27.815  21.768  1.00  0.00     0.166 HD
ATOM     25  C   UNL A   1      32.742  25.413  20.851  1.00  0.00     0.064 C 
BRANCH  14  26
ATOM     26  O   UNL A   1      33.638  29.423  27.549  1.00  0.00    -0.494 OA
BRANCH  26  27
ATOM     27  C   UNL A   1      35.043  29.464  27.846  1.00  0.00     0.226 C 
ATOM     28  C   UNL A   1      35.636  30.855  27.660  1.00  0.00     0.049 C 
ENDBRANCH  26  27
ENDBRANCH  14  26
ENDBRANCH   8  13
ENDBRANCH   5   7
ENDBRANCH   4   5
ENDBRANCH   3   4
ENDBRANCH   2   3
ENDBRANCH   1   2
BRANCH   1  29
ATOM     29  C   UNL A   1      42.587  22.012  27.518  1.00  0.00     0.202 C 
BRANCH  29  30
ATOM     30  C   UNL A   1      43.313  22.863  26.467  1.00  0.00     0.261 C 
BRANCH  30  31
ATOM     31  O   UNL A   1      43.660  24.170  26.949  1.00  0.00    -0.460 OA
BRANCH  31  32
ATOM     32  C   UNL A   1      42.972  25.195  26.386  1.00  0.00     0.338 C 
ATOM     33  O   UNL A   1      42.639  25.304  25.217  1.00  0.00    -0.246 OA
BRANCH  32  34
ATOM     34  C   UNL A   1      42.492  26.097  27.451  1.00  0.00     0.060 A 
ATOM     35  C   UNL A   1      41.391  25.764  28.242  1.00  0.00     0.016 A 
ATOM     36  C   UNL A   1      43.184  27.296  27.664  1.00  0.00     0.016 A 
ATOM     37  C   UNL A   1      41.001  26.630  29.267  1.00  0.00     0.010 A 
ATOM     38  C   UNL A   1      42.791  28.159  28.689  1.00  0.00     0.010 A 
ATOM     39  C   UNL A   1      41.707  27.823  29.510  1.00  0.00    -0.014 A 
BRANCH  39  40
ATOM     40  C   UNL A   1      41.385  28.648  30.702  1.00  0.00     0.031 A 
ATOM     41  C   UNL A   1      42.183  28.548  31.968  1.00  0.00     0.074 A 
ATOM     42  C   UNL A   1      40.339  29.494  30.629  1.00  0.00     0.049 A 
ATOM     43  N   UNL A   1      42.073  29.254  33.064  1.00  0.00    -0.248 NA
ATOM     44  C   UNL A   1      43.233  27.520  32.016  1.00  0.00     0.031 C 
ATOM     45  C   UNL A   1      39.464  29.643  29.463  1.00  0.00     0.029 A 
ATOM     46  N   UNL A   1      39.839  30.391  31.538  1.00  0.00    -0.354 N 
ATOM     47  C   UNL A   1      43.050  28.776  33.927  1.00  0.00     0.074 A 
ATOM     48  C   UNL A   1      43.708  27.680  33.245  1.00  0.00     0.031 C 
ATOM     49  C   UNL A   1      38.560  30.602  29.714  1.00  0.00     0.029 A 
ATOM     50  C   UNL A   1      38.768  31.112  31.066  1.00  0.00     0.049 A 
ATOM     51  H   UNL A   1      40.212  30.507  32.441  1.00  0.00     0.167 HD
ATOM     52  C   UNL A   1      43.379  29.226  35.163  1.00  0.00     0.037 A 
ATOM     53  C   UNL A   1      38.036  32.080  31.652  1.00  0.00     0.037 A 
ATOM     54  C   UNL A   1      42.703  30.306  35.838  1.00  0.00     0.049 A 
ATOM     55  C   UNL A   1      38.393  32.533  33.040  1.00  0.00     0.074 A 
ATOM     56  C   UNL A   1      42.989  30.858  37.076  1.00  0.00     0.029 A 
ATOM     57  N   UNL A   1      41.599  30.988  35.347  1.00  0.00    -0.354 N 
ATOM     58  N   UNL A   1      39.372  32.125  33.812  1.00  0.00    -0.248 NA
ATOM     59  C   UNL A   1      37.553  33.579  33.637  1.00  0.00     0.031 C 
ATOM     60  C   UNL A   1      42.024  31.831  37.357  1.00  0.00     0.029 A 
ATOM     61  C   UNL A   1      41.171  31.931  36.270  1.00  0.00     0.049 A 
ATOM     62  H   UNL A   1      41.179  30.827  34.471  1.00  0.00     0.167 HD
ATOM     63  C   UNL A   1      39.277  32.875  34.978  1.00  0.00     0.074 A 
ATOM     64  C   UNL A   1      38.155  33.775  34.803  1.00  0.00     0.031 C 
ATOM     65  C   UNL A   1      40.049  32.820  36.092  1.00  0.00     0.037 A 
BRANCH  52  66
ATOM     66  C   UNL A   1      44.528  28.557  35.871  1.00  0.00     0.058 A 
ATOM     67  C   UNL A   1      45.850  28.999  35.703  1.00  0.00     0.135 A 
ATOM     68  C   UNL A   1      44.301  27.509  36.780  1.00  0.00     0.135 A 
ATOM     69  F   UNL A   1      46.126  29.993  34.843  1.00  0.00    -0.206 F 
ATOM     70  C   UNL A   1      46.907  28.412  36.389  1.00  0.00     0.059 A 
ATOM     71  C   UNL A   1      45.341  26.926  37.499  1.00  0.00     0.059 A 
ATOM     72  F   UNL A   1      43.057  27.050  36.984  1.00  0.00    -0.206 F 
ATOM     73  C   UNL A   1      46.643  27.375  37.287  1.00  0.00     0.060 A 
BRANCH  73  74
ATOM     74  S   UNL A   1      48.030  26.630  38.170  1.00  0.00     0.124 S 
ATOM     75  O   UNL A   1      47.452  25.362  38.602  1.00  0.00    -0.237 OA
ATOM     76  O   UNL A   1      49.047  26.540  37.128  1.00  0.00    -0.237 OA
ATOM     77  O   UNL A   1      48.309  27.586  39.237  1.00  0.00    -0.744 OA
ENDBRANCH  73  74
ENDBRANCH  52  66
BRANCH  53  78
ATOM     78  C   UNL A   1      36.918  32.707  30.899  1.00  0.00     0.058 A 
ATOM     79  C   UNL A   1      35.589  32.323  31.129  1.00  0.00     0.135 A 
ATOM     80  C   UNL A   1      37.150  33.738  29.974  1.00  0.00     0.135 A 
ATOM     81  F   UNL A   1      35.316  31.338  31.998  1.00  0.00    -0.206 F 
ATOM     82  C   UNL A   1      34.529  32.937  30.470  1.00  0.00     0.059 A 
ATOM     83  C   UNL A   1      36.105  34.386  29.323  1.00  0.00     0.059 A 
ATOM     84  F   UNL A   1      38.403  34.153  29.730  1.00  0.00    -0.206 F 
ATOM     85  C   UNL A   1      34.798  33.976  29.577  1.00  0.00     0.060 A 
BRANCH  85  86
ATOM     86  S   UNL A   1      33.407  34.812  28.787  1.00  0.00     0.124 S 
ATOM     87  O   UNL A   1      32.922  33.783  27.874  1.00  0.00    -0.237 OA
ATOM     88  O   UNL A   1      32.546  35.111  29.927  1.00  0.00    -0.237 OA
ATOM     89  O   UNL A   1      34.025  35.975  28.157  1.00  0.00    -0.744 OA
ENDBRANCH  85  86
ENDBRANCH  53  78
BRANCH  65  90
ATOM     90  C   UNL A   1      39.718  33.763  37.219  1.00  0.00     0.058 A 
ATOM     91  C   UNL A   1      38.865  33.387  38.268  1.00  0.00     0.135 A 
ATOM     92  C   UNL A   1      40.319  35.032  37.289  1.00  0.00     0.135 A 
ATOM     93  F   UNL A   1      38.258  32.191  38.248  1.00  0.00    -0.206 F 
ATOM     94  C   UNL A   1      38.609  34.237  39.339  1.00  0.00     0.059 A 
ATOM     95  C   UNL A   1      40.101  35.887  38.365  1.00  0.00     0.059 A 
ATOM     96  F   UNL A   1      41.149  35.441  36.317  1.00  0.00    -0.206 F 
ATOM     97  C   UNL A   1      39.239  35.483  39.382  1.00  0.00     0.060 A 
BRANCH  97  98
ATOM     98  S   UNL A   1      38.932  36.554  40.803  1.00  0.00     0.124 S 
ATOM     99  O   UNL A   1      38.448  37.770  40.158  1.00  0.00    -0.237 OA
ATOM    100  O   UNL A   1      37.935  35.796  41.553  1.00  0.00    -0.237 OA
ATOM    101  O   UNL A   1      40.241  36.661  41.441  1.00  0.00    -0.744 OA
ENDBRANCH  97  98
ENDBRANCH  65  90
ENDBRANCH  39  40
ENDBRANCH  32  34
ENDBRANCH  31  32
ENDBRANCH  30  31
ENDBRANCH  29  30
ENDBRANCH   1  29
TORSDOF 20
ENDMDL
MODEL 2
REMARK VINA RESULT:     -10.5      5.949     12.120
REMARK SMILES CCOc1ccc2[nH]c(C)c/c(=N\c3cccc(C(=O)OCCOCCOC(=O)c4ccc(-c5c6nc(c(-c7c(F)cc(S(=O)(=O)[O-])cc7F)c7ccc([nH]7)c(-c7c(F)cc(S(=O)(=O)[O-])cc7F)c7nc(c(-c8c(F)cc(S(=O)(=O)[O-])cc8F)c8ccc5[nH]8)C=C7)C=C6)cc4)c3)c2c1
REMARK SMILES IDX 24 1 23 2 22 3 21 4 19 5 20 6 18 7 14 8 15 9 96 10 16 11
REMARK SMILES IDX 17 12 13 13 4 14 5 15 98 16 6 17 97 18 7 19 12 20 8 21 11 22
REMARK SMILES IDX 9 23 10 25 3 26 2 27 1 28 25 29 26 30 27 31 28 32 29 33
REMARK SMILES IDX 30 34 31 35 95 36 32 37 94 38 33 39 34 40 35 41 88 42 36 43
REMARK SMILES IDX 93 44 87 45 89 46 37 47 92 48 86 49 85 50 38 52 72 53 51 54
REMARK SMILES IDX 71 55 52 56 55 57 70 58 90 59 53 60 54 61 69 63 91 64 56 65
REMARK SMILES IDX 39 66 40 67 49 68 41 69 42 70 48 71 50 72 43 73 44 74 45 75
REMARK SMILES IDX 46 76 47 77 73 78 74 79 83 80 75 81 76 82 82 83 84 84 77 85
REMARK SMILES IDX 78 86 79 87 80 88 81 89 57 90 58 91 67 92 59 93 60 94 66 95
REMARK SMILES IDX 68 96 61 97 62 98 63 99 64 100 65 101
REMARK H PARENT 8 24 89 51 55 62
REMARK Flexibility Score: inf
ROOT
ATOM      1  O   UNL A   1      33.702  33.864  30.840  1.00  0.00    -0.374 OA
ENDROOT
BRANCH   1   2
ATOM      2  C   UNL A   1      33.958  34.624  29.661  1.00  0.00     0.202 C 
BRANCH   2   3
ATOM      3  C   UNL A   1      34.701  33.930  28.514  1.00  0.00     0.261 C 
BRANCH   3   4
ATOM      4  O   UNL A   1      33.990  32.781  28.026  1.00  0.00    -0.460 OA
BRANCH   4   5
ATOM      5  C   UNL A   1      34.781  31.748  27.645  1.00  0.00     0.338 C 
ATOM      6  O   UNL A   1      35.998  31.691  27.740  1.00  0.00    -0.246 OA
BRANCH   5   7
ATOM      7  C   UNL A   1      33.966  30.571  27.255  1.00  0.00     0.062 A 
ATOM      8  C   UNL A   1      33.666  28.291  26.489  1.00  0.00     0.065 A 
ATOM      9  C   UNL A   1      32.276  28.466  26.587  1.00  0.00     0.028 A 
ATOM     10  C   UNL A   1      34.513  29.345  26.853  1.00  0.00     0.044 A 
ATOM     11  C   UNL A   1      31.727  29.699  26.936  1.00  0.00     0.003 A 
ATOM     12  C   UNL A   1      32.573  30.751  27.265  1.00  0.00     0.016 A 
BRANCH   8  13
ATOM     13  N   UNL A   1      34.201  27.065  26.050  1.00  0.00    -0.248 NA
ATOM     14  C   UNL A   1      35.706  23.224  24.885  1.00  0.00     0.120 A 
ATOM     15  C   UNL A   1      35.116  22.590  23.794  1.00  0.00     0.048 A 
ATOM     16  C   UNL A   1      35.284  24.496  25.282  1.00  0.00     0.059 A 
ATOM     17  C   UNL A   1      34.133  23.243  23.056  1.00  0.00     0.030 A 
ATOM     18  C   UNL A   1      34.287  25.153  24.545  1.00  0.00     0.027 A 
ATOM     19  C   UNL A   1      33.708  24.522  23.424  1.00  0.00     0.048 A 
ATOM     20  C   UNL A   1      33.776  26.513  24.946  1.00  0.00     0.075 A 
ATOM     21  N   UNL A   1      32.692  25.148  22.693  1.00  0.00    -0.359 N 
ATOM     22  C   UNL A   1      32.763  27.121  24.013  1.00  0.00     0.050 A 
ATOM     23  C   UNL A   1      32.264  26.418  22.987  1.00  0.00     0.014 A 
ATOM     24  H   UNL A   1      32.274  24.663  21.947  1.00  0.00     0.166 HD
ATOM     25  C   UNL A   1      31.191  26.993  22.105  1.00  0.00     0.064 C 
BRANCH  14  26
ATOM     26  O   UNL A   1      36.603  22.540  25.660  1.00  0.00    -0.494 OA
BRANCH  26  27
ATOM     27  C   UNL A   1      37.619  23.382  26.227  1.00  0.00     0.226 C 
ATOM     28  C   UNL A   1      38.964  22.675  26.336  1.00  0.00     0.049 C 
ENDBRANCH  26  27
ENDBRANCH  14  26
ENDBRANCH   8  13
ENDBRANCH   5   7
ENDBRANCH   4   5
ENDBRANCH   3   4
ENDBRANCH   2   3
ENDBRANCH   1   2
BRANCH   1  29
ATOM     29  C   UNL A   1      34.519  32.719  31.086  1.00  0.00     0.202 C 
BRANCH  29  30
ATOM     30  C   UNL A   1      35.894  32.944  31.729  1.00  0.00     0.261 C 
BRANCH  30  31
ATOM     31  O   UNL A   1      36.948  32.243  31.051  1.00  0.00    -0.460 OA
BRANCH  31  32
ATOM     32  C   UNL A   1      37.111  30.948  31.421  1.00  0.00     0.338 C 
ATOM     33  O   UNL A   1      36.323  30.256  32.045  1.00  0.00    -0.246 OA
BRANCH  32  34
ATOM     34  C   UNL A   1      38.323  30.409  30.774  1.00  0.00     0.060 A 
ATOM     35  C   UNL A   1      38.480  30.441  29.387  1.00  0.00     0.016 A 
ATOM     36  C   UNL A   1      39.329  29.879  31.592  1.00  0.00     0.016 A 
ATOM     37  C   UNL A   1      39.665  29.959  28.824  1.00  0.00     0.010 A 
ATOM     38  C   UNL A   1      40.512  29.398  31.026  1.00  0.00     0.010 A 
ATOM     39  C   UNL A   1      40.696  29.452  29.638  1.00  0.00    -0.014 A 
BRANCH  39  40
ATOM     40  C   UNL A   1      42.009  29.099  29.042  1.00  0.00     0.031 A 
ATOM     41  C   UNL A   1      43.117  30.103  28.927  1.00  0.00     0.074 A 
ATOM     42  C   UNL A   1      42.187  27.843  28.589  1.00  0.00     0.049 A 
ATOM     43  N   UNL A   1      44.341  29.927  28.501  1.00  0.00    -0.248 NA
ATOM     44  C   UNL A   1      42.812  31.484  29.332  1.00  0.00     0.031 C 
ATOM     45  C   UNL A   1      41.164  26.794  28.608  1.00  0.00     0.029 A 
ATOM     46  N   UNL A   1      43.283  27.231  28.036  1.00  0.00    -0.354 N 
ATOM     47  C   UNL A   1      44.965  31.164  28.606  1.00  0.00     0.074 A 
ATOM     48  C   UNL A   1      43.963  32.096  29.085  1.00  0.00     0.031 C 
ATOM     49  C   UNL A   1      41.693  25.659  28.127  1.00  0.00     0.029 A 
ATOM     50  C   UNL A   1      43.077  25.905  27.735  1.00  0.00     0.049 A 
ATOM     51  H   UNL A   1      44.134  27.695  27.871  1.00  0.00     0.167 HD
ATOM     52  C   UNL A   1      46.256  31.484  28.347  1.00  0.00     0.037 A 
ATOM     53  C   UNL A   1      43.909  24.987  27.206  1.00  0.00     0.037 A 
ATOM     54  C   UNL A   1      47.238  30.550  27.853  1.00  0.00     0.049 A 
ATOM     55  C   UNL A   1      45.326  25.376  26.887  1.00  0.00     0.074 A 
ATOM     56  C   UNL A   1      48.582  30.772  27.596  1.00  0.00     0.029 A 
ATOM     57  N   UNL A   1      46.986  29.226  27.523  1.00  0.00    -0.354 N 
ATOM     58  N   UNL A   1      45.922  26.531  27.067  1.00  0.00    -0.248 NA
ATOM     59  C   UNL A   1      46.185  24.341  26.298  1.00  0.00     0.031 C 
ATOM     60  C   UNL A   1      49.125  29.601  27.057  1.00  0.00     0.029 A 
ATOM     61  C   UNL A   1      48.139  28.629  27.034  1.00  0.00     0.049 A 
ATOM     62  H   UNL A   1      46.116  28.776  27.621  1.00  0.00     0.167 HD
ATOM     63  C   UNL A   1      47.230  26.357  26.631  1.00  0.00     0.074 A 
ATOM     64  C   UNL A   1      47.343  24.980  26.194  1.00  0.00     0.031 C 
ATOM     65  C   UNL A   1      48.243  27.258  26.594  1.00  0.00     0.037 A 
BRANCH  52  66
ATOM     66  C   UNL A   1      46.693  32.904  28.597  1.00  0.00     0.058 A 
ATOM     67  C   UNL A   1      47.177  33.311  29.851  1.00  0.00     0.135 A 
ATOM     68  C   UNL A   1      46.693  33.850  27.559  1.00  0.00     0.135 A 
ATOM     69  F   UNL A   1      47.194  32.450  30.882  1.00  0.00    -0.206 F 
ATOM     70  C   UNL A   1      47.621  34.610  30.074  1.00  0.00     0.059 A 
ATOM     71  C   UNL A   1      47.160  35.148  27.752  1.00  0.00     0.059 A 
ATOM     72  F   UNL A   1      46.246  33.515  26.339  1.00  0.00    -0.206 F 
ATOM     73  C   UNL A   1      47.611  35.522  29.016  1.00  0.00     0.060 A 
BRANCH  73  74
ATOM     74  S   UNL A   1      48.196  37.202  29.326  1.00  0.00     0.124 S 
ATOM     75  O   UNL A   1      49.547  36.953  29.818  1.00  0.00    -0.237 OA
ATOM     76  O   UNL A   1      48.105  37.809  28.003  1.00  0.00    -0.237 OA
ATOM     77  O   UNL A   1      47.254  37.714  30.316  1.00  0.00    -0.744 OA
ENDBRANCH  73  74
ENDBRANCH  52  66
BRANCH  53  78
ATOM     78  C   UNL A   1      43.422  23.599  26.987  1.00  0.00     0.058 A 
ATOM     79  C   UNL A   1      43.309  22.697  28.054  1.00  0.00     0.135 A 
ATOM     80  C   UNL A   1      43.011  23.164  25.716  1.00  0.00     0.135 A 
ATOM     81  F   UNL A   1      43.696  23.063  29.286  1.00  0.00    -0.206 F 
ATOM     82  C   UNL A   1      42.807  21.413  27.872  1.00  0.00     0.059 A 
ATOM     83  C   UNL A   1      42.479  21.895  25.515  1.00  0.00     0.059 A 
ATOM     84  F   UNL A   1      43.085  23.995  24.665  1.00  0.00    -0.206 F 
ATOM     85  C   UNL A   1      42.384  21.025  26.600  1.00  0.00     0.060 A 
BRANCH  85  86
ATOM     86  S   UNL A   1      41.664  19.383  26.395  1.00  0.00     0.124 S 
ATOM     87  O   UNL A   1      40.400  19.694  25.737  1.00  0.00    -0.237 OA
ATOM     88  O   UNL A   1      42.665  18.713  25.571  1.00  0.00    -0.237 OA
ATOM     89  O   UNL A   1      41.557  18.888  27.764  1.00  0.00    -0.744 OA
ENDBRANCH  85  86
ENDBRANCH  53  78
BRANCH  65  90
ATOM     90  C   UNL A   1      49.575  26.792  26.069  1.00  0.00     0.058 A 
ATOM     91  C   UNL A   1      49.954  27.000  24.733  1.00  0.00     0.135 A 
ATOM     92  C   UNL A   1      50.514  26.196  26.929  1.00  0.00     0.135 A 
ATOM     93  F   UNL A   1      49.094  27.557  23.866  1.00  0.00    -0.206 F 
ATOM     94  C   UNL A   1      51.209  26.623  24.265  1.00  0.00     0.059 A 
ATOM     95  C   UNL A   1      51.785  25.839  26.490  1.00  0.00     0.059 A 
ATOM     96  F   UNL A   1      50.208  25.980  28.217  1.00  0.00    -0.206 F 
ATOM     97  C   UNL A   1      52.121  26.050  25.154  1.00  0.00     0.060 A 
BRANCH  97  98
ATOM     98  S   UNL A   1      53.761  25.611  24.540  1.00  0.00     0.124 S 
ATOM     99  O   UNL A   1      53.735  24.155  24.642  1.00  0.00    -0.237 OA
ATOM    100  O   UNL A   1      53.740  26.151  23.184  1.00  0.00    -0.237 OA
ATOM    101  O   UNL A   1      54.665  26.287  25.465  1.00  0.00    -0.744 OA
ENDBRANCH  97  98
ENDBRANCH  65  90
ENDBRANCH  39  40
ENDBRANCH  32  34
ENDBRANCH  31  32
ENDBRANCH  30  31
ENDBRANCH  29  30
ENDBRANCH   1  29
TORSDOF 20
ENDMDL
MODEL 3
REMARK VINA RESULT:     -10.1      6.225     12.347
REMARK SMILES CCOc1ccc2[nH]c(C)c/c(=N\c3cccc(C(=O)OCCOCCOC(=O)c4ccc(-c5c6nc(c(-c7c(F)cc(S(=O)(=O)[O-])cc7F)c7ccc([nH]7)c(-c7c(F)cc(S(=O)(=O)[O-])cc7F)c7nc(c(-c8c(F)cc(S(=O)(=O)[O-])cc8F)c8ccc5[nH]8)C=C7)C=C6)cc4)c3)c2c1
REMARK SMILES IDX 24 1 23 2 22 3 21 4 19 5 20 6 18 7 14 8 15 9 96 10 16 11
REMARK SMILES IDX 17 12 13 13 4 14 5 15 98 16 6 17 97 18 7 19 12 20 8 21 11 22
REMARK SMILES IDX 9 23 10 25 3 26 2 27 1 28 25 29 26 30 27 31 28 32 29 33
REMARK SMILES IDX 30 34 31 35 95 36 32 37 94 38 33 39 34 40 35 41 88 42 36 43
REMARK SMILES IDX 93 44 87 45 89 46 37 47 92 48 86 49 85 50 38 52 72 53 51 54
REMARK SMILES IDX 71 55 52 56 55 57 70 58 90 59 53 60 54 61 69 63 91 64 56 65
REMARK SMILES IDX 39 66 40 67 49 68 41 69 42 70 48 71 50 72 43 73 44 74 45 75
REMARK SMILES IDX 46 76 47 77 73 78 74 79 83 80 75 81 76 82 82 83 84 84 77 85
REMARK SMILES IDX 78 86 79 87 80 88 81 89 57 90 58 91 67 92 59 93 60 94 66 95
REMARK SMILES IDX 68 96 61 97 62 98 63 99 64 100 65 101
REMARK H PARENT 8 24 89 51 55 62
REMARK Flexibility Score: inf
ROOT
ATOM      1  O   UNL A   1      35.115  33.428  34.271  1.00  0.00    -0.374 OA
ENDROOT
BRANCH   1   2
ATOM      2  C   UNL A   1      34.264  33.371  33.128  1.00  0.00     0.202 C 
BRANCH   2   3
ATOM      3  C   UNL A   1      34.910  33.552  31.749  1.00  0.00     0.261 C 
BRANCH   3   4
ATOM      4  O   UNL A   1      34.056  33.096  30.688  1.00  0.00    -0.460 OA
BRANCH   4   5
ATOM      5  C   UNL A   1      34.529  33.335  29.440  1.00  0.00     0.338 C 
ATOM      6  O   UNL A   1      35.103  34.345  29.062  1.00  0.00    -0.246 OA
BRANCH   5   7
ATOM      7  C   UNL A   1      34.440  32.117  28.597  1.00  0.00     0.062 A 
ATOM      8  C   UNL A   1      33.408  30.708  26.915  1.00  0.00     0.065 A 
ATOM      9  C   UNL A   1      34.451  29.782  27.086  1.00  0.00     0.028 A 
ATOM     10  C   UNL A   1      33.422  31.894  27.659  1.00  0.00     0.044 A 
ATOM     11  C   UNL A   1      35.435  29.975  28.054  1.00  0.00     0.003 A 
ATOM     12  C   UNL A   1      35.425  31.140  28.811  1.00  0.00     0.016 A 
BRANCH   8  13
ATOM     13  N   UNL A   1      32.374  30.455  25.994  1.00  0.00    -0.248 NA
ATOM     14  C   UNL A   1      29.370  29.760  23.018  1.00  0.00     0.120 A 
ATOM     15  C   UNL A   1      29.185  28.457  22.561  1.00  0.00     0.048 A 
ATOM     16  C   UNL A   1      30.305  30.038  24.017  1.00  0.00     0.059 A 
ATOM     17  C   UNL A   1      29.898  27.410  23.136  1.00  0.00     0.030 A 
ATOM     18  C   UNL A   1      31.032  28.985  24.594  1.00  0.00     0.027 A 
ATOM     19  C   UNL A   1      30.826  27.662  24.150  1.00  0.00     0.048 A 
ATOM     20  C   UNL A   1      32.072  29.231  25.655  1.00  0.00     0.075 A 
ATOM     21  N   UNL A   1      31.561  26.601  24.691  1.00  0.00    -0.359 N 
ATOM     22  C   UNL A   1      32.711  27.996  26.232  1.00  0.00     0.050 A 
ATOM     23  C   UNL A   1      32.456  26.785  25.714  1.00  0.00     0.014 A 
ATOM     24  H   UNL A   1      31.431  25.696  24.327  1.00  0.00     0.166 HD
ATOM     25  C   UNL A   1      33.157  25.561  26.232  1.00  0.00     0.064 C 
BRANCH  14  26
ATOM     26  O   UNL A   1      28.735  30.794  22.384  1.00  0.00    -0.494 OA
BRANCH  26  27
ATOM     27  C   UNL A   1      28.174  31.756  23.291  1.00  0.00     0.226 C 
ATOM     28  C   UNL A   1      28.769  33.146  23.104  1.00  0.00     0.049 C 
ENDBRANCH  26  27
ENDBRANCH  14  26
ENDBRANCH   8  13
ENDBRANCH   5   7
ENDBRANCH   4   5
ENDBRANCH   3   4
ENDBRANCH   2   3
ENDBRANCH   1   2
BRANCH   1  29
ATOM     29  C   UNL A   1      36.520  33.289  34.064  1.00  0.00     0.202 C 
BRANCH  29  30
ATOM     30  C   UNL A   1      37.081  31.873  33.879  1.00  0.00     0.261 C 
BRANCH  30  31
ATOM     31  O   UNL A   1      37.072  31.444  32.508  1.00  0.00    -0.460 OA
BRANCH  31  32
ATOM     32  C   UNL A   1      37.361  30.133  32.311  1.00  0.00     0.338 C 
ATOM     33  O   UNL A   1      36.625  29.179  32.509  1.00  0.00    -0.246 OA
BRANCH  32  34
ATOM     34  C   UNL A   1      38.657  30.023  31.615  1.00  0.00     0.060 A 
ATOM     35  C   UNL A   1      39.825  29.691  32.303  1.00  0.00     0.016 A 
ATOM     36  C   UNL A   1      38.686  30.243  30.231  1.00  0.00     0.016 A 
ATOM     37  C   UNL A   1      41.021  29.556  31.593  1.00  0.00     0.010 A 
ATOM     38  C   UNL A   1      39.882  30.108  29.525  1.00  0.00     0.010 A 
ATOM     39  C   UNL A   1      41.055  29.745  30.198  1.00  0.00    -0.014 A 
BRANCH  39  40
ATOM     40  C   UNL A   1      42.292  29.436  29.437  1.00  0.00     0.031 A 
ATOM     41  C   UNL A   1      43.367  30.462  29.231  1.00  0.00     0.074 A 
ATOM     42  C   UNL A   1      42.430  28.201  28.916  1.00  0.00     0.049 A 
ATOM     43  N   UNL A   1      44.534  30.323  28.657  1.00  0.00    -0.248 NA
ATOM     44  C   UNL A   1      43.096  31.821  29.725  1.00  0.00     0.031 C 
ATOM     45  C   UNL A   1      41.429  27.136  29.015  1.00  0.00     0.029 A 
ATOM     46  N   UNL A   1      43.459  27.629  28.213  1.00  0.00    -0.354 N 
ATOM     47  C   UNL A   1      45.151  31.565  28.737  1.00  0.00     0.074 A 
ATOM     48  C   UNL A   1      44.202  32.461  29.368  1.00  0.00     0.031 C 
ATOM     49  C   UNL A   1      41.910  26.029  28.430  1.00  0.00     0.029 A 
ATOM     50  C   UNL A   1      43.235  26.312  27.886  1.00  0.00     0.049 A 
ATOM     51  H   UNL A   1      44.279  28.113  27.968  1.00  0.00     0.167 HD
ATOM     52  C   UNL A   1      46.398  31.915  28.339  1.00  0.00     0.037 A 
ATOM     53  C   UNL A   1      44.009  25.429  27.227  1.00  0.00     0.037 A 
ATOM     54  C   UNL A   1      47.326  31.017  27.696  1.00  0.00     0.049 A 
ATOM     55  C   UNL A   1      45.373  25.853  26.758  1.00  0.00     0.074 A 
ATOM     56  C   UNL A   1      48.626  31.271  27.291  1.00  0.00     0.029 A 
ATOM     57  N   UNL A   1      47.052  29.703  27.345  1.00  0.00    -0.354 N 
ATOM     58  N   UNL A   1      45.972  27.009  26.912  1.00  0.00    -0.248 NA
ATOM     59  C   UNL A   1      46.168  24.856  26.031  1.00  0.00     0.031 C 
ATOM     60  C   UNL A   1      49.116  30.131  26.645  1.00  0.00     0.029 A 
ATOM     61  C   UNL A   1      48.145  29.143  26.700  1.00  0.00     0.049 A 
ATOM     62  H   UNL A   1      46.205  29.234  27.528  1.00  0.00     0.167 HD
ATOM     63  C   UNL A   1      47.222  26.874  26.317  1.00  0.00     0.074 A 
ATOM     64  C   UNL A   1      47.298  25.516  25.816  1.00  0.00     0.031 C 
ATOM     65  C   UNL A   1      48.212  27.793  26.197  1.00  0.00     0.037 A 
BRANCH  52  66
ATOM     66  C   UNL A   1      46.845  33.331  28.593  1.00  0.00     0.058 A 
ATOM     67  C   UNL A   1      47.511  33.689  29.777  1.00  0.00     0.135 A 
ATOM     68  C   UNL A   1      46.668  34.327  27.617  1.00  0.00     0.135 A 
ATOM     69  F   UNL A   1      47.702  32.779  30.746  1.00  0.00    -0.206 F 
ATOM     70  C   UNL A   1      47.963  34.986  29.994  1.00  0.00     0.059 A 
ATOM     71  C   UNL A   1      47.138  35.625  27.802  1.00  0.00     0.059 A 
ATOM     72  F   UNL A   1      46.043  34.040  26.465  1.00  0.00    -0.206 F 
ATOM     73  C   UNL A   1      47.773  35.948  29.000  1.00  0.00     0.060 A 
BRANCH  73  74
ATOM     74  S   UNL A   1      48.371  37.624  29.302  1.00  0.00     0.124 S 
ATOM     75  O   UNL A   1      49.777  37.503  28.930  1.00  0.00    -0.237 OA
ATOM     76  O   UNL A   1      47.542  38.416  28.400  1.00  0.00    -0.237 OA
ATOM     77  O   UNL A   1      48.116  37.826  30.725  1.00  0.00    -0.744 OA
ENDBRANCH  73  74
ENDBRANCH  52  66
BRANCH  53  78
ATOM     78  C   UNL A   1      43.516  24.042  27.012  1.00  0.00     0.058 A 
ATOM     79  C   UNL A   1      42.921  23.669  25.799  1.00  0.00     0.135 A 
ATOM     80  C   UNL A   1      43.677  23.052  27.995  1.00  0.00     0.135 A 
ATOM     81  F   UNL A   1      42.739  24.580  24.832  1.00  0.00    -0.206 F 
ATOM     82  C   UNL A   1      42.502  22.363  25.566  1.00  0.00     0.059 A 
ATOM     83  C   UNL A   1      43.291  21.733  27.774  1.00  0.00     0.059 A 
ATOM     84  F   UNL A   1      44.255  23.356  29.168  1.00  0.00    -0.206 F 
ATOM     85  C   UNL A   1      42.702  21.400  26.556  1.00  0.00     0.060 A 
BRANCH  85  86
ATOM     86  S   UNL A   1      42.222  19.695  26.209  1.00  0.00     0.124 S 
ATOM     87  O   UNL A   1      42.022  19.164  27.553  1.00  0.00    -0.237 OA
ATOM     88  O   UNL A   1      41.015  19.877  25.408  1.00  0.00    -0.237 OA
ATOM     89  O   UNL A   1      43.371  19.161  25.485  1.00  0.00    -0.744 OA
ENDBRANCH  85  86
ENDBRANCH  53  78
BRANCH  65  90
ATOM     90  C   UNL A   1      49.478  27.368  25.499  1.00  0.00     0.058 A 
ATOM     91  C   UNL A   1      49.630  27.493  24.109  1.00  0.00     0.135 A 
ATOM     92  C   UNL A   1      50.579  26.901  26.238  1.00  0.00     0.135 A 
ATOM     93  F   UNL A   1      48.609  27.926  23.355  1.00  0.00    -0.206 F 
ATOM     94  C   UNL A   1      50.822  27.158  23.475  1.00  0.00     0.059 A 
ATOM     95  C   UNL A   1      51.790  26.588  25.628  1.00  0.00     0.059 A 
ATOM     96  F   UNL A   1      50.492  26.769  27.570  1.00  0.00    -0.206 F 
ATOM     97  C   UNL A   1      51.899  26.714  24.244  1.00  0.00     0.060 A 
BRANCH  97  98
ATOM     98  S   UNL A   1      53.453  26.329  23.408  1.00  0.00     0.124 S 
ATOM     99  O   UNL A   1      53.972  25.244  24.235  1.00  0.00    -0.237 OA
ATOM    100  O   UNL A   1      53.001  25.947  22.074  1.00  0.00    -0.237 OA
ATOM    101  O   UNL A   1      54.199  27.582  23.478  1.00  0.00    -0.744 OA
ENDBRANCH  97  98
ENDBRANCH  65  90
ENDBRANCH  39  40
ENDBRANCH  32  34
ENDBRANCH  31  32
ENDBRANCH  30  31
ENDBRANCH  29  30
ENDBRANCH   1  29
TORSDOF 20
ENDMDL
