MODEL 1
REMARK VINA RESULT:      -9.8      0.000      0.000
REMARK SMILES [NH3+]CC[C@@H](C(=O)OCCOCCOC(=O)c1ccc(-c2c3nc(c(-c4c(F)cc(S(=O)(=O)[O-])cc4F)c4ccc([nH]4)c(-c4c(F)cc(S(=O)(=O)[O-])cc4F)c4nc(c(-c5c(F)cc(S(=O)(=O)[O-])cc5F)c5ccc2[nH]5)C=C4)C=C3)cc1)c1ccc(F)cc1
REMARK SMILES IDX 10 1 9 2 8 3 7 4 5 5 6 6 4 7 3 8 2 9 1 10 82 14 83 15 88 16
REMARK SMILES IDX 84 17 87 18 85 19 86 20 11 21 12 22 13 23 14 24 15 25 16 26
REMARK SMILES IDX 17 27 81 28 18 29 80 30 19 31 20 32 21 33 74 34 22 35 79 36
REMARK SMILES IDX 73 37 75 38 23 39 78 40 72 41 71 42 24 44 58 45 37 46 57 47
REMARK SMILES IDX 38 48 41 49 56 50 76 51 39 52 40 53 55 55 77 56 42 57 25 58
REMARK SMILES IDX 26 59 35 60 27 61 28 62 34 63 36 64 29 65 30 66 31 67 32 68
REMARK SMILES IDX 33 69 59 70 60 71 69 72 61 73 62 74 68 75 70 76 63 77 64 78
REMARK SMILES IDX 65 79 66 80 67 81 43 82 44 83 53 84 45 85 46 86 52 87 54 88
REMARK SMILES IDX 47 89 48 90 49 91 50 92 51 93
REMARK H PARENT 1 11 1 12 1 13 75 43 41 54
REMARK Flexibility Score: inf
ROOT
ATOM      1  O   UNL A   1      37.558  22.059  24.229  1.00  0.00    -0.374 OA
ENDROOT
BRANCH   1   2
ATOM      2  C   UNL A   1      36.449  22.961  24.213  1.00  0.00     0.202 C 
BRANCH   2   3
ATOM      3  C   UNL A   1      35.985  23.483  25.574  1.00  0.00     0.261 C 
BRANCH   3   4
ATOM      4  O   UNL A   1      34.575  23.261  25.718  1.00  0.00    -0.463 OA
BRANCH   4   5
ATOM      5  C   UNL A   1      34.196  22.004  26.051  1.00  0.00     0.313 C 
ATOM      6  O   UNL A   1      34.493  21.457  27.109  1.00  0.00    -0.252 OA
BRANCH   5   7
ATOM      7  C   UNL A   1      33.279  21.359  24.997  1.00  0.00     0.135 C 
BRANCH   7   8
ATOM      8  C   UNL A   1      31.776  21.725  25.123  1.00  0.00     0.081 C 
BRANCH   8   9
ATOM      9  C   UNL A   1      31.317  22.541  26.335  1.00  0.00     0.260 C 
BRANCH   9  10
ATOM     10  N   UNL A   1      29.890  22.489  26.580  1.00  0.00    -0.358 N 
ATOM     11  H   UNL A   1      29.516  23.437  26.609  1.00  0.00     0.344 HD
ATOM     12  H   UNL A   1      29.716  22.028  27.473  1.00  0.00     0.344 HD
ATOM     13  H   UNL A   1      29.435  21.965  25.833  1.00  0.00     0.344 HD
ENDBRANCH   9  10
ENDBRANCH   8   9
ENDBRANCH   7   8
BRANCH   7  14
ATOM     14  C   UNL A   1      33.528  19.832  24.901  1.00  0.00    -0.033 A 
ATOM     15  C   UNL A   1      34.777  19.277  24.560  1.00  0.00     0.007 A 
ATOM     16  C   UNL A   1      32.478  18.934  25.181  1.00  0.00     0.007 A 
ATOM     17  C   UNL A   1      34.956  17.891  24.464  1.00  0.00     0.039 A 
ATOM     18  C   UNL A   1      32.653  17.549  25.075  1.00  0.00     0.039 A 
ATOM     19  C   UNL A   1      33.891  17.041  24.712  1.00  0.00     0.123 A 
ATOM     20  F   UNL A   1      34.061  15.716  24.606  1.00  0.00    -0.207 F 
ENDBRANCH   7  14
ENDBRANCH   5   7
ENDBRANCH   4   5
ENDBRANCH   3   4
ENDBRANCH   2   3
ENDBRANCH   1   2
BRANCH   1  21
ATOM     21  C   UNL A   1      37.889  21.430  25.467  1.00  0.00     0.202 C 
BRANCH  21  22
ATOM     22  C   UNL A   1      39.300  21.666  26.023  1.00  0.00     0.261 C 
BRANCH  22  23
ATOM     23  O   UNL A   1      39.816  20.539  26.754  1.00  0.00    -0.460 OA
BRANCH  23  24
ATOM     24  C   UNL A   1      41.064  20.155  26.391  1.00  0.00     0.338 C 
ATOM     25  O   UNL A   1      41.374  19.121  25.808  1.00  0.00    -0.246 OA
BRANCH  24  26
ATOM     26  C   UNL A   1      42.029  21.244  26.619  1.00  0.00     0.060 A 
ATOM     27  C   UNL A   1      42.302  21.606  27.946  1.00  0.00     0.016 A 
ATOM     28  C   UNL A   1      42.584  21.963  25.559  1.00  0.00     0.016 A 
ATOM     29  C   UNL A   1      43.090  22.722  28.221  1.00  0.00     0.010 A 
ATOM     30  C   UNL A   1      43.364  23.090  25.837  1.00  0.00     0.010 A 
ATOM     31  C   UNL A   1      43.586  23.497  27.166  1.00  0.00    -0.014 A 
BRANCH  31  32
ATOM     32  C   UNL A   1      44.174  24.831  27.440  1.00  0.00     0.031 A 
ATOM     33  C   UNL A   1      43.262  25.939  27.887  1.00  0.00     0.074 A 
ATOM     34  C   UNL A   1      45.491  25.056  27.290  1.00  0.00     0.049 A 
ATOM     35  N   UNL A   1      43.521  27.207  28.070  1.00  0.00    -0.248 NA
ATOM     36  C   UNL A   1      41.864  25.565  28.156  1.00  0.00     0.031 C 
ATOM     37  C   UNL A   1      46.482  24.050  26.914  1.00  0.00     0.029 A 
ATOM     38  N   UNL A   1      46.215  26.215  27.419  1.00  0.00    -0.354 N 
ATOM     39  C   UNL A   1      42.316  27.787  28.453  1.00  0.00     0.074 A 
ATOM     40  C   UNL A   1      41.323  26.734  28.458  1.00  0.00     0.031 C 
ATOM     41  C   UNL A   1      47.685  24.642  26.816  1.00  0.00     0.029 A 
ATOM     42  C   UNL A   1      47.540  26.073  27.082  1.00  0.00     0.049 A 
ATOM     43  H   UNL A   1      45.824  27.065  27.723  1.00  0.00     0.167 HD
ATOM     44  C   UNL A   1      42.063  29.079  28.771  1.00  0.00     0.037 A 
ATOM     45  C   UNL A   1      48.514  26.998  26.968  1.00  0.00     0.037 A 
ATOM     46  C   UNL A   1      43.059  30.118  28.762  1.00  0.00     0.049 A 
ATOM     47  C   UNL A   1      48.201  28.441  27.267  1.00  0.00     0.074 A 
ATOM     48  C   UNL A   1      42.909  31.456  29.080  1.00  0.00     0.029 A 
ATOM     49  N   UNL A   1      44.389  29.935  28.412  1.00  0.00    -0.354 N 
ATOM     50  N   UNL A   1      47.062  28.979  27.632  1.00  0.00    -0.248 NA
ATOM     51  C   UNL A   1      49.305  29.404  27.140  1.00  0.00     0.031 C 
ATOM     52  C   UNL A   1      44.138  32.092  28.874  1.00  0.00     0.029 A 
ATOM     53  C   UNL A   1      45.067  31.140  28.484  1.00  0.00     0.049 A 
ATOM     54  H   UNL A   1      44.791  29.076  28.149  1.00  0.00     0.167 HD
ATOM     55  C   UNL A   1      47.318  30.335  27.811  1.00  0.00     0.074 A 
ATOM     56  C   UNL A   1      48.721  30.536  27.511  1.00  0.00     0.031 C 
ATOM     57  C   UNL A   1      46.470  31.321  28.197  1.00  0.00     0.037 A 
BRANCH  44  58
ATOM     58  C   UNL A   1      40.643  29.441  29.107  1.00  0.00     0.058 A 
ATOM     59  C   UNL A   1      39.656  29.581  28.119  1.00  0.00     0.135 A 
ATOM     60  C   UNL A   1      40.265  29.657  30.443  1.00  0.00     0.135 A 
ATOM     61  F   UNL A   1      39.966  29.404  26.824  1.00  0.00    -0.206 F 
ATOM     62  C   UNL A   1      38.356  29.961  28.438  1.00  0.00     0.059 A 
ATOM     63  C   UNL A   1      38.963  30.009  30.788  1.00  0.00     0.059 A 
ATOM     64  F   UNL A   1      41.168  29.536  31.429  1.00  0.00    -0.206 F 
ATOM     65  C   UNL A   1      38.022  30.181  29.775  1.00  0.00     0.060 A 
BRANCH  65  66
ATOM     66  S   UNL A   1      36.340  30.703  30.173  1.00  0.00     0.124 S 
ATOM     67  O   UNL A   1      35.660  30.482  28.900  1.00  0.00    -0.237 OA
ATOM     68  O   UNL A   1      35.976  29.792  31.252  1.00  0.00    -0.237 OA
ATOM     69  O   UNL A   1      36.501  32.100  30.564  1.00  0.00    -0.744 OA
ENDBRANCH  65  66
ENDBRANCH  44  58
BRANCH  45  70
ATOM     70  C   UNL A   1      49.873  26.579  26.535  1.00  0.00     0.058 A 
ATOM     71  C   UNL A   1      50.812  26.099  27.459  1.00  0.00     0.135 A 
ATOM     72  C   UNL A   1      50.245  26.612  25.182  1.00  0.00     0.135 A 
ATOM     73  F   UNL A   1      50.508  26.060  28.766  1.00  0.00    -0.206 F 
ATOM     74  C   UNL A   1      52.070  25.662  27.058  1.00  0.00     0.059 A 
ATOM     75  C   UNL A   1      51.488  26.158  24.753  1.00  0.00     0.059 A 
ATOM     76  F   UNL A   1      49.380  27.057  24.257  1.00  0.00    -0.206 F 
ATOM     77  C   UNL A   1      52.395  25.686  25.700  1.00  0.00     0.060 A 
BRANCH  77  78
ATOM     78  S   UNL A   1      53.999  25.036  25.182  1.00  0.00     0.124 S 
ATOM     79  O   UNL A   1      54.802  25.240  26.381  1.00  0.00    -0.237 OA
ATOM     80  O   UNL A   1      53.675  23.650  24.858  1.00  0.00    -0.237 OA
ATOM     81  O   UNL A   1      54.347  25.874  24.038  1.00  0.00    -0.744 OA
ENDBRANCH  77  78
ENDBRANCH  45  70
BRANCH  57  82
ATOM     82  C   UNL A   1      47.035  32.704  28.375  1.00  0.00     0.058 A 
ATOM     83  C   UNL A   1      47.005  33.657  27.346  1.00  0.00     0.135 A 
ATOM     84  C   UNL A   1      47.532  33.105  29.626  1.00  0.00     0.135 A 
ATOM     85  F   UNL A   1      46.545  33.323  26.129  1.00  0.00    -0.206 F 
ATOM     86  C   UNL A   1      47.455  34.958  27.548  1.00  0.00     0.059 A 
ATOM     87  C   UNL A   1      47.965  34.407  29.858  1.00  0.00     0.059 A 
ATOM     88  F   UNL A   1      47.575  32.235  30.648  1.00  0.00    -0.206 F 
ATOM     89  C   UNL A   1      47.928  35.326  28.811  1.00  0.00     0.060 A 
BRANCH  89  90
ATOM     90  S   UNL A   1      48.452  37.033  29.078  1.00  0.00     0.124 S 
ATOM     91  O   UNL A   1      48.808  37.014  30.492  1.00  0.00    -0.237 OA
ATOM     92  O   UNL A   1      49.567  37.166  28.145  1.00  0.00    -0.237 OA
ATOM     93  O   UNL A   1      47.265  37.811  28.738  1.00  0.00    -0.744 OA
ENDBRANCH  89  90
ENDBRANCH  57  82
ENDBRANCH  31  32
ENDBRANCH  24  26
ENDBRANCH  23  24
ENDBRANCH  22  23
ENDBRANCH  21  22
ENDBRANCH   1  21
TORSDOF 21
ENDMDL
MODEL 2
REMARK VINA RESULT:      -9.7      6.124     10.847
REMARK SMILES [NH3+]CC[C@@H](C(=O)OCCOCCOC(=O)c1ccc(-c2c3nc(c(-c4c(F)cc(S(=O)(=O)[O-])cc4F)c4ccc([nH]4)c(-c4c(F)cc(S(=O)(=O)[O-])cc4F)c4nc(c(-c5c(F)cc(S(=O)(=O)[O-])cc5F)c5ccc2[nH]5)C=C4)C=C3)cc1)c1ccc(F)cc1
REMARK SMILES IDX 10 1 9 2 8 3 7 4 5 5 6 6 4 7 3 8 2 9 1 10 82 14 83 15 88 16
REMARK SMILES IDX 84 17 87 18 85 19 86 20 11 21 12 22 13 23 14 24 15 25 16 26
REMARK SMILES IDX 17 27 81 28 18 29 80 30 19 31 20 32 21 33 74 34 22 35 79 36
REMARK SMILES IDX 73 37 75 38 23 39 78 40 72 41 71 42 24 44 58 45 37 46 57 47
REMARK SMILES IDX 38 48 41 49 56 50 76 51 39 52 40 53 55 55 77 56 42 57 25 58
REMARK SMILES IDX 26 59 35 60 27 61 28 62 34 63 36 64 29 65 30 66 31 67 32 68
REMARK SMILES IDX 33 69 59 70 60 71 69 72 61 73 62 74 68 75 70 76 63 77 64 78
REMARK SMILES IDX 65 79 66 80 67 81 43 82 44 83 53 84 45 85 46 86 52 87 54 88
REMARK SMILES IDX 47 89 48 90 49 91 50 92 51 93
REMARK H PARENT 1 11 1 12 1 13 75 43 41 54
REMARK Flexibility Score: inf
ROOT
ATOM      1  O   UNL A   1      39.126  21.535  25.579  1.00  0.00    -0.374 OA
ENDROOT
BRANCH   1   2
ATOM      2  C   UNL A   1      37.831  20.935  25.669  1.00  0.00     0.202 C 
BRANCH   2   3
ATOM      3  C   UNL A   1      36.639  21.882  25.530  1.00  0.00     0.261 C 
BRANCH   3   4
ATOM      4  O   UNL A   1      35.636  21.274  24.702  1.00  0.00    -0.463 OA
BRANCH   4   5
ATOM      5  C   UNL A   1      34.508  20.863  25.330  1.00  0.00     0.313 C 
ATOM      6  O   UNL A   1      34.289  21.034  26.525  1.00  0.00    -0.252 OA
BRANCH   5   7
ATOM      7  C   UNL A   1      33.487  20.232  24.367  1.00  0.00     0.135 C 
BRANCH   7   8
ATOM      8  C   UNL A   1      32.092  20.912  24.353  1.00  0.00     0.081 C 
BRANCH   8   9
ATOM      9  C   UNL A   1      32.016  22.434  24.198  1.00  0.00     0.260 C 
BRANCH   9  10
ATOM     10  N   UNL A   1      30.986  23.062  25.000  1.00  0.00    -0.358 N 
ATOM     11  H   UNL A   1      30.093  23.004  24.513  1.00  0.00     0.344 HD
ATOM     12  H   UNL A   1      31.226  24.042  25.154  1.00  0.00     0.344 HD
ATOM     13  H   UNL A   1      30.916  22.585  25.899  1.00  0.00     0.344 HD
ENDBRANCH   9  10
ENDBRANCH   8   9
ENDBRANCH   7   8
BRANCH   7  14
ATOM     14  C   UNL A   1      33.414  18.696  24.561  1.00  0.00    -0.033 A 
ATOM     15  C   UNL A   1      34.048  17.781  23.697  1.00  0.00     0.007 A 
ATOM     16  C   UNL A   1      32.703  18.163  25.656  1.00  0.00     0.007 A 
ATOM     17  C   UNL A   1      33.940  16.399  23.895  1.00  0.00     0.039 A 
ATOM     18  C   UNL A   1      32.586  16.782  25.848  1.00  0.00     0.039 A 
ATOM     19  C   UNL A   1      33.202  15.912  24.963  1.00  0.00     0.123 A 
ATOM     20  F   UNL A   1      33.090  14.589  25.142  1.00  0.00    -0.207 F 
ENDBRANCH   7  14
ENDBRANCH   5   7
ENDBRANCH   4   5
ENDBRANCH   3   4
ENDBRANCH   2   3
ENDBRANCH   1   2
BRANCH   1  21
ATOM     21  C   UNL A   1      40.120  21.120  26.517  1.00  0.00     0.202 C 
BRANCH  21  22
ATOM     22  C   UNL A   1      41.319  22.054  26.731  1.00  0.00     0.261 C 
BRANCH  22  23
ATOM     23  O   UNL A   1      41.042  23.421  26.374  1.00  0.00    -0.460 OA
BRANCH  23  24
ATOM     24  C   UNL A   1      42.064  24.281  26.602  1.00  0.00     0.338 C 
ATOM     25  O   UNL A   1      43.185  24.239  26.104  1.00  0.00    -0.246 OA
BRANCH  24  26
ATOM     26  C   UNL A   1      41.608  25.427  27.408  1.00  0.00     0.060 A 
ATOM     27  C   UNL A   1      42.311  26.633  27.280  1.00  0.00     0.016 A 
ATOM     28  C   UNL A   1      40.577  25.301  28.340  1.00  0.00     0.016 A 
ATOM     29  C   UNL A   1      42.022  27.706  28.122  1.00  0.00     0.010 A 
ATOM     30  C   UNL A   1      40.296  26.375  29.191  1.00  0.00     0.010 A 
ATOM     31  C   UNL A   1      41.044  27.564  29.114  1.00  0.00    -0.014 A 
BRANCH  31  32
ATOM     32  C   UNL A   1      40.927  28.580  30.188  1.00  0.00     0.031 A 
ATOM     33  C   UNL A   1      41.836  28.471  31.381  1.00  0.00     0.074 A 
ATOM     34  C   UNL A   1      40.028  29.577  30.110  1.00  0.00     0.049 A 
ATOM     35  N   UNL A   1      41.840  29.163  32.490  1.00  0.00    -0.248 NA
ATOM     36  C   UNL A   1      42.878  27.434  31.313  1.00  0.00     0.031 C 
ATOM     37  C   UNL A   1      39.131  29.818  28.982  1.00  0.00     0.029 A 
ATOM     38  N   UNL A   1      39.712  30.562  31.012  1.00  0.00    -0.354 N 
ATOM     39  C   UNL A   1      42.866  28.631  33.263  1.00  0.00     0.074 A 
ATOM     40  C   UNL A   1      43.450  27.547  32.501  1.00  0.00     0.031 C 
ATOM     41  C   UNL A   1      38.343  30.869  29.272  1.00  0.00     0.029 A 
ATOM     42  C   UNL A   1      38.655  31.347  30.618  1.00  0.00     0.049 A 
ATOM     43  H   UNL A   1      40.195  30.694  31.859  1.00  0.00     0.167 HD
ATOM     44  C   UNL A   1      43.282  29.012  34.494  1.00  0.00     0.037 A 
ATOM     45  C   UNL A   1      37.994  32.315  31.283  1.00  0.00     0.037 A 
ATOM     46  C   UNL A   1      42.694  30.091  35.241  1.00  0.00     0.049 A 
ATOM     47  C   UNL A   1      38.431  32.687  32.676  1.00  0.00     0.074 A 
ATOM     48  C   UNL A   1      43.049  30.567  36.492  1.00  0.00     0.029 A 
ATOM     49  N   UNL A   1      41.622  30.860  34.810  1.00  0.00    -0.354 N 
ATOM     50  N   UNL A   1      39.403  32.182  33.396  1.00  0.00    -0.248 NA
ATOM     51  C   UNL A   1      37.683  33.759  33.347  1.00  0.00     0.031 C 
ATOM     52  C   UNL A   1      42.160  31.591  36.836  1.00  0.00     0.029 A 
ATOM     53  C   UNL A   1      41.288  31.793  35.777  1.00  0.00     0.049 A 
ATOM     54  H   UNL A   1      41.166  30.758  33.943  1.00  0.00     0.167 HD
ATOM     55  C   UNL A   1      39.406  32.896  34.590  1.00  0.00     0.074 A 
ATOM     56  C   UNL A   1      38.336  33.867  34.497  1.00  0.00     0.031 C 
ATOM     57  C   UNL A   1      40.228  32.765  35.663  1.00  0.00     0.037 A 
BRANCH  44  58
ATOM     58  C   UNL A   1      44.397  28.222  35.121  1.00  0.00     0.058 A 
ATOM     59  C   UNL A   1      45.746  28.578  34.959  1.00  0.00     0.135 A 
ATOM     60  C   UNL A   1      44.111  27.084  35.894  1.00  0.00     0.135 A 
ATOM     61  F   UNL A   1      46.077  29.646  34.215  1.00  0.00    -0.206 F 
ATOM     62  C   UNL A   1      46.771  27.813  35.505  1.00  0.00     0.059 A 
ATOM     63  C   UNL A   1      45.119  26.320  36.474  1.00  0.00     0.059 A 
ATOM     64  F   UNL A   1      42.839  26.698  36.082  1.00  0.00    -0.206 F 
ATOM     65  C   UNL A   1      46.447  26.681  36.255  1.00  0.00     0.060 A 
BRANCH  65  66
ATOM     66  S   UNL A   1      47.787  25.679  36.933  1.00  0.00     0.124 S 
ATOM     67  O   UNL A   1      47.049  24.548  37.488  1.00  0.00    -0.237 OA
ATOM     68  O   UNL A   1      48.592  25.391  35.751  1.00  0.00    -0.237 OA
ATOM     69  O   UNL A   1      48.411  26.563  37.912  1.00  0.00    -0.744 OA
ENDBRANCH  65  66
ENDBRANCH  44  58
BRANCH  45  70
ATOM     70  C   UNL A   1      36.837  32.987  30.635  1.00  0.00     0.058 A 
ATOM     71  C   UNL A   1      35.521  32.581  30.901  1.00  0.00     0.135 A 
ATOM     72  C   UNL A   1      37.022  34.077  29.769  1.00  0.00     0.135 A 
ATOM     73  F   UNL A   1      35.293  31.537  31.712  1.00  0.00    -0.206 F 
ATOM     74  C   UNL A   1      34.430  33.233  30.336  1.00  0.00     0.059 A 
ATOM     75  C   UNL A   1      35.947  34.760  29.210  1.00  0.00     0.059 A 
ATOM     76  F   UNL A   1      38.262  34.509  29.488  1.00  0.00    -0.206 F 
ATOM     77  C   UNL A   1      34.653  34.328  29.499  1.00  0.00     0.060 A 
BRANCH  77  78
ATOM     78  S   UNL A   1      33.226  35.219  28.839  1.00  0.00     0.124 S 
ATOM     79  O   UNL A   1      33.868  36.297  28.098  1.00  0.00    -0.237 OA
ATOM     80  O   UNL A   1      32.572  34.191  28.034  1.00  0.00    -0.237 OA
ATOM     81  O   UNL A   1      32.497  35.622  30.038  1.00  0.00    -0.744 OA
ENDBRANCH  77  78
ENDBRANCH  45  70
BRANCH  57  82
ATOM     82  C   UNL A   1      40.048  33.723  36.807  1.00  0.00     0.058 A 
ATOM     83  C   UNL A   1      40.822  34.888  36.931  1.00  0.00     0.135 A 
ATOM     84  C   UNL A   1      39.022  33.515  37.744  1.00  0.00     0.135 A 
ATOM     85  F   UNL A   1      41.819  35.131  36.065  1.00  0.00    -0.206 F 
ATOM     86  C   UNL A   1      40.590  35.808  37.948  1.00  0.00     0.059 A 
ATOM     87  C   UNL A   1      38.757  34.434  38.754  1.00  0.00     0.059 A 
ATOM     88  F   UNL A   1      38.246  32.422  37.666  1.00  0.00    -0.206 F 
ATOM     89  C   UNL A   1      39.550  35.576  38.853  1.00  0.00     0.060 A 
BRANCH  89  90
ATOM     90  S   UNL A   1      39.221  36.807  40.131  1.00  0.00     0.124 S 
ATOM     91  O   UNL A   1      38.541  37.849  39.369  1.00  0.00    -0.237 OA
ATOM     92  O   UNL A   1      38.388  36.065  41.072  1.00  0.00    -0.237 OA
ATOM     93  O   UNL A   1      40.551  37.153  40.621  1.00  0.00    -0.744 OA
ENDBRANCH  89  90
ENDBRANCH  57  82
ENDBRANCH  31  32
ENDBRANCH  24  26
ENDBRANCH  23  24
ENDBRANCH  22  23
ENDBRANCH  21  22
ENDBRANCH   1  21
TORSDOF 21
ENDMDL
MODEL 3
REMARK VINA RESULT:      -9.7      3.439      7.880
REMARK SMILES [NH3+]CC[C@@H](C(=O)OCCOCCOC(=O)c1ccc(-c2c3nc(c(-c4c(F)cc(S(=O)(=O)[O-])cc4F)c4ccc([nH]4)c(-c4c(F)cc(S(=O)(=O)[O-])cc4F)c4nc(c(-c5c(F)cc(S(=O)(=O)[O-])cc5F)c5ccc2[nH]5)C=C4)C=C3)cc1)c1ccc(F)cc1
REMARK SMILES IDX 10 1 9 2 8 3 7 4 5 5 6 6 4 7 3 8 2 9 1 10 82 14 83 15 88 16
REMARK SMILES IDX 84 17 87 18 85 19 86 20 11 21 12 22 13 23 14 24 15 25 16 26
REMARK SMILES IDX 17 27 81 28 18 29 80 30 19 31 20 32 21 33 74 34 22 35 79 36
REMARK SMILES IDX 73 37 75 38 23 39 78 40 72 41 71 42 24 44 58 45 37 46 57 47
REMARK SMILES IDX 38 48 41 49 56 50 76 51 39 52 40 53 55 55 77 56 42 57 25 58
REMARK SMILES IDX 26 59 35 60 27 61 28 62 34 63 36 64 29 65 30 66 31 67 32 68
REMARK SMILES IDX 33 69 59 70 60 71 69 72 61 73 62 74 68 75 70 76 63 77 64 78
REMARK SMILES IDX 65 79 66 80 67 81 43 82 44 83 53 84 45 85 46 86 52 87 54 88
REMARK SMILES IDX 47 89 48 90 49 91 50 92 51 93
REMARK H PARENT 1 11 1 12 1 13 75 43 41 54
REMARK Flexibility Score: inf
ROOT
ATOM      1  O   UNL A   1      32.422  29.593  24.667  1.00  0.00    -0.374 OA
ENDROOT
BRANCH   1   2
ATOM      2  C   UNL A   1      32.538  28.307  24.051  1.00  0.00     0.202 C 
BRANCH   2   3
ATOM      3  C   UNL A   1      32.550  27.106  24.997  1.00  0.00     0.261 C 
BRANCH   3   4
ATOM      4  O   UNL A   1      33.826  26.453  24.931  1.00  0.00    -0.463 OA
BRANCH   4   5
ATOM      5  C   UNL A   1      33.819  25.106  25.070  1.00  0.00     0.313 C 
ATOM      6  O   UNL A   1      33.442  24.524  26.082  1.00  0.00    -0.252 OA
BRANCH   5   7
ATOM      7  C   UNL A   1      34.256  24.373  23.789  1.00  0.00     0.135 C 
BRANCH   7   8
ATOM      8  C   UNL A   1      33.124  24.125  22.757  1.00  0.00     0.081 C 
BRANCH   8   9
ATOM      9  C   UNL A   1      31.669  24.184  23.232  1.00  0.00     0.260 C 
BRANCH   9  10
ATOM     10  N   UNL A   1      31.308  23.141  24.170  1.00  0.00    -0.358 N 
ATOM     11  H   UNL A   1      30.436  22.704  23.873  1.00  0.00     0.344 HD
ATOM     12  H   UNL A   1      31.185  23.546  25.098  1.00  0.00     0.344 HD
ATOM     13  H   UNL A   1      32.047  22.439  24.201  1.00  0.00     0.344 HD
ENDBRANCH   9  10
ENDBRANCH   8   9
ENDBRANCH   7   8
BRANCH   7  14
ATOM     14  C   UNL A   1      35.063  23.094  24.127  1.00  0.00    -0.033 A 
ATOM     15  C   UNL A   1      34.461  21.899  24.569  1.00  0.00     0.007 A 
ATOM     16  C   UNL A   1      36.465  23.092  23.977  1.00  0.00     0.007 A 
ATOM     17  C   UNL A   1      35.228  20.771  24.886  1.00  0.00     0.039 A 
ATOM     18  C   UNL A   1      37.233  21.969  24.303  1.00  0.00     0.039 A 
ATOM     19  C   UNL A   1      36.607  20.819  24.760  1.00  0.00     0.123 A 
ATOM     20  F   UNL A   1      37.340  19.743  25.076  1.00  0.00    -0.207 F 
ENDBRANCH   7  14
ENDBRANCH   5   7
ENDBRANCH   4   5
ENDBRANCH   3   4
ENDBRANCH   2   3
ENDBRANCH   1   2
BRANCH   1  21
ATOM     21  C   UNL A   1      33.325  29.909  25.727  1.00  0.00     0.202 C 
BRANCH  21  22
ATOM     22  C   UNL A   1      32.715  30.376  27.055  1.00  0.00     0.261 C 
BRANCH  22  23
ATOM     23  O   UNL A   1      33.559  30.109  28.190  1.00  0.00    -0.460 OA
BRANCH  23  24
ATOM     24  C   UNL A   1      34.605  30.960  28.329  1.00  0.00     0.338 C 
ATOM     25  O   UNL A   1      34.547  32.170  28.526  1.00  0.00    -0.246 OA
BRANCH  24  26
ATOM     26  C   UNL A   1      35.874  30.215  28.402  1.00  0.00     0.060 A 
ATOM     27  C   UNL A   1      36.251  29.693  29.647  1.00  0.00     0.016 A 
ATOM     28  C   UNL A   1      36.726  30.112  27.301  1.00  0.00     0.016 A 
ATOM     29  C   UNL A   1      37.507  29.110  29.811  1.00  0.00     0.010 A 
ATOM     30  C   UNL A   1      37.989  29.537  27.471  1.00  0.00     0.010 A 
ATOM     31  C   UNL A   1      38.400  29.072  28.734  1.00  0.00    -0.014 A 
BRANCH  31  32
ATOM     32  C   UNL A   1      39.823  28.723  28.964  1.00  0.00     0.031 A 
ATOM     33  C   UNL A   1      40.746  29.784  29.496  1.00  0.00     0.074 A 
ATOM     34  C   UNL A   1      40.289  27.489  28.702  1.00  0.00     0.049 A 
ATOM     35  N   UNL A   1      42.042  29.753  29.663  1.00  0.00    -0.248 NA
ATOM     36  C   UNL A   1      40.119  31.059  29.883  1.00  0.00     0.031 C 
ATOM     37  C   UNL A   1      39.482  26.364  28.236  1.00  0.00     0.029 A 
ATOM     38  N   UNL A   1      41.564  26.986  28.775  1.00  0.00    -0.354 N 
ATOM     39  C   UNL A   1      42.390  31.007  30.153  1.00  0.00     0.074 A 
ATOM     40  C   UNL A   1      41.170  31.781  30.237  1.00  0.00     0.031 C 
ATOM     41  C   UNL A   1      40.288  25.306  28.037  1.00  0.00     0.029 A 
ATOM     42  C   UNL A   1      41.669  25.693  28.324  1.00  0.00     0.049 A 
ATOM     43  H   UNL A   1      42.329  27.502  29.117  1.00  0.00     0.167 HD
ATOM     44  C   UNL A   1      43.615  31.469  30.499  1.00  0.00     0.037 A 
ATOM     45  C   UNL A   1      42.759  24.923  28.131  1.00  0.00     0.037 A 
ATOM     46  C   UNL A   1      44.821  30.690  30.410  1.00  0.00     0.049 A 
ATOM     47  C   UNL A   1      44.121  25.473  28.465  1.00  0.00     0.074 A 
ATOM     48  C   UNL A   1      46.111  31.059  30.747  1.00  0.00     0.029 A 
ATOM     49  N   UNL A   1      44.887  29.384  29.944  1.00  0.00    -0.354 N 
ATOM     50  N   UNL A   1      44.440  26.657  28.930  1.00  0.00    -0.248 NA
ATOM     51  C   UNL A   1      45.271  24.584  28.249  1.00  0.00     0.031 C 
ATOM     52  C   UNL A   1      46.964  29.993  30.440  1.00  0.00     0.029 A 
ATOM     53  C   UNL A   1      46.198  28.940  29.965  1.00  0.00     0.049 A 
ATOM     54  H   UNL A   1      44.115  28.852  29.643  1.00  0.00     0.167 HD
ATOM     55  C   UNL A   1      45.821  26.645  29.094  1.00  0.00     0.074 A 
ATOM     56  C   UNL A   1      46.279  25.336  28.675  1.00  0.00     0.031 C 
ATOM     57  C   UNL A   1      46.636  27.626  29.559  1.00  0.00     0.037 A 
BRANCH  44  58
ATOM     58  C   UNL A   1      43.708  32.897  30.959  1.00  0.00     0.058 A 
ATOM     59  C   UNL A   1      43.748  33.970  30.055  1.00  0.00     0.135 A 
ATOM     60  C   UNL A   1      43.764  33.197  32.331  1.00  0.00     0.135 A 
ATOM     61  F   UNL A   1      43.715  33.740  28.732  1.00  0.00    -0.206 F 
ATOM     62  C   UNL A   1      43.881  35.284  30.491  1.00  0.00     0.059 A 
ATOM     63  C   UNL A   1      43.868  34.506  32.790  1.00  0.00     0.059 A 
ATOM     64  F   UNL A   1      43.730  32.210  33.240  1.00  0.00    -0.206 F 
ATOM     65  C   UNL A   1      43.948  35.542  31.861  1.00  0.00     0.060 A 
BRANCH  65  66
ATOM     66  S   UNL A   1      44.151  37.248  32.413  1.00  0.00     0.124 S 
ATOM     67  O   UNL A   1      45.556  37.259  32.809  1.00  0.00    -0.237 OA
ATOM     68  O   UNL A   1      43.826  38.008  31.210  1.00  0.00    -0.237 OA
ATOM     69  O   UNL A   1      43.190  37.370  33.505  1.00  0.00    -0.744 OA
ENDBRANCH  65  66
ENDBRANCH  44  58
BRANCH  45  70
ATOM     70  C   UNL A   1      42.597  23.552  27.580  1.00  0.00     0.058 A 
ATOM     71  C   UNL A   1      42.734  23.303  26.206  1.00  0.00     0.135 A 
ATOM     72  C   UNL A   1      42.344  22.456  28.420  1.00  0.00     0.135 A 
ATOM     73  F   UNL A   1      42.964  24.319  25.360  1.00  0.00    -0.206 F 
ATOM     74  C   UNL A   1      42.630  22.017  25.686  1.00  0.00     0.059 A 
ATOM     75  C   UNL A   1      42.260  21.159  27.927  1.00  0.00     0.059 A 
ATOM     76  F   UNL A   1      42.212  22.641  29.744  1.00  0.00    -0.206 F 
ATOM     77  C   UNL A   1      42.403  20.949  26.556  1.00  0.00     0.060 A 
BRANCH  77  78
ATOM     78  S   UNL A   1      42.355  19.275  25.880  1.00  0.00     0.124 S 
ATOM     79  O   UNL A   1      42.961  18.503  26.958  1.00  0.00    -0.237 OA
ATOM     80  O   UNL A   1      40.923  19.071  25.675  1.00  0.00    -0.237 OA
ATOM     81  O   UNL A   1      43.145  19.383  24.657  1.00  0.00    -0.744 OA
ENDBRANCH  77  78
ENDBRANCH  45  70
BRANCH  57  82
ATOM     82  C   UNL A   1      48.101  27.317  29.696  1.00  0.00     0.058 A 
ATOM     83  C   UNL A   1      49.039  27.721  28.732  1.00  0.00     0.135 A 
ATOM     84  C   UNL A   1      48.582  26.685  30.854  1.00  0.00     0.135 A 
ATOM     85  F   UNL A   1      48.631  28.324  27.604  1.00  0.00    -0.206 F 
ATOM     86  C   UNL A   1      50.401  27.502  28.910  1.00  0.00     0.059 A 
ATOM     87  C   UNL A   1      49.941  26.477  31.063  1.00  0.00     0.059 A 
ATOM     88  F   UNL A   1      47.728  26.286  31.811  1.00  0.00    -0.206 F 
ATOM     89  C   UNL A   1      50.844  26.884  30.083  1.00  0.00     0.060 A 
BRANCH  89  90
ATOM     90  S   UNL A   1      52.619  26.660  30.329  1.00  0.00     0.124 S 
ATOM     91  O   UNL A   1      53.024  27.987  30.781  1.00  0.00    -0.237 OA
ATOM     92  O   UNL A   1      52.664  25.606  31.337  1.00  0.00    -0.237 OA
ATOM     93  O   UNL A   1      53.099  26.273  29.006  1.00  0.00    -0.744 OA
ENDBRANCH  89  90
ENDBRANCH  57  82
ENDBRANCH  31  32
ENDBRANCH  24  26
ENDBRANCH  23  24
ENDBRANCH  22  23
ENDBRANCH  21  22
ENDBRANCH   1  21
TORSDOF 21
ENDMDL
