MODEL 1
REMARK VINA RESULT:      -9.8      0.000      0.000
REMARK SMILES O=C(OCCOCCOC(=O)[C@H]1CC[C@@H]2CCCC[C@H]2[NH2+]1)c1ccc(-c2c3nc(c(-c4c(F)cc(S(=O)(=O)[O-])cc4F)c4ccc([nH]4)c(-c4c(F)cc(S(=O)(=O)[O-])cc4F)c4nc(c(-c5c(F)cc(S(=O)(=O)[O-])cc5F)c5ccc2[nH]5)C=C4)C=C3)cc1
REMARK SMILES IDX 4 1 3 2 2 3 1 4 22 5 23 6 87 7 24 8 86 9 25 10 26 11 27 12
REMARK SMILES IDX 80 13 28 14 85 15 79 16 81 17 29 18 84 19 78 20 77 21 30 23
REMARK SMILES IDX 64 24 43 25 63 26 44 27 47 28 62 29 82 30 45 31 46 32 61 34
REMARK SMILES IDX 83 35 48 36 31 37 32 38 41 39 33 40 34 41 40 42 42 43 35 44
REMARK SMILES IDX 36 45 37 46 38 47 39 48 65 49 66 50 75 51 67 52 68 53 74 54
REMARK SMILES IDX 76 55 69 56 70 57 71 58 72 59 73 60 49 61 50 62 59 63 51 64
REMARK SMILES IDX 52 65 58 66 60 67 53 68 54 69 55 70 56 71 57 72 5 73 6 74
REMARK SMILES IDX 7 75 8 76 9 77 10 78 11 79 12 80 13 81 21 82 14 83 20 84
REMARK SMILES IDX 15 87 19 88 16 89 18 90 17 91
REMARK H PARENT 81 22 47 33 21 85 21 86
REMARK Flexibility Score: inf
ROOT
ATOM      1  C   UNL A   1      34.885  31.588  28.683  1.00  0.00     0.261 C 
ENDROOT
BRANCH   1   2
ATOM      2  O   UNL A   1      35.687  31.767  29.860  1.00  0.00    -0.460 OA
BRANCH   2   3
ATOM      3  C   UNL A   1      36.452  30.831  30.477  1.00  0.00     0.338 C 
ATOM      4  O   UNL A   1      36.007  30.275  31.480  1.00  0.00    -0.246 OA
BRANCH   3   5
ATOM      5  C   UNL A   1      37.807  30.426  29.991  1.00  0.00     0.060 A 
ATOM      6  C   UNL A   1      38.852  30.030  30.823  1.00  0.00     0.016 A 
ATOM      7  C   UNL A   1      38.016  30.359  28.604  1.00  0.00     0.016 A 
ATOM      8  C   UNL A   1      40.081  29.649  30.324  1.00  0.00     0.010 A 
ATOM      9  C   UNL A   1      39.238  29.910  28.083  1.00  0.00     0.010 A 
ATOM     10  C   UNL A   1      40.277  29.558  28.952  1.00  0.00    -0.014 A 
BRANCH  10  11
ATOM     11  C   UNL A   1      41.620  29.148  28.509  1.00  0.00     0.031 A 
ATOM     12  C   UNL A   1      42.740  30.131  28.620  1.00  0.00     0.074 A 
ATOM     13  C   UNL A   1      41.835  27.850  28.219  1.00  0.00     0.049 A 
ATOM     14  N   UNL A   1      44.001  29.977  28.327  1.00  0.00    -0.248 NA
ATOM     15  C   UNL A   1      42.402  31.464  29.151  1.00  0.00     0.031 C 
ATOM     16  C   UNL A   1      40.802  26.805  28.223  1.00  0.00     0.029 A 
ATOM     17  N   UNL A   1      42.985  27.172  27.924  1.00  0.00    -0.354 N 
ATOM     18  C   UNL A   1      44.604  31.192  28.624  1.00  0.00     0.074 A 
ATOM     19  C   UNL A   1      43.572  32.081  29.104  1.00  0.00     0.031 C 
ATOM     20  C   UNL A   1      41.374  25.616  27.978  1.00  0.00     0.029 A 
ATOM     21  C   UNL A   1      42.793  25.824  27.722  1.00  0.00     0.049 A 
ATOM     22  H   UNL A   1      43.866  27.606  27.862  1.00  0.00     0.167 HD
ATOM     23  C   UNL A   1      45.910  31.522  28.502  1.00  0.00     0.037 A 
ATOM     24  C   UNL A   1      43.667  24.876  27.335  1.00  0.00     0.037 A 
ATOM     25  C   UNL A   1      46.907  30.607  28.017  1.00  0.00     0.049 A 
ATOM     26  C   UNL A   1      45.092  25.298  27.110  1.00  0.00     0.074 A 
ATOM     27  C   UNL A   1      48.243  30.840  27.751  1.00  0.00     0.029 A 
ATOM     28  N   UNL A   1      46.668  29.267  27.732  1.00  0.00    -0.354 N 
ATOM     29  N   UNL A   1      45.640  26.480  27.298  1.00  0.00    -0.248 NA
ATOM     30  C   UNL A   1      46.018  24.277  26.610  1.00  0.00     0.031 C 
ATOM     31  C   UNL A   1      48.802  29.651  27.270  1.00  0.00     0.029 A 
ATOM     32  C   UNL A   1      47.829  28.662  27.283  1.00  0.00     0.049 A 
ATOM     33  H   UNL A   1      45.799  28.814  27.833  1.00  0.00     0.167 HD
ATOM     34  C   UNL A   1      46.975  26.341  26.944  1.00  0.00     0.074 A 
ATOM     35  C   UNL A   1      47.158  24.953  26.565  1.00  0.00     0.031 C 
ATOM     36  C   UNL A   1      47.961  27.273  26.919  1.00  0.00     0.037 A 
BRANCH  23  37
ATOM     37  C   UNL A   1      46.298  32.932  28.841  1.00  0.00     0.058 A 
ATOM     38  C   UNL A   1      46.776  33.286  30.112  1.00  0.00     0.135 A 
ATOM     39  C   UNL A   1      46.168  33.951  27.884  1.00  0.00     0.135 A 
ATOM     40  F   UNL A   1      46.883  32.359  31.077  1.00  0.00    -0.206 F 
ATOM     41  C   UNL A   1      47.094  34.604  30.429  1.00  0.00     0.059 A 
ATOM     42  C   UNL A   1      46.503  35.271  28.170  1.00  0.00     0.059 A 
ATOM     43  F   UNL A   1      45.698  33.671  26.658  1.00  0.00    -0.206 F 
ATOM     44  C   UNL A   1      46.953  35.590  29.450  1.00  0.00     0.060 A 
BRANCH  44  45
ATOM     45  S   UNL A   1      47.372  37.295  29.875  1.00  0.00     0.124 S 
ATOM     46  O   UNL A   1      48.681  37.126  30.499  1.00  0.00    -0.237 OA
ATOM     47  O   UNL A   1      47.373  37.949  28.571  1.00  0.00    -0.237 OA
ATOM     48  O   UNL A   1      46.295  37.696  30.774  1.00  0.00    -0.744 OA
ENDBRANCH  44  45
ENDBRANCH  23  37
BRANCH  24  49
ATOM     49  C   UNL A   1      43.206  23.485  27.056  1.00  0.00     0.058 A 
ATOM     50  C   UNL A   1      43.012  22.548  28.081  1.00  0.00     0.135 A 
ATOM     51  C   UNL A   1      42.977  23.057  25.737  1.00  0.00     0.135 A 
ATOM     52  F   UNL A   1      43.220  22.898  29.359  1.00  0.00    -0.206 F 
ATOM     53  C   UNL A   1      42.639  21.233  27.808  1.00  0.00     0.059 A 
ATOM     54  C   UNL A   1      42.571  21.759  25.441  1.00  0.00     0.059 A 
ATOM     55  F   UNL A   1      43.135  23.911  24.713  1.00  0.00    -0.206 F 
ATOM     56  C   UNL A   1      42.426  20.848  26.483  1.00  0.00     0.060 A 
BRANCH  56  57
ATOM     57  S   UNL A   1      41.948  19.141  26.133  1.00  0.00     0.124 S 
ATOM     58  O   UNL A   1      42.797  18.827  24.991  1.00  0.00    -0.237 OA
ATOM     59  O   UNL A   1      42.281  18.464  27.383  1.00  0.00    -0.237 OA
ATOM     60  O   UNL A   1      40.519  19.244  25.848  1.00  0.00    -0.744 OA
ENDBRANCH  56  57
ENDBRANCH  24  49
BRANCH  36  61
ATOM     61  C   UNL A   1      49.318  26.800  26.489  1.00  0.00     0.058 A 
ATOM     62  C   UNL A   1      50.214  26.218  27.399  1.00  0.00     0.135 A 
ATOM     63  C   UNL A   1      49.712  26.902  25.147  1.00  0.00     0.135 A 
ATOM     64  F   UNL A   1      49.884  26.104  28.696  1.00  0.00    -0.206 F 
ATOM     65  C   UNL A   1      51.473  25.786  26.999  1.00  0.00     0.059 A 
ATOM     66  C   UNL A   1      50.952  26.449  24.718  1.00  0.00     0.059 A 
ATOM     67  F   UNL A   1      48.883  27.439  24.237  1.00  0.00    -0.206 F 
ATOM     68  C   UNL A   1      51.832  25.908  25.655  1.00  0.00     0.060 A 
BRANCH  68  69
ATOM     69  S   UNL A   1      53.462  25.329  25.143  1.00  0.00     0.124 S 
ATOM     70  O   UNL A   1      53.467  25.686  23.728  1.00  0.00    -0.237 OA
ATOM     71  O   UNL A   1      54.353  26.105  25.997  1.00  0.00    -0.237 OA
ATOM     72  O   UNL A   1      53.419  23.898  25.429  1.00  0.00    -0.744 OA
ENDBRANCH  68  69
ENDBRANCH  36  61
ENDBRANCH  10  11
ENDBRANCH   3   5
ENDBRANCH   2   3
ENDBRANCH   1   2
BRANCH   1  73
ATOM     73  C   UNL A   1      34.097  32.858  28.346  1.00  0.00     0.202 C 
BRANCH  73  74
ATOM     74  O   UNL A   1      34.718  34.075  28.762  1.00  0.00    -0.374 OA
BRANCH  74  75
ATOM     75  C   UNL A   1      33.888  35.236  28.717  1.00  0.00     0.202 C 
BRANCH  75  76
ATOM     76  C   UNL A   1      33.060  35.327  29.999  1.00  0.00     0.261 C 
BRANCH  76  77
ATOM     77  O   UNL A   1      33.909  35.775  31.068  1.00  0.00    -0.459 OA
BRANCH  77  78
ATOM     78  C   UNL A   1      34.078  34.862  32.073  1.00  0.00     0.364 C 
ATOM     79  O   UNL A   1      33.164  34.318  32.687  1.00  0.00    -0.245 OA
BRANCH  78  80
ATOM     80  C   UNL A   1      35.559  34.623  32.388  1.00  0.00     0.293 C 
ATOM     81  C   UNL A   1      35.731  33.453  33.361  1.00  0.00     0.078 C 
ATOM     82  N   UNL A   1      36.360  34.337  31.166  1.00  0.00    -0.332 N 
ATOM     83  C   UNL A   1      37.195  33.252  33.737  1.00  0.00     0.016 C 
ATOM     84  C   UNL A   1      37.782  34.327  31.512  1.00  0.00     0.186 C 
ATOM     85  H   UNL A   1      36.187  35.060  30.467  1.00  0.00     0.347 HD
ATOM     86  H   UNL A   1      36.094  33.429  30.787  1.00  0.00     0.347 HD
ATOM     87  C   UNL A   1      38.085  33.172  32.488  1.00  0.00     0.048 C 
ATOM     88  C   UNL A   1      38.645  34.195  30.254  1.00  0.00     0.065 C 
ATOM     89  C   UNL A   1      39.569  33.183  32.876  1.00  0.00     0.010 C 
ATOM     90  C   UNL A   1      40.124  34.239  30.633  1.00  0.00     0.006 C 
ATOM     91  C   UNL A   1      40.482  33.158  31.651  1.00  0.00     0.001 C 
ENDBRANCH  78  80
ENDBRANCH  77  78
ENDBRANCH  76  77
ENDBRANCH  75  76
ENDBRANCH  74  75
ENDBRANCH  73  74
ENDBRANCH   1  73
TORSDOF 17
ENDMDL
MODEL 2
REMARK VINA RESULT:      -9.6      5.838     13.814
REMARK SMILES O=C(OCCOCCOC(=O)[C@H]1CC[C@@H]2CCCC[C@H]2[NH2+]1)c1ccc(-c2c3nc(c(-c4c(F)cc(S(=O)(=O)[O-])cc4F)c4ccc([nH]4)c(-c4c(F)cc(S(=O)(=O)[O-])cc4F)c4nc(c(-c5c(F)cc(S(=O)(=O)[O-])cc5F)c5ccc2[nH]5)C=C4)C=C3)cc1
REMARK SMILES IDX 4 1 3 2 2 3 1 4 22 5 23 6 87 7 24 8 86 9 25 10 26 11 27 12
REMARK SMILES IDX 80 13 28 14 85 15 79 16 81 17 29 18 84 19 78 20 77 21 30 23
REMARK SMILES IDX 64 24 43 25 63 26 44 27 47 28 62 29 82 30 45 31 46 32 61 34
REMARK SMILES IDX 83 35 48 36 31 37 32 38 41 39 33 40 34 41 40 42 42 43 35 44
REMARK SMILES IDX 36 45 37 46 38 47 39 48 65 49 66 50 75 51 67 52 68 53 74 54
REMARK SMILES IDX 76 55 69 56 70 57 71 58 72 59 73 60 49 61 50 62 59 63 51 64
REMARK SMILES IDX 52 65 58 66 60 67 53 68 54 69 55 70 56 71 57 72 5 73 6 74
REMARK SMILES IDX 7 75 8 76 9 77 10 78 11 79 12 80 13 81 21 82 14 83 20 84
REMARK SMILES IDX 15 87 19 88 16 89 18 90 17 91
REMARK H PARENT 81 22 47 33 21 85 21 86
REMARK Flexibility Score: inf
ROOT
ATOM      1  C   UNL A   1      41.006  22.442  27.396  1.00  0.00     0.261 C 
ENDROOT
BRANCH   1   2
ATOM      2  O   UNL A   1      40.793  23.544  26.500  1.00  0.00    -0.460 OA
BRANCH   2   3
ATOM      3  C   UNL A   1      41.376  24.767  26.559  1.00  0.00     0.338 C 
ATOM      4  O   UNL A   1      42.101  25.119  25.629  1.00  0.00    -0.246 OA
BRANCH   3   5
ATOM      5  C   UNL A   1      41.173  25.722  27.692  1.00  0.00     0.060 A 
ATOM      6  C   UNL A   1      42.067  26.733  28.035  1.00  0.00     0.016 A 
ATOM      7  C   UNL A   1      39.964  25.650  28.403  1.00  0.00     0.016 A 
ATOM      8  C   UNL A   1      41.825  27.601  29.080  1.00  0.00     0.010 A 
ATOM      9  C   UNL A   1      39.677  26.568  29.424  1.00  0.00     0.010 A 
ATOM     10  C   UNL A   1      40.618  27.545  29.765  1.00  0.00    -0.014 A 
BRANCH  10  11
ATOM     11  C   UNL A   1      40.448  28.505  30.868  1.00  0.00     0.031 A 
ATOM     12  C   UNL A   1      41.418  28.468  32.005  1.00  0.00     0.074 A 
ATOM     13  C   UNL A   1      39.562  29.510  30.718  1.00  0.00     0.049 A 
ATOM     14  N   UNL A   1      41.482  29.236  33.057  1.00  0.00    -0.248 NA
ATOM     15  C   UNL A   1      42.473  27.440  31.942  1.00  0.00     0.031 C 
ATOM     16  C   UNL A   1      38.672  29.680  29.561  1.00  0.00     0.029 A 
ATOM     17  N   UNL A   1      39.298  30.602  31.497  1.00  0.00    -0.354 N 
ATOM     18  C   UNL A   1      42.570  28.778  33.787  1.00  0.00     0.074 A 
ATOM     19  C   UNL A   1      43.131  27.656  33.070  1.00  0.00     0.031 C 
ATOM     20  C   UNL A   1      37.989  30.828  29.694  1.00  0.00     0.029 A 
ATOM     21  C   UNL A   1      38.331  31.430  30.975  1.00  0.00     0.049 A 
ATOM     22  H   UNL A   1      39.757  30.779  32.351  1.00  0.00     0.167 HD
ATOM     23  C   UNL A   1      43.051  29.264  34.954  1.00  0.00     0.037 A 
ATOM     24  C   UNL A   1      37.763  32.532  31.501  1.00  0.00     0.037 A 
ATOM     25  C   UNL A   1      42.462  30.384  35.637  1.00  0.00     0.049 A 
ATOM     26  C   UNL A   1      38.251  32.988  32.848  1.00  0.00     0.074 A 
ATOM     27  C   UNL A   1      42.786  30.915  36.871  1.00  0.00     0.029 A 
ATOM     28  N   UNL A   1      41.421  31.153  35.128  1.00  0.00    -0.354 N 
ATOM     29  N   UNL A   1      39.220  32.489  33.584  1.00  0.00    -0.248 NA
ATOM     30  C   UNL A   1      37.570  34.140  33.447  1.00  0.00     0.031 C 
ATOM     31  C   UNL A   1      41.916  31.982  37.124  1.00  0.00     0.029 A 
ATOM     32  C   UNL A   1      41.083  32.149  36.028  1.00  0.00     0.049 A 
ATOM     33  H   UNL A   1      40.986  31.009  34.256  1.00  0.00     0.167 HD
ATOM     34  C   UNL A   1      39.268  33.270  34.731  1.00  0.00     0.074 A 
ATOM     35  C   UNL A   1      38.254  34.295  34.573  1.00  0.00     0.031 C 
ATOM     36  C   UNL A   1      40.064  33.149  35.823  1.00  0.00     0.037 A 
BRANCH  23  37
ATOM     37  C   UNL A   1      44.218  28.547  35.570  1.00  0.00     0.058 A 
ATOM     38  C   UNL A   1      45.545  28.894  35.271  1.00  0.00     0.135 A 
ATOM     39  C   UNL A   1      44.004  27.481  36.457  1.00  0.00     0.135 A 
ATOM     40  F   UNL A   1      45.807  29.880  34.398  1.00  0.00    -0.206 F 
ATOM     41  C   UNL A   1      46.619  28.196  35.816  1.00  0.00     0.059 A 
ATOM     42  C   UNL A   1      45.062  26.784  37.033  1.00  0.00     0.059 A 
ATOM     43  F   UNL A   1      42.754  27.096  36.762  1.00  0.00    -0.206 F 
ATOM     44  C   UNL A   1      46.367  27.142  36.697  1.00  0.00     0.060 A 
BRANCH  44  45
ATOM     45  S   UNL A   1      47.770  26.247  37.398  1.00  0.00     0.124 S 
ATOM     46  O   UNL A   1      47.189  24.928  37.628  1.00  0.00    -0.237 OA
ATOM     47  O   UNL A   1      48.756  26.326  36.325  1.00  0.00    -0.237 OA
ATOM     48  O   UNL A   1      48.093  27.009  38.600  1.00  0.00    -0.744 OA
ENDBRANCH  44  45
ENDBRANCH  23  37
BRANCH  24  49
ATOM     49  C   UNL A   1      36.632  33.210  30.804  1.00  0.00     0.058 A 
ATOM     50  C   UNL A   1      36.843  34.111  29.749  1.00  0.00     0.135 A 
ATOM     51  C   UNL A   1      35.304  32.986  31.206  1.00  0.00     0.135 A 
ATOM     52  F   UNL A   1      38.089  34.368  29.325  1.00  0.00    -0.206 F 
ATOM     53  C   UNL A   1      35.785  34.787  29.143  1.00  0.00     0.059 A 
ATOM     54  C   UNL A   1      34.229  33.622  30.594  1.00  0.00     0.059 A 
ATOM     55  F   UNL A   1      35.037  32.127  32.203  1.00  0.00    -0.206 F 
ATOM     56  C   UNL A   1      34.482  34.538  29.576  1.00  0.00     0.060 A 
BRANCH  56  57
ATOM     57  S   UNL A   1      33.114  35.419  28.791  1.00  0.00     0.124 S 
ATOM     58  O   UNL A   1      33.826  36.390  27.968  1.00  0.00    -0.237 OA
ATOM     59  O   UNL A   1      32.430  34.350  28.070  1.00  0.00    -0.237 OA
ATOM     60  O   UNL A   1      32.377  35.973  29.923  1.00  0.00    -0.744 OA
ENDBRANCH  56  57
ENDBRANCH  24  49
BRANCH  36  61
ATOM     61  C   UNL A   1      39.873  34.169  36.906  1.00  0.00     0.058 A 
ATOM     62  C   UNL A   1      39.050  33.917  38.014  1.00  0.00     0.135 A 
ATOM     63  C   UNL A   1      40.546  35.398  36.848  1.00  0.00     0.135 A 
ATOM     64  F   UNL A   1      38.380  32.757  38.111  1.00  0.00    -0.206 F 
ATOM     65  C   UNL A   1      38.871  34.867  39.013  1.00  0.00     0.059 A 
ATOM     66  C   UNL A   1      40.407  36.350  37.850  1.00  0.00     0.059 A 
ATOM     67  F   UNL A   1      41.355  35.679  35.814  1.00  0.00    -0.206 F 
ATOM     68  C   UNL A   1      39.554  36.080  38.920  1.00  0.00     0.060 A 
BRANCH  68  69
ATOM     69  S   UNL A   1      39.328  37.300  40.230  1.00  0.00     0.124 S 
ATOM     70  O   UNL A   1      40.709  37.642  40.552  1.00  0.00    -0.237 OA
ATOM     71  O   UNL A   1      38.556  38.340  39.560  1.00  0.00    -0.237 OA
ATOM     72  O   UNL A   1      38.607  36.560  41.261  1.00  0.00    -0.744 OA
ENDBRANCH  68  69
ENDBRANCH  36  61
ENDBRANCH  10  11
ENDBRANCH   3   5
ENDBRANCH   2   3
ENDBRANCH   1   2
BRANCH   1  73
ATOM     73  C   UNL A   1      40.630  21.109  26.742  1.00  0.00     0.202 C 
BRANCH  73  74
ATOM     74  O   UNL A   1      40.908  19.955  27.536  1.00  0.00    -0.374 OA
BRANCH  74  75
ATOM     75  C   UNL A   1      42.197  19.369  27.340  1.00  0.00     0.202 C 
BRANCH  75  76
ATOM     76  C   UNL A   1      42.237  18.653  25.991  1.00  0.00     0.261 C 
BRANCH  76  77
ATOM     77  O   UNL A   1      42.985  19.455  25.062  1.00  0.00    -0.459 OA
BRANCH  77  78
ATOM     78  C   UNL A   1      44.343  19.354  25.200  1.00  0.00     0.364 C 
ATOM     79  O   UNL A   1      44.964  18.298  25.277  1.00  0.00    -0.245 OA
BRANCH  78  80
ATOM     80  C   UNL A   1      45.012  20.730  25.297  1.00  0.00     0.293 C 
ATOM     81  C   UNL A   1      44.934  21.472  23.959  1.00  0.00     0.078 C 
ATOM     82  N   UNL A   1      44.396  21.589  26.345  1.00  0.00    -0.332 N 
ATOM     83  C   UNL A   1      45.659  22.813  24.023  1.00  0.00     0.016 C 
ATOM     84  C   UNL A   1      45.207  22.793  26.523  1.00  0.00     0.186 C 
ATOM     85  H   UNL A   1      44.354  21.075  27.226  1.00  0.00     0.347 HD
ATOM     86  H   UNL A   1      43.453  21.852  26.061  1.00  0.00     0.347 HD
ATOM     87  C   UNL A   1      45.197  23.639  25.233  1.00  0.00     0.048 C 
ATOM     88  C   UNL A   1      44.695  23.623  27.703  1.00  0.00     0.065 C 
ATOM     89  C   UNL A   1      46.076  24.883  25.409  1.00  0.00     0.010 C 
ATOM     90  C   UNL A   1      45.588  24.847  27.902  1.00  0.00     0.006 C 
ATOM     91  C   UNL A   1      45.675  25.699  26.637  1.00  0.00     0.001 C 
ENDBRANCH  78  80
ENDBRANCH  77  78
ENDBRANCH  76  77
ENDBRANCH  75  76
ENDBRANCH  74  75
ENDBRANCH  73  74
ENDBRANCH   1  73
TORSDOF 17
ENDMDL
MODEL 3
REMARK VINA RESULT:      -9.3      3.773      9.838
REMARK SMILES O=C(OCCOCCOC(=O)[C@H]1CC[C@@H]2CCCC[C@H]2[NH2+]1)c1ccc(-c2c3nc(c(-c4c(F)cc(S(=O)(=O)[O-])cc4F)c4ccc([nH]4)c(-c4c(F)cc(S(=O)(=O)[O-])cc4F)c4nc(c(-c5c(F)cc(S(=O)(=O)[O-])cc5F)c5ccc2[nH]5)C=C4)C=C3)cc1
REMARK SMILES IDX 4 1 3 2 2 3 1 4 22 5 23 6 87 7 24 8 86 9 25 10 26 11 27 12
REMARK SMILES IDX 80 13 28 14 85 15 79 16 81 17 29 18 84 19 78 20 77 21 30 23
REMARK SMILES IDX 64 24 43 25 63 26 44 27 47 28 62 29 82 30 45 31 46 32 61 34
REMARK SMILES IDX 83 35 48 36 31 37 32 38 41 39 33 40 34 41 40 42 42 43 35 44
REMARK SMILES IDX 36 45 37 46 38 47 39 48 65 49 66 50 75 51 67 52 68 53 74 54
REMARK SMILES IDX 76 55 69 56 70 57 71 58 72 59 73 60 49 61 50 62 59 63 51 64
REMARK SMILES IDX 52 65 58 66 60 67 53 68 54 69 55 70 56 71 57 72 5 73 6 74
REMARK SMILES IDX 7 75 8 76 9 77 10 78 11 79 12 80 13 81 21 82 14 83 20 84
REMARK SMILES IDX 15 87 19 88 16 89 18 90 17 91
REMARK H PARENT 81 22 47 33 21 85 21 86
REMARK Flexibility Score: inf
ROOT
ATOM      1  C   UNL A   1      32.973  36.129  30.137  1.00  0.00     0.261 C 
ENDROOT
BRANCH   1   2
ATOM      2  O   UNL A   1      32.439  34.944  29.526  1.00  0.00    -0.460 OA
BRANCH   2   3
ATOM      3  C   UNL A   1      33.093  34.081  28.708  1.00  0.00     0.338 C 
ATOM      4  O   UNL A   1      32.549  33.735  27.661  1.00  0.00    -0.246 OA
BRANCH   3   5
ATOM      5  C   UNL A   1      34.454  33.537  29.007  1.00  0.00     0.060 A 
ATOM      6  C   UNL A   1      34.766  32.787  30.139  1.00  0.00     0.016 A 
ATOM      7  C   UNL A   1      35.462  33.720  28.047  1.00  0.00     0.016 A 
ATOM      8  C   UNL A   1      36.035  32.292  30.362  1.00  0.00     0.010 A 
ATOM      9  C   UNL A   1      36.737  33.166  28.230  1.00  0.00     0.010 A 
ATOM     10  C   UNL A   1      37.023  32.452  29.398  1.00  0.00    -0.014 A 
BRANCH  10  11
ATOM     11  C   UNL A   1      38.347  31.895  29.722  1.00  0.00     0.031 A 
ATOM     12  C   UNL A   1      38.685  30.524  29.234  1.00  0.00     0.074 A 
ATOM     13  C   UNL A   1      39.275  32.711  30.261  1.00  0.00     0.049 A 
ATOM     14  N   UNL A   1      39.796  29.854  29.368  1.00  0.00    -0.248 NA
ATOM     15  C   UNL A   1      37.640  29.816  28.473  1.00  0.00     0.031 C 
ATOM     16  C   UNL A   1      39.045  34.112  30.640  1.00  0.00     0.029 A 
ATOM     17  N   UNL A   1      40.601  32.512  30.530  1.00  0.00    -0.354 N 
ATOM     18  C   UNL A   1      39.581  28.643  28.724  1.00  0.00     0.074 A 
ATOM     19  C   UNL A   1      38.231  28.659  28.211  1.00  0.00     0.031 C 
ATOM     20  C   UNL A   1      40.200  34.652  31.058  1.00  0.00     0.029 A 
ATOM     21  C   UNL A   1      41.228  33.620  31.054  1.00  0.00     0.049 A 
ATOM     22  H   UNL A   1      41.063  31.659  30.365  1.00  0.00     0.167 HD
ATOM     23  C   UNL A   1      40.448  27.615  28.578  1.00  0.00     0.037 A 
ATOM     24  C   UNL A   1      42.486  33.764  31.512  1.00  0.00     0.037 A 
ATOM     25  C   UNL A   1      41.785  27.637  29.106  1.00  0.00     0.049 A 
ATOM     26  C   UNL A   1      43.394  32.568  31.428  1.00  0.00     0.074 A 
ATOM     27  C   UNL A   1      42.730  26.630  29.117  1.00  0.00     0.029 A 
ATOM     28  N   UNL A   1      42.368  28.744  29.715  1.00  0.00    -0.354 N 
ATOM     29  N   UNL A   1      43.153  31.386  30.904  1.00  0.00    -0.248 NA
ATOM     30  C   UNL A   1      44.735  32.710  32.005  1.00  0.00     0.031 C 
ATOM     31  C   UNL A   1      43.872  27.114  29.765  1.00  0.00     0.029 A 
ATOM     32  C   UNL A   1      43.658  28.440  30.114  1.00  0.00     0.049 A 
ATOM     33  H   UNL A   1      41.928  29.615  29.844  1.00  0.00     0.167 HD
ATOM     34  C   UNL A   1      44.313  30.646  31.083  1.00  0.00     0.074 A 
ATOM     35  C   UNL A   1      45.267  31.526  31.731  1.00  0.00     0.031 C 
ATOM     36  C   UNL A   1      44.570  29.355  30.757  1.00  0.00     0.037 A 
BRANCH  23  37
ATOM     37  C   UNL A   1      39.945  26.385  27.880  1.00  0.00     0.058 A 
ATOM     38  C   UNL A   1      40.272  26.101  26.545  1.00  0.00     0.135 A 
ATOM     39  C   UNL A   1      39.102  25.484  28.552  1.00  0.00     0.135 A 
ATOM     40  F   UNL A   1      41.042  26.948  25.843  1.00  0.00    -0.206 F 
ATOM     41  C   UNL A   1      39.767  24.979  25.895  1.00  0.00     0.059 A 
ATOM     42  C   UNL A   1      38.605  24.343  27.930  1.00  0.00     0.059 A 
ATOM     43  F   UNL A   1      38.742  25.718  29.825  1.00  0.00    -0.206 F 
ATOM     44  C   UNL A   1      38.934  24.105  26.597  1.00  0.00     0.060 A 
BRANCH  44  45
ATOM     45  S   UNL A   1      38.288  22.652  25.740  1.00  0.00     0.124 S 
ATOM     46  O   UNL A   1      39.462  21.784  25.715  1.00  0.00    -0.237 OA
ATOM     47  O   UNL A   1      37.206  22.227  26.621  1.00  0.00    -0.237 OA
ATOM     48  O   UNL A   1      37.870  23.178  24.446  1.00  0.00    -0.744 OA
ENDBRANCH  44  45
ENDBRANCH  23  37
BRANCH  24  49
ATOM     49  C   UNL A   1      42.919  35.036  32.158  1.00  0.00     0.058 A 
ATOM     50  C   UNL A   1      42.703  35.288  33.521  1.00  0.00     0.135 A 
ATOM     51  C   UNL A   1      43.541  36.047  31.404  1.00  0.00     0.135 A 
ATOM     52  F   UNL A   1      42.109  34.362  34.289  1.00  0.00    -0.206 F 
ATOM     53  C   UNL A   1      43.056  36.504  34.104  1.00  0.00     0.059 A 
ATOM     54  C   UNL A   1      43.934  37.255  31.971  1.00  0.00     0.059 A 
ATOM     55  F   UNL A   1      43.784  35.861  30.098  1.00  0.00    -0.206 F 
ATOM     56  C   UNL A   1      43.668  37.483  33.318  1.00  0.00     0.060 A 
BRANCH  56  57
ATOM     57  S   UNL A   1      44.120  39.059  34.077  1.00  0.00     0.124 S 
ATOM     58  O   UNL A   1      45.495  39.220  33.619  1.00  0.00    -0.237 OA
ATOM     59  O   UNL A   1      43.141  39.973  33.498  1.00  0.00    -0.237 OA
ATOM     60  O   UNL A   1      43.958  38.802  35.506  1.00  0.00    -0.744 OA
ENDBRANCH  56  57
ENDBRANCH  24  49
BRANCH  36  61
ATOM     61  C   UNL A   1      45.943  28.843  31.080  1.00  0.00     0.058 A 
ATOM     62  C   UNL A   1      46.221  28.209  32.300  1.00  0.00     0.135 A 
ATOM     63  C   UNL A   1      46.982  28.962  30.144  1.00  0.00     0.135 A 
ATOM     64  F   UNL A   1      45.261  28.076  33.229  1.00  0.00    -0.206 F 
ATOM     65  C   UNL A   1      47.496  27.742  32.598  1.00  0.00     0.059 A 
ATOM     66  C   UNL A   1      48.255  28.475  30.408  1.00  0.00     0.059 A 
ATOM     67  F   UNL A   1      46.760  29.551  28.958  1.00  0.00    -0.206 F 
ATOM     68  C   UNL A   1      48.506  27.881  31.644  1.00  0.00     0.060 A 
BRANCH  68  69
ATOM     69  S   UNL A   1      50.153  27.256  32.034  1.00  0.00     0.124 S 
ATOM     70  O   UNL A   1      50.334  26.246  30.998  1.00  0.00    -0.237 OA
ATOM     71  O   UNL A   1      50.979  28.452  31.909  1.00  0.00    -0.237 OA
ATOM     72  O   UNL A   1      50.007  26.743  33.393  1.00  0.00    -0.744 OA
ENDBRANCH  68  69
ENDBRANCH  36  61
ENDBRANCH  10  11
ENDBRANCH   3   5
ENDBRANCH   2   3
ENDBRANCH   1   2
BRANCH   1  73
ATOM     73  C   UNL A   1      32.447  36.307  31.564  1.00  0.00     0.202 C 
BRANCH  73  74
ATOM     74  O   UNL A   1      33.455  36.552  32.546  1.00  0.00    -0.374 OA
BRANCH  74  75
ATOM     75  C   UNL A   1      34.641  35.765  32.420  1.00  0.00     0.202 C 
BRANCH  75  76
ATOM     76  C   UNL A   1      34.955  35.093  33.757  1.00  0.00     0.261 C 
BRANCH  76  77
ATOM     77  O   UNL A   1      35.397  33.749  33.507  1.00  0.00    -0.459 OA
BRANCH  77  78
ATOM     78  C   UNL A   1      36.259  33.255  34.449  1.00  0.00     0.364 C 
ATOM     79  O   UNL A   1      36.182  33.476  35.654  1.00  0.00    -0.245 OA
BRANCH  78  80
ATOM     80  C   UNL A   1      37.380  32.422  33.819  1.00  0.00     0.293 C 
ATOM     81  C   UNL A   1      38.707  32.647  34.550  1.00  0.00     0.078 C 
ATOM     82  N   UNL A   1      37.079  30.963  33.832  1.00  0.00    -0.332 N 
ATOM     83  C   UNL A   1      39.845  31.877  33.887  1.00  0.00     0.016 C 
ATOM     84  C   UNL A   1      38.084  30.256  33.037  1.00  0.00     0.186 C 
ATOM     85  H   UNL A   1      36.155  30.802  33.432  1.00  0.00     0.347 HD
ATOM     86  H   UNL A   1      37.098  30.619  34.791  1.00  0.00     0.347 HD
ATOM     87  C   UNL A   1      39.475  30.400  33.686  1.00  0.00     0.048 C 
ATOM     88  C   UNL A   1      37.718  28.776  32.894  1.00  0.00     0.065 C 
ATOM     89  C   UNL A   1      40.533  29.686  32.834  1.00  0.00     0.010 C 
ATOM     90  C   UNL A   1      38.751  28.069  32.019  1.00  0.00     0.006 C 
ATOM     91  C   UNL A   1      40.167  28.226  32.571  1.00  0.00     0.001 C 
ENDBRANCH  78  80
ENDBRANCH  77  78
ENDBRANCH  76  77
ENDBRANCH  75  76
ENDBRANCH  74  75
ENDBRANCH  73  74
ENDBRANCH   1  73
TORSDOF 17
ENDMDL
