MODEL 1
REMARK VINA RESULT:     -11.4      0.000      0.000
REMARK SMILES O=C(OCCOCCOC(=O)c1cc(NC(=O)c2ccc(Br)o2)ccc1O)c1ccc(-c2c3nc(c(-c4c(F)cc(S(=O)(=O)[O-])cc4F)c4ccc([nH]4)c(-c4c(F)cc(S(=O)(=O)[O-])cc4F)c4nc(c(-c5c(F)cc(S(=O)(=O)[O-])cc5F)c5ccc2[nH]5)C=C4)C=C3)cc1
REMARK SMILES IDX 5 1 4 2 3 3 2 4 1 5 28 6 29 7 93 8 30 9 92 10 31 11 32 12
REMARK SMILES IDX 33 13 86 14 34 15 91 16 85 17 87 18 35 19 90 20 84 21 83 22
REMARK SMILES IDX 36 24 70 25 49 26 69 27 50 28 53 29 68 30 88 31 51 32 52 33
REMARK SMILES IDX 67 35 89 36 54 37 37 38 38 39 47 40 39 41 40 42 46 43 48 44
REMARK SMILES IDX 41 45 42 46 43 47 44 48 45 49 71 50 72 51 81 52 73 53 74 54
REMARK SMILES IDX 80 55 82 56 75 57 76 58 77 59 78 60 79 61 55 62 56 63 65 64
REMARK SMILES IDX 57 65 58 66 64 67 66 68 59 69 60 70 61 71 62 72 63 73 6 74
REMARK SMILES IDX 7 75 8 76 9 77 10 78 11 79 12 80 13 81 26 82 14 83 25 84
REMARK SMILES IDX 24 85 27 86 15 88 16 89 17 91 18 92 19 93 23 94 20 95 21 96
REMARK SMILES IDX 22 97
REMARK H PARENT 87 23 53 34 27 87 15 90
REMARK Flexibility Score: inf
ROOT
ATOM      1  C   UNL A   1      33.668  28.716  26.795  1.00  0.00     0.202 C 
ENDROOT
BRANCH   1   2
ATOM      2  C   UNL A   1      34.395  29.971  27.275  1.00  0.00     0.261 C 
BRANCH   2   3
ATOM      3  O   UNL A   1      34.972  29.742  28.564  1.00  0.00    -0.460 OA
BRANCH   3   4
ATOM      4  C   UNL A   1      36.101  30.289  29.071  1.00  0.00     0.338 C 
ATOM      5  O   UNL A   1      35.979  31.258  29.820  1.00  0.00    -0.246 OA
BRANCH   4   6
ATOM      6  C   UNL A   1      37.489  29.782  28.809  1.00  0.00     0.060 A 
ATOM      7  C   UNL A   1      38.101  29.649  27.558  1.00  0.00     0.016 A 
ATOM      8  C   UNL A   1      38.272  29.523  29.946  1.00  0.00     0.016 A 
ATOM      9  C   UNL A   1      39.441  29.300  27.427  1.00  0.00     0.010 A 
ATOM     10  C   UNL A   1      39.620  29.178  29.828  1.00  0.00     0.010 A 
ATOM     11  C   UNL A   1      40.206  29.075  28.563  1.00  0.00    -0.014 A 
BRANCH  11  12
ATOM     12  C   UNL A   1      41.604  28.642  28.416  1.00  0.00     0.031 A 
ATOM     13  C   UNL A   1      42.674  29.675  28.539  1.00  0.00     0.074 A 
ATOM     14  C   UNL A   1      41.883  27.346  28.197  1.00  0.00     0.049 A 
ATOM     15  N   UNL A   1      43.945  29.585  28.274  1.00  0.00    -0.248 NA
ATOM     16  C   UNL A   1      42.244  30.997  29.026  1.00  0.00     0.031 C 
ATOM     17  C   UNL A   1      40.898  26.263  28.173  1.00  0.00     0.029 A 
ATOM     18  N   UNL A   1      43.075  26.721  27.943  1.00  0.00    -0.354 N 
ATOM     19  C   UNL A   1      44.465  30.849  28.518  1.00  0.00     0.074 A 
ATOM     20  C   UNL A   1      43.372  31.686  28.958  1.00  0.00     0.031 C 
ATOM     21  C   UNL A   1      41.527  25.107  27.901  1.00  0.00     0.029 A 
ATOM     22  C   UNL A   1      42.940  25.381  27.669  1.00  0.00     0.049 A 
ATOM     23  H   UNL A   1      43.942  27.187  27.957  1.00  0.00     0.167 HD
ATOM     24  C   UNL A   1      45.744  31.263  28.365  1.00  0.00     0.037 A 
ATOM     25  C   UNL A   1      43.856  24.497  27.229  1.00  0.00     0.037 A 
ATOM     26  C   UNL A   1      46.795  30.394  27.910  1.00  0.00     0.049 A 
ATOM     27  C   UNL A   1      45.260  24.991  27.002  1.00  0.00     0.074 A 
ATOM     28  C   UNL A   1      48.120  30.693  27.662  1.00  0.00     0.029 A 
ATOM     29  N   UNL A   1      46.626  29.041  27.633  1.00  0.00    -0.354 N 
ATOM     30  N   UNL A   1      45.741  26.202  27.172  1.00  0.00    -0.248 NA
ATOM     31  C   UNL A   1      46.242  24.016  26.516  1.00  0.00     0.031 C 
ATOM     32  C   UNL A   1      48.742  29.530  27.193  1.00  0.00     0.029 A 
ATOM     33  C   UNL A   1      47.820  28.492  27.204  1.00  0.00     0.049 A 
ATOM     34  H   UNL A   1      45.780  28.547  27.727  1.00  0.00     0.167 HD
ATOM     35  C   UNL A   1      47.088  26.130  26.840  1.00  0.00     0.074 A 
ATOM     36  C   UNL A   1      47.344  24.754  26.458  1.00  0.00     0.031 C 
ATOM     37  C   UNL A   1      48.029  27.107  26.853  1.00  0.00     0.037 A 
BRANCH  24  38
ATOM     38  C   UNL A   1      46.020  32.720  28.609  1.00  0.00     0.058 A 
ATOM     39  C   UNL A   1      46.370  33.214  29.876  1.00  0.00     0.135 A 
ATOM     40  C   UNL A   1      45.855  33.650  27.570  1.00  0.00     0.135 A 
ATOM     41  F   UNL A   1      46.512  32.374  30.914  1.00  0.00    -0.206 F 
ATOM     42  C   UNL A   1      46.494  34.579  30.117  1.00  0.00     0.059 A 
ATOM     43  C   UNL A   1      46.001  35.018  27.780  1.00  0.00     0.059 A 
ATOM     44  F   UNL A   1      45.511  33.236  26.339  1.00  0.00    -0.206 F 
ATOM     45  C   UNL A   1      46.294  35.474  29.064  1.00  0.00     0.060 A 
BRANCH  45  46
ATOM     46  S   UNL A   1      46.389  37.245  29.403  1.00  0.00     0.124 S 
ATOM     47  O   UNL A   1      45.150  37.465  30.144  1.00  0.00    -0.237 OA
ATOM     48  O   UNL A   1      47.618  37.351  30.180  1.00  0.00    -0.237 OA
ATOM     49  O   UNL A   1      46.437  37.844  28.072  1.00  0.00    -0.744 OA
ENDBRANCH  45  46
ENDBRANCH  24  38
BRANCH  25  50
ATOM     50  C   UNL A   1      43.455  23.091  26.950  1.00  0.00     0.058 A 
ATOM     51  C   UNL A   1      43.391  22.598  25.640  1.00  0.00     0.135 A 
ATOM     52  C   UNL A   1      43.178  22.194  27.996  1.00  0.00     0.135 A 
ATOM     53  F   UNL A   1      43.636  23.413  24.603  1.00  0.00    -0.206 F 
ATOM     54  C   UNL A   1      43.074  21.268  25.374  1.00  0.00     0.059 A 
ATOM     55  C   UNL A   1      42.883  20.854  27.758  1.00  0.00     0.059 A 
ATOM     56  F   UNL A   1      43.234  22.610  29.271  1.00  0.00    -0.206 F 
ATOM     57  C   UNL A   1      42.829  20.401  26.441  1.00  0.00     0.060 A 
BRANCH  57  58
ATOM     58  S   UNL A   1      42.490  18.661  26.089  1.00  0.00     0.124 S 
ATOM     59  O   UNL A   1      42.793  18.035  27.371  1.00  0.00    -0.237 OA
ATOM     60  O   UNL A   1      41.081  18.693  25.711  1.00  0.00    -0.237 OA
ATOM     61  O   UNL A   1      43.415  18.351  25.002  1.00  0.00    -0.744 OA
ENDBRANCH  57  58
ENDBRANCH  25  50
BRANCH  37  62
ATOM     62  C   UNL A   1      49.434  26.714  26.497  1.00  0.00     0.058 A 
ATOM     63  C   UNL A   1      50.307  26.158  27.442  1.00  0.00     0.135 A 
ATOM     64  C   UNL A   1      49.865  26.795  25.163  1.00  0.00     0.135 A 
ATOM     65  F   UNL A   1      49.942  26.066  28.730  1.00  0.00    -0.206 F 
ATOM     66  C   UNL A   1      51.564  25.690  27.075  1.00  0.00     0.059 A 
ATOM     67  C   UNL A   1      51.107  26.312  24.770  1.00  0.00     0.059 A 
ATOM     68  F   UNL A   1      49.059  27.312  24.222  1.00  0.00    -0.206 F 
ATOM     69  C   UNL A   1      51.950  25.762  25.734  1.00  0.00     0.060 A 
BRANCH  69  70
ATOM     70  S   UNL A   1      53.549  25.076  25.256  1.00  0.00     0.124 S 
ATOM     71  O   UNL A   1      54.415  25.583  26.316  1.00  0.00    -0.237 OA
ATOM     72  O   UNL A   1      53.291  23.639  25.280  1.00  0.00    -0.237 OA
ATOM     73  O   UNL A   1      53.780  25.642  23.930  1.00  0.00    -0.744 OA
ENDBRANCH  69  70
ENDBRANCH  37  62
ENDBRANCH  11  12
ENDBRANCH   4   6
ENDBRANCH   3   4
ENDBRANCH   2   3
ENDBRANCH   1   2
BRANCH   1  74
ATOM     74  O   UNL A   1      32.309  28.967  26.446  1.00  0.00    -0.374 OA
BRANCH  74  75
ATOM     75  C   UNL A   1      31.412  27.873  26.644  1.00  0.00     0.202 C 
BRANCH  75  76
ATOM     76  C   UNL A   1      32.173  26.560  26.478  1.00  0.00     0.261 C 
BRANCH  76  77
ATOM     77  O   UNL A   1      31.266  25.580  25.950  1.00  0.00    -0.460 OA
BRANCH  77  78
ATOM     78  C   UNL A   1      31.530  24.288  26.286  1.00  0.00     0.342 C 
ATOM     79  O   UNL A   1      31.376  23.756  27.366  1.00  0.00    -0.246 OA
BRANCH  78  80
ATOM     80  C   UNL A   1      31.828  23.531  25.045  1.00  0.00     0.103 A 
ATOM     81  C   UNL A   1      32.222  24.270  23.905  1.00  0.00     0.045 A 
ATOM     82  C   UNL A   1      31.777  22.134  24.998  1.00  0.00     0.130 A 
ATOM     83  C   UNL A   1      32.587  23.605  22.736  1.00  0.00     0.042 A 
ATOM     84  C   UNL A   1      32.121  21.469  23.828  1.00  0.00     0.049 A 
ATOM     85  C   UNL A   1      32.515  22.203  22.708  1.00  0.00     0.030 A 
BRANCH  82  86
ATOM     86  O   UNL A   1      31.366  21.407  26.078  1.00  0.00    -0.507 OA
ATOM     87  H   UNL A   1      30.684  20.771  25.983  1.00  0.00     0.293 HD
ENDBRANCH  82  86
BRANCH  83  88
ATOM     88  N   UNL A   1      32.949  24.222  21.529  1.00  0.00    -0.319 N 
ATOM     89  C   UNL A   1      32.807  25.489  21.013  1.00  0.00     0.291 C 
ATOM     90  H   UNL A   1      33.408  23.608  20.911  1.00  0.00     0.170 HD
ATOM     91  O   UNL A   1      32.978  25.601  19.796  1.00  0.00    -0.265 OA
BRANCH  89  92
ATOM     92  C   UNL A   1      32.648  26.637  21.868  1.00  0.00     0.193 A 
ATOM     93  C   UNL A   1      33.576  27.533  22.370  1.00  0.00     0.057 A 
ATOM     94  O   UNL A   1      31.386  27.106  22.108  1.00  0.00    -0.444 OA
ATOM     95  C   UNL A   1      32.839  28.611  22.924  1.00  0.00     0.059 A 
ATOM     96  C   UNL A   1      31.510  28.297  22.751  1.00  0.00     0.170 A 
ATOM     97  Br  UNL A   1      30.083  29.375  23.276  1.00  0.00    -0.008 Br
ENDBRANCH  89  92
ENDBRANCH  83  88
ENDBRANCH  78  80
ENDBRANCH  77  78
ENDBRANCH  76  77
ENDBRANCH  75  76
ENDBRANCH  74  75
ENDBRANCH   1  74
TORSDOF 20
ENDMDL
MODEL 2
REMARK VINA RESULT:     -11.3      1.774      8.728
REMARK SMILES O=C(OCCOCCOC(=O)c1cc(NC(=O)c2ccc(Br)o2)ccc1O)c1ccc(-c2c3nc(c(-c4c(F)cc(S(=O)(=O)[O-])cc4F)c4ccc([nH]4)c(-c4c(F)cc(S(=O)(=O)[O-])cc4F)c4nc(c(-c5c(F)cc(S(=O)(=O)[O-])cc5F)c5ccc2[nH]5)C=C4)C=C3)cc1
REMARK SMILES IDX 5 1 4 2 3 3 2 4 1 5 28 6 29 7 93 8 30 9 92 10 31 11 32 12
REMARK SMILES IDX 33 13 86 14 34 15 91 16 85 17 87 18 35 19 90 20 84 21 83 22
REMARK SMILES IDX 36 24 70 25 49 26 69 27 50 28 53 29 68 30 88 31 51 32 52 33
REMARK SMILES IDX 67 35 89 36 54 37 37 38 38 39 47 40 39 41 40 42 46 43 48 44
REMARK SMILES IDX 41 45 42 46 43 47 44 48 45 49 71 50 72 51 81 52 73 53 74 54
REMARK SMILES IDX 80 55 82 56 75 57 76 58 77 59 78 60 79 61 55 62 56 63 65 64
REMARK SMILES IDX 57 65 58 66 64 67 66 68 59 69 60 70 61 71 62 72 63 73 6 74
REMARK SMILES IDX 7 75 8 76 9 77 10 78 11 79 12 80 13 81 26 82 14 83 25 84
REMARK SMILES IDX 24 85 27 86 15 88 16 89 17 91 18 92 19 93 23 94 20 95 21 96
REMARK SMILES IDX 22 97
REMARK H PARENT 87 23 53 34 27 87 15 90
REMARK Flexibility Score: inf
ROOT
ATOM      1  C   UNL A   1      35.064  32.194  28.082  1.00  0.00     0.202 C 
ENDROOT
BRANCH   1   2
ATOM      2  C   UNL A   1      35.318  31.923  29.563  1.00  0.00     0.261 C 
BRANCH   2   3
ATOM      3  O   UNL A   1      35.717  30.562  29.753  1.00  0.00    -0.460 OA
BRANCH   3   4
ATOM      4  C   UNL A   1      36.702  30.095  30.554  1.00  0.00     0.338 C 
ATOM      5  O   UNL A   1      36.407  29.818  31.717  1.00  0.00    -0.246 OA
BRANCH   4   6
ATOM      6  C   UNL A   1      38.120  29.865  30.122  1.00  0.00     0.060 A 
ATOM      7  C   UNL A   1      39.194  29.522  30.950  1.00  0.00     0.016 A 
ATOM      8  C   UNL A   1      38.351  29.895  28.737  1.00  0.00     0.016 A 
ATOM      9  C   UNL A   1      40.444  29.194  30.436  1.00  0.00     0.010 A 
ATOM     10  C   UNL A   1      39.599  29.562  28.208  1.00  0.00     0.010 A 
ATOM     11  C   UNL A   1      40.646  29.202  29.063  1.00  0.00    -0.014 A 
BRANCH  11  12
ATOM     12  C   UNL A   1      41.987  28.919  28.530  1.00  0.00     0.031 A 
ATOM     13  C   UNL A   1      42.276  27.532  28.061  1.00  0.00     0.074 A 
ATOM     14  C   UNL A   1      42.901  29.902  28.461  1.00  0.00     0.049 A 
ATOM     15  N   UNL A   1      43.412  26.992  27.727  1.00  0.00    -0.248 NA
ATOM     16  C   UNL A   1      41.117  26.628  27.962  1.00  0.00     0.031 C 
ATOM     17  C   UNL A   1      42.657  31.306  28.799  1.00  0.00     0.029 A 
ATOM     18  N   UNL A   1      44.219  29.870  28.093  1.00  0.00    -0.354 N 
ATOM     19  C   UNL A   1      43.118  25.671  27.418  1.00  0.00     0.074 A 
ATOM     20  C   UNL A   1      41.695  25.494  27.599  1.00  0.00     0.031 C 
ATOM     21  C   UNL A   1      43.797  31.998  28.638  1.00  0.00     0.029 A 
ATOM     22  C   UNL A   1      44.859  31.076  28.251  1.00  0.00     0.049 A 
ATOM     23  H   UNL A   1      44.664  29.062  27.750  1.00  0.00     0.167 HD
ATOM     24  C   UNL A   1      43.976  24.697  27.035  1.00  0.00     0.037 A 
ATOM     25  C   UNL A   1      46.168  31.377  28.143  1.00  0.00     0.037 A 
ATOM     26  C   UNL A   1      45.388  24.920  26.882  1.00  0.00     0.049 A 
ATOM     27  C   UNL A   1      47.117  30.266  27.780  1.00  0.00     0.074 A 
ATOM     28  C   UNL A   1      46.377  24.016  26.551  1.00  0.00     0.029 A 
ATOM     29  N   UNL A   1      46.009  26.154  27.057  1.00  0.00    -0.354 N 
ATOM     30  N   UNL A   1      46.850  29.000  27.548  1.00  0.00    -0.248 NA
ATOM     31  C   UNL A   1      48.539  30.611  27.673  1.00  0.00     0.031 C 
ATOM     32  C   UNL A   1      47.602  24.693  26.568  1.00  0.00     0.029 A 
ATOM     33  C   UNL A   1      47.371  26.032  26.852  1.00  0.00     0.049 A 
ATOM     34  H   UNL A   1      45.546  26.990  27.292  1.00  0.00     0.167 HD
ATOM     35  C   UNL A   1      48.065  28.401  27.242  1.00  0.00     0.074 A 
ATOM     36  C   UNL A   1      49.070  29.446  27.319  1.00  0.00     0.031 C 
ATOM     37  C   UNL A   1      48.330  27.110  26.921  1.00  0.00     0.037 A 
BRANCH  24  38
ATOM     38  C   UNL A   1      43.404  23.319  26.855  1.00  0.00     0.058 A 
ATOM     39  C   UNL A   1      43.053  22.507  27.946  1.00  0.00     0.135 A 
ATOM     40  C   UNL A   1      43.277  22.774  25.567  1.00  0.00     0.135 A 
ATOM     41  F   UNL A   1      43.182  22.966  29.201  1.00  0.00    -0.206 F 
ATOM     42  C   UNL A   1      42.649  21.187  27.769  1.00  0.00     0.059 A 
ATOM     43  C   UNL A   1      42.848  21.465  25.365  1.00  0.00     0.059 A 
ATOM     44  F   UNL A   1      43.607  23.502  24.488  1.00  0.00    -0.206 F 
ATOM     45  C   UNL A   1      42.563  20.671  26.474  1.00  0.00     0.060 A 
BRANCH  45  46
ATOM     46  S   UNL A   1      42.105  18.938  26.260  1.00  0.00     0.124 S 
ATOM     47  O   UNL A   1      40.719  19.057  25.816  1.00  0.00    -0.237 OA
ATOM     48  O   UNL A   1      43.056  18.483  25.252  1.00  0.00    -0.237 OA
ATOM     49  O   UNL A   1      42.290  18.370  27.593  1.00  0.00    -0.744 OA
ENDBRANCH  45  46
ENDBRANCH  24  38
BRANCH  25  50
ATOM     50  C   UNL A   1      46.635  32.763  28.415  1.00  0.00     0.058 A 
ATOM     51  C   UNL A   1      46.699  33.723  27.396  1.00  0.00     0.135 A 
ATOM     52  C   UNL A   1      46.977  33.172  29.715  1.00  0.00     0.135 A 
ATOM     53  F   UNL A   1      46.393  33.385  26.135  1.00  0.00    -0.206 F 
ATOM     54  C   UNL A   1      47.079  35.039  27.654  1.00  0.00     0.059 A 
ATOM     55  C   UNL A   1      47.336  34.486  30.003  1.00  0.00     0.059 A 
ATOM     56  F   UNL A   1      46.924  32.296  30.731  1.00  0.00    -0.206 F 
ATOM     57  C   UNL A   1      47.388  35.412  28.963  1.00  0.00     0.060 A 
BRANCH  57  58
ATOM     58  S   UNL A   1      47.809  37.138  29.299  1.00  0.00     0.124 S 
ATOM     59  O   UNL A   1      48.526  37.509  28.084  1.00  0.00    -0.237 OA
ATOM     60  O   UNL A   1      46.494  37.746  29.475  1.00  0.00    -0.237 OA
ATOM     61  O   UNL A   1      48.621  37.057  30.510  1.00  0.00    -0.744 OA
ENDBRANCH  57  58
ENDBRANCH  25  50
BRANCH  37  62
ATOM     62  C   UNL A   1      49.749  26.763  26.576  1.00  0.00     0.058 A 
ATOM     63  C   UNL A   1      50.627  26.218  27.523  1.00  0.00     0.135 A 
ATOM     64  C   UNL A   1      50.191  26.875  25.248  1.00  0.00     0.135 A 
ATOM     65  F   UNL A   1      50.251  26.098  28.805  1.00  0.00    -0.206 F 
ATOM     66  C   UNL A   1      51.901  25.793  27.162  1.00  0.00     0.059 A 
ATOM     67  C   UNL A   1      51.451  26.435  24.862  1.00  0.00     0.059 A 
ATOM     68  F   UNL A   1      49.380  27.383  24.306  1.00  0.00    -0.206 F 
ATOM     69  C   UNL A   1      52.299  25.895  25.827  1.00  0.00     0.060 A 
BRANCH  69  70
ATOM     70  S   UNL A   1      53.922  25.262  25.357  1.00  0.00     0.124 S 
ATOM     71  O   UNL A   1      53.726  23.822  25.492  1.00  0.00    -0.237 OA
ATOM     72  O   UNL A   1      54.067  25.757  23.991  1.00  0.00    -0.237 OA
ATOM     73  O   UNL A   1      54.820  25.869  26.335  1.00  0.00    -0.744 OA
ENDBRANCH  69  70
ENDBRANCH  37  62
ENDBRANCH  11  12
ENDBRANCH   4   6
ENDBRANCH   3   4
ENDBRANCH   2   3
ENDBRANCH   1   2
BRANCH   1  74
ATOM     74  O   UNL A   1      33.713  31.946  27.701  1.00  0.00    -0.374 OA
BRANCH  74  75
ATOM     75  C   UNL A   1      33.417  30.599  27.328  1.00  0.00     0.202 C 
BRANCH  75  76
ATOM     76  C   UNL A   1      32.003  30.535  26.755  1.00  0.00     0.261 C 
BRANCH  76  77
ATOM     77  O   UNL A   1      32.103  30.317  25.339  1.00  0.00    -0.460 OA
BRANCH  77  78
ATOM     78  C   UNL A   1      31.356  29.293  24.843  1.00  0.00     0.342 C 
ATOM     79  O   UNL A   1      30.436  29.361  24.054  1.00  0.00    -0.246 OA
BRANCH  78  80
ATOM     80  C   UNL A   1      31.991  28.012  25.238  1.00  0.00     0.103 A 
ATOM     81  C   UNL A   1      31.191  27.068  25.925  1.00  0.00     0.045 A 
ATOM     82  C   UNL A   1      33.316  27.707  24.908  1.00  0.00     0.130 A 
ATOM     83  C   UNL A   1      31.715  25.819  26.253  1.00  0.00     0.042 A 
ATOM     84  C   UNL A   1      33.846  26.470  25.251  1.00  0.00     0.049 A 
ATOM     85  C   UNL A   1      33.051  25.541  25.923  1.00  0.00     0.030 A 
BRANCH  82  86
ATOM     86  O   UNL A   1      34.112  28.619  24.277  1.00  0.00    -0.507 OA
ATOM     87  H   UNL A   1      34.807  29.038  24.745  1.00  0.00     0.293 HD
ENDBRANCH  82  86
BRANCH  83  88
ATOM     88  N   UNL A   1      31.042  24.819  26.970  1.00  0.00    -0.319 N 
ATOM     89  C   UNL A   1      30.564  23.566  26.662  1.00  0.00     0.291 C 
ATOM     90  H   UNL A   1      30.874  25.071  27.907  1.00  0.00     0.170 HD
ATOM     91  O   UNL A   1      29.757  23.082  27.460  1.00  0.00    -0.265 OA
BRANCH  89  92
ATOM     92  C   UNL A   1      31.110  22.799  25.572  1.00  0.00     0.193 A 
ATOM     93  C   UNL A   1      31.149  23.051  24.212  1.00  0.00     0.057 A 
ATOM     94  O   UNL A   1      31.913  21.730  25.861  1.00  0.00    -0.444 OA
ATOM     95  C   UNL A   1      32.038  22.099  23.649  1.00  0.00     0.059 A 
ATOM     96  C   UNL A   1      32.466  21.311  24.693  1.00  0.00     0.170 A 
ATOM     97  Br  UNL A   1      33.674  19.899  24.536  1.00  0.00    -0.008 Br
ENDBRANCH  89  92
ENDBRANCH  83  88
ENDBRANCH  78  80
ENDBRANCH  77  78
ENDBRANCH  76  77
ENDBRANCH  75  76
ENDBRANCH  74  75
ENDBRANCH   1  74
TORSDOF 20
ENDMDL
MODEL 3
REMARK VINA RESULT:     -11.3      2.590      4.024
REMARK SMILES O=C(OCCOCCOC(=O)c1cc(NC(=O)c2ccc(Br)o2)ccc1O)c1ccc(-c2c3nc(c(-c4c(F)cc(S(=O)(=O)[O-])cc4F)c4ccc([nH]4)c(-c4c(F)cc(S(=O)(=O)[O-])cc4F)c4nc(c(-c5c(F)cc(S(=O)(=O)[O-])cc5F)c5ccc2[nH]5)C=C4)C=C3)cc1
REMARK SMILES IDX 5 1 4 2 3 3 2 4 1 5 28 6 29 7 93 8 30 9 92 10 31 11 32 12
REMARK SMILES IDX 33 13 86 14 34 15 91 16 85 17 87 18 35 19 90 20 84 21 83 22
REMARK SMILES IDX 36 24 70 25 49 26 69 27 50 28 53 29 68 30 88 31 51 32 52 33
REMARK SMILES IDX 67 35 89 36 54 37 37 38 38 39 47 40 39 41 40 42 46 43 48 44
REMARK SMILES IDX 41 45 42 46 43 47 44 48 45 49 71 50 72 51 81 52 73 53 74 54
REMARK SMILES IDX 80 55 82 56 75 57 76 58 77 59 78 60 79 61 55 62 56 63 65 64
REMARK SMILES IDX 57 65 58 66 64 67 66 68 59 69 60 70 61 71 62 72 63 73 6 74
REMARK SMILES IDX 7 75 8 76 9 77 10 78 11 79 12 80 13 81 26 82 14 83 25 84
REMARK SMILES IDX 24 85 27 86 15 88 16 89 17 91 18 92 19 93 23 94 20 95 21 96
REMARK SMILES IDX 22 97
REMARK H PARENT 87 23 53 34 27 87 15 90
REMARK Flexibility Score: inf
ROOT
ATOM      1  C   UNL A   1      31.797  29.728  25.529  1.00  0.00     0.202 C 
ENDROOT
BRANCH   1   2
ATOM      2  C   UNL A   1      32.026  29.556  27.029  1.00  0.00     0.261 C 
BRANCH   2   3
ATOM      3  O   UNL A   1      33.422  29.403  27.299  1.00  0.00    -0.460 OA
BRANCH   3   4
ATOM      4  C   UNL A   1      34.252  30.297  27.884  1.00  0.00     0.338 C 
ATOM      5  O   UNL A   1      33.796  31.410  28.147  1.00  0.00    -0.246 OA
BRANCH   4   6
ATOM      6  C   UNL A   1      35.678  30.023  28.261  1.00  0.00     0.060 A 
ATOM      7  C   UNL A   1      36.135  29.568  29.502  1.00  0.00     0.016 A 
ATOM      8  C   UNL A   1      36.619  30.135  27.223  1.00  0.00     0.016 A 
ATOM      9  C   UNL A   1      37.463  29.211  29.712  1.00  0.00     0.010 A 
ATOM     10  C   UNL A   1      37.953  29.774  27.419  1.00  0.00     0.010 A 
ATOM     11  C   UNL A   1      38.372  29.302  28.667  1.00  0.00    -0.014 A 
BRANCH  11  12
ATOM     12  C   UNL A   1      39.787  28.987  28.914  1.00  0.00     0.031 A 
ATOM     13  C   UNL A   1      40.659  30.065  29.467  1.00  0.00     0.074 A 
ATOM     14  C   UNL A   1      40.252  27.752  28.659  1.00  0.00     0.049 A 
ATOM     15  N   UNL A   1      41.953  30.096  29.600  1.00  0.00    -0.248 NA
ATOM     16  C   UNL A   1      39.968  31.280  29.932  1.00  0.00     0.031 C 
ATOM     17  C   UNL A   1      39.437  26.618  28.220  1.00  0.00     0.029 A 
ATOM     18  N   UNL A   1      41.523  27.248  28.722  1.00  0.00    -0.354 N 
ATOM     19  C   UNL A   1      42.243  31.349  30.122  1.00  0.00     0.074 A 
ATOM     20  C   UNL A   1      40.988  32.046  30.287  1.00  0.00     0.031 C 
ATOM     21  C   UNL A   1      40.234  25.552  28.038  1.00  0.00     0.029 A 
ATOM     22  C   UNL A   1      41.617  25.948  28.282  1.00  0.00     0.049 A 
ATOM     23  H   UNL A   1      42.294  27.764  29.051  1.00  0.00     0.167 HD
ATOM     24  C   UNL A   1      43.459  31.865  30.415  1.00  0.00     0.037 A 
ATOM     25  C   UNL A   1      42.708  25.193  28.057  1.00  0.00     0.037 A 
ATOM     26  C   UNL A   1      44.682  31.135  30.219  1.00  0.00     0.049 A 
ATOM     27  C   UNL A   1      44.057  25.806  28.327  1.00  0.00     0.074 A 
ATOM     28  C   UNL A   1      45.982  31.552  30.424  1.00  0.00     0.029 A 
ATOM     29  N   UNL A   1      44.744  29.821  29.764  1.00  0.00    -0.354 N 
ATOM     30  N   UNL A   1      44.337  27.014  28.761  1.00  0.00    -0.248 NA
ATOM     31  C   UNL A   1      45.235  24.970  28.070  1.00  0.00     0.031 C 
ATOM     32  C   UNL A   1      46.833  30.505  30.052  1.00  0.00     0.029 A 
ATOM     33  C   UNL A   1      46.062  29.414  29.671  1.00  0.00     0.049 A 
ATOM     34  H   UNL A   1      43.964  29.263  29.542  1.00  0.00     0.167 HD
ATOM     35  C   UNL A   1      45.722  27.076  28.856  1.00  0.00     0.074 A 
ATOM     36  C   UNL A   1      46.222  25.782  28.431  1.00  0.00     0.031 C 
ATOM     37  C   UNL A   1      46.510  28.104  29.260  1.00  0.00     0.037 A 
BRANCH  24  38
ATOM     38  C   UNL A   1      43.497  33.293  30.881  1.00  0.00     0.058 A 
ATOM     39  C   UNL A   1      43.612  34.369  29.986  1.00  0.00     0.135 A 
ATOM     40  C   UNL A   1      43.495  33.584  32.255  1.00  0.00     0.135 A 
ATOM     41  F   UNL A   1      43.648  34.148  28.663  1.00  0.00    -0.206 F 
ATOM     42  C   UNL A   1      43.778  35.676  30.437  1.00  0.00     0.059 A 
ATOM     43  C   UNL A   1      43.632  34.886  32.729  1.00  0.00     0.059 A 
ATOM     44  F   UNL A   1      43.397  32.593  33.157  1.00  0.00    -0.206 F 
ATOM     45  C   UNL A   1      43.801  35.921  31.811  1.00  0.00     0.060 A 
BRANCH  45  46
ATOM     46  S   UNL A   1      44.086  37.609  32.385  1.00  0.00     0.124 S 
ATOM     47  O   UNL A   1      43.747  38.382  31.193  1.00  0.00    -0.237 OA
ATOM     48  O   UNL A   1      43.153  37.725  33.500  1.00  0.00    -0.237 OA
ATOM     49  O   UNL A   1      45.499  37.610  32.751  1.00  0.00    -0.744 OA
ENDBRANCH  45  46
ENDBRANCH  24  38
BRANCH  25  50
ATOM     50  C   UNL A   1      42.557  23.812  27.524  1.00  0.00     0.058 A 
ATOM     51  C   UNL A   1      42.576  23.556  26.147  1.00  0.00     0.135 A 
ATOM     52  C   UNL A   1      42.443  22.709  28.388  1.00  0.00     0.135 A 
ATOM     53  F   UNL A   1      42.673  24.572  25.277  1.00  0.00    -0.206 F 
ATOM     54  C   UNL A   1      42.494  22.260  25.642  1.00  0.00     0.059 A 
ATOM     55  C   UNL A   1      42.384  21.402  27.910  1.00  0.00     0.059 A 
ATOM     56  F   UNL A   1      42.428  22.894  29.717  1.00  0.00    -0.206 F 
ATOM     57  C   UNL A   1      42.406  21.188  26.533  1.00  0.00     0.060 A 
BRANCH  57  58
ATOM     58  S   UNL A   1      42.374  19.507  25.871  1.00  0.00     0.124 S 
ATOM     59  O   UNL A   1      43.360  19.592  24.799  1.00  0.00    -0.237 OA
ATOM     60  O   UNL A   1      42.760  18.712  27.031  1.00  0.00    -0.237 OA
ATOM     61  O   UNL A   1      40.988  19.341  25.440  1.00  0.00    -0.744 OA
ENDBRANCH  57  58
ENDBRANCH  25  50
BRANCH  37  62
ATOM     62  C   UNL A   1      47.989  27.856  29.316  1.00  0.00     0.058 A 
ATOM     63  C   UNL A   1      48.584  27.182  30.392  1.00  0.00     0.135 A 
ATOM     64  C   UNL A   1      48.797  28.201  28.221  1.00  0.00     0.135 A 
ATOM     65  F   UNL A   1      47.854  26.838  31.463  1.00  0.00    -0.206 F 
ATOM     66  C   UNL A   1      49.936  26.856  30.378  1.00  0.00     0.059 A 
ATOM     67  C   UNL A   1      50.144  27.864  28.176  1.00  0.00     0.059 A 
ATOM     68  F   UNL A   1      48.268  28.840  27.165  1.00  0.00    -0.206 F 
ATOM     69  C   UNL A   1      50.704  27.192  29.260  1.00  0.00     0.060 A 
BRANCH  69  70
ATOM     70  S   UNL A   1      52.437  26.687  29.219  1.00  0.00     0.124 S 
ATOM     71  O   UNL A   1      52.562  25.960  30.478  1.00  0.00    -0.237 OA
ATOM     72  O   UNL A   1      52.496  25.874  28.008  1.00  0.00    -0.237 OA
ATOM     73  O   UNL A   1      53.158  27.955  29.151  1.00  0.00    -0.744 OA
ENDBRANCH  69  70
ENDBRANCH  37  62
ENDBRANCH  11  12
ENDBRANCH   4   6
ENDBRANCH   3   4
ENDBRANCH   2   3
ENDBRANCH   1   2
BRANCH   1  74
ATOM     74  O   UNL A   1      30.962  28.712  24.979  1.00  0.00    -0.374 OA
BRANCH  74  75
ATOM     75  C   UNL A   1      30.574  28.904  23.617  1.00  0.00     0.202 C 
BRANCH  75  76
ATOM     76  C   UNL A   1      31.812  29.221  22.781  1.00  0.00     0.261 C 
BRANCH  76  77
ATOM     77  O   UNL A   1      32.399  27.978  22.363  1.00  0.00    -0.460 OA
BRANCH  77  78
ATOM     78  C   UNL A   1      33.476  27.561  23.082  1.00  0.00     0.342 C 
ATOM     79  O   UNL A   1      34.345  28.247  23.582  1.00  0.00    -0.246 OA
BRANCH  78  80
ATOM     80  C   UNL A   1      33.314  26.117  23.378  1.00  0.00     0.103 A 
ATOM     81  C   UNL A   1      33.204  25.734  24.736  1.00  0.00     0.045 A 
ATOM     82  C   UNL A   1      33.218  25.158  22.364  1.00  0.00     0.130 A 
ATOM     83  C   UNL A   1      32.975  24.400  25.067  1.00  0.00     0.042 A 
ATOM     84  C   UNL A   1      33.009  23.824  22.692  1.00  0.00     0.049 A 
ATOM     85  C   UNL A   1      32.896  23.453  24.033  1.00  0.00     0.030 A 
BRANCH  82  86
ATOM     86  O   UNL A   1      33.356  25.505  21.051  1.00  0.00    -0.507 OA
ATOM     87  H   UNL A   1      32.639  25.391  20.459  1.00  0.00     0.293 HD
ENDBRANCH  82  86
BRANCH  83  88
ATOM     88  N   UNL A   1      32.894  23.888  26.370  1.00  0.00    -0.319 N 
ATOM     89  C   UNL A   1      33.238  22.694  26.961  1.00  0.00     0.291 C 
ATOM     90  H   UNL A   1      32.501  24.529  27.007  1.00  0.00     0.170 HD
ATOM     91  O   UNL A   1      32.749  22.478  28.073  1.00  0.00    -0.265 OA
BRANCH  89  92
ATOM     92  C   UNL A   1      34.248  21.837  26.393  1.00  0.00     0.193 A 
ATOM     93  C   UNL A   1      34.140  20.699  25.612  1.00  0.00     0.057 A 
ATOM     94  O   UNL A   1      35.550  22.254  26.416  1.00  0.00    -0.444 OA
ATOM     95  C   UNL A   1      35.442  20.424  25.117  1.00  0.00     0.059 A 
ATOM     96  C   UNL A   1      36.265  21.392  25.646  1.00  0.00     0.170 A 
ATOM     97  Br  UNL A   1      38.094  21.532  25.313  1.00  0.00    -0.008 Br
ENDBRANCH  89  92
ENDBRANCH  83  88
ENDBRANCH  78  80
ENDBRANCH  77  78
ENDBRANCH  76  77
ENDBRANCH  75  76
ENDBRANCH  74  75
ENDBRANCH   1  74
TORSDOF 20
ENDMDL
