MODEL 1
REMARK VINA RESULT:     -11.8      0.000      0.000
REMARK SMILES C/C(=N\NC(N)=O)c1nnn(-c2ccc(C(=O)OCCOCCOC(=O)c3ccc(-c4c5nc(c(-c6c(F)cc(S(=O)(=O)[O-])cc6F)c6ccc([nH]6)c(-c6c(F)cc(S(=O)(=O)[O-])cc6F)c6nc(c(-c7c(F)cc(S(=O)(=O)[O-])cc7F)c7ccc4[nH]7)C=C6)C=C5)cc3)cc2)c1C
REMARK SMILES IDX 21 1 20 2 19 3 18 4 16 5 17 6 15 7 12 8 13 9 94 10 14 11
REMARK SMILES IDX 93 12 11 13 8 14 9 15 95 16 10 17 96 18 2 19 1 20 3 21 4 22
REMARK SMILES IDX 5 23 6 25 7 26 22 29 23 30 24 31 25 32 26 33 27 34 28 35
REMARK SMILES IDX 92 36 29 37 91 38 30 39 31 40 32 41 85 42 33 43 90 44 84 45
REMARK SMILES IDX 86 46 34 47 89 48 83 49 82 50 35 52 69 53 48 54 68 55 49 56
REMARK SMILES IDX 52 57 67 58 87 59 50 60 51 61 66 63 88 64 53 65 36 66 37 67
REMARK SMILES IDX 46 68 38 69 39 70 45 71 47 72 40 73 41 74 42 75 43 76 44 77
REMARK SMILES IDX 70 78 71 79 80 80 72 81 73 82 79 83 81 84 74 85 75 86 76 87
REMARK SMILES IDX 77 88 78 89 54 90 55 91 64 92 56 93 57 94 63 95 65 96 58 97
REMARK SMILES IDX 59 98 60 99 61 100 62 101
REMARK H PARENT 4 24 6 27 6 28 86 51 52 62
REMARK Flexibility Score: inf
ROOT
ATOM      1  O   UNL A   1      42.024  21.277  25.724  1.00  0.00    -0.374 OA
ENDROOT
BRANCH   1   2
ATOM      2  C   UNL A   1      41.349  21.561  26.949  1.00  0.00     0.202 C 
BRANCH   2   3
ATOM      3  C   UNL A   1      39.886  22.000  26.910  1.00  0.00     0.261 C 
BRANCH   3   4
ATOM      4  O   UNL A   1      39.679  23.138  26.064  1.00  0.00    -0.460 OA
BRANCH   4   5
ATOM      5  C   UNL A   1      38.749  24.009  26.520  1.00  0.00     0.338 C 
ATOM      6  O   UNL A   1      38.930  24.961  27.262  1.00  0.00    -0.246 OA
BRANCH   5   7
ATOM      7  C   UNL A   1      37.443  23.737  25.887  1.00  0.00     0.060 A 
ATOM      8  C   UNL A   1      35.073  22.732  24.893  1.00  0.00     0.067 A 
ATOM      9  C   UNL A   1      35.106  23.169  26.218  1.00  0.00     0.029 A 
ATOM     10  C   UNL A   1      36.152  22.956  24.024  1.00  0.00     0.029 A 
ATOM     11  C   UNL A   1      36.314  23.649  26.720  1.00  0.00     0.018 A 
ATOM     12  C   UNL A   1      37.345  23.469  24.522  1.00  0.00     0.018 A 
BRANCH   8  13
ATOM     13  N   UNL A   1      34.075  21.814  24.506  1.00  0.00    -0.217 N 
ATOM     14  C   UNL A   1      32.973  19.972  24.147  1.00  0.00     0.132 A 
ATOM     15  N   UNL A   1      32.096  21.026  24.122  1.00  0.00    -0.128 NA
ATOM     16  C   UNL A   1      34.236  20.438  24.454  1.00  0.00     0.071 A 
ATOM     17  N   UNL A   1      32.764  22.127  24.450  1.00  0.00    -0.061 NA
ATOM     18  C   UNL A   1      35.480  19.719  24.824  1.00  0.00     0.069 C 
BRANCH  14  19
ATOM     19  C   UNL A   1      32.557  18.582  24.053  1.00  0.00     0.087 C 
ATOM     20  C   UNL A   1      32.329  18.046  22.664  1.00  0.00     0.071 C 
ATOM     21  N   UNL A   1      32.445  17.958  25.187  1.00  0.00    -0.174 NA
BRANCH  21  22
ATOM     22  N   UNL A   1      31.989  16.674  25.290  1.00  0.00    -0.229 N 
ATOM     23  C   UNL A   1      32.743  15.520  25.305  1.00  0.00     0.332 C 
ATOM     24  H   UNL A   1      31.014  16.561  25.363  1.00  0.00     0.195 HD
ATOM     25  N   UNL A   1      31.972  14.398  25.374  1.00  0.00    -0.350 N 
ATOM     26  O   UNL A   1      33.961  15.418  25.282  1.00  0.00    -0.247 OA
ATOM     27  H   UNL A   1      30.991  14.474  25.393  1.00  0.00     0.161 HD
ATOM     28  H   UNL A   1      32.397  13.510  25.404  1.00  0.00     0.161 HD
ENDBRANCH  21  22
ENDBRANCH  14  19
ENDBRANCH   8  13
ENDBRANCH   5   7
ENDBRANCH   4   5
ENDBRANCH   3   4
ENDBRANCH   2   3
ENDBRANCH   1   2
BRANCH   1  29
ATOM     29  C   UNL A   1      43.447  21.283  25.648  1.00  0.00     0.202 C 
BRANCH  29  30
ATOM     30  C   UNL A   1      44.157  22.421  24.928  1.00  0.00     0.261 C 
BRANCH  30  31
ATOM     31  O   UNL A   1      43.253  23.436  24.539  1.00  0.00    -0.460 OA
BRANCH  31  32
ATOM     32  C   UNL A   1      43.596  24.665  24.979  1.00  0.00     0.338 C 
ATOM     33  O   UNL A   1      44.643  25.265  24.763  1.00  0.00    -0.246 OA
BRANCH  32  34
ATOM     34  C   UNL A   1      42.543  25.148  25.874  1.00  0.00     0.060 A 
ATOM     35  C   UNL A   1      41.809  26.235  25.394  1.00  0.00     0.016 A 
ATOM     36  C   UNL A   1      42.663  24.852  27.237  1.00  0.00     0.016 A 
ATOM     37  C   UNL A   1      41.497  27.230  26.286  1.00  0.00     0.010 A 
ATOM     38  C   UNL A   1      42.400  25.864  28.114  1.00  0.00     0.010 A 
ATOM     39  C   UNL A   1      41.923  27.072  27.604  1.00  0.00    -0.014 A 
BRANCH  39  40
ATOM     40  C   UNL A   1      41.816  28.188  28.510  1.00  0.00     0.031 A 
ATOM     41  C   UNL A   1      42.992  29.078  28.407  1.00  0.00     0.074 A 
ATOM     42  C   UNL A   1      40.667  28.401  29.182  1.00  0.00     0.049 A 
ATOM     43  N   UNL A   1      43.913  29.294  29.288  1.00  0.00    -0.248 NA
ATOM     44  C   UNL A   1      43.329  29.588  27.062  1.00  0.00     0.031 C 
ATOM     45  C   UNL A   1      39.405  27.656  29.082  1.00  0.00     0.029 A 
ATOM     46  N   UNL A   1      40.345  29.428  30.012  1.00  0.00    -0.354 N 
ATOM     47  C   UNL A   1      44.783  30.188  28.673  1.00  0.00     0.074 A 
ATOM     48  C   UNL A   1      44.551  30.075  27.264  1.00  0.00     0.031 C 
ATOM     49  C   UNL A   1      38.408  28.388  29.630  1.00  0.00     0.029 A 
ATOM     50  C   UNL A   1      38.973  29.588  30.214  1.00  0.00     0.049 A 
ATOM     51  H   UNL A   1      41.020  30.008  30.433  1.00  0.00     0.167 HD
ATOM     52  C   UNL A   1      45.351  31.206  29.373  1.00  0.00     0.037 A 
ATOM     53  C   UNL A   1      38.389  30.709  30.716  1.00  0.00     0.037 A 
ATOM     54  C   UNL A   1      45.329  30.927  30.788  1.00  0.00     0.049 A 
ATOM     55  C   UNL A   1      39.471  31.461  31.419  1.00  0.00     0.074 A 
ATOM     56  C   UNL A   1      45.847  29.919  31.578  1.00  0.00     0.029 A 
ATOM     57  N   UNL A   1      44.351  31.533  31.542  1.00  0.00    -0.354 N 
ATOM     58  N   UNL A   1      40.096  31.005  32.475  1.00  0.00    -0.248 NA
ATOM     59  C   UNL A   1      40.206  32.451  30.643  1.00  0.00     0.031 C 
ATOM     60  C   UNL A   1      44.851  29.671  32.565  1.00  0.00     0.029 A 
ATOM     61  C   UNL A   1      43.814  30.587  32.377  1.00  0.00     0.049 A 
ATOM     62  H   UNL A   1      44.085  32.479  31.490  1.00  0.00     0.167 HD
ATOM     63  C   UNL A   1      41.433  31.331  32.273  1.00  0.00     0.074 A 
ATOM     64  C   UNL A   1      41.429  32.263  31.146  1.00  0.00     0.031 C 
ATOM     65  C   UNL A   1      42.439  30.595  32.835  1.00  0.00     0.037 A 
BRANCH  52  66
ATOM     66  C   UNL A   1      45.529  32.602  28.812  1.00  0.00     0.058 A 
ATOM     67  C   UNL A   1      46.811  33.182  28.845  1.00  0.00     0.135 A 
ATOM     68  C   UNL A   1      44.472  33.493  28.499  1.00  0.00     0.135 A 
ATOM     69  F   UNL A   1      47.892  32.436  29.121  1.00  0.00    -0.206 F 
ATOM     70  C   UNL A   1      47.016  34.552  28.673  1.00  0.00     0.059 A 
ATOM     71  C   UNL A   1      44.660  34.848  28.268  1.00  0.00     0.059 A 
ATOM     72  F   UNL A   1      43.185  33.132  28.488  1.00  0.00    -0.206 F 
ATOM     73  C   UNL A   1      45.927  35.378  28.405  1.00  0.00     0.060 A 
BRANCH  73  74
ATOM     74  S   UNL A   1      46.162  37.158  28.303  1.00  0.00     0.124 S 
ATOM     75  O   UNL A   1      45.594  37.596  29.571  1.00  0.00    -0.237 OA
ATOM     76  O   UNL A   1      47.612  37.261  28.175  1.00  0.00    -0.237 OA
ATOM     77  O   UNL A   1      45.405  37.528  27.110  1.00  0.00    -0.744 OA
ENDBRANCH  73  74
ENDBRANCH  52  66
BRANCH  53  78
ATOM     78  C   UNL A   1      37.122  31.348  30.251  1.00  0.00     0.058 A 
ATOM     79  C   UNL A   1      36.186  31.884  31.154  1.00  0.00     0.135 A 
ATOM     80  C   UNL A   1      36.925  31.682  28.894  1.00  0.00     0.135 A 
ATOM     81  F   UNL A   1      36.308  31.649  32.470  1.00  0.00    -0.206 F 
ATOM     82  C   UNL A   1      35.138  32.722  30.741  1.00  0.00     0.059 A 
ATOM     83  C   UNL A   1      35.886  32.503  28.458  1.00  0.00     0.059 A 
ATOM     84  F   UNL A   1      37.794  31.291  27.950  1.00  0.00    -0.206 F 
ATOM     85  C   UNL A   1      35.006  33.038  29.389  1.00  0.00     0.060 A 
BRANCH  85  86
ATOM     86  S   UNL A   1      33.756  34.237  28.859  1.00  0.00     0.124 S 
ATOM     87  O   UNL A   1      33.125  34.596  30.126  1.00  0.00    -0.237 OA
ATOM     88  O   UNL A   1      34.568  35.275  28.234  1.00  0.00    -0.237 OA
ATOM     89  O   UNL A   1      32.917  33.470  27.942  1.00  0.00    -0.744 OA
ENDBRANCH  85  86
ENDBRANCH  53  78
BRANCH  65  90
ATOM     90  C   UNL A   1      42.077  29.549  33.863  1.00  0.00     0.058 A 
ATOM     91  C   UNL A   1      41.709  28.227  33.551  1.00  0.00     0.135 A 
ATOM     92  C   UNL A   1      42.318  29.840  35.213  1.00  0.00     0.135 A 
ATOM     93  F   UNL A   1      41.555  27.842  32.277  1.00  0.00    -0.206 F 
ATOM     94  C   UNL A   1      41.570  27.246  34.536  1.00  0.00     0.059 A 
ATOM     95  C   UNL A   1      42.213  28.872  36.209  1.00  0.00     0.059 A 
ATOM     96  F   UNL A   1      42.733  31.067  35.571  1.00  0.00    -0.206 F 
ATOM     97  C   UNL A   1      41.833  27.577  35.864  1.00  0.00     0.060 A 
BRANCH  97  98
ATOM     98  S   UNL A   1      41.760  26.286  37.127  1.00  0.00     0.124 S 
ATOM     99  O   UNL A   1      41.895  25.070  36.332  1.00  0.00    -0.237 OA
ATOM    100  O   UNL A   1      42.896  26.614  37.983  1.00  0.00    -0.237 OA
ATOM    101  O   UNL A   1      40.450  26.486  37.744  1.00  0.00    -0.744 OA
ENDBRANCH  97  98
ENDBRANCH  65  90
ENDBRANCH  39  40
ENDBRANCH  32  34
ENDBRANCH  31  32
ENDBRANCH  30  31
ENDBRANCH  29  30
ENDBRANCH   1  29
TORSDOF 20
ENDMDL
MODEL 2
REMARK VINA RESULT:     -11.8      2.638      3.419
REMARK SMILES C/C(=N\NC(N)=O)c1nnn(-c2ccc(C(=O)OCCOCCOC(=O)c3ccc(-c4c5nc(c(-c6c(F)cc(S(=O)(=O)[O-])cc6F)c6ccc([nH]6)c(-c6c(F)cc(S(=O)(=O)[O-])cc6F)c6nc(c(-c7c(F)cc(S(=O)(=O)[O-])cc7F)c7ccc4[nH]7)C=C6)C=C5)cc3)cc2)c1C
REMARK SMILES IDX 21 1 20 2 19 3 18 4 16 5 17 6 15 7 12 8 13 9 94 10 14 11
REMARK SMILES IDX 93 12 11 13 8 14 9 15 95 16 10 17 96 18 2 19 1 20 3 21 4 22
REMARK SMILES IDX 5 23 6 25 7 26 22 29 23 30 24 31 25 32 26 33 27 34 28 35
REMARK SMILES IDX 92 36 29 37 91 38 30 39 31 40 32 41 85 42 33 43 90 44 84 45
REMARK SMILES IDX 86 46 34 47 89 48 83 49 82 50 35 52 69 53 48 54 68 55 49 56
REMARK SMILES IDX 52 57 67 58 87 59 50 60 51 61 66 63 88 64 53 65 36 66 37 67
REMARK SMILES IDX 46 68 38 69 39 70 45 71 47 72 40 73 41 74 42 75 43 76 44 77
REMARK SMILES IDX 70 78 71 79 80 80 72 81 73 82 79 83 81 84 74 85 75 86 76 87
REMARK SMILES IDX 77 88 78 89 54 90 55 91 64 92 56 93 57 94 63 95 65 96 58 97
REMARK SMILES IDX 59 98 60 99 61 100 62 101
REMARK H PARENT 4 24 6 27 6 28 86 51 52 62
REMARK Flexibility Score: inf
ROOT
ATOM      1  O   UNL A   1      43.171  18.994  25.012  1.00  0.00    -0.374 OA
ENDROOT
BRANCH   1   2
ATOM      2  C   UNL A   1      42.691  18.552  26.281  1.00  0.00     0.202 C 
BRANCH   2   3
ATOM      3  C   UNL A   1      41.945  19.536  27.180  1.00  0.00     0.261 C 
BRANCH   3   4
ATOM      4  O   UNL A   1      41.582  20.739  26.492  1.00  0.00    -0.460 OA
BRANCH   4   5
ATOM      5  C   UNL A   1      40.841  21.599  27.227  1.00  0.00     0.338 C 
ATOM      6  O   UNL A   1      41.078  22.001  28.356  1.00  0.00    -0.246 OA
BRANCH   5   7
ATOM      7  C   UNL A   1      39.717  22.120  26.423  1.00  0.00     0.060 A 
ATOM      8  C   UNL A   1      37.327  23.005  25.363  1.00  0.00     0.067 A 
ATOM      9  C   UNL A   1      38.091  23.896  26.117  1.00  0.00     0.029 A 
ATOM     10  C   UNL A   1      37.828  21.747  24.994  1.00  0.00     0.029 A 
ATOM     11  C   UNL A   1      39.283  23.434  26.672  1.00  0.00     0.018 A 
ATOM     12  C   UNL A   1      39.035  21.302  25.521  1.00  0.00     0.018 A 
BRANCH   8  13
ATOM     13  N   UNL A   1      35.947  23.250  25.216  1.00  0.00    -0.217 N 
ATOM     14  C   UNL A   1      33.786  22.998  25.162  1.00  0.00     0.132 A 
ATOM     15  N   UNL A   1      34.074  24.335  25.248  1.00  0.00    -0.128 NA
ATOM     16  C   UNL A   1      34.961  22.275  25.204  1.00  0.00     0.071 A 
ATOM     17  N   UNL A   1      35.389  24.466  25.391  1.00  0.00    -0.061 NA
ATOM     18  C   UNL A   1      35.210  20.821  25.369  1.00  0.00     0.069 C 
BRANCH  14  19
ATOM     19  C   UNL A   1      32.434  22.465  25.216  1.00  0.00     0.087 C 
ATOM     20  C   UNL A   1      31.873  21.934  23.923  1.00  0.00     0.071 C 
ATOM     21  N   UNL A   1      31.871  22.497  26.387  1.00  0.00    -0.174 NA
BRANCH  21  22
ATOM     22  N   UNL A   1      30.578  22.112  26.604  1.00  0.00    -0.229 N 
ATOM     23  C   UNL A   1      29.530  22.907  27.014  1.00  0.00     0.332 C 
ATOM     24  H   UNL A   1      30.373  21.162  26.451  1.00  0.00     0.195 HD
ATOM     25  N   UNL A   1      28.377  22.200  27.180  1.00  0.00    -0.350 N 
ATOM     26  O   UNL A   1      29.535  24.114  27.213  1.00  0.00    -0.247 OA
ATOM     27  H   UNL A   1      28.366  21.229  27.022  1.00  0.00     0.161 HD
ATOM     28  H   UNL A   1      27.552  22.662  27.459  1.00  0.00     0.161 HD
ENDBRANCH  21  22
ENDBRANCH  14  19
ENDBRANCH   8  13
ENDBRANCH   5   7
ENDBRANCH   4   5
ENDBRANCH   3   4
ENDBRANCH   2   3
ENDBRANCH   1   2
BRANCH   1  29
ATOM     29  C   UNL A   1      44.542  18.846  24.650  1.00  0.00     0.202 C 
BRANCH  29  30
ATOM     30  C   UNL A   1      45.325  20.057  24.162  1.00  0.00     0.261 C 
BRANCH  30  31
ATOM     31  O   UNL A   1      44.471  21.139  23.849  1.00  0.00    -0.460 OA
BRANCH  31  32
ATOM     32  C   UNL A   1      44.911  22.328  24.311  1.00  0.00     0.338 C 
ATOM     33  O   UNL A   1      45.932  22.921  23.982  1.00  0.00    -0.246 OA
BRANCH  32  34
ATOM     34  C   UNL A   1      44.014  22.771  25.380  1.00  0.00     0.060 A 
ATOM     35  C   UNL A   1      43.000  23.645  24.981  1.00  0.00     0.016 A 
ATOM     36  C   UNL A   1      44.490  22.708  26.695  1.00  0.00     0.016 A 
ATOM     37  C   UNL A   1      42.715  24.702  25.807  1.00  0.00     0.010 A 
ATOM     38  C   UNL A   1      44.246  23.788  27.493  1.00  0.00     0.010 A 
ATOM     39  C   UNL A   1      43.448  24.814  26.987  1.00  0.00    -0.014 A 
BRANCH  39  40
ATOM     40  C   UNL A   1      43.339  26.025  27.764  1.00  0.00     0.031 A 
ATOM     41  C   UNL A   1      44.465  26.943  27.487  1.00  0.00     0.074 A 
ATOM     42  C   UNL A   1      42.221  26.270  28.476  1.00  0.00     0.049 A 
ATOM     43  N   UNL A   1      45.422  27.298  28.279  1.00  0.00    -0.248 NA
ATOM     44  C   UNL A   1      44.701  27.304  26.074  1.00  0.00     0.031 C 
ATOM     45  C   UNL A   1      40.991  25.467  28.539  1.00  0.00     0.029 A 
ATOM     46  N   UNL A   1      41.898  27.373  29.199  1.00  0.00    -0.354 N 
ATOM     47  C   UNL A   1      46.213  28.148  27.513  1.00  0.00     0.074 A 
ATOM     48  C   UNL A   1      45.908  27.860  26.143  1.00  0.00     0.031 C 
ATOM     49  C   UNL A   1      39.993  26.218  29.059  1.00  0.00     0.029 A 
ATOM     50  C   UNL A   1      40.533  27.501  29.464  1.00  0.00     0.049 A 
ATOM     51  H   UNL A   1      42.567  28.025  29.509  1.00  0.00     0.167 HD
ATOM     52  C   UNL A   1      46.771  29.263  28.055  1.00  0.00     0.037 A 
ATOM     53  C   UNL A   1      39.926  28.648  29.868  1.00  0.00     0.037 A 
ATOM     54  C   UNL A   1      46.842  29.153  29.491  1.00  0.00     0.049 A 
ATOM     55  C   UNL A   1      41.009  29.522  30.413  1.00  0.00     0.074 A 
ATOM     56  C   UNL A   1      47.450  28.267  30.359  1.00  0.00     0.029 A 
ATOM     57  N   UNL A   1      45.879  29.804  30.228  1.00  0.00    -0.354 N 
ATOM     58  N   UNL A   1      41.713  29.219  31.474  1.00  0.00    -0.248 NA
ATOM     59  C   UNL A   1      41.652  30.442  29.484  1.00  0.00     0.031 C 
ATOM     60  C   UNL A   1      46.523  28.097  31.427  1.00  0.00     0.029 A 
ATOM     61  C   UNL A   1      45.435  28.942  31.198  1.00  0.00     0.049 A 
ATOM     62  H   UNL A   1      45.566  30.726  30.084  1.00  0.00     0.167 HD
ATOM     63  C   UNL A   1      43.020  29.572  31.154  1.00  0.00     0.074 A 
ATOM     64  C   UNL A   1      42.909  30.364  29.930  1.00  0.00     0.031 C 
ATOM     65  C   UNL A   1      44.089  28.949  31.735  1.00  0.00     0.037 A 
BRANCH  52  66
ATOM     66  C   UNL A   1      46.852  30.589  27.326  1.00  0.00     0.058 A 
ATOM     67  C   UNL A   1      48.092  31.252  27.270  1.00  0.00     0.135 A 
ATOM     68  C   UNL A   1      45.736  31.364  26.924  1.00  0.00     0.135 A 
ATOM     69  F   UNL A   1      49.222  30.617  27.619  1.00  0.00    -0.206 F 
ATOM     70  C   UNL A   1      48.203  32.601  26.931  1.00  0.00     0.059 A 
ATOM     71  C   UNL A   1      45.831  32.690  26.528  1.00  0.00     0.059 A 
ATOM     72  F   UNL A   1      44.475  30.920  26.975  1.00  0.00    -0.206 F 
ATOM     73  C   UNL A   1      47.060  33.315  26.580  1.00  0.00     0.060 A 
BRANCH  73  74
ATOM     74  S   UNL A   1      47.174  35.081  26.260  1.00  0.00     0.124 S 
ATOM     75  O   UNL A   1      48.315  35.451  27.089  1.00  0.00    -0.237 OA
ATOM     76  O   UNL A   1      47.391  35.109  24.818  1.00  0.00    -0.237 OA
ATOM     77  O   UNL A   1      45.879  35.586  26.705  1.00  0.00    -0.744 OA
ENDBRANCH  73  74
ENDBRANCH  52  66
BRANCH  53  78
ATOM     78  C   UNL A   1      38.607  29.177  29.411  1.00  0.00     0.058 A 
ATOM     79  C   UNL A   1      37.558  29.438  30.312  1.00  0.00     0.135 A 
ATOM     80  C   UNL A   1      38.433  29.686  28.106  1.00  0.00     0.135 A 
ATOM     81  F   UNL A   1      37.646  29.022  31.585  1.00  0.00    -0.206 F 
ATOM     82  C   UNL A   1      36.424  30.182  29.951  1.00  0.00     0.059 A 
ATOM     83  C   UNL A   1      37.312  30.419  27.720  1.00  0.00     0.059 A 
ATOM     84  F   UNL A   1      39.396  29.564  27.181  1.00  0.00    -0.206 F 
ATOM     85  C   UNL A   1      36.318  30.682  28.653  1.00  0.00     0.060 A 
BRANCH  85  86
ATOM     86  S   UNL A   1      34.939  31.770  28.214  1.00  0.00     0.124 S 
ATOM     87  O   UNL A   1      34.084  30.878  27.437  1.00  0.00    -0.237 OA
ATOM     88  O   UNL A   1      34.427  32.165  29.522  1.00  0.00    -0.237 OA
ATOM     89  O   UNL A   1      35.579  32.838  27.450  1.00  0.00    -0.744 OA
ENDBRANCH  85  86
ENDBRANCH  53  78
BRANCH  65  90
ATOM     90  C   UNL A   1      43.835  28.018  32.897  1.00  0.00     0.058 A 
ATOM     91  C   UNL A   1      43.542  28.448  34.205  1.00  0.00     0.135 A 
ATOM     92  C   UNL A   1      43.675  26.652  32.627  1.00  0.00     0.135 A 
ATOM     93  F   UNL A   1      43.576  29.749  34.522  1.00  0.00    -0.206 F 
ATOM     94  C   UNL A   1      43.127  27.559  35.201  1.00  0.00     0.059 A 
ATOM     95  C   UNL A   1      43.236  25.752  33.595  1.00  0.00     0.059 A 
ATOM     96  F   UNL A   1      43.878  26.187  31.383  1.00  0.00    -0.206 F 
ATOM     97  C   UNL A   1      42.968  26.211  34.882  1.00  0.00     0.060 A 
BRANCH  97  98
ATOM     98  S   UNL A   1      42.329  25.077  36.136  1.00  0.00     0.124 S 
ATOM     99  O   UNL A   1      43.004  25.542  37.343  1.00  0.00    -0.237 OA
ATOM    100  O   UNL A   1      40.891  25.320  36.080  1.00  0.00    -0.237 OA
ATOM    101  O   UNL A   1      42.748  23.763  35.653  1.00  0.00    -0.744 OA
ENDBRANCH  97  98
ENDBRANCH  65  90
ENDBRANCH  39  40
ENDBRANCH  32  34
ENDBRANCH  31  32
ENDBRANCH  30  31
ENDBRANCH  29  30
ENDBRANCH   1  29
TORSDOF 20
ENDMDL
MODEL 3
REMARK VINA RESULT:     -11.4      3.680      5.567
REMARK SMILES C/C(=N\NC(N)=O)c1nnn(-c2ccc(C(=O)OCCOCCOC(=O)c3ccc(-c4c5nc(c(-c6c(F)cc(S(=O)(=O)[O-])cc6F)c6ccc([nH]6)c(-c6c(F)cc(S(=O)(=O)[O-])cc6F)c6nc(c(-c7c(F)cc(S(=O)(=O)[O-])cc7F)c7ccc4[nH]7)C=C6)C=C5)cc3)cc2)c1C
REMARK SMILES IDX 21 1 20 2 19 3 18 4 16 5 17 6 15 7 12 8 13 9 94 10 14 11
REMARK SMILES IDX 93 12 11 13 8 14 9 15 95 16 10 17 96 18 2 19 1 20 3 21 4 22
REMARK SMILES IDX 5 23 6 25 7 26 22 29 23 30 24 31 25 32 26 33 27 34 28 35
REMARK SMILES IDX 92 36 29 37 91 38 30 39 31 40 32 41 85 42 33 43 90 44 84 45
REMARK SMILES IDX 86 46 34 47 89 48 83 49 82 50 35 52 69 53 48 54 68 55 49 56
REMARK SMILES IDX 52 57 67 58 87 59 50 60 51 61 66 63 88 64 53 65 36 66 37 67
REMARK SMILES IDX 46 68 38 69 39 70 45 71 47 72 40 73 41 74 42 75 43 76 44 77
REMARK SMILES IDX 70 78 71 79 80 80 72 81 73 82 79 83 81 84 74 85 75 86 76 87
REMARK SMILES IDX 77 88 78 89 54 90 55 91 64 92 56 93 57 94 63 95 65 96 58 97
REMARK SMILES IDX 59 98 60 99 61 100 62 101
REMARK H PARENT 4 24 6 27 6 28 86 51 52 62
REMARK Flexibility Score: inf
ROOT
ATOM      1  O   UNL A   1      41.007  19.743  27.306  1.00  0.00    -0.374 OA
ENDROOT
BRANCH   1   2
ATOM      2  C   UNL A   1      40.746  21.144  27.389  1.00  0.00     0.202 C 
BRANCH   2   3
ATOM      3  C   UNL A   1      40.277  21.891  26.142  1.00  0.00     0.261 C 
BRANCH   3   4
ATOM      4  O   UNL A   1      38.914  22.323  26.242  1.00  0.00    -0.460 OA
BRANCH   4   5
ATOM      5  C   UNL A   1      38.049  21.615  25.481  1.00  0.00     0.338 C 
ATOM      6  O   UNL A   1      38.163  20.455  25.117  1.00  0.00    -0.246 OA
BRANCH   5   7
ATOM      7  C   UNL A   1      36.828  22.405  25.228  1.00  0.00     0.060 A 
ATOM      8  C   UNL A   1      34.819  24.077  24.340  1.00  0.00     0.067 A 
ATOM      9  C   UNL A   1      34.945  22.817  23.752  1.00  0.00     0.029 A 
ATOM     10  C   UNL A   1      35.568  24.431  25.472  1.00  0.00     0.029 A 
ATOM     11  C   UNL A   1      35.978  21.990  24.187  1.00  0.00     0.018 A 
ATOM     12  C   UNL A   1      36.575  23.587  25.926  1.00  0.00     0.018 A 
BRANCH   8  13
ATOM     13  N   UNL A   1      34.154  25.094  23.626  1.00  0.00    -0.217 N 
ATOM     14  C   UNL A   1      33.203  26.979  23.095  1.00  0.00     0.132 A 
ATOM     15  N   UNL A   1      33.543  26.315  21.945  1.00  0.00    -0.128 NA
ATOM     16  C   UNL A   1      33.638  26.254  24.186  1.00  0.00     0.071 A 
ATOM     17  N   UNL A   1      34.219  25.222  22.284  1.00  0.00    -0.061 NA
ATOM     18  C   UNL A   1      33.732  26.610  25.624  1.00  0.00     0.069 C 
BRANCH  14  19
ATOM     19  C   UNL A   1      32.648  28.322  23.109  1.00  0.00     0.087 C 
ATOM     20  C   UNL A   1      33.039  29.196  24.273  1.00  0.00     0.071 C 
ATOM     21  N   UNL A   1      31.886  28.619  22.099  1.00  0.00    -0.174 NA
BRANCH  21  22
ATOM     22  N   UNL A   1      31.218  29.806  21.990  1.00  0.00    -0.229 N 
ATOM     23  C   UNL A   1      29.856  29.991  21.890  1.00  0.00     0.332 C 
ATOM     24  H   UNL A   1      31.773  30.620  21.983  1.00  0.00     0.195 HD
ATOM     25  N   UNL A   1      29.520  31.304  21.749  1.00  0.00    -0.350 N 
ATOM     26  O   UNL A   1      28.978  29.141  21.930  1.00  0.00    -0.247 OA
ATOM     27  H   UNL A   1      30.222  31.993  21.716  1.00  0.00     0.161 HD
ATOM     28  H   UNL A   1      28.572  31.564  21.680  1.00  0.00     0.161 HD
ENDBRANCH  21  22
ENDBRANCH  14  19
ENDBRANCH   8  13
ENDBRANCH   5   7
ENDBRANCH   4   5
ENDBRANCH   3   4
ENDBRANCH   2   3
ENDBRANCH   1   2
BRANCH   1  29
ATOM     29  C   UNL A   1      42.327  19.251  27.088  1.00  0.00     0.202 C 
BRANCH  29  30
ATOM     30  C   UNL A   1      42.946  19.348  25.700  1.00  0.00     0.261 C 
BRANCH  30  31
ATOM     31  O   UNL A   1      44.037  20.246  25.677  1.00  0.00    -0.460 OA
BRANCH  31  32
ATOM     32  C   UNL A   1      44.426  20.594  24.433  1.00  0.00     0.338 C 
ATOM     33  O   UNL A   1      44.539  19.860  23.457  1.00  0.00    -0.246 OA
BRANCH  32  34
ATOM     34  C   UNL A   1      44.810  22.006  24.445  1.00  0.00     0.060 A 
ATOM     35  C   UNL A   1      45.967  22.301  25.172  1.00  0.00     0.016 A 
ATOM     36  C   UNL A   1      43.813  22.954  24.187  1.00  0.00     0.016 A 
ATOM     37  C   UNL A   1      45.957  23.434  25.944  1.00  0.00     0.010 A 
ATOM     38  C   UNL A   1      43.780  24.053  24.995  1.00  0.00     0.010 A 
ATOM     39  C   UNL A   1      44.801  24.212  25.933  1.00  0.00    -0.014 A 
BRANCH  39  40
ATOM     40  C   UNL A   1      44.667  25.277  26.898  1.00  0.00     0.031 A 
ATOM     41  C   UNL A   1      45.759  26.265  26.762  1.00  0.00     0.074 A 
ATOM     42  C   UNL A   1      43.553  25.364  27.652  1.00  0.00     0.049 A 
ATOM     43  N   UNL A   1      46.717  26.518  27.591  1.00  0.00    -0.248 NA
ATOM     44  C   UNL A   1      45.961  26.858  25.424  1.00  0.00     0.031 C 
ATOM     45  C   UNL A   1      42.351  24.522  27.597  1.00  0.00     0.029 A 
ATOM     46  N   UNL A   1      43.207  26.324  28.549  1.00  0.00    -0.354 N 
ATOM     47  C   UNL A   1      47.469  27.507  26.965  1.00  0.00     0.074 A 
ATOM     48  C   UNL A   1      47.150  27.435  25.570  1.00  0.00     0.031 C 
ATOM     49  C   UNL A   1      41.338  25.144  28.243  1.00  0.00     0.029 A 
ATOM     50  C   UNL A   1      41.844  26.361  28.846  1.00  0.00     0.049 A 
ATOM     51  H   UNL A   1      43.861  26.939  28.954  1.00  0.00     0.167 HD
ATOM     52  C   UNL A   1      48.000  28.538  27.675  1.00  0.00     0.037 A 
ATOM     53  C   UNL A   1      41.208  27.407  29.439  1.00  0.00     0.037 A 
ATOM     54  C   UNL A   1      48.097  28.198  29.073  1.00  0.00     0.049 A 
ATOM     55  C   UNL A   1      42.271  28.216  30.106  1.00  0.00     0.074 A 
ATOM     56  C   UNL A   1      48.747  27.204  29.778  1.00  0.00     0.029 A 
ATOM     57  N   UNL A   1      47.127  28.688  29.916  1.00  0.00    -0.354 N 
ATOM     58  N   UNL A   1      43.002  27.768  31.096  1.00  0.00    -0.248 NA
ATOM     59  C   UNL A   1      42.870  29.296  29.333  1.00  0.00     0.031 C 
ATOM     60  C   UNL A   1      47.843  26.832  30.815  1.00  0.00     0.029 A 
ATOM     61  C   UNL A   1      46.725  27.665  30.738  1.00  0.00     0.049 A 
ATOM     62  H   UNL A   1      46.783  29.610  29.928  1.00  0.00     0.167 HD
ATOM     63  C   UNL A   1      44.291  28.213  30.824  1.00  0.00     0.074 A 
ATOM     64  C   UNL A   1      44.136  29.189  29.746  1.00  0.00     0.031 C 
ATOM     65  C   UNL A   1      45.389  27.540  31.283  1.00  0.00     0.037 A 
BRANCH  52  66
ATOM     66  C   UNL A   1      48.027  29.967  27.171  1.00  0.00     0.058 A 
ATOM     67  C   UNL A   1      49.231  30.689  27.259  1.00  0.00     0.135 A 
ATOM     68  C   UNL A   1      46.880  30.742  26.864  1.00  0.00     0.135 A 
ATOM     69  F   UNL A   1      50.385  30.061  27.536  1.00  0.00    -0.206 F 
ATOM     70  C   UNL A   1      49.279  32.079  27.144  1.00  0.00     0.059 A 
ATOM     71  C   UNL A   1      46.915  32.117  26.689  1.00  0.00     0.059 A 
ATOM     72  F   UNL A   1      45.644  30.235  26.805  1.00  0.00    -0.206 F 
ATOM     73  C   UNL A   1      48.108  32.784  26.879  1.00  0.00     0.060 A 
BRANCH  73  74
ATOM     74  S   UNL A   1      48.137  34.582  26.850  1.00  0.00     0.124 S 
ATOM     75  O   UNL A   1      47.597  34.857  25.524  1.00  0.00    -0.237 OA
ATOM     76  O   UNL A   1      47.273  34.912  27.978  1.00  0.00    -0.237 OA
ATOM     77  O   UNL A   1      49.550  34.898  27.035  1.00  0.00    -0.744 OA
ENDBRANCH  73  74
ENDBRANCH  52  66
BRANCH  53  78
ATOM     78  C   UNL A   1      39.865  27.958  29.088  1.00  0.00     0.058 A 
ATOM     79  C   UNL A   1      38.818  28.018  30.026  1.00  0.00     0.135 A 
ATOM     80  C   UNL A   1      39.659  28.681  27.893  1.00  0.00     0.135 A 
ATOM     81  F   UNL A   1      38.935  27.389  31.206  1.00  0.00    -0.206 F 
ATOM     82  C   UNL A   1      37.655  28.771  29.807  1.00  0.00     0.059 A 
ATOM     83  C   UNL A   1      38.507  29.427  27.647  1.00  0.00     0.059 A 
ATOM     84  F   UNL A   1      40.614  28.758  26.956  1.00  0.00    -0.206 F 
ATOM     85  C   UNL A   1      37.515  29.486  28.617  1.00  0.00     0.060 A 
BRANCH  85  86
ATOM     86  S   UNL A   1      36.094  30.583  28.383  1.00  0.00     0.124 S 
ATOM     87  O   UNL A   1      35.205  29.757  27.571  1.00  0.00    -0.237 OA
ATOM     88  O   UNL A   1      35.661  30.827  29.755  1.00  0.00    -0.237 OA
ATOM     89  O   UNL A   1      36.666  31.739  27.698  1.00  0.00    -0.744 OA
ENDBRANCH  85  86
ENDBRANCH  53  78
BRANCH  65  90
ATOM     90  C   UNL A   1      45.183  26.425  32.282  1.00  0.00     0.058 A 
ATOM     91  C   UNL A   1      44.943  25.083  31.930  1.00  0.00     0.135 A 
ATOM     92  C   UNL A   1      45.449  26.690  33.632  1.00  0.00     0.135 A 
ATOM     93  F   UNL A   1      44.777  24.731  30.648  1.00  0.00    -0.206 F 
ATOM     94  C   UNL A   1      44.950  24.057  32.879  1.00  0.00     0.059 A 
ATOM     95  C   UNL A   1      45.489  25.681  34.591  1.00  0.00     0.059 A 
ATOM     96  F   UNL A   1      45.747  27.940  34.023  1.00  0.00    -0.206 F 
ATOM     97  C   UNL A   1      45.233  24.366  34.209  1.00  0.00     0.060 A 
BRANCH  97  98
ATOM     98  S   UNL A   1      45.350  23.030  35.420  1.00  0.00     0.124 S 
ATOM     99  O   UNL A   1      46.768  22.691  35.368  1.00  0.00    -0.237 OA
ATOM    100  O   UNL A   1      44.896  23.674  36.649  1.00  0.00    -0.237 OA
ATOM    101  O   UNL A   1      44.445  22.010  34.891  1.00  0.00    -0.744 OA
ENDBRANCH  97  98
ENDBRANCH  65  90
ENDBRANCH  39  40
ENDBRANCH  32  34
ENDBRANCH  31  32
ENDBRANCH  30  31
ENDBRANCH  29  30
ENDBRANCH   1  29
TORSDOF 20
ENDMDL
