MODEL 1
REMARK VINA RESULT:     -10.8      0.000      0.000
REMARK SMILES CC(C)[NH2+][C@]1(C(=O)OCCOCCOC(=O)c2ccc(-c3c4nc(c(-c5c(F)cc(S(=O)(=O)[O-])cc5F)c5ccc([nH]5)c(-c5c(F)cc(S(=O)(=O)[O-])cc5F)c5nc(c(-c6c(F)cc(S(=O)(=O)[O-])cc6F)c6ccc3[nH]6)C=C5)C=C4)cc2)CC[C@H]([NH+]2CCC(C)(C)CC2)C1
REMARK SMILES IDX 12 1 11 2 10 3 9 4 8 5 6 6 7 7 5 8 83 9 94 10 84 11 85 12
REMARK SMILES IDX 4 13 2 16 1 17 3 18 86 19 87 20 93 21 88 23 92 24 89 25
REMARK SMILES IDX 90 26 91 27 13 28 14 29 15 30 16 31 17 32 18 33 82 34 19 35
REMARK SMILES IDX 81 36 20 37 21 38 22 39 75 40 23 41 80 42 74 43 76 44 24 45
REMARK SMILES IDX 79 46 73 47 72 48 25 50 59 51 38 52 58 53 39 54 42 55 57 56
REMARK SMILES IDX 77 57 40 58 41 59 56 61 78 62 43 63 26 64 27 65 36 66 28 67
REMARK SMILES IDX 29 68 35 69 37 70 30 71 31 72 32 73 33 74 34 75 60 76 61 77
REMARK SMILES IDX 70 78 62 79 63 80 69 81 71 82 64 83 65 84 66 85 67 86 68 87
REMARK SMILES IDX 44 88 45 89 54 90 46 91 47 92 53 93 55 94 48 95 49 96 50 97
REMARK SMILES IDX 51 98 52 99
REMARK H PARENT 4 14 4 15 86 22 76 49 42 60
REMARK Flexibility Score: inf
ROOT
ATOM      1  C   UNL A   1      40.098  21.698  26.675  1.00  0.00     0.202 C 
ENDROOT
BRANCH   1   2
ATOM      2  O   UNL A   1      38.947  22.405  26.216  1.00  0.00    -0.374 OA
BRANCH   2   3
ATOM      3  C   UNL A   1      37.864  21.618  25.711  1.00  0.00     0.202 C 
BRANCH   3   4
ATOM      4  C   UNL A   1      36.736  22.419  25.050  1.00  0.00     0.261 C 
BRANCH   4   5
ATOM      5  O   UNL A   1      35.941  23.083  26.049  1.00  0.00    -0.459 OA
BRANCH   5   6
ATOM      6  C   UNL A   1      34.736  22.558  26.350  1.00  0.00     0.368 C 
ATOM      7  O   UNL A   1      34.595  21.600  27.109  1.00  0.00    -0.245 OA
BRANCH   6   8
ATOM      8  C   UNL A   1      33.527  23.308  25.739  1.00  0.00     0.200 C 
ATOM      9  C   UNL A   1      32.591  23.671  26.911  1.00  0.00     0.087 C 
ATOM     10  C   UNL A   1      33.966  24.734  25.272  1.00  0.00     0.146 C 
ATOM     11  C   UNL A   1      31.854  24.939  26.498  1.00  0.00     0.072 C 
ATOM     12  C   UNL A   1      32.789  25.710  25.541  1.00  0.00     0.191 C 
BRANCH   8  13
ATOM     13  N   UNL A   1      32.706  22.702  24.653  1.00  0.00    -0.330 N 
ATOM     14  H   UNL A   1      31.800  22.511  25.080  1.00  0.00     0.347 HD
ATOM     15  H   UNL A   1      32.838  23.405  23.926  1.00  0.00     0.347 HD
BRANCH  13  16
ATOM     16  C   UNL A   1      33.031  21.502  23.894  1.00  0.00     0.176 C 
ATOM     17  C   UNL A   1      32.429  20.318  24.671  1.00  0.00     0.075 C 
ATOM     18  C   UNL A   1      32.359  21.496  22.522  1.00  0.00     0.075 C 
ENDBRANCH  13  16
ENDBRANCH   8  13
BRANCH  12  19
ATOM     19  N   UNL A   1      32.123  26.340  24.361  1.00  0.00    -0.332 N 
ATOM     20  C   UNL A   1      32.913  27.481  23.858  1.00  0.00     0.263 C 
ATOM     21  C   UNL A   1      30.711  26.661  24.596  1.00  0.00     0.263 C 
ATOM     22  H   UNL A   1      32.100  25.642  23.617  1.00  0.00     0.348 HD
ATOM     23  C   UNL A   1      32.200  28.370  22.825  1.00  0.00     0.068 C 
ATOM     24  C   UNL A   1      30.018  27.539  23.563  1.00  0.00     0.068 C 
ATOM     25  C   UNL A   1      30.806  28.823  23.294  1.00  0.00    -0.025 C 
ATOM     26  C   UNL A   1      30.091  29.623  22.196  1.00  0.00     0.011 C 
ATOM     27  C   UNL A   1      30.889  29.718  24.548  1.00  0.00     0.011 C 
ENDBRANCH  12  19
ENDBRANCH   6   8
ENDBRANCH   5   6
ENDBRANCH   4   5
ENDBRANCH   3   4
ENDBRANCH   2   3
ENDBRANCH   1   2
BRANCH   1  28
ATOM     28  C   UNL A   1      41.452  22.261  26.225  1.00  0.00     0.261 C 
BRANCH  28  29
ATOM     29  O   UNL A   1      41.957  23.255  27.135  1.00  0.00    -0.460 OA
BRANCH  29  30
ATOM     30  C   UNL A   1      42.189  24.469  26.581  1.00  0.00     0.338 C 
ATOM     31  O   UNL A   1      42.610  24.688  25.455  1.00  0.00    -0.246 OA
BRANCH  30  32
ATOM     32  C   UNL A   1      41.694  25.540  27.472  1.00  0.00     0.060 A 
ATOM     33  C   UNL A   1      42.465  26.706  27.562  1.00  0.00     0.016 A 
ATOM     34  C   UNL A   1      40.535  25.405  28.243  1.00  0.00     0.016 A 
ATOM     35  C   UNL A   1      42.119  27.709  28.466  1.00  0.00     0.010 A 
ATOM     36  C   UNL A   1      40.186  26.417  29.147  1.00  0.00     0.010 A 
ATOM     37  C   UNL A   1      41.000  27.555  29.297  1.00  0.00    -0.014 A 
BRANCH  37  38
ATOM     38  C   UNL A   1      40.789  28.507  30.420  1.00  0.00     0.031 A 
ATOM     39  C   UNL A   1      41.676  28.413  31.635  1.00  0.00     0.074 A 
ATOM     40  C   UNL A   1      39.862  29.481  30.343  1.00  0.00     0.049 A 
ATOM     41  N   UNL A   1      41.681  29.148  32.718  1.00  0.00    -0.248 NA
ATOM     42  C   UNL A   1      42.692  27.348  31.628  1.00  0.00     0.031 C 
ATOM     43  C   UNL A   1      38.963  29.705  29.212  1.00  0.00     0.029 A 
ATOM     44  N   UNL A   1      39.527  30.465  31.239  1.00  0.00    -0.354 N 
ATOM     45  C   UNL A   1      42.690  28.631  33.523  1.00  0.00     0.074 A 
ATOM     46  C   UNL A   1      43.251  27.497  32.820  1.00  0.00     0.031 C 
ATOM     47  C   UNL A   1      38.179  30.762  29.482  1.00  0.00     0.029 A 
ATOM     48  C   UNL A   1      38.497  31.272  30.816  1.00  0.00     0.049 A 
ATOM     49  H   UNL A   1      39.981  30.583  32.105  1.00  0.00     0.167 HD
ATOM     50  C   UNL A   1      43.124  29.068  34.729  1.00  0.00     0.037 A 
ATOM     51  C   UNL A   1      37.874  32.296  31.435  1.00  0.00     0.037 A 
ATOM     52  C   UNL A   1      42.573  30.201  35.427  1.00  0.00     0.049 A 
ATOM     53  C   UNL A   1      38.329  32.724  32.807  1.00  0.00     0.074 A 
ATOM     54  C   UNL A   1      42.967  30.737  36.641  1.00  0.00     0.029 A 
ATOM     55  N   UNL A   1      41.505  30.966  34.982  1.00  0.00    -0.354 N 
ATOM     56  N   UNL A   1      39.309  32.248  33.540  1.00  0.00    -0.248 NA
ATOM     57  C   UNL A   1      37.597  33.834  33.435  1.00  0.00     0.031 C 
ATOM     58  C   UNL A   1      42.100  31.788  36.958  1.00  0.00     0.029 A 
ATOM     59  C   UNL A   1      41.205  31.948  35.913  1.00  0.00     0.049 A 
ATOM     60  H   UNL A   1      41.030  30.831  34.130  1.00  0.00     0.167 HD
ATOM     61  C   UNL A   1      39.328  33.018  34.699  1.00  0.00     0.074 A 
ATOM     62  C   UNL A   1      38.271  33.997  34.567  1.00  0.00     0.031 C 
ATOM     63  C   UNL A   1      40.151  32.924  35.774  1.00  0.00     0.037 A 
BRANCH  50  64
ATOM     64  C   UNL A   1      44.237  28.297  35.390  1.00  0.00     0.058 A 
ATOM     65  C   UNL A   1      43.982  27.226  36.261  1.00  0.00     0.135 A 
ATOM     66  C   UNL A   1      45.577  28.621  35.126  1.00  0.00     0.135 A 
ATOM     67  F   UNL A   1      42.720  26.883  36.562  1.00  0.00    -0.206 F 
ATOM     68  C   UNL A   1      45.017  26.524  36.873  1.00  0.00     0.059 A 
ATOM     69  C   UNL A   1      46.628  27.913  35.702  1.00  0.00     0.059 A 
ATOM     70  F   UNL A   1      45.878  29.635  34.300  1.00  0.00    -0.206 F 
ATOM     71  C   UNL A   1      46.337  26.878  36.587  1.00  0.00     0.060 A 
BRANCH  71  72
ATOM     72  S   UNL A   1      47.668  25.963  37.394  1.00  0.00     0.124 S 
ATOM     73  O   UNL A   1      48.248  25.239  36.267  1.00  0.00    -0.237 OA
ATOM     74  O   UNL A   1      48.491  27.034  37.949  1.00  0.00    -0.237 OA
ATOM     75  O   UNL A   1      46.970  25.140  38.377  1.00  0.00    -0.744 OA
ENDBRANCH  71  72
ENDBRANCH  50  64
BRANCH  51  76
ATOM     76  C   UNL A   1      36.743  32.991  30.762  1.00  0.00     0.058 A 
ATOM     77  C   UNL A   1      35.415  32.774  31.160  1.00  0.00     0.135 A 
ATOM     78  C   UNL A   1      36.969  33.888  29.706  1.00  0.00     0.135 A 
ATOM     79  F   UNL A   1      35.146  31.914  32.154  1.00  0.00    -0.206 F 
ATOM     80  C   UNL A   1      34.352  33.416  30.533  1.00  0.00     0.059 A 
ATOM     81  C   UNL A   1      35.925  34.563  29.081  1.00  0.00     0.059 A 
ATOM     82  F   UNL A   1      38.221  34.136  29.290  1.00  0.00    -0.206 F 
ATOM     83  C   UNL A   1      34.618  34.314  29.498  1.00  0.00     0.060 A 
BRANCH  83  84
ATOM     84  S   UNL A   1      33.235  35.188  28.733  1.00  0.00     0.124 S 
ATOM     85  O   UNL A   1      32.620  34.130  27.940  1.00  0.00    -0.237 OA
ATOM     86  O   UNL A   1      32.478  35.638  29.898  1.00  0.00    -0.237 OA
ATOM     87  O   UNL A   1      33.888  36.249  27.972  1.00  0.00    -0.744 OA
ENDBRANCH  83  84
ENDBRANCH  51  76
BRANCH  63  88
ATOM     88  C   UNL A   1      39.972  33.925  36.886  1.00  0.00     0.058 A 
ATOM     89  C   UNL A   1      40.628  35.165  36.882  1.00  0.00     0.135 A 
ATOM     90  C   UNL A   1      39.083  33.660  37.942  1.00  0.00     0.135 A 
ATOM     91  F   UNL A   1      41.491  35.470  35.900  1.00  0.00    -0.206 F 
ATOM     92  C   UNL A   1      40.430  36.097  37.897  1.00  0.00     0.059 A 
ATOM     93  C   UNL A   1      38.846  34.589  38.952  1.00  0.00     0.059 A 
ATOM     94  F   UNL A   1      38.419  32.495  37.991  1.00  0.00    -0.206 F 
ATOM     95  C   UNL A   1      39.534  35.801  38.927  1.00  0.00     0.060 A 
BRANCH  95  96
ATOM     96  S   UNL A   1      39.262  37.033  40.219  1.00  0.00     0.124 S 
ATOM     97  O   UNL A   1      38.509  38.055  39.499  1.00  0.00    -0.237 OA
ATOM     98  O   UNL A   1      38.511  36.276  41.216  1.00  0.00    -0.237 OA
ATOM     99  O   UNL A   1      40.614  37.413  40.617  1.00  0.00    -0.744 OA
ENDBRANCH  95  96
ENDBRANCH  63  88
ENDBRANCH  37  38
ENDBRANCH  30  32
ENDBRANCH  29  30
ENDBRANCH  28  29
ENDBRANCH   1  28
TORSDOF 20
ENDMDL
MODEL 2
REMARK VINA RESULT:     -10.8      6.174     11.956
REMARK SMILES CC(C)[NH2+][C@]1(C(=O)OCCOCCOC(=O)c2ccc(-c3c4nc(c(-c5c(F)cc(S(=O)(=O)[O-])cc5F)c5ccc([nH]5)c(-c5c(F)cc(S(=O)(=O)[O-])cc5F)c5nc(c(-c6c(F)cc(S(=O)(=O)[O-])cc6F)c6ccc3[nH]6)C=C5)C=C4)cc2)CC[C@H]([NH+]2CCC(C)(C)CC2)C1
REMARK SMILES IDX 12 1 11 2 10 3 9 4 8 5 6 6 7 7 5 8 83 9 94 10 84 11 85 12
REMARK SMILES IDX 4 13 2 16 1 17 3 18 86 19 87 20 93 21 88 23 92 24 89 25
REMARK SMILES IDX 90 26 91 27 13 28 14 29 15 30 16 31 17 32 18 33 82 34 19 35
REMARK SMILES IDX 81 36 20 37 21 38 22 39 75 40 23 41 80 42 74 43 76 44 24 45
REMARK SMILES IDX 79 46 73 47 72 48 25 50 59 51 38 52 58 53 39 54 42 55 57 56
REMARK SMILES IDX 77 57 40 58 41 59 56 61 78 62 43 63 26 64 27 65 36 66 28 67
REMARK SMILES IDX 29 68 35 69 37 70 30 71 31 72 32 73 33 74 34 75 60 76 61 77
REMARK SMILES IDX 70 78 62 79 63 80 69 81 71 82 64 83 65 84 66 85 67 86 68 87
REMARK SMILES IDX 44 88 45 89 54 90 46 91 47 92 53 93 55 94 48 95 49 96 50 97
REMARK SMILES IDX 51 98 52 99
REMARK H PARENT 4 14 4 15 86 22 76 49 42 60
REMARK Flexibility Score: inf
ROOT
ATOM      1  C   UNL A   1      34.030  32.368  28.114  1.00  0.00     0.202 C 
ENDROOT
BRANCH   1   2
ATOM      2  O   UNL A   1      34.495  31.291  27.302  1.00  0.00    -0.374 OA
BRANCH   2   3
ATOM      3  C   UNL A   1      33.731  30.082  27.334  1.00  0.00     0.202 C 
BRANCH   3   4
ATOM      4  C   UNL A   1      33.221  29.604  25.969  1.00  0.00     0.261 C 
BRANCH   4   5
ATOM      5  O   UNL A   1      33.822  28.343  25.623  1.00  0.00    -0.459 OA
BRANCH   5   6
ATOM      6  C   UNL A   1      33.576  27.841  24.395  1.00  0.00     0.368 C 
ATOM      7  O   UNL A   1      33.644  28.518  23.370  1.00  0.00    -0.245 OA
BRANCH   6   8
ATOM      8  C   UNL A   1      33.287  26.320  24.358  1.00  0.00     0.200 C 
ATOM      9  C   UNL A   1      33.510  25.861  22.901  1.00  0.00     0.087 C 
ATOM     10  C   UNL A   1      34.436  25.543  25.081  1.00  0.00     0.146 C 
ATOM     11  C   UNL A   1      33.939  24.401  22.970  1.00  0.00     0.072 C 
ATOM     12  C   UNL A   1      34.664  24.209  24.320  1.00  0.00     0.191 C 
BRANCH   8  13
ATOM     13  N   UNL A   1      31.989  25.765  24.832  1.00  0.00    -0.330 N 
ATOM     14  H   UNL A   1      31.660  25.170  24.071  1.00  0.00     0.347 HD
ATOM     15  H   UNL A   1      32.280  25.396  25.737  1.00  0.00     0.347 HD
BRANCH  13  16
ATOM     16  C   UNL A   1      30.822  26.534  25.246  1.00  0.00     0.176 C 
ATOM     17  C   UNL A   1      30.081  26.929  23.956  1.00  0.00     0.075 C 
ATOM     18  C   UNL A   1      29.841  25.688  26.057  1.00  0.00     0.075 C 
ENDBRANCH  13  16
ENDBRANCH   8  13
BRANCH  12  19
ATOM     19  N   UNL A   1      34.356  22.936  25.039  1.00  0.00    -0.332 N 
ATOM     20  C   UNL A   1      35.061  21.797  24.415  1.00  0.00     0.263 C 
ATOM     21  C   UNL A   1      32.920  22.708  25.223  1.00  0.00     0.263 C 
ATOM     22  H   UNL A   1      34.720  23.027  25.987  1.00  0.00     0.348 HD
ATOM     23  C   UNL A   1      34.613  20.405  24.893  1.00  0.00     0.068 C 
ATOM     24  C   UNL A   1      32.492  21.326  25.701  1.00  0.00     0.068 C 
ATOM     25  C   UNL A   1      33.087  20.218  24.828  1.00  0.00    -0.025 C 
ATOM     26  C   UNL A   1      32.675  18.857  25.406  1.00  0.00     0.011 C 
ATOM     27  C   UNL A   1      32.565  20.289  23.377  1.00  0.00     0.011 C 
ENDBRANCH  12  19
ENDBRANCH   6   8
ENDBRANCH   5   6
ENDBRANCH   4   5
ENDBRANCH   3   4
ENDBRANCH   2   3
ENDBRANCH   1   2
BRANCH   1  28
ATOM     28  C   UNL A   1      34.753  32.557  29.454  1.00  0.00     0.261 C 
BRANCH  28  29
ATOM     29  O   UNL A   1      36.154  32.242  29.365  1.00  0.00    -0.460 OA
BRANCH  29  30
ATOM     30  C   UNL A   1      36.624  31.446  30.355  1.00  0.00     0.338 C 
ATOM     31  O   UNL A   1      36.104  31.253  31.443  1.00  0.00    -0.246 OA
BRANCH  30  32
ATOM     32  C   UNL A   1      37.796  30.678  29.881  1.00  0.00     0.060 A 
ATOM     33  C   UNL A   1      38.754  30.318  30.836  1.00  0.00     0.016 A 
ATOM     34  C   UNL A   1      37.990  30.354  28.535  1.00  0.00     0.016 A 
ATOM     35  C   UNL A   1      39.937  29.693  30.444  1.00  0.00     0.010 A 
ATOM     36  C   UNL A   1      39.177  29.720  28.143  1.00  0.00     0.010 A 
ATOM     37  C   UNL A   1      40.177  29.427  29.089  1.00  0.00    -0.014 A 
BRANCH  37  38
ATOM     38  C   UNL A   1      41.534  28.993  28.660  1.00  0.00     0.031 A 
ATOM     39  C   UNL A   1      42.657  30.000  28.656  1.00  0.00     0.074 A 
ATOM     40  C   UNL A   1      41.787  27.712  28.334  1.00  0.00     0.049 A 
ATOM     41  N   UNL A   1      43.915  29.839  28.339  1.00  0.00    -0.248 NA
ATOM     42  C   UNL A   1      42.311  31.372  29.063  1.00  0.00     0.031 C 
ATOM     43  C   UNL A   1      40.802  26.631  28.330  1.00  0.00     0.029 A 
ATOM     44  N   UNL A   1      42.954  27.103  27.944  1.00  0.00    -0.354 N 
ATOM     45  C   UNL A   1      44.510  31.086  28.499  1.00  0.00     0.074 A 
ATOM     46  C   UNL A   1      43.466  32.002  28.905  1.00  0.00     0.031 C 
ATOM     47  C   UNL A   1      41.408  25.491  27.957  1.00  0.00     0.029 A 
ATOM     48  C   UNL A   1      42.815  25.764  27.666  1.00  0.00     0.049 A 
ATOM     49  H   UNL A   1      43.812  27.582  27.870  1.00  0.00     0.167 HD
ATOM     50  C   UNL A   1      45.809  31.436  28.339  1.00  0.00     0.037 A 
ATOM     51  C   UNL A   1      43.714  24.863  27.218  1.00  0.00     0.037 A 
ATOM     52  C   UNL A   1      46.851  30.524  27.942  1.00  0.00     0.049 A 
ATOM     53  C   UNL A   1      45.141  25.290  26.982  1.00  0.00     0.074 A 
ATOM     54  C   UNL A   1      48.202  30.781  27.782  1.00  0.00     0.029 A 
ATOM     55  N   UNL A   1      46.661  29.186  27.631  1.00  0.00    -0.354 N 
ATOM     56  N   UNL A   1      45.695  26.464  27.173  1.00  0.00    -0.248 NA
ATOM     57  C   UNL A   1      46.067  24.267  26.475  1.00  0.00     0.031 C 
ATOM     58  C   UNL A   1      48.817  29.614  27.318  1.00  0.00     0.029 A 
ATOM     59  C   UNL A   1      47.863  28.612  27.248  1.00  0.00     0.049 A 
ATOM     60  H   UNL A   1      45.798  28.713  27.676  1.00  0.00     0.167 HD
ATOM     61  C   UNL A   1      47.038  26.312  26.838  1.00  0.00     0.074 A 
ATOM     62  C   UNL A   1      47.215  24.931  26.443  1.00  0.00     0.031 C 
ATOM     63  C   UNL A   1      48.034  27.233  26.859  1.00  0.00     0.037 A 
BRANCH  50  64
ATOM     64  C   UNL A   1      46.174  32.879  28.566  1.00  0.00     0.058 A 
ATOM     65  C   UNL A   1      46.105  33.833  27.538  1.00  0.00     0.135 A 
ATOM     66  C   UNL A   1      46.574  33.317  29.839  1.00  0.00     0.135 A 
ATOM     67  F   UNL A   1      45.745  33.467  26.298  1.00  0.00    -0.206 F 
ATOM     68  C   UNL A   1      46.452  35.163  27.755  1.00  0.00     0.059 A 
ATOM     69  C   UNL A   1      46.895  34.649  30.087  1.00  0.00     0.059 A 
ATOM     70  F   UNL A   1      46.657  32.449  30.858  1.00  0.00    -0.206 F 
ATOM     71  C   UNL A   1      46.847  35.560  29.034  1.00  0.00     0.060 A 
BRANCH  71  72
ATOM     72  S   UNL A   1      47.301  37.288  29.299  1.00  0.00     0.124 S 
ATOM     73  O   UNL A   1      48.717  37.168  29.634  1.00  0.00    -0.237 OA
ATOM     74  O   UNL A   1      47.006  37.890  28.003  1.00  0.00    -0.237 OA
ATOM     75  O   UNL A   1      46.431  37.705  30.393  1.00  0.00    -0.744 OA
ENDBRANCH  71  72
ENDBRANCH  50  64
BRANCH  51  76
ATOM     76  C   UNL A   1      43.291  23.461  26.956  1.00  0.00     0.058 A 
ATOM     77  C   UNL A   1      43.079  22.996  25.649  1.00  0.00     0.135 A 
ATOM     78  C   UNL A   1      43.090  22.556  28.011  1.00  0.00     0.135 A 
ATOM     79  F   UNL A   1      43.242  23.827  24.609  1.00  0.00    -0.206 F 
ATOM     80  C   UNL A   1      42.679  21.689  25.397  1.00  0.00     0.059 A 
ATOM     81  C   UNL A   1      42.716  21.236  27.782  1.00  0.00     0.059 A 
ATOM     82  F   UNL A   1      43.285  22.948  29.280  1.00  0.00    -0.206 F 
ATOM     83  C   UNL A   1      42.505  20.813  26.471  1.00  0.00     0.060 A 
BRANCH  83  84
ATOM     84  S   UNL A   1      42.046  19.100  26.127  1.00  0.00     0.124 S 
ATOM     85  O   UNL A   1      42.916  18.783  25.001  1.00  0.00    -0.237 OA
ATOM     86  O   UNL A   1      42.366  18.441  27.389  1.00  0.00    -0.237 OA
ATOM     87  O   UNL A   1      40.622  19.190  25.819  1.00  0.00    -0.744 OA
ENDBRANCH  83  84
ENDBRANCH  51  76
BRANCH  63  88
ATOM     88  C   UNL A   1      49.419  26.779  26.478  1.00  0.00     0.058 A 
ATOM     89  C   UNL A   1      50.257  26.110  27.384  1.00  0.00     0.135 A 
ATOM     90  C   UNL A   1      49.892  26.966  25.168  1.00  0.00     0.135 A 
ATOM     91  F   UNL A   1      49.858  25.908  28.650  1.00  0.00    -0.206 F 
ATOM     92  C   UNL A   1      51.523  25.665  27.013  1.00  0.00     0.059 A 
ATOM     93  C   UNL A   1      51.142  26.502  24.766  1.00  0.00     0.059 A 
ATOM     94  F   UNL A   1      49.129  27.589  24.256  1.00  0.00    -0.206 F 
ATOM     95  C   UNL A   1      51.955  25.862  25.700  1.00  0.00     0.060 A 
BRANCH  95  96
ATOM     96  S   UNL A   1      53.586  25.250  25.224  1.00  0.00     0.124 S 
ATOM     97  O   UNL A   1      53.650  25.644  23.821  1.00  0.00    -0.237 OA
ATOM     98  O   UNL A   1      54.469  25.979  26.129  1.00  0.00    -0.237 OA
ATOM     99  O   UNL A   1      53.495  23.813  25.469  1.00  0.00    -0.744 OA
ENDBRANCH  95  96
ENDBRANCH  63  88
ENDBRANCH  37  38
ENDBRANCH  30  32
ENDBRANCH  29  30
ENDBRANCH  28  29
ENDBRANCH   1  28
TORSDOF 20
ENDMDL
MODEL 3
REMARK VINA RESULT:     -10.7      6.380     12.040
REMARK SMILES CC(C)[NH2+][C@]1(C(=O)OCCOCCOC(=O)c2ccc(-c3c4nc(c(-c5c(F)cc(S(=O)(=O)[O-])cc5F)c5ccc([nH]5)c(-c5c(F)cc(S(=O)(=O)[O-])cc5F)c5nc(c(-c6c(F)cc(S(=O)(=O)[O-])cc6F)c6ccc3[nH]6)C=C5)C=C4)cc2)CC[C@H]([NH+]2CCC(C)(C)CC2)C1
REMARK SMILES IDX 12 1 11 2 10 3 9 4 8 5 6 6 7 7 5 8 83 9 94 10 84 11 85 12
REMARK SMILES IDX 4 13 2 16 1 17 3 18 86 19 87 20 93 21 88 23 92 24 89 25
REMARK SMILES IDX 90 26 91 27 13 28 14 29 15 30 16 31 17 32 18 33 82 34 19 35
REMARK SMILES IDX 81 36 20 37 21 38 22 39 75 40 23 41 80 42 74 43 76 44 24 45
REMARK SMILES IDX 79 46 73 47 72 48 25 50 59 51 38 52 58 53 39 54 42 55 57 56
REMARK SMILES IDX 77 57 40 58 41 59 56 61 78 62 43 63 26 64 27 65 36 66 28 67
REMARK SMILES IDX 29 68 35 69 37 70 30 71 31 72 32 73 33 74 34 75 60 76 61 77
REMARK SMILES IDX 70 78 62 79 63 80 69 81 71 82 64 83 65 84 66 85 67 86 68 87
REMARK SMILES IDX 44 88 45 89 54 90 46 91 47 92 53 93 55 94 48 95 49 96 50 97
REMARK SMILES IDX 51 98 52 99
REMARK H PARENT 4 14 4 15 86 22 76 49 42 60
REMARK Flexibility Score: inf
ROOT
ATOM      1  C   UNL A   1      34.266  30.626  27.290  1.00  0.00     0.202 C 
ENDROOT
BRANCH   1   2
ATOM      2  O   UNL A   1      34.443  29.247  27.609  1.00  0.00    -0.374 OA
BRANCH   2   3
ATOM      3  C   UNL A   1      33.445  28.340  27.132  1.00  0.00     0.202 C 
BRANCH   3   4
ATOM      4  C   UNL A   1      33.798  27.621  25.824  1.00  0.00     0.261 C 
BRANCH   4   5
ATOM      5  O   UNL A   1      33.731  26.194  26.003  1.00  0.00    -0.459 OA
BRANCH   5   6
ATOM      6  C   UNL A   1      33.326  25.444  24.958  1.00  0.00     0.368 C 
ATOM      7  O   UNL A   1      32.841  25.928  23.936  1.00  0.00    -0.245 OA
BRANCH   6   8
ATOM      8  C   UNL A   1      33.599  23.926  25.100  1.00  0.00     0.200 C 
ATOM      9  C   UNL A   1      32.649  23.405  26.200  1.00  0.00     0.087 C 
ATOM     10  C   UNL A   1      33.036  23.166  23.854  1.00  0.00     0.146 C 
ATOM     11  C   UNL A   1      32.368  21.945  25.872  1.00  0.00     0.072 C 
ATOM     12  C   UNL A   1      32.480  21.800  24.338  1.00  0.00     0.191 C 
BRANCH   8  13
ATOM     13  N   UNL A   1      34.967  23.406  25.375  1.00  0.00    -0.330 N 
ATOM     14  H   UNL A   1      35.163  23.672  26.341  1.00  0.00     0.347 HD
ATOM     15  H   UNL A   1      34.844  22.438  25.081  1.00  0.00     0.347 HD
BRANCH  13  16
ATOM     16  C   UNL A   1      36.179  23.735  24.636  1.00  0.00     0.176 C 
ATOM     17  C   UNL A   1      37.325  23.748  25.663  1.00  0.00     0.075 C 
ATOM     18  C   UNL A   1      36.535  22.655  23.616  1.00  0.00     0.075 C 
ENDBRANCH  13  16
ENDBRANCH   8  13
BRANCH  12  19
ATOM     19  N   UNL A   1      33.163  20.560  23.858  1.00  0.00    -0.332 N 
ATOM     20  C   UNL A   1      32.182  19.590  23.333  1.00  0.00     0.263 C 
ATOM     21  C   UNL A   1      34.084  19.988  24.845  1.00  0.00     0.263 C 
ATOM     22  H   UNL A   1      33.764  20.827  23.079  1.00  0.00     0.348 HD
ATOM     23  C   UNL A   1      32.732  18.178  23.064  1.00  0.00     0.068 C 
ATOM     24  C   UNL A   1      34.624  18.592  24.563  1.00  0.00     0.068 C 
ATOM     25  C   UNL A   1      33.496  17.600  24.268  1.00  0.00    -0.025 C 
ATOM     26  C   UNL A   1      34.113  16.237  23.924  1.00  0.00     0.011 C 
ATOM     27  C   UNL A   1      32.572  17.403  25.489  1.00  0.00     0.011 C 
ENDBRANCH  12  19
ENDBRANCH   6   8
ENDBRANCH   5   6
ENDBRANCH   4   5
ENDBRANCH   3   4
ENDBRANCH   2   3
ENDBRANCH   1   2
BRANCH   1  28
ATOM     28  C   UNL A   1      35.072  31.618  28.137  1.00  0.00     0.261 C 
BRANCH  28  29
ATOM     29  O   UNL A   1      35.707  30.983  29.262  1.00  0.00    -0.460 OA
BRANCH  29  30
ATOM     30  C   UNL A   1      36.828  31.599  29.707  1.00  0.00     0.338 C 
ATOM     31  O   UNL A   1      36.881  32.596  30.410  1.00  0.00    -0.246 OA
BRANCH  30  32
ATOM     32  C   UNL A   1      38.022  30.793  29.371  1.00  0.00     0.060 A 
ATOM     33  C   UNL A   1      39.052  30.750  30.319  1.00  0.00     0.016 A 
ATOM     34  C   UNL A   1      38.165  30.132  28.148  1.00  0.00     0.016 A 
ATOM     35  C   UNL A   1      40.252  30.105  30.023  1.00  0.00     0.010 A 
ATOM     36  C   UNL A   1      39.369  29.478  27.855  1.00  0.00     0.010 A 
ATOM     37  C   UNL A   1      40.437  29.499  28.772  1.00  0.00    -0.014 A 
BRANCH  37  38
ATOM     38  C   UNL A   1      41.795  29.037  28.379  1.00  0.00     0.031 A 
ATOM     39  C   UNL A   1      42.932  30.027  28.375  1.00  0.00     0.074 A 
ATOM     40  C   UNL A   1      42.034  27.745  28.084  1.00  0.00     0.049 A 
ATOM     41  N   UNL A   1      44.194  29.841  28.086  1.00  0.00    -0.248 NA
ATOM     42  C   UNL A   1      42.600  31.412  28.747  1.00  0.00     0.031 C 
ATOM     43  C   UNL A   1      41.033  26.679  28.084  1.00  0.00     0.029 A 
ATOM     44  N   UNL A   1      43.199  27.112  27.729  1.00  0.00    -0.354 N 
ATOM     45  C   UNL A   1      44.804  31.082  28.231  1.00  0.00     0.074 A 
ATOM     46  C   UNL A   1      43.766  32.022  28.599  1.00  0.00     0.031 C 
ATOM     47  C   UNL A   1      41.629  25.523  27.746  1.00  0.00     0.029 A 
ATOM     48  C   UNL A   1      43.046  25.769  27.477  1.00  0.00     0.049 A 
ATOM     49  H   UNL A   1      44.066  27.576  27.662  1.00  0.00     0.167 HD
ATOM     50  C   UNL A   1      46.111  31.410  28.089  1.00  0.00     0.037 A 
ATOM     51  C   UNL A   1      43.939  24.846  27.064  1.00  0.00     0.037 A 
ATOM     52  C   UNL A   1      47.147  30.475  27.731  1.00  0.00     0.049 A 
ATOM     53  C   UNL A   1      45.376  25.247  26.848  1.00  0.00     0.074 A 
ATOM     54  C   UNL A   1      48.503  30.709  27.593  1.00  0.00     0.029 A 
ATOM     55  N   UNL A   1      46.942  29.134  27.445  1.00  0.00    -0.354 N 
ATOM     56  N   UNL A   1      45.945  26.417  27.024  1.00  0.00    -0.248 NA
ATOM     57  C   UNL A   1      46.296  24.200  26.380  1.00  0.00     0.031 C 
ATOM     58  C   UNL A   1      49.110  29.523  27.165  1.00  0.00     0.029 A 
ATOM     59  C   UNL A   1      48.142  28.534  27.097  1.00  0.00     0.049 A 
ATOM     60  H   UNL A   1      46.071  28.674  27.483  1.00  0.00     0.167 HD
ATOM     61  C   UNL A   1      47.291  26.238  26.718  1.00  0.00     0.074 A 
ATOM     62  C   UNL A   1      47.455  24.847  26.356  1.00  0.00     0.031 C 
ATOM     63  C   UNL A   1      48.300  27.145  26.740  1.00  0.00     0.037 A 
BRANCH  50  64
ATOM     64  C   UNL A   1      46.493  32.852  28.293  1.00  0.00     0.058 A 
ATOM     65  C   UNL A   1      46.939  33.333  29.535  1.00  0.00     0.135 A 
ATOM     66  C   UNL A   1      46.438  33.758  27.222  1.00  0.00     0.135 A 
ATOM     67  F   UNL A   1      46.996  32.516  30.597  1.00  0.00    -0.206 F 
ATOM     68  C   UNL A   1      47.283  34.670  29.716  1.00  0.00     0.059 A 
ATOM     69  C   UNL A   1      46.807  35.092  27.372  1.00  0.00     0.059 A 
ATOM     70  F   UNL A   1      46.020  33.352  26.013  1.00  0.00    -0.206 F 
ATOM     71  C   UNL A   1      47.212  35.542  28.627  1.00  0.00     0.060 A 
BRANCH  71  72
ATOM     72  S   UNL A   1      47.655  37.274  28.879  1.00  0.00     0.124 S 
ATOM     73  O   UNL A   1      48.931  37.149  29.576  1.00  0.00    -0.237 OA
ATOM     74  O   UNL A   1      47.728  37.779  27.511  1.00  0.00    -0.237 OA
ATOM     75  O   UNL A   1      46.552  37.795  29.679  1.00  0.00    -0.744 OA
ENDBRANCH  71  72
ENDBRANCH  50  64
BRANCH  51  76
ATOM     76  C   UNL A   1      43.500  23.445  26.824  1.00  0.00     0.058 A 
ATOM     77  C   UNL A   1      43.187  22.588  27.890  1.00  0.00     0.135 A 
ATOM     78  C   UNL A   1      43.383  22.936  25.521  1.00  0.00     0.135 A 
ATOM     79  F   UNL A   1      43.299  23.023  29.154  1.00  0.00    -0.206 F 
ATOM     80  C   UNL A   1      42.781  21.275  27.675  1.00  0.00     0.059 A 
ATOM     81  C   UNL A   1      42.952  21.635  25.279  1.00  0.00     0.059 A 
ATOM     82  F   UNL A   1      43.664  23.716  24.466  1.00  0.00    -0.206 F 
ATOM     83  C   UNL A   1      42.661  20.810  26.364  1.00  0.00     0.060 A 
BRANCH  83  84
ATOM     84  S   UNL A   1      42.072  19.123  26.094  1.00  0.00     0.124 S 
ATOM     85  O   UNL A   1      42.780  18.756  24.874  1.00  0.00    -0.237 OA
ATOM     86  O   UNL A   1      42.507  18.450  27.314  1.00  0.00    -0.237 OA
ATOM     87  O   UNL A   1      40.627  19.289  25.961  1.00  0.00    -0.744 OA
ENDBRANCH  83  84
ENDBRANCH  51  76
BRANCH  63  88
ATOM     88  C   UNL A   1      49.686  26.663  26.396  1.00  0.00     0.058 A 
ATOM     89  C   UNL A   1      50.216  26.791  25.103  1.00  0.00     0.135 A 
ATOM     90  C   UNL A   1      50.515  26.118  27.391  1.00  0.00     0.135 A 
ATOM     91  F   UNL A   1      49.467  27.301  24.112  1.00  0.00    -0.206 F 
ATOM     92  C   UNL A   1      51.509  26.373  24.801  1.00  0.00     0.059 A 
ATOM     93  C   UNL A   1      51.822  25.722  27.120  1.00  0.00     0.059 A 
ATOM     94  F   UNL A   1      50.065  25.983  28.648  1.00  0.00    -0.206 F 
ATOM     95  C   UNL A   1      52.307  25.843  25.818  1.00  0.00     0.060 A 
BRANCH  95  96
ATOM     96  S   UNL A   1      53.994  25.336  25.420  1.00  0.00     0.124 S 
ATOM     97  O   UNL A   1      53.867  23.883  25.397  1.00  0.00    -0.237 OA
ATOM     98  O   UNL A   1      54.214  25.975  24.127  1.00  0.00    -0.237 OA
ATOM     99  O   UNL A   1      54.781  25.880  26.524  1.00  0.00    -0.744 OA
ENDBRANCH  95  96
ENDBRANCH  63  88
ENDBRANCH  37  38
ENDBRANCH  30  32
ENDBRANCH  29  30
ENDBRANCH  28  29
ENDBRANCH   1  28
TORSDOF 20
ENDMDL
