MODEL 1
REMARK VINA RESULT:     -10.9      0.000      0.000
REMARK SMILES CC(C)Cc1ccc([C@@H]2CC[NH2+][C@H]2C(=O)OCCOCCOC(=O)c2ccc(-c3c4nc(c(-c5c(F)cc(S(=O)(=O)[O-])cc5F)c5ccc([nH]5)c(-c5c(F)cc(S(=O)(=O)[O-])cc5F)c5nc(c(-c6c(F)cc(S(=O)(=O)[O-])cc6F)c6ccc3[nH]6)C=C5)C=C4)cc2)cc1
REMARK SMILES IDX 19 1 18 2 17 3 16 4 14 5 15 6 13 7 9 8 10 9 11 10 12 11 8 14
REMARK SMILES IDX 5 15 6 16 92 17 7 18 91 19 4 20 2 21 1 22 3 23 20 24 21 25
REMARK SMILES IDX 22 26 23 27 24 28 25 29 26 30 90 31 27 32 89 33 28 34 29 35
REMARK SMILES IDX 30 36 83 37 31 38 88 39 82 40 84 41 32 42 87 43 81 44 80 45
REMARK SMILES IDX 33 47 67 48 46 49 66 50 47 51 50 52 65 53 85 54 48 55 49 56
REMARK SMILES IDX 64 58 86 59 51 60 34 61 35 62 44 63 36 64 37 65 43 66 45 67
REMARK SMILES IDX 38 68 39 69 40 70 41 71 42 72 68 73 69 74 78 75 70 76 71 77
REMARK SMILES IDX 77 78 79 79 72 80 73 81 74 82 75 83 76 84 52 85 53 86 62 87
REMARK SMILES IDX 54 88 55 89 61 90 63 91 56 92 57 93 58 94 59 95 60 96
REMARK H PARENT 12 12 12 13 84 46 50 57
REMARK Flexibility Score: inf
ROOT
ATOM      1  O   UNL A   1      32.197  29.345  24.686  1.00  0.00    -0.374 OA
ENDROOT
BRANCH   1   2
ATOM      2  C   UNL A   1      31.348  28.655  23.770  1.00  0.00     0.202 C 
BRANCH   2   3
ATOM      3  C   UNL A   1      32.041  27.904  22.630  1.00  0.00     0.261 C 
BRANCH   3   4
ATOM      4  O   UNL A   1      31.822  26.482  22.692  1.00  0.00    -0.459 OA
BRANCH   4   5
ATOM      5  C   UNL A   1      32.938  25.707  22.565  1.00  0.00     0.365 C 
ATOM      6  O   UNL A   1      33.658  25.675  21.574  1.00  0.00    -0.245 OA
BRANCH   5   7
ATOM      7  C   UNL A   1      33.166  24.818  23.796  1.00  0.00     0.301 C 
ATOM      8  C   UNL A   1      34.308  23.783  23.653  1.00  0.00     0.095 C 
ATOM      9  C   UNL A   1      35.295  24.180  24.753  1.00  0.00     0.076 C 
ATOM     10  C   UNL A   1      34.432  24.880  25.782  1.00  0.00     0.262 C 
ATOM     11  N   UNL A   1      33.485  25.664  24.986  1.00  0.00    -0.334 N 
ATOM     12  H   UNL A   1      33.908  26.545  24.695  1.00  0.00     0.347 HD
ATOM     13  H   UNL A   1      32.647  25.899  25.519  1.00  0.00     0.347 HD
BRANCH   8  14
ATOM     14  C   UNL A   1      33.892  22.322  23.805  1.00  0.00    -0.038 A 
ATOM     15  C   UNL A   1      33.075  19.651  24.281  1.00  0.00    -0.048 A 
ATOM     16  C   UNL A   1      34.252  20.146  24.853  1.00  0.00     0.004 A 
ATOM     17  C   UNL A   1      32.326  20.490  23.449  1.00  0.00     0.004 A 
ATOM     18  C   UNL A   1      34.653  21.467  24.620  1.00  0.00     0.004 A 
ATOM     19  C   UNL A   1      32.724  21.809  23.224  1.00  0.00     0.004 A 
BRANCH  15  20
ATOM     20  C   UNL A   1      32.565  18.268  24.608  1.00  0.00     0.038 C 
BRANCH  20  21
ATOM     21  C   UNL A   1      33.652  17.176  24.525  1.00  0.00    -0.013 C 
ATOM     22  C   UNL A   1      33.202  15.842  25.131  1.00  0.00     0.008 C 
ATOM     23  C   UNL A   1      34.059  16.959  23.065  1.00  0.00     0.008 C 
ENDBRANCH  20  21
ENDBRANCH  15  20
ENDBRANCH   8  14
ENDBRANCH   5   7
ENDBRANCH   4   5
ENDBRANCH   3   4
ENDBRANCH   2   3
ENDBRANCH   1   2
BRANCH   1  24
ATOM     24  C   UNL A   1      31.846  29.299  26.067  1.00  0.00     0.202 C 
BRANCH  24  25
ATOM     25  C   UNL A   1      32.367  30.446  26.944  1.00  0.00     0.261 C 
BRANCH  25  26
ATOM     26  O   UNL A   1      33.765  30.715  26.724  1.00  0.00    -0.460 OA
BRANCH  26  27
ATOM     27  C   UNL A   1      34.419  31.183  27.815  1.00  0.00     0.338 C 
ATOM     28  O   UNL A   1      34.024  32.047  28.589  1.00  0.00    -0.246 OA
BRANCH  27  29
ATOM     29  C   UNL A   1      35.642  30.404  28.089  1.00  0.00     0.060 A 
ATOM     30  C   UNL A   1      35.697  29.720  29.310  1.00  0.00     0.016 A 
ATOM     31  C   UNL A   1      36.758  30.439  27.248  1.00  0.00     0.016 A 
ATOM     32  C   UNL A   1      36.893  29.147  29.738  1.00  0.00     0.010 A 
ATOM     33  C   UNL A   1      37.961  29.864  27.683  1.00  0.00     0.010 A 
ATOM     34  C   UNL A   1      38.047  29.268  28.955  1.00  0.00    -0.014 A 
BRANCH  34  35
ATOM     35  C   UNL A   1      39.363  28.957  29.573  1.00  0.00     0.031 A 
ATOM     36  C   UNL A   1      39.796  29.745  30.784  1.00  0.00     0.074 A 
ATOM     37  C   UNL A   1      40.126  27.945  29.118  1.00  0.00     0.049 A 
ATOM     38  N   UNL A   1      40.884  29.633  31.501  1.00  0.00    -0.248 NA
ATOM     39  C   UNL A   1      38.879  30.800  31.250  1.00  0.00     0.031 C 
ATOM     40  C   UNL A   1      39.803  27.086  27.981  1.00  0.00     0.029 A 
ATOM     41  N   UNL A   1      41.331  27.466  29.568  1.00  0.00    -0.354 N 
ATOM     42  C   UNL A   1      40.788  30.604  32.493  1.00  0.00     0.074 A 
ATOM     43  C   UNL A   1      39.547  31.314  32.272  1.00  0.00     0.031 C 
ATOM     44  C   UNL A   1      40.793  26.190  27.815  1.00  0.00     0.029 A 
ATOM     45  C   UNL A   1      41.825  26.423  28.824  1.00  0.00     0.049 A 
ATOM     46  H   UNL A   1      41.799  27.838  30.352  1.00  0.00     0.167 HD
ATOM     47  C   UNL A   1      41.647  30.873  33.503  1.00  0.00     0.037 A 
ATOM     48  C   UNL A   1      42.984  25.741  28.936  1.00  0.00     0.037 A 
ATOM     49  C   UNL A   1      42.869  30.150  33.742  1.00  0.00     0.049 A 
ATOM     50  C   UNL A   1      43.934  26.073  30.060  1.00  0.00     0.074 A 
ATOM     51  C   UNL A   1      43.795  30.338  34.753  1.00  0.00     0.029 A 
ATOM     52  N   UNL A   1      43.330  29.100  32.965  1.00  0.00    -0.354 N 
ATOM     53  N   UNL A   1      43.813  26.981  31.002  1.00  0.00    -0.248 NA
ATOM     54  C   UNL A   1      45.169  25.281  30.146  1.00  0.00     0.031 C 
ATOM     55  C   UNL A   1      44.836  29.422  34.568  1.00  0.00     0.029 A 
ATOM     56  C   UNL A   1      44.534  28.635  33.468  1.00  0.00     0.049 A 
ATOM     57  H   UNL A   1      42.871  28.737  32.174  1.00  0.00     0.167 HD
ATOM     58  C   UNL A   1      44.938  26.839  31.810  1.00  0.00     0.074 A 
ATOM     59  C   UNL A   1      45.722  25.758  31.253  1.00  0.00     0.031 C 
ATOM     60  C   UNL A   1      45.288  27.538  32.918  1.00  0.00     0.037 A 
BRANCH  47  61
ATOM     61  C   UNL A   1      41.310  32.007  34.430  1.00  0.00     0.058 A 
ATOM     62  C   UNL A   1      41.731  33.321  34.172  1.00  0.00     0.135 A 
ATOM     63  C   UNL A   1      40.499  31.786  35.555  1.00  0.00     0.135 A 
ATOM     64  F   UNL A   1      42.525  33.583  33.122  1.00  0.00    -0.206 F 
ATOM     65  C   UNL A   1      41.364  34.376  35.001  1.00  0.00     0.059 A 
ATOM     66  C   UNL A   1      40.102  32.830  36.385  1.00  0.00     0.059 A 
ATOM     67  F   UNL A   1      40.075  30.547  35.848  1.00  0.00    -0.206 F 
ATOM     68  C   UNL A   1      40.545  34.121  36.103  1.00  0.00     0.060 A 
BRANCH  68  69
ATOM     69  S   UNL A   1      40.046  35.506  37.149  1.00  0.00     0.124 S 
ATOM     70  O   UNL A   1      38.944  34.918  37.903  1.00  0.00    -0.237 OA
ATOM     71  O   UNL A   1      41.261  35.777  37.910  1.00  0.00    -0.237 OA
ATOM     72  O   UNL A   1      39.669  36.538  36.188  1.00  0.00    -0.744 OA
ENDBRANCH  68  69
ENDBRANCH  47  61
BRANCH  48  73
ATOM     73  C   UNL A   1      43.327  24.676  27.956  1.00  0.00     0.058 A 
ATOM     74  C   UNL A   1      42.871  23.359  28.117  1.00  0.00     0.135 A 
ATOM     75  C   UNL A   1      44.157  24.950  26.859  1.00  0.00     0.135 A 
ATOM     76  F   UNL A   1      42.082  23.045  29.155  1.00  0.00    -0.206 F 
ATOM     77  C   UNL A   1      43.253  22.344  27.245  1.00  0.00     0.059 A 
ATOM     78  C   UNL A   1      44.531  23.959  25.958  1.00  0.00     0.059 A 
ATOM     79  F   UNL A   1      44.610  26.197  26.652  1.00  0.00    -0.206 F 
ATOM     80  C   UNL A   1      44.088  22.654  26.170  1.00  0.00     0.060 A 
BRANCH  80  81
ATOM     81  S   UNL A   1      44.571  21.336  25.033  1.00  0.00     0.124 S 
ATOM     82  O   UNL A   1      45.957  21.106  25.424  1.00  0.00    -0.237 OA
ATOM     83  O   UNL A   1      43.627  20.276  25.370  1.00  0.00    -0.237 OA
ATOM     84  O   UNL A   1      44.377  21.943  23.719  1.00  0.00    -0.744 OA
ENDBRANCH  80  81
ENDBRANCH  48  73
BRANCH  60  85
ATOM     85  C   UNL A   1      46.537  27.118  33.640  1.00  0.00     0.058 A 
ATOM     86  C   UNL A   1      46.520  26.142  34.647  1.00  0.00     0.135 A 
ATOM     87  C   UNL A   1      47.779  27.672  33.284  1.00  0.00     0.135 A 
ATOM     88  F   UNL A   1      45.360  25.582  35.026  1.00  0.00    -0.206 F 
ATOM     89  C   UNL A   1      47.685  25.752  35.301  1.00  0.00     0.059 A 
ATOM     90  C   UNL A   1      48.959  27.279  33.905  1.00  0.00     0.059 A 
ATOM     91  F   UNL A   1      47.851  28.600  32.316  1.00  0.00    -0.206 F 
ATOM     92  C   UNL A   1      48.900  26.329  34.923  1.00  0.00     0.060 A 
BRANCH  92  93
ATOM     93  S   UNL A   1      50.410  25.805  35.764  1.00  0.00     0.124 S 
ATOM     94  O   UNL A   1      50.812  27.035  36.438  1.00  0.00    -0.237 OA
ATOM     95  O   UNL A   1      49.932  24.733  36.633  1.00  0.00    -0.237 OA
ATOM     96  O   UNL A   1      51.275  25.376  34.670  1.00  0.00    -0.744 OA
ENDBRANCH  92  93
ENDBRANCH  60  85
ENDBRANCH  34  35
ENDBRANCH  27  29
ENDBRANCH  26  27
ENDBRANCH  25  26
ENDBRANCH  24  25
ENDBRANCH   1  24
TORSDOF 20
ENDMDL
MODEL 2
REMARK VINA RESULT:     -10.7      4.698      6.384
REMARK SMILES CC(C)Cc1ccc([C@@H]2CC[NH2+][C@H]2C(=O)OCCOCCOC(=O)c2ccc(-c3c4nc(c(-c5c(F)cc(S(=O)(=O)[O-])cc5F)c5ccc([nH]5)c(-c5c(F)cc(S(=O)(=O)[O-])cc5F)c5nc(c(-c6c(F)cc(S(=O)(=O)[O-])cc6F)c6ccc3[nH]6)C=C5)C=C4)cc2)cc1
REMARK SMILES IDX 19 1 18 2 17 3 16 4 14 5 15 6 13 7 9 8 10 9 11 10 12 11 8 14
REMARK SMILES IDX 5 15 6 16 92 17 7 18 91 19 4 20 2 21 1 22 3 23 20 24 21 25
REMARK SMILES IDX 22 26 23 27 24 28 25 29 26 30 90 31 27 32 89 33 28 34 29 35
REMARK SMILES IDX 30 36 83 37 31 38 88 39 82 40 84 41 32 42 87 43 81 44 80 45
REMARK SMILES IDX 33 47 67 48 46 49 66 50 47 51 50 52 65 53 85 54 48 55 49 56
REMARK SMILES IDX 64 58 86 59 51 60 34 61 35 62 44 63 36 64 37 65 43 66 45 67
REMARK SMILES IDX 38 68 39 69 40 70 41 71 42 72 68 73 69 74 78 75 70 76 71 77
REMARK SMILES IDX 77 78 79 79 72 80 73 81 74 82 75 83 76 84 52 85 53 86 62 87
REMARK SMILES IDX 54 88 55 89 61 90 63 91 56 92 57 93 58 94 59 95 60 96
REMARK H PARENT 12 12 12 13 84 46 50 57
REMARK Flexibility Score: inf
ROOT
ATOM      1  O   UNL A   1      34.862  31.921  28.405  1.00  0.00    -0.374 OA
ENDROOT
BRANCH   1   2
ATOM      2  C   UNL A   1      33.623  31.633  27.758  1.00  0.00     0.202 C 
BRANCH   2   3
ATOM      3  C   UNL A   1      33.501  30.256  27.100  1.00  0.00     0.261 C 
BRANCH   3   4
ATOM      4  O   UNL A   1      32.131  29.854  26.912  1.00  0.00    -0.459 OA
BRANCH   4   5
ATOM      5  C   UNL A   1      31.586  30.165  25.700  1.00  0.00     0.365 C 
ATOM      6  O   UNL A   1      30.972  31.197  25.453  1.00  0.00    -0.245 OA
BRANCH   5   7
ATOM      7  C   UNL A   1      31.777  29.038  24.676  1.00  0.00     0.301 C 
ATOM      8  C   UNL A   1      31.217  27.661  25.107  1.00  0.00     0.095 C 
ATOM      9  C   UNL A   1      30.156  27.356  24.046  1.00  0.00     0.076 C 
ATOM     10  C   UNL A   1      30.616  28.137  22.834  1.00  0.00     0.262 C 
ATOM     11  N   UNL A   1      31.115  29.400  23.386  1.00  0.00    -0.334 N 
ATOM     12  H   UNL A   1      30.344  30.046  23.550  1.00  0.00     0.347 HD
ATOM     13  H   UNL A   1      31.761  29.863  22.746  1.00  0.00     0.347 HD
BRANCH   8  14
ATOM     14  C   UNL A   1      32.239  26.531  25.185  1.00  0.00    -0.038 A 
ATOM     15  C   UNL A   1      34.253  24.555  25.443  1.00  0.00    -0.048 A 
ATOM     16  C   UNL A   1      34.473  25.695  24.662  1.00  0.00     0.004 A 
ATOM     17  C   UNL A   1      33.014  24.397  26.069  1.00  0.00     0.004 A 
ATOM     18  C   UNL A   1      33.479  26.672  24.537  1.00  0.00     0.004 A 
ATOM     19  C   UNL A   1      32.026  25.376  25.950  1.00  0.00     0.004 A 
BRANCH  15  20
ATOM     20  C   UNL A   1      35.350  23.545  25.681  1.00  0.00     0.038 C 
BRANCH  20  21
ATOM     21  C   UNL A   1      35.484  22.503  24.551  1.00  0.00    -0.013 C 
ATOM     22  C   UNL A   1      34.245  22.440  23.650  1.00  0.00     0.008 C 
ATOM     23  C   UNL A   1      36.717  22.817  23.698  1.00  0.00     0.008 C 
ENDBRANCH  20  21
ENDBRANCH  15  20
ENDBRANCH   8  14
ENDBRANCH   5   7
ENDBRANCH   4   5
ENDBRANCH   3   4
ENDBRANCH   2   3
ENDBRANCH   1   2
BRANCH   1  24
ATOM     24  C   UNL A   1      35.077  33.261  28.844  1.00  0.00     0.202 C 
BRANCH  24  25
ATOM     25  C   UNL A   1      35.605  33.435  30.275  1.00  0.00     0.261 C 
BRANCH  25  26
ATOM     26  O   UNL A   1      36.977  33.018  30.410  1.00  0.00    -0.460 OA
BRANCH  26  27
ATOM     27  C   UNL A   1      37.149  31.915  31.177  1.00  0.00     0.338 C 
ATOM     28  O   UNL A   1      36.507  31.612  32.176  1.00  0.00    -0.246 OA
BRANCH  27  29
ATOM     29  C   UNL A   1      38.125  30.984  30.577  1.00  0.00     0.060 A 
ATOM     30  C   UNL A   1      39.095  30.446  31.432  1.00  0.00     0.016 A 
ATOM     31  C   UNL A   1      38.181  30.740  29.202  1.00  0.00     0.016 A 
ATOM     32  C   UNL A   1      40.175  29.740  30.908  1.00  0.00     0.010 A 
ATOM     33  C   UNL A   1      39.272  30.031  28.677  1.00  0.00     0.010 A 
ATOM     34  C   UNL A   1      40.302  29.579  29.523  1.00  0.00    -0.014 A 
BRANCH  34  35
ATOM     35  C   UNL A   1      41.609  29.132  28.974  1.00  0.00     0.031 A 
ATOM     36  C   UNL A   1      42.742  30.126  28.908  1.00  0.00     0.074 A 
ATOM     37  C   UNL A   1      41.813  27.851  28.613  1.00  0.00     0.049 A 
ATOM     38  N   UNL A   1      43.972  29.956  28.493  1.00  0.00    -0.248 NA
ATOM     39  C   UNL A   1      42.452  31.493  29.372  1.00  0.00     0.031 C 
ATOM     40  C   UNL A   1      40.811  26.787  28.663  1.00  0.00     0.029 A 
ATOM     41  N   UNL A   1      42.940  27.228  28.136  1.00  0.00    -0.354 N 
ATOM     42  C   UNL A   1      44.596  31.191  28.637  1.00  0.00     0.074 A 
ATOM     43  C   UNL A   1      43.604  32.109  29.154  1.00  0.00     0.031 C 
ATOM     44  C   UNL A   1      41.366  25.644  28.224  1.00  0.00     0.029 A 
ATOM     45  C   UNL A   1      42.756  25.898  27.847  1.00  0.00     0.049 A 
ATOM     46  H   UNL A   1      43.799  27.693  28.012  1.00  0.00     0.167 HD
ATOM     47  C   UNL A   1      45.880  31.528  28.376  1.00  0.00     0.037 A 
ATOM     48  C   UNL A   1      43.609  24.992  27.326  1.00  0.00     0.037 A 
ATOM     49  C   UNL A   1      46.875  30.610  27.888  1.00  0.00     0.049 A 
ATOM     50  C   UNL A   1      45.030  25.398  27.025  1.00  0.00     0.074 A 
ATOM     51  C   UNL A   1      48.209  30.856  27.611  1.00  0.00     0.029 A 
ATOM     52  N   UNL A   1      46.648  29.272  27.611  1.00  0.00    -0.354 N 
ATOM     53  N   UNL A   1      45.607  26.566  27.190  1.00  0.00    -0.248 NA
ATOM     54  C   UNL A   1      45.920  24.362  26.481  1.00  0.00     0.031 C 
ATOM     55  C   UNL A   1      48.782  29.672  27.133  1.00  0.00     0.029 A 
ATOM     56  C   UNL A   1      47.814  28.680  27.156  1.00  0.00     0.049 A 
ATOM     57  H   UNL A   1      45.786  28.810  27.721  1.00  0.00     0.167 HD
ATOM     58  C   UNL A   1      46.934  26.391  26.807  1.00  0.00     0.074 A 
ATOM     59  C   UNL A   1      47.077  25.007  26.408  1.00  0.00     0.031 C 
ATOM     60  C   UNL A   1      47.946  27.294  26.790  1.00  0.00     0.037 A 
BRANCH  47  61
ATOM     61  C   UNL A   1      46.291  32.957  28.599  1.00  0.00     0.058 A 
ATOM     62  C   UNL A   1      46.170  33.925  27.590  1.00  0.00     0.135 A 
ATOM     63  C   UNL A   1      46.749  33.374  29.858  1.00  0.00     0.135 A 
ATOM     64  F   UNL A   1      45.757  33.574  26.361  1.00  0.00    -0.206 F 
ATOM     65  C   UNL A   1      46.495  35.258  27.821  1.00  0.00     0.059 A 
ATOM     66  C   UNL A   1      47.059  34.706  30.118  1.00  0.00     0.059 A 
ATOM     67  F   UNL A   1      46.888  32.486  30.854  1.00  0.00    -0.206 F 
ATOM     68  C   UNL A   1      46.935  35.639  29.090  1.00  0.00     0.060 A 
BRANCH  68  69
ATOM     69  S   UNL A   1      47.317  37.378  29.387  1.00  0.00     0.124 S 
ATOM     70  O   UNL A   1      46.074  38.024  28.975  1.00  0.00    -0.237 OA
ATOM     71  O   UNL A   1      47.596  37.398  30.819  1.00  0.00    -0.237 OA
ATOM     72  O   UNL A   1      48.467  37.626  28.524  1.00  0.00    -0.744 OA
ENDBRANCH  68  69
ENDBRANCH  47  61
BRANCH  48  73
ATOM     73  C   UNL A   1      43.151  23.605  27.043  1.00  0.00     0.058 A 
ATOM     74  C   UNL A   1      43.052  22.645  28.060  1.00  0.00     0.135 A 
ATOM     75  C   UNL A   1      42.843  23.204  25.734  1.00  0.00     0.135 A 
ATOM     76  F   UNL A   1      43.343  22.977  29.327  1.00  0.00    -0.206 F 
ATOM     77  C   UNL A   1      42.698  21.327  27.787  1.00  0.00     0.059 A 
ATOM     78  C   UNL A   1      42.461  21.899  25.439  1.00  0.00     0.059 A 
ATOM     79  F   UNL A   1      42.909  24.088  24.726  1.00  0.00    -0.206 F 
ATOM     80  C   UNL A   1      42.409  20.963  26.470  1.00  0.00     0.060 A 
BRANCH  80  81
ATOM     81  S   UNL A   1      41.937  19.255  26.121  1.00  0.00     0.124 S 
ATOM     82  O   UNL A   1      42.685  18.990  24.898  1.00  0.00    -0.237 OA
ATOM     83  O   UNL A   1      42.398  18.556  27.317  1.00  0.00    -0.237 OA
ATOM     84  O   UNL A   1      40.487  19.334  25.972  1.00  0.00    -0.744 OA
ENDBRANCH  80  81
ENDBRANCH  48  73
BRANCH  60  85
ATOM     85  C   UNL A   1      49.309  26.803  26.390  1.00  0.00     0.058 A 
ATOM     86  C   UNL A   1      49.781  26.914  25.073  1.00  0.00     0.135 A 
ATOM     87  C   UNL A   1      50.174  26.256  27.353  1.00  0.00     0.135 A 
ATOM     88  F   UNL A   1      48.995  27.429  24.115  1.00  0.00    -0.206 F 
ATOM     89  C   UNL A   1      51.050  26.468  24.717  1.00  0.00     0.059 A 
ATOM     90  C   UNL A   1      51.456  25.828  27.025  1.00  0.00     0.059 A 
ATOM     91  F   UNL A   1      49.776  26.142  28.631  1.00  0.00    -0.206 F 
ATOM     92  C   UNL A   1      51.879  25.924  25.700  1.00  0.00     0.060 A 
BRANCH  92  93
ATOM     93  S   UNL A   1      53.531  25.364  25.233  1.00  0.00     0.124 S 
ATOM     94  O   UNL A   1      54.371  26.131  26.148  1.00  0.00    -0.237 OA
ATOM     95  O   UNL A   1      53.462  23.928  25.490  1.00  0.00    -0.237 OA
ATOM     96  O   UNL A   1      53.630  25.738  23.826  1.00  0.00    -0.744 OA
ENDBRANCH  92  93
ENDBRANCH  60  85
ENDBRANCH  34  35
ENDBRANCH  27  29
ENDBRANCH  26  27
ENDBRANCH  25  26
ENDBRANCH  24  25
ENDBRANCH   1  24
TORSDOF 20
ENDMDL
MODEL 3
REMARK VINA RESULT:     -10.7      2.427      3.215
REMARK SMILES CC(C)Cc1ccc([C@@H]2CC[NH2+][C@H]2C(=O)OCCOCCOC(=O)c2ccc(-c3c4nc(c(-c5c(F)cc(S(=O)(=O)[O-])cc5F)c5ccc([nH]5)c(-c5c(F)cc(S(=O)(=O)[O-])cc5F)c5nc(c(-c6c(F)cc(S(=O)(=O)[O-])cc6F)c6ccc3[nH]6)C=C5)C=C4)cc2)cc1
REMARK SMILES IDX 19 1 18 2 17 3 16 4 14 5 15 6 13 7 9 8 10 9 11 10 12 11 8 14
REMARK SMILES IDX 5 15 6 16 92 17 7 18 91 19 4 20 2 21 1 22 3 23 20 24 21 25
REMARK SMILES IDX 22 26 23 27 24 28 25 29 26 30 90 31 27 32 89 33 28 34 29 35
REMARK SMILES IDX 30 36 83 37 31 38 88 39 82 40 84 41 32 42 87 43 81 44 80 45
REMARK SMILES IDX 33 47 67 48 46 49 66 50 47 51 50 52 65 53 85 54 48 55 49 56
REMARK SMILES IDX 64 58 86 59 51 60 34 61 35 62 44 63 36 64 37 65 43 66 45 67
REMARK SMILES IDX 38 68 39 69 40 70 41 71 42 72 68 73 69 74 78 75 70 76 71 77
REMARK SMILES IDX 77 78 79 79 72 80 73 81 74 82 75 83 76 84 52 85 53 86 62 87
REMARK SMILES IDX 54 88 55 89 61 90 63 91 56 92 57 93 58 94 59 95 60 96
REMARK H PARENT 12 12 12 13 84 46 50 57
REMARK Flexibility Score: inf
ROOT
ATOM      1  O   UNL A   1      31.829  29.689  25.098  1.00  0.00    -0.374 OA
ENDROOT
BRANCH   1   2
ATOM      2  C   UNL A   1      31.016  28.635  24.583  1.00  0.00     0.202 C 
BRANCH   2   3
ATOM      3  C   UNL A   1      31.317  28.178  23.153  1.00  0.00     0.261 C 
BRANCH   3   4
ATOM      4  O   UNL A   1      31.438  26.747  23.045  1.00  0.00    -0.459 OA
BRANCH   4   5
ATOM      5  C   UNL A   1      32.713  26.261  23.050  1.00  0.00     0.365 C 
ATOM      6  O   UNL A   1      33.595  26.599  22.269  1.00  0.00    -0.245 OA
BRANCH   5   7
ATOM      7  C   UNL A   1      32.913  25.181  24.123  1.00  0.00     0.301 C 
ATOM      8  C   UNL A   1      34.079  24.199  23.853  1.00  0.00     0.095 C 
ATOM      9  C   UNL A   1      35.017  24.418  25.042  1.00  0.00     0.076 C 
ATOM     10  C   UNL A   1      34.105  24.923  26.139  1.00  0.00     0.262 C 
ATOM     11  N   UNL A   1      33.173  25.819  25.450  1.00  0.00    -0.334 N 
ATOM     12  H   UNL A   1      33.589  26.741  25.326  1.00  0.00     0.347 HD
ATOM     13  H   UNL A   1      32.311  25.950  25.981  1.00  0.00     0.347 HD
BRANCH   8  14
ATOM     14  C   UNL A   1      33.686  22.729  23.742  1.00  0.00    -0.038 A 
ATOM     15  C   UNL A   1      32.893  20.008  23.728  1.00  0.00    -0.048 A 
ATOM     16  C   UNL A   1      34.005  20.420  24.470  1.00  0.00     0.004 A 
ATOM     17  C   UNL A   1      32.199  20.958  22.973  1.00  0.00     0.004 A 
ATOM     18  C   UNL A   1      34.394  21.764  24.479  1.00  0.00     0.004 A 
ATOM     19  C   UNL A   1      32.584  22.300  22.989  1.00  0.00     0.004 A 
BRANCH  15  20
ATOM     20  C   UNL A   1      32.390  18.586  23.793  1.00  0.00     0.038 C 
BRANCH  20  21
ATOM     21  C   UNL A   1      33.384  17.611  24.456  1.00  0.00    -0.013 C 
ATOM     22  C   UNL A   1      32.737  16.755  25.550  1.00  0.00     0.008 C 
ATOM     23  C   UNL A   1      34.001  16.696  23.394  1.00  0.00     0.008 C 
ENDBRANCH  20  21
ENDBRANCH  15  20
ENDBRANCH   8  14
ENDBRANCH   5   7
ENDBRANCH   4   5
ENDBRANCH   3   4
ENDBRANCH   2   3
ENDBRANCH   1   2
BRANCH   1  24
ATOM     24  C   UNL A   1      33.013  29.320  25.802  1.00  0.00     0.202 C 
BRANCH  24  25
ATOM     25  C   UNL A   1      33.160  29.869  27.228  1.00  0.00     0.261 C 
BRANCH  25  26
ATOM     26  O   UNL A   1      33.916  31.095  27.269  1.00  0.00    -0.460 OA
BRANCH  26  27
ATOM     27  C   UNL A   1      34.634  31.267  28.406  1.00  0.00     0.338 C 
ATOM     28  O   UNL A   1      34.298  31.913  29.392  1.00  0.00    -0.246 OA
BRANCH  27  29
ATOM     29  C   UNL A   1      35.850  30.430  28.410  1.00  0.00     0.060 A 
ATOM     30  C   UNL A   1      36.286  29.954  29.652  1.00  0.00     0.016 A 
ATOM     31  C   UNL A   1      36.619  30.220  27.262  1.00  0.00     0.016 A 
ATOM     32  C   UNL A   1      37.534  29.347  29.770  1.00  0.00     0.010 A 
ATOM     33  C   UNL A   1      37.877  29.612  27.385  1.00  0.00     0.010 A 
ATOM     34  C   UNL A   1      38.363  29.227  28.648  1.00  0.00    -0.014 A 
BRANCH  34  35
ATOM     35  C   UNL A   1      39.798  28.898  28.854  1.00  0.00     0.031 A 
ATOM     36  C   UNL A   1      40.700  29.945  29.458  1.00  0.00     0.074 A 
ATOM     37  C   UNL A   1      40.278  27.669  28.584  1.00  0.00     0.049 A 
ATOM     38  N   UNL A   1      41.973  29.875  29.752  1.00  0.00    -0.248 NA
ATOM     39  C   UNL A   1      40.085  31.246  29.774  1.00  0.00     0.031 C 
ATOM     40  C   UNL A   1      39.502  26.559  28.033  1.00  0.00     0.029 A 
ATOM     41  N   UNL A   1      41.539  27.149  28.745  1.00  0.00    -0.354 N 
ATOM     42  C   UNL A   1      42.311  31.119  30.276  1.00  0.00     0.074 A 
ATOM     43  C   UNL A   1      41.117  31.934  30.238  1.00  0.00     0.031 C 
ATOM     44  C   UNL A   1      40.308  25.491  27.892  1.00  0.00     0.029 A 
ATOM     45  C   UNL A   1      41.658  25.846  28.327  1.00  0.00     0.049 A 
ATOM     46  H   UNL A   1      42.288  27.664  29.124  1.00  0.00     0.167 HD
ATOM     47  C   UNL A   1      43.504  31.540  30.758  1.00  0.00     0.037 A 
ATOM     48  C   UNL A   1      42.736  25.036  28.290  1.00  0.00     0.037 A 
ATOM     49  C   UNL A   1      44.686  30.722  30.823  1.00  0.00     0.049 A 
ATOM     50  C   UNL A   1      44.058  25.537  28.814  1.00  0.00     0.074 A 
ATOM     51  C   UNL A   1      45.937  31.056  31.312  1.00  0.00     0.029 A 
ATOM     52  N   UNL A   1      44.763  29.408  30.391  1.00  0.00    -0.354 N 
ATOM     53  N   UNL A   1      44.352  26.709  29.327  1.00  0.00    -0.248 NA
ATOM     54  C   UNL A   1      45.192  24.602  28.769  1.00  0.00     0.031 C 
ATOM     55  C   UNL A   1      46.781  29.953  31.145  1.00  0.00     0.029 A 
ATOM     56  C   UNL A   1      46.043  28.919  30.593  1.00  0.00     0.049 A 
ATOM     57  H   UNL A   1      44.018  28.897  29.999  1.00  0.00     0.167 HD
ATOM     58  C   UNL A   1      45.692  26.635  29.699  1.00  0.00     0.074 A 
ATOM     59  C   UNL A   1      46.149  25.305  29.359  1.00  0.00     0.031 C 
ATOM     60  C   UNL A   1      46.473  27.582  30.275  1.00  0.00     0.037 A 
BRANCH  47  61
ATOM     61  C   UNL A   1      43.603  32.958  31.246  1.00  0.00     0.058 A 
ATOM     62  C   UNL A   1      43.378  33.293  32.590  1.00  0.00     0.135 A 
ATOM     63  C   UNL A   1      43.993  33.983  30.370  1.00  0.00     0.135 A 
ATOM     64  F   UNL A   1      42.983  32.354  33.464  1.00  0.00    -0.206 F 
ATOM     65  C   UNL A   1      43.531  34.598  33.048  1.00  0.00     0.059 A 
ATOM     66  C   UNL A   1      44.174  35.291  30.810  1.00  0.00     0.059 A 
ATOM     67  F   UNL A   1      44.215  33.715  29.073  1.00  0.00    -0.206 F 
ATOM     68  C   UNL A   1      43.934  35.589  32.150  1.00  0.00     0.060 A 
BRANCH  68  69
ATOM     69  S   UNL A   1      44.166  37.271  32.766  1.00  0.00     0.124 S 
ATOM     70  O   UNL A   1      44.014  38.052  31.543  1.00  0.00    -0.237 OA
ATOM     71  O   UNL A   1      43.085  37.400  33.738  1.00  0.00    -0.237 OA
ATOM     72  O   UNL A   1      45.511  37.244  33.330  1.00  0.00    -0.744 OA
ENDBRANCH  68  69
ENDBRANCH  47  61
BRANCH  48  73
ATOM     73  C   UNL A   1      42.625  23.663  27.727  1.00  0.00     0.058 A 
ATOM     74  C   UNL A   1      42.684  23.433  26.345  1.00  0.00     0.135 A 
ATOM     75  C   UNL A   1      42.414  22.558  28.565  1.00  0.00     0.135 A 
ATOM     76  F   UNL A   1      42.876  24.458  25.502  1.00  0.00    -0.206 F 
ATOM     77  C   UNL A   1      42.505  22.160  25.809  1.00  0.00     0.059 A 
ATOM     78  C   UNL A   1      42.258  21.273  28.057  1.00  0.00     0.059 A 
ATOM     79  F   UNL A   1      42.362  22.723  29.897  1.00  0.00    -0.206 F 
ATOM     80  C   UNL A   1      42.287  21.087  26.675  1.00  0.00     0.060 A 
BRANCH  80  81
ATOM     81  S   UNL A   1      42.066  19.436  25.978  1.00  0.00     0.124 S 
ATOM     82  O   UNL A   1      42.593  18.595  27.046  1.00  0.00    -0.237 OA
ATOM     83  O   UNL A   1      40.623  19.377  25.771  1.00  0.00    -0.237 OA
ATOM     84  O   UNL A   1      42.865  19.481  24.757  1.00  0.00    -0.744 OA
ENDBRANCH  80  81
ENDBRANCH  48  73
BRANCH  60  85
ATOM     85  C   UNL A   1      47.881  27.198  30.634  1.00  0.00     0.058 A 
ATOM     86  C   UNL A   1      48.957  27.419  29.761  1.00  0.00     0.135 A 
ATOM     87  C   UNL A   1      48.163  26.643  31.894  1.00  0.00     0.135 A 
ATOM     88  F   UNL A   1      48.742  27.946  28.545  1.00  0.00    -0.206 F 
ATOM     89  C   UNL A   1      50.258  27.070  30.109  1.00  0.00     0.059 A 
ATOM     90  C   UNL A   1      49.459  26.312  32.274  1.00  0.00     0.059 A 
ATOM     91  F   UNL A   1      47.170  26.426  32.773  1.00  0.00    -0.206 F 
ATOM     92  C   UNL A   1      50.498  26.515  31.368  1.00  0.00     0.060 A 
BRANCH  92  93
ATOM     93  S   UNL A   1      52.192  26.083  31.819  1.00  0.00     0.124 S 
ATOM     94  O   UNL A   1      52.894  26.287  30.556  1.00  0.00    -0.237 OA
ATOM     95  O   UNL A   1      52.494  27.046  32.874  1.00  0.00    -0.237 OA
ATOM     96  O   UNL A   1      52.082  24.696  32.259  1.00  0.00    -0.744 OA
ENDBRANCH  92  93
ENDBRANCH  60  85
ENDBRANCH  34  35
ENDBRANCH  27  29
ENDBRANCH  26  27
ENDBRANCH  25  26
ENDBRANCH  24  25
ENDBRANCH   1  24
TORSDOF 20
ENDMDL
