MODEL 1
REMARK VINA RESULT:     -11.3      0.000      0.000
REMARK SMILES CC(C)[C@H](C)CNC(=O)N1CC(n2cc(C(=O)OCCOCCOC(=O)c3ccc(-c4c5nc(c(-c6c(F)cc(S(=O)(=O)[O-])cc6F)c6ccc([nH]6)c(-c6c(F)cc(S(=O)(=O)[O-])cc6F)c6nc(c(-c7c(F)cc(S(=O)(=O)[O-])cc7F)c7ccc4[nH]7)C=C6)C=C5)cc3)nn2)C1
REMARK SMILES IDX 20 1 19 2 18 3 16 4 17 5 15 6 13 7 14 8 94 9 93 10 12 11
REMARK SMILES IDX 7 12 8 13 9 15 10 16 11 17 95 18 6 19 4 20 5 21 2 22 1 23
REMARK SMILES IDX 3 24 21 25 22 26 23 27 24 28 25 29 26 30 27 31 28 32 92 33
REMARK SMILES IDX 29 34 91 35 30 36 31 37 32 38 85 39 33 40 90 41 84 42 86 43
REMARK SMILES IDX 34 44 89 45 83 46 82 47 35 49 69 50 48 51 68 52 49 53 52 54
REMARK SMILES IDX 67 55 87 56 50 57 51 58 66 60 88 61 53 62 36 63 37 64 46 65
REMARK SMILES IDX 38 66 39 67 45 68 47 69 40 70 41 71 42 72 43 73 44 74 70 75
REMARK SMILES IDX 71 76 80 77 72 78 73 79 79 80 81 81 74 82 75 83 76 84 77 85
REMARK SMILES IDX 78 86 54 87 55 88 64 89 56 90 57 91 63 92 65 93 58 94 59 95
REMARK SMILES IDX 60 96 61 97 62 98
REMARK H PARENT 7 14 86 48 52 59
REMARK Flexibility Score: inf
ROOT
ATOM      1  C   UNL A   1      39.735  22.235  26.669  1.00  0.00     0.202 C 
ENDROOT
BRANCH   1   2
ATOM      2  C   UNL A   1      38.934  21.320  25.744  1.00  0.00     0.261 C 
BRANCH   2   3
ATOM      3  O   UNL A   1      37.528  21.622  25.757  1.00  0.00    -0.458 OA
BRANCH   3   4
ATOM      4  C   UNL A   1      36.749  20.708  25.092  1.00  0.00     0.360 C 
ATOM      5  O   UNL A   1      37.098  19.582  24.814  1.00  0.00    -0.244 OA
BRANCH   4   6
ATOM      6  C   UNL A   1      35.406  21.210  24.822  1.00  0.00     0.190 A 
ATOM      7  N   UNL A   1      33.622  22.219  24.126  1.00  0.00    -0.245 N 
ATOM      8  C   UNL A   1      34.986  22.356  24.176  1.00  0.00     0.147 A 
ATOM      9  N   UNL A   1      33.221  21.124  24.788  1.00  0.00    -0.066 NA
ATOM     10  N   UNL A   1      34.301  20.494  25.217  1.00  0.00    -0.123 NA
BRANCH   7  11
ATOM     11  C   UNL A   1      32.759  23.007  23.300  1.00  0.00     0.148 C 
ATOM     12  N   UNL A   1      32.504  27.036  22.001  1.00  0.00    -0.338 N 
ATOM     13  C   UNL A   1      32.646  25.793  21.481  1.00  0.00     0.317 C 
ATOM     14  H   UNL A   1      31.922  27.638  21.483  1.00  0.00     0.165 HD
ATOM     15  O   UNL A   1      32.408  25.634  20.284  1.00  0.00    -0.249 OA
ATOM     16  N   UNL A   1      33.037  24.775  22.280  1.00  0.00    -0.320 N 
ATOM     17  C   UNL A   1      33.314  23.391  21.918  1.00  0.00     0.150 C 
ATOM     18  C   UNL A   1      32.885  24.494  23.691  1.00  0.00     0.150 C 
BRANCH  12  19
ATOM     19  C   UNL A   1      33.073  27.623  23.202  1.00  0.00     0.121 C 
BRANCH  19  20
ATOM     20  C   UNL A   1      31.995  28.130  24.188  1.00  0.00     0.008 C 
ATOM     21  C   UNL A   1      30.667  27.399  23.942  1.00  0.00     0.010 C 
BRANCH  20  22
ATOM     22  C   UNL A   1      32.471  28.114  25.686  1.00  0.00    -0.013 C 
ATOM     23  C   UNL A   1      31.416  27.613  26.680  1.00  0.00     0.008 C 
ATOM     24  C   UNL A   1      33.783  27.362  25.947  1.00  0.00     0.008 C 
ENDBRANCH  20  22
ENDBRANCH  19  20
ENDBRANCH  12  19
ENDBRANCH   7  11
ENDBRANCH   4   6
ENDBRANCH   3   4
ENDBRANCH   2   3
ENDBRANCH   1   2
BRANCH   1  25
ATOM     25  O   UNL A   1      40.922  21.705  27.255  1.00  0.00    -0.374 OA
BRANCH  25  26
ATOM     26  C   UNL A   1      41.095  20.294  27.359  1.00  0.00     0.202 C 
BRANCH  26  27
ATOM     27  C   UNL A   1      42.173  19.640  26.507  1.00  0.00     0.261 C 
BRANCH  27  28
ATOM     28  O   UNL A   1      42.570  20.478  25.433  1.00  0.00    -0.460 OA
BRANCH  28  29
ATOM     29  C   UNL A   1      43.905  20.698  25.363  1.00  0.00     0.338 C 
ATOM     30  O   UNL A   1      44.791  19.862  25.360  1.00  0.00    -0.246 OA
BRANCH  29  31
ATOM     31  C   UNL A   1      44.131  22.144  25.437  1.00  0.00     0.060 A 
ATOM     32  C   UNL A   1      45.132  22.567  26.313  1.00  0.00     0.016 A 
ATOM     33  C   UNL A   1      43.161  23.018  24.923  1.00  0.00     0.016 A 
ATOM     34  C   UNL A   1      45.011  23.815  26.876  1.00  0.00     0.010 A 
ATOM     35  C   UNL A   1      43.021  24.246  25.512  1.00  0.00     0.010 A 
ATOM     36  C   UNL A   1      43.895  24.585  26.542  1.00  0.00    -0.014 A 
BRANCH  36  37
ATOM     37  C   UNL A   1      43.663  25.803  27.276  1.00  0.00     0.031 A 
ATOM     38  C   UNL A   1      44.703  26.821  27.035  1.00  0.00     0.074 A 
ATOM     39  C   UNL A   1      42.528  26.000  27.970  1.00  0.00     0.049 A 
ATOM     40  N   UNL A   1      45.636  27.211  27.837  1.00  0.00    -0.248 NA
ATOM     41  C   UNL A   1      44.857  27.303  25.651  1.00  0.00     0.031 C 
ATOM     42  C   UNL A   1      41.315  25.177  27.980  1.00  0.00     0.029 A 
ATOM     43  N   UNL A   1      42.182  27.062  28.737  1.00  0.00    -0.354 N 
ATOM     44  C   UNL A   1      46.336  28.178  27.125  1.00  0.00     0.074 A 
ATOM     45  C   UNL A   1      45.994  27.990  25.741  1.00  0.00     0.031 C 
ATOM     46  C   UNL A   1      40.303  25.888  28.529  1.00  0.00     0.029 A 
ATOM     47  C   UNL A   1      40.824  27.156  29.011  1.00  0.00     0.049 A 
ATOM     48  H   UNL A   1      42.839  27.713  29.072  1.00  0.00     0.167 HD
ATOM     49  C   UNL A   1      46.894  29.250  27.748  1.00  0.00     0.037 A 
ATOM     50  C   UNL A   1      40.196  28.256  29.501  1.00  0.00     0.037 A 
ATOM     51  C   UNL A   1      47.010  29.025  29.169  1.00  0.00     0.049 A 
ATOM     52  C   UNL A   1      41.249  29.126  30.102  1.00  0.00     0.074 A 
ATOM     53  C   UNL A   1      47.641  28.073  29.946  1.00  0.00     0.029 A 
ATOM     54  N   UNL A   1      46.084  29.628  29.988  1.00  0.00    -0.354 N 
ATOM     55  N   UNL A   1      41.946  28.804  31.160  1.00  0.00    -0.248 NA
ATOM     56  C   UNL A   1      41.856  30.141  29.251  1.00  0.00     0.031 C 
ATOM     57  C   UNL A   1      46.753  27.834  31.035  1.00  0.00     0.029 A 
ATOM     58  C   UNL A   1      45.660  28.692  30.898  1.00  0.00     0.049 A 
ATOM     59  H   UNL A   1      45.781  30.563  29.932  1.00  0.00     0.167 HD
ATOM     60  C   UNL A   1      43.233  29.254  30.898  1.00  0.00     0.074 A 
ATOM     61  C   UNL A   1      43.098  30.140  29.745  1.00  0.00     0.031 C 
ATOM     62  C   UNL A   1      44.324  28.645  31.454  1.00  0.00     0.037 A 
BRANCH  49  63
ATOM     63  C   UNL A   1      46.973  30.625  27.129  1.00  0.00     0.058 A 
ATOM     64  C   UNL A   1      48.209  31.297  27.107  1.00  0.00     0.135 A 
ATOM     65  C   UNL A   1      45.847  31.413  26.790  1.00  0.00     0.135 A 
ATOM     66  F   UNL A   1      49.343  30.652  27.426  1.00  0.00    -0.206 F 
ATOM     67  C   UNL A   1      48.311  32.661  26.836  1.00  0.00     0.059 A 
ATOM     68  C   UNL A   1      45.934  32.756  26.452  1.00  0.00     0.059 A 
ATOM     69  F   UNL A   1      44.592  30.957  26.866  1.00  0.00    -0.206 F 
ATOM     70  C   UNL A   1      47.163  33.383  26.521  1.00  0.00     0.060 A 
BRANCH  70  71
ATOM     71  S   UNL A   1      47.266  35.162  26.276  1.00  0.00     0.124 S 
ATOM     72  O   UNL A   1      47.742  35.605  27.582  1.00  0.00    -0.237 OA
ATOM     73  O   UNL A   1      48.221  35.259  25.177  1.00  0.00    -0.237 OA
ATOM     74  O   UNL A   1      45.895  35.535  25.942  1.00  0.00    -0.744 OA
ENDBRANCH  70  71
ENDBRANCH  49  63
BRANCH  50  75
ATOM     75  C   UNL A   1      38.845  28.765  29.136  1.00  0.00     0.058 A 
ATOM     76  C   UNL A   1      37.843  28.931  30.109  1.00  0.00     0.135 A 
ATOM     77  C   UNL A   1      38.591  29.355  27.880  1.00  0.00     0.135 A 
ATOM     78  F   UNL A   1      38.010  28.425  31.340  1.00  0.00    -0.206 F 
ATOM     79  C   UNL A   1      36.683  29.679  29.867  1.00  0.00     0.059 A 
ATOM     80  C   UNL A   1      37.438  30.091  27.612  1.00  0.00     0.059 A 
ATOM     81  F   UNL A   1      39.502  29.318  26.897  1.00  0.00    -0.206 F 
ATOM     82  C   UNL A   1      36.499  30.271  28.619  1.00  0.00     0.060 A 
BRANCH  82  83
ATOM     83  S   UNL A   1      35.097  31.382  28.354  1.00  0.00     0.124 S 
ATOM     84  O   UNL A   1      34.137  30.503  27.695  1.00  0.00    -0.237 OA
ATOM     85  O   UNL A   1      34.763  31.786  29.716  1.00  0.00    -0.237 OA
ATOM     86  O   UNL A   1      35.655  32.438  27.514  1.00  0.00    -0.744 OA
ENDBRANCH  82  83
ENDBRANCH  50  75
BRANCH  62  87
ATOM     87  C   UNL A   1      44.098  27.672  32.584  1.00  0.00     0.058 A 
ATOM     88  C   UNL A   1      43.995  26.278  32.424  1.00  0.00     0.135 A 
ATOM     89  C   UNL A   1      44.155  28.159  33.898  1.00  0.00     0.135 A 
ATOM     90  F   UNL A   1      44.041  25.720  31.206  1.00  0.00    -0.206 F 
ATOM     91  C   UNL A   1      43.909  25.414  33.518  1.00  0.00     0.059 A 
ATOM     92  C   UNL A   1      44.106  27.316  35.004  1.00  0.00     0.059 A 
ATOM     93  F   UNL A   1      44.318  29.474  34.120  1.00  0.00    -0.206 F 
ATOM     94  C   UNL A   1      43.970  25.944  34.807  1.00  0.00     0.060 A 
BRANCH  94  95
ATOM     95  S   UNL A   1      43.947  24.821  36.222  1.00  0.00     0.124 S 
ATOM     96  O   UNL A   1      42.600  25.019  36.748  1.00  0.00    -0.237 OA
ATOM     97  O   UNL A   1      44.202  23.524  35.603  1.00  0.00    -0.237 OA
ATOM     98  O   UNL A   1      45.027  25.321  37.070  1.00  0.00    -0.744 OA
ENDBRANCH  94  95
ENDBRANCH  62  87
ENDBRANCH  36  37
ENDBRANCH  29  31
ENDBRANCH  28  29
ENDBRANCH  27  28
ENDBRANCH  26  27
ENDBRANCH  25  26
ENDBRANCH   1  25
TORSDOF 21
ENDMDL
MODEL 2
REMARK VINA RESULT:     -11.1      1.250      1.635
REMARK SMILES CC(C)[C@H](C)CNC(=O)N1CC(n2cc(C(=O)OCCOCCOC(=O)c3ccc(-c4c5nc(c(-c6c(F)cc(S(=O)(=O)[O-])cc6F)c6ccc([nH]6)c(-c6c(F)cc(S(=O)(=O)[O-])cc6F)c6nc(c(-c7c(F)cc(S(=O)(=O)[O-])cc7F)c7ccc4[nH]7)C=C6)C=C5)cc3)nn2)C1
REMARK SMILES IDX 20 1 19 2 18 3 16 4 17 5 15 6 13 7 14 8 94 9 93 10 12 11
REMARK SMILES IDX 7 12 8 13 9 15 10 16 11 17 95 18 6 19 4 20 5 21 2 22 1 23
REMARK SMILES IDX 3 24 21 25 22 26 23 27 24 28 25 29 26 30 27 31 28 32 92 33
REMARK SMILES IDX 29 34 91 35 30 36 31 37 32 38 85 39 33 40 90 41 84 42 86 43
REMARK SMILES IDX 34 44 89 45 83 46 82 47 35 49 69 50 48 51 68 52 49 53 52 54
REMARK SMILES IDX 67 55 87 56 50 57 51 58 66 60 88 61 53 62 36 63 37 64 46 65
REMARK SMILES IDX 38 66 39 67 45 68 47 69 40 70 41 71 42 72 43 73 44 74 70 75
REMARK SMILES IDX 71 76 80 77 72 78 73 79 79 80 81 81 74 82 75 83 76 84 77 85
REMARK SMILES IDX 78 86 54 87 55 88 64 89 56 90 57 91 63 92 65 93 58 94 59 95
REMARK SMILES IDX 60 96 61 97 62 98
REMARK H PARENT 7 14 86 48 52 59
REMARK Flexibility Score: inf
ROOT
ATOM      1  C   UNL A   1      39.993  22.044  26.773  1.00  0.00     0.202 C 
ENDROOT
BRANCH   1   2
ATOM      2  C   UNL A   1      39.129  21.236  25.805  1.00  0.00     0.261 C 
BRANCH   2   3
ATOM      3  O   UNL A   1      37.802  21.776  25.674  1.00  0.00    -0.458 OA
BRANCH   3   4
ATOM      4  C   UNL A   1      36.857  20.859  25.287  1.00  0.00     0.360 C 
ATOM      5  O   UNL A   1      37.107  19.778  24.802  1.00  0.00    -0.244 OA
BRANCH   4   6
ATOM      6  C   UNL A   1      35.499  21.291  25.600  1.00  0.00     0.190 A 
ATOM      7  N   UNL A   1      33.690  22.255  26.297  1.00  0.00    -0.245 N 
ATOM      8  C   UNL A   1      35.028  22.146  26.578  1.00  0.00     0.147 A 
ATOM      9  N   UNL A   1      33.339  21.442  25.290  1.00  0.00    -0.066 NA
ATOM     10  N   UNL A   1      34.436  20.848  24.850  1.00  0.00    -0.123 NA
BRANCH   7  11
ATOM     11  C   UNL A   1      32.825  23.253  26.849  1.00  0.00     0.148 C 
ATOM     12  N   UNL A   1      30.249  26.298  25.408  1.00  0.00    -0.338 N 
ATOM     13  C   UNL A   1      30.191  25.162  26.147  1.00  0.00     0.317 C 
ATOM     14  H   UNL A   1      29.676  27.031  25.730  1.00  0.00     0.165 HD
ATOM     15  O   UNL A   1      29.203  24.984  26.858  1.00  0.00    -0.249 OA
ATOM     16  N   UNL A   1      31.207  24.273  26.086  1.00  0.00    -0.320 N 
ATOM     17  C   UNL A   1      31.317  22.974  26.737  1.00  0.00     0.150 C 
ATOM     18  C   UNL A   1      32.626  24.388  25.825  1.00  0.00     0.150 C 
BRANCH  12  19
ATOM     19  C   UNL A   1      31.023  26.604  24.218  1.00  0.00     0.121 C 
BRANCH  19  20
ATOM     20  C   UNL A   1      31.963  27.817  24.412  1.00  0.00     0.008 C 
ATOM     21  C   UNL A   1      32.067  28.172  25.902  1.00  0.00     0.010 C 
BRANCH  20  22
ATOM     22  C   UNL A   1      33.350  27.645  23.692  1.00  0.00    -0.013 C 
ATOM     23  C   UNL A   1      33.525  26.303  22.970  1.00  0.00     0.008 C 
ATOM     24  C   UNL A   1      33.728  28.773  22.724  1.00  0.00     0.008 C 
ENDBRANCH  20  22
ENDBRANCH  19  20
ENDBRANCH  12  19
ENDBRANCH   7  11
ENDBRANCH   4   6
ENDBRANCH   3   4
ENDBRANCH   2   3
ENDBRANCH   1   2
BRANCH   1  25
ATOM     25  O   UNL A   1      41.170  21.421  27.282  1.00  0.00    -0.374 OA
BRANCH  25  26
ATOM     26  C   UNL A   1      41.329  20.009  27.179  1.00  0.00     0.202 C 
BRANCH  26  27
ATOM     27  C   UNL A   1      42.517  19.477  26.391  1.00  0.00     0.261 C 
BRANCH  27  28
ATOM     28  O   UNL A   1      42.853  20.334  25.311  1.00  0.00    -0.460 OA
BRANCH  28  29
ATOM     29  C   UNL A   1      44.180  20.571  25.180  1.00  0.00     0.338 C 
ATOM     30  O   UNL A   1      45.074  19.746  25.117  1.00  0.00    -0.246 OA
BRANCH  29  31
ATOM     31  C   UNL A   1      44.394  22.018  25.274  1.00  0.00     0.060 A 
ATOM     32  C   UNL A   1      45.402  22.436  26.144  1.00  0.00     0.016 A 
ATOM     33  C   UNL A   1      43.410  22.891  24.787  1.00  0.00     0.016 A 
ATOM     34  C   UNL A   1      45.277  23.675  26.729  1.00  0.00     0.010 A 
ATOM     35  C   UNL A   1      43.266  24.108  25.397  1.00  0.00     0.010 A 
ATOM     36  C   UNL A   1      44.150  24.439  26.420  1.00  0.00    -0.014 A 
BRANCH  36  37
ATOM     37  C   UNL A   1      43.916  25.643  27.177  1.00  0.00     0.031 A 
ATOM     38  C   UNL A   1      44.955  26.668  26.953  1.00  0.00     0.074 A 
ATOM     39  C   UNL A   1      42.782  25.826  27.875  1.00  0.00     0.049 A 
ATOM     40  N   UNL A   1      45.887  27.045  27.760  1.00  0.00    -0.248 NA
ATOM     41  C   UNL A   1      45.106  27.174  25.578  1.00  0.00     0.031 C 
ATOM     42  C   UNL A   1      41.571  25.000  27.872  1.00  0.00     0.029 A 
ATOM     43  N   UNL A   1      42.434  26.874  28.661  1.00  0.00    -0.354 N 
ATOM     44  C   UNL A   1      46.585  28.026  27.066  1.00  0.00     0.074 A 
ATOM     45  C   UNL A   1      46.242  27.862  25.679  1.00  0.00     0.031 C 
ATOM     46  C   UNL A   1      40.558  25.700  28.435  1.00  0.00     0.029 A 
ATOM     47  C   UNL A   1      41.077  26.960  28.939  1.00  0.00     0.049 A 
ATOM     48  H   UNL A   1      43.091  27.520  29.008  1.00  0.00     0.167 HD
ATOM     49  C   UNL A   1      47.142  29.087  27.708  1.00  0.00     0.037 A 
ATOM     50  C   UNL A   1      40.447  28.049  29.450  1.00  0.00     0.037 A 
ATOM     51  C   UNL A   1      47.259  28.838  29.124  1.00  0.00     0.049 A 
ATOM     52  C   UNL A   1      41.499  28.911  30.065  1.00  0.00     0.074 A 
ATOM     53  C   UNL A   1      47.893  27.873  29.883  1.00  0.00     0.029 A 
ATOM     54  N   UNL A   1      46.333  29.424  29.955  1.00  0.00    -0.354 N 
ATOM     55  N   UNL A   1      42.198  28.571  31.116  1.00  0.00    -0.248 NA
ATOM     56  C   UNL A   1      42.103  29.942  29.231  1.00  0.00     0.031 C 
ATOM     57  C   UNL A   1      47.007  27.613  30.969  1.00  0.00     0.029 A 
ATOM     58  C   UNL A   1      45.912  28.471  30.849  1.00  0.00     0.049 A 
ATOM     59  H   UNL A   1      46.029  30.359  29.916  1.00  0.00     0.167 HD
ATOM     60  C   UNL A   1      43.484  29.028  30.860  1.00  0.00     0.074 A 
ATOM     61  C   UNL A   1      43.346  29.934  29.724  1.00  0.00     0.031 C 
ATOM     62  C   UNL A   1      44.576  28.411  31.404  1.00  0.00     0.037 A 
BRANCH  49  63
ATOM     63  C   UNL A   1      47.217  30.474  27.113  1.00  0.00     0.058 A 
ATOM     64  C   UNL A   1      48.448  31.157  27.121  1.00  0.00     0.135 A 
ATOM     65  C   UNL A   1      46.090  31.258  26.771  1.00  0.00     0.135 A 
ATOM     66  F   UNL A   1      49.582  30.516  27.446  1.00  0.00    -0.206 F 
ATOM     67  C   UNL A   1      48.541  32.526  26.874  1.00  0.00     0.059 A 
ATOM     68  C   UNL A   1      46.169  32.607  26.457  1.00  0.00     0.059 A 
ATOM     69  F   UNL A   1      44.837  30.789  26.820  1.00  0.00    -0.206 F 
ATOM     70  C   UNL A   1      47.391  33.243  26.555  1.00  0.00     0.060 A 
BRANCH  70  71
ATOM     71  S   UNL A   1      47.482  35.027  26.342  1.00  0.00     0.124 S 
ATOM     72  O   UNL A   1      48.355  35.133  25.178  1.00  0.00    -0.237 OA
ATOM     73  O   UNL A   1      46.082  35.376  26.129  1.00  0.00    -0.237 OA
ATOM     74  O   UNL A   1      48.052  35.487  27.604  1.00  0.00    -0.744 OA
ENDBRANCH  70  71
ENDBRANCH  49  63
BRANCH  50  75
ATOM     75  C   UNL A   1      39.095  28.562  29.094  1.00  0.00     0.058 A 
ATOM     76  C   UNL A   1      38.071  28.638  30.056  1.00  0.00     0.135 A 
ATOM     77  C   UNL A   1      38.856  29.242  27.882  1.00  0.00     0.135 A 
ATOM     78  F   UNL A   1      38.222  28.043  31.248  1.00  0.00    -0.206 F 
ATOM     79  C   UNL A   1      36.903  29.382  29.846  1.00  0.00     0.059 A 
ATOM     80  C   UNL A   1      37.695  29.976  27.645  1.00  0.00     0.059 A 
ATOM     81  F   UNL A   1      39.786  29.294  26.918  1.00  0.00    -0.206 F 
ATOM     82  C   UNL A   1      36.733  30.065  28.642  1.00  0.00     0.060 A 
BRANCH  82  83
ATOM     83  S   UNL A   1      35.316  31.169  28.433  1.00  0.00     0.124 S 
ATOM     84  O   UNL A   1      34.311  30.267  27.882  1.00  0.00    -0.237 OA
ATOM     85  O   UNL A   1      35.082  31.631  29.796  1.00  0.00    -0.237 OA
ATOM     86  O   UNL A   1      35.814  32.187  27.510  1.00  0.00    -0.744 OA
ENDBRANCH  82  83
ENDBRANCH  50  75
BRANCH  62  87
ATOM     87  C   UNL A   1      44.354  27.417  32.517  1.00  0.00     0.058 A 
ATOM     88  C   UNL A   1      44.216  26.030  32.328  1.00  0.00     0.135 A 
ATOM     89  C   UNL A   1      44.450  27.873  33.840  1.00  0.00     0.135 A 
ATOM     90  F   UNL A   1      44.223  25.499  31.097  1.00  0.00    -0.206 F 
ATOM     91  C   UNL A   1      44.135  25.144  33.404  1.00  0.00     0.059 A 
ATOM     92  C   UNL A   1      44.406  27.006  34.928  1.00  0.00     0.059 A 
ATOM     93  F   UNL A   1      44.648  29.179  34.088  1.00  0.00    -0.206 F 
ATOM     94  C   UNL A   1      44.235  25.642  34.703  1.00  0.00     0.060 A 
BRANCH  94  95
ATOM     95  S   UNL A   1      44.218  24.488  36.092  1.00  0.00     0.124 S 
ATOM     96  O   UNL A   1      43.375  25.184  37.058  1.00  0.00    -0.237 OA
ATOM     97  O   UNL A   1      43.644  23.284  35.499  1.00  0.00    -0.237 OA
ATOM     98  O   UNL A   1      45.628  24.379  36.461  1.00  0.00    -0.744 OA
ENDBRANCH  94  95
ENDBRANCH  62  87
ENDBRANCH  36  37
ENDBRANCH  29  31
ENDBRANCH  28  29
ENDBRANCH  27  28
ENDBRANCH  26  27
ENDBRANCH  25  26
ENDBRANCH   1  25
TORSDOF 21
ENDMDL
MODEL 3
REMARK VINA RESULT:     -10.7      3.374     10.140
REMARK SMILES CC(C)[C@H](C)CNC(=O)N1CC(n2cc(C(=O)OCCOCCOC(=O)c3ccc(-c4c5nc(c(-c6c(F)cc(S(=O)(=O)[O-])cc6F)c6ccc([nH]6)c(-c6c(F)cc(S(=O)(=O)[O-])cc6F)c6nc(c(-c7c(F)cc(S(=O)(=O)[O-])cc7F)c7ccc4[nH]7)C=C6)C=C5)cc3)nn2)C1
REMARK SMILES IDX 20 1 19 2 18 3 16 4 17 5 15 6 13 7 14 8 94 9 93 10 12 11
REMARK SMILES IDX 7 12 8 13 9 15 10 16 11 17 95 18 6 19 4 20 5 21 2 22 1 23
REMARK SMILES IDX 3 24 21 25 22 26 23 27 24 28 25 29 26 30 27 31 28 32 92 33
REMARK SMILES IDX 29 34 91 35 30 36 31 37 32 38 85 39 33 40 90 41 84 42 86 43
REMARK SMILES IDX 34 44 89 45 83 46 82 47 35 49 69 50 48 51 68 52 49 53 52 54
REMARK SMILES IDX 67 55 87 56 50 57 51 58 66 60 88 61 53 62 36 63 37 64 46 65
REMARK SMILES IDX 38 66 39 67 45 68 47 69 40 70 41 71 42 72 43 73 44 74 70 75
REMARK SMILES IDX 71 76 80 77 72 78 73 79 79 80 81 81 74 82 75 83 76 84 77 85
REMARK SMILES IDX 78 86 54 87 55 88 64 89 56 90 57 91 63 92 65 93 58 94 59 95
REMARK SMILES IDX 60 96 61 97 62 98
REMARK H PARENT 7 14 86 48 52 59
REMARK Flexibility Score: inf
ROOT
ATOM      1  C   UNL A   1      33.517  35.403  29.066  1.00  0.00     0.202 C 
ENDROOT
BRANCH   1   2
ATOM      2  C   UNL A   1      33.367  33.891  28.899  1.00  0.00     0.261 C 
BRANCH   2   3
ATOM      3  O   UNL A   1      33.986  33.410  27.693  1.00  0.00    -0.458 OA
BRANCH   3   4
ATOM      4  C   UNL A   1      34.975  32.480  27.899  1.00  0.00     0.360 C 
ATOM      5  O   UNL A   1      36.058  32.726  28.381  1.00  0.00    -0.244 OA
BRANCH   4   6
ATOM      6  C   UNL A   1      34.552  31.129  27.550  1.00  0.00     0.190 A 
ATOM      7  N   UNL A   1      33.552  29.326  26.889  1.00  0.00    -0.245 N 
ATOM      8  C   UNL A   1      33.300  30.624  27.256  1.00  0.00     0.147 A 
ATOM      9  N   UNL A   1      34.847  29.020  27.050  1.00  0.00    -0.066 NA
ATOM     10  N   UNL A   1      35.474  30.114  27.450  1.00  0.00    -0.123 NA
BRANCH   7  11
ATOM     11  C   UNL A   1      32.613  28.477  26.221  1.00  0.00     0.148 C 
ATOM     12  N   UNL A   1      31.923  24.315  25.786  1.00  0.00    -0.338 N 
ATOM     13  C   UNL A   1      31.301  25.418  26.270  1.00  0.00     0.317 C 
ATOM     14  H   UNL A   1      31.336  23.682  25.314  1.00  0.00     0.165 HD
ATOM     15  O   UNL A   1      30.084  25.367  26.445  1.00  0.00    -0.249 OA
ATOM     16  N   UNL A   1      32.023  26.530  26.537  1.00  0.00    -0.320 N 
ATOM     17  C   UNL A   1      31.571  27.788  27.118  1.00  0.00     0.150 C 
ATOM     18  C   UNL A   1      33.242  27.088  25.994  1.00  0.00     0.150 C 
BRANCH  12  19
ATOM     19  C   UNL A   1      33.319  23.919  25.855  1.00  0.00     0.121 C 
BRANCH  19  20
ATOM     20  C   UNL A   1      33.705  22.896  24.761  1.00  0.00     0.008 C 
ATOM     21  C   UNL A   1      34.513  23.587  23.653  1.00  0.00     0.010 C 
BRANCH  20  22
ATOM     22  C   UNL A   1      34.380  21.599  25.339  1.00  0.00    -0.013 C 
ATOM     23  C   UNL A   1      33.521  20.334  25.224  1.00  0.00     0.008 C 
ATOM     24  C   UNL A   1      35.779  21.290  24.787  1.00  0.00     0.008 C 
ENDBRANCH  20  22
ENDBRANCH  19  20
ENDBRANCH  12  19
ENDBRANCH   7  11
ENDBRANCH   4   6
ENDBRANCH   3   4
ENDBRANCH   2   3
ENDBRANCH   1   2
BRANCH   1  25
ATOM     25  O   UNL A   1      32.683  36.045  30.028  1.00  0.00    -0.374 OA
BRANCH  25  26
ATOM     26  C   UNL A   1      33.204  36.383  31.310  1.00  0.00     0.202 C 
BRANCH  26  27
ATOM     27  C   UNL A   1      32.905  35.451  32.475  1.00  0.00     0.261 C 
BRANCH  27  28
ATOM     28  O   UNL A   1      33.637  34.240  32.376  1.00  0.00    -0.460 OA
BRANCH  28  29
ATOM     29  C   UNL A   1      34.892  34.305  32.879  1.00  0.00     0.338 C 
ATOM     30  O   UNL A   1      35.268  34.949  33.843  1.00  0.00    -0.246 OA
BRANCH  29  31
ATOM     31  C   UNL A   1      35.783  33.574  31.974  1.00  0.00     0.060 A 
ATOM     32  C   UNL A   1      35.594  32.193  31.906  1.00  0.00     0.016 A 
ATOM     33  C   UNL A   1      36.949  34.198  31.505  1.00  0.00     0.016 A 
ATOM     34  C   UNL A   1      36.680  31.407  31.598  1.00  0.00     0.010 A 
ATOM     35  C   UNL A   1      38.039  33.414  31.236  1.00  0.00     0.010 A 
ATOM     36  C   UNL A   1      37.907  32.035  31.376  1.00  0.00    -0.014 A 
BRANCH  36  37
ATOM     37  C   UNL A   1      39.081  31.209  31.251  1.00  0.00     0.031 A 
ATOM     38  C   UNL A   1      39.777  31.010  32.537  1.00  0.00     0.074 A 
ATOM     39  C   UNL A   1      39.382  30.585  30.099  1.00  0.00     0.049 A 
ATOM     40  N   UNL A   1      40.898  31.519  32.922  1.00  0.00    -0.248 NA
ATOM     41  C   UNL A   1      39.021  30.336  33.607  1.00  0.00     0.031 C 
ATOM     42  C   UNL A   1      38.563  30.467  28.889  1.00  0.00     0.029 A 
ATOM     43  N   UNL A   1      40.460  29.814  29.813  1.00  0.00    -0.354 N 
ATOM     44  C   UNL A   1      41.098  31.014  34.201  1.00  0.00     0.074 A 
ATOM     45  C   UNL A   1      39.819  30.538  34.654  1.00  0.00     0.031 C 
ATOM     46  C   UNL A   1      39.074  29.492  28.101  1.00  0.00     0.029 A 
ATOM     47  C   UNL A   1      40.310  29.008  28.693  1.00  0.00     0.049 A 
ATOM     48  H   UNL A   1      41.281  29.827  30.354  1.00  0.00     0.167 HD
ATOM     49  C   UNL A   1      42.346  30.739  34.666  1.00  0.00     0.037 A 
ATOM     50  C   UNL A   1      41.109  27.959  28.368  1.00  0.00     0.037 A 
ATOM     51  C   UNL A   1      43.355  31.395  33.871  1.00  0.00     0.049 A 
ATOM     52  C   UNL A   1      42.379  28.125  29.135  1.00  0.00     0.074 A 
ATOM     53  C   UNL A   1      43.620  32.711  33.542  1.00  0.00     0.029 A 
ATOM     54  N   UNL A   1      44.042  30.632  32.955  1.00  0.00    -0.354 N 
ATOM     55  N   UNL A   1      43.230  29.097  28.935  1.00  0.00    -0.248 NA
ATOM     56  C   UNL A   1      42.469  27.487  30.442  1.00  0.00     0.031 C 
ATOM     57  C   UNL A   1      44.059  32.675  32.187  1.00  0.00     0.029 A 
ATOM     58  C   UNL A   1      44.097  31.340  31.780  1.00  0.00     0.049 A 
ATOM     59  H   UNL A   1      44.426  29.740  33.115  1.00  0.00     0.167 HD
ATOM     60  C   UNL A   1      43.669  29.461  30.201  1.00  0.00     0.074 A 
ATOM     61  C   UNL A   1      43.228  28.382  31.081  1.00  0.00     0.031 C 
ATOM     62  C   UNL A   1      44.093  30.734  30.465  1.00  0.00     0.037 A 
BRANCH  49  63
ATOM     63  C   UNL A   1      42.655  29.584  35.588  1.00  0.00     0.058 A 
ATOM     64  C   UNL A   1      43.459  29.808  36.722  1.00  0.00     0.135 A 
ATOM     65  C   UNL A   1      42.414  28.225  35.275  1.00  0.00     0.135 A 
ATOM     66  F   UNL A   1      43.766  31.058  37.105  1.00  0.00    -0.206 F 
ATOM     67  C   UNL A   1      44.033  28.763  37.447  1.00  0.00     0.059 A 
ATOM     68  C   UNL A   1      42.920  27.171  36.021  1.00  0.00     0.059 A 
ATOM     69  F   UNL A   1      41.760  27.840  34.172  1.00  0.00    -0.206 F 
ATOM     70  C   UNL A   1      43.765  27.448  37.078  1.00  0.00     0.060 A 
BRANCH  70  71
ATOM     71  S   UNL A   1      44.585  26.096  37.936  1.00  0.00     0.124 S 
ATOM     72  O   UNL A   1      43.944  24.937  37.325  1.00  0.00    -0.237 OA
ATOM     73  O   UNL A   1      45.983  26.319  37.582  1.00  0.00    -0.237 OA
ATOM     74  O   UNL A   1      44.253  26.338  39.336  1.00  0.00    -0.744 OA
ENDBRANCH  70  71
ENDBRANCH  49  63
BRANCH  50  75
ATOM     75  C   UNL A   1      40.698  26.660  27.767  1.00  0.00     0.058 A 
ATOM     76  C   UNL A   1      41.400  26.106  26.682  1.00  0.00     0.135 A 
ATOM     77  C   UNL A   1      39.782  25.803  28.413  1.00  0.00     0.135 A 
ATOM     78  F   UNL A   1      42.310  26.840  26.024  1.00  0.00    -0.206 F 
ATOM     79  C   UNL A   1      41.240  24.770  26.292  1.00  0.00     0.059 A 
ATOM     80  C   UNL A   1      39.596  24.476  28.033  1.00  0.00     0.059 A 
ATOM     81  F   UNL A   1      39.104  26.200  29.500  1.00  0.00    -0.206 F 
ATOM     82  C   UNL A   1      40.347  23.957  26.988  1.00  0.00     0.060 A 
BRANCH  82  83
ATOM     83  S   UNL A   1      40.264  22.190  26.608  1.00  0.00     0.124 S 
ATOM     84  O   UNL A   1      38.960  22.082  25.963  1.00  0.00    -0.237 OA
ATOM     85  O   UNL A   1      41.423  22.008  25.740  1.00  0.00    -0.237 OA
ATOM     86  O   UNL A   1      40.367  21.557  27.920  1.00  0.00    -0.744 OA
ENDBRANCH  82  83
ENDBRANCH  50  75
BRANCH  62  87
ATOM     87  C   UNL A   1      44.358  31.654  29.299  1.00  0.00     0.058 A 
ATOM     88  C   UNL A   1      45.495  31.583  28.473  1.00  0.00     0.135 A 
ATOM     89  C   UNL A   1      43.339  32.534  28.906  1.00  0.00     0.135 A 
ATOM     90  F   UNL A   1      46.467  30.692  28.716  1.00  0.00    -0.206 F 
ATOM     91  C   UNL A   1      45.629  32.380  27.334  1.00  0.00     0.059 A 
ATOM     92  C   UNL A   1      43.436  33.314  27.758  1.00  0.00     0.059 A 
ATOM     93  F   UNL A   1      42.201  32.603  29.616  1.00  0.00    -0.206 F 
ATOM     94  C   UNL A   1      44.590  33.241  26.982  1.00  0.00     0.060 A 
BRANCH  94  95
ATOM     95  S   UNL A   1      44.725  34.208  25.462  1.00  0.00     0.124 S 
ATOM     96  O   UNL A   1      44.705  33.171  24.436  1.00  0.00    -0.237 OA
ATOM     97  O   UNL A   1      43.544  35.063  25.523  1.00  0.00    -0.237 OA
ATOM     98  O   UNL A   1      45.999  34.908  25.616  1.00  0.00    -0.744 OA
ENDBRANCH  94  95
ENDBRANCH  62  87
ENDBRANCH  36  37
ENDBRANCH  29  31
ENDBRANCH  28  29
ENDBRANCH  27  28
ENDBRANCH  26  27
ENDBRANCH  25  26
ENDBRANCH   1  25
TORSDOF 21
ENDMDL
