MODEL 1
REMARK VINA RESULT:     -10.4      0.000      0.000
REMARK SMILES CO[C@H]1CCC[C@H]1NC(=O)N[C@](C)(C(=O)OCCOCCOC(=O)c1ccc(-c2c3nc(c(-c4c(F)cc(S(=O)(=O)[O-])cc4F)c4ccc([nH]4)c(-c4c(F)cc(S(=O)(=O)[O-])cc4F)c4nc(c(-c5c(F)cc(S(=O)(=O)[O-])cc5F)c5ccc2[nH]5)C=C4)C=C3)cc1)C(F)(F)F
REMARK SMILES IDX 19 1 18 2 17 3 16 4 14 5 15 6 12 7 13 8 11 9 8 10 9 11 10 13
REMARK SMILES IDX 7 15 3 16 4 17 5 18 6 19 2 20 1 21 91 22 92 23 93 24 94 25
REMARK SMILES IDX 20 26 21 27 22 28 23 29 24 30 25 31 26 32 90 33 27 34 89 35
REMARK SMILES IDX 28 36 29 37 30 38 83 39 31 40 88 41 82 42 84 43 32 44 87 45
REMARK SMILES IDX 81 46 80 47 33 49 67 50 46 51 66 52 47 53 50 54 65 55 85 56
REMARK SMILES IDX 48 57 49 58 64 60 86 61 51 62 34 63 35 64 44 65 36 66 37 67
REMARK SMILES IDX 43 68 45 69 38 70 39 71 40 72 41 73 42 74 68 75 69 76 78 77
REMARK SMILES IDX 70 78 71 79 77 80 79 81 72 82 73 83 74 84 75 85 76 86 52 87
REMARK SMILES IDX 53 88 62 89 54 90 55 91 61 92 63 93 56 94 57 95 58 96 59 97
REMARK SMILES IDX 60 98
REMARK H PARENT 8 12 11 14 84 48 50 59
REMARK Flexibility Score: inf
ROOT
ATOM      1  O   UNL A   1      41.810  20.943  26.284  1.00  0.00    -0.374 OA
ENDROOT
BRANCH   1   2
ATOM      2  C   UNL A   1      40.404  20.892  26.536  1.00  0.00     0.202 C 
BRANCH   2   3
ATOM      3  C   UNL A   1      39.675  22.234  26.505  1.00  0.00     0.261 C 
BRANCH   3   4
ATOM      4  O   UNL A   1      38.717  22.244  25.432  1.00  0.00    -0.461 OA
BRANCH   4   5
ATOM      5  C   UNL A   1      37.487  22.717  25.749  1.00  0.00     0.341 C 
ATOM      6  O   UNL A   1      37.305  23.696  26.467  1.00  0.00    -0.249 OA
BRANCH   5   7
ATOM      7  C   UNL A   1      36.334  21.847  25.219  1.00  0.00     0.232 C 
ATOM      8  C   UNL A   1      36.683  20.358  25.001  1.00  0.00     0.058 C 
BRANCH   7   9
ATOM      9  N   UNL A   1      35.362  21.999  26.358  1.00  0.00    -0.315 N 
ATOM     10  N   UNL A   1      33.531  20.512  26.305  1.00  0.00    -0.333 N 
ATOM     11  C   UNL A   1      34.274  21.448  26.881  1.00  0.00     0.316 C 
ATOM     12  H   UNL A   1      32.862  20.113  26.906  1.00  0.00     0.165 HD
ATOM     13  O   UNL A   1      33.943  21.842  28.001  1.00  0.00    -0.249 OA
ATOM     14  H   UNL A   1      35.624  22.777  26.902  1.00  0.00     0.166 HD
BRANCH  10  15
ATOM     15  C   UNL A   1      33.512  19.970  24.980  1.00  0.00     0.112 C 
ATOM     16  C   UNL A   1      33.536  18.440  24.901  1.00  0.00     0.140 C 
ATOM     17  C   UNL A   1      33.205  18.232  23.421  1.00  0.00     0.034 C 
ATOM     18  C   UNL A   1      32.155  19.300  23.093  1.00  0.00     0.005 C 
ATOM     19  C   UNL A   1      32.245  20.338  24.210  1.00  0.00     0.028 C 
BRANCH  16  20
ATOM     20  O   UNL A   1      32.527  17.892  25.754  1.00  0.00    -0.379 OA
ATOM     21  C   UNL A   1      32.525  16.471  25.745  1.00  0.00     0.195 C 
ENDBRANCH  16  20
ENDBRANCH  10  15
ENDBRANCH   7   9
BRANCH   7  22
ATOM     22  C   UNL A   1      36.101  22.577  23.869  1.00  0.00     0.422 C 
ATOM     23  F   UNL A   1      34.884  22.284  23.341  1.00  0.00    -0.168 F 
ATOM     24  F   UNL A   1      36.083  23.929  23.986  1.00  0.00    -0.168 F 
ATOM     25  F   UNL A   1      37.026  22.281  22.934  1.00  0.00    -0.168 F 
ENDBRANCH   7  22
ENDBRANCH   5   7
ENDBRANCH   4   5
ENDBRANCH   3   4
ENDBRANCH   2   3
ENDBRANCH   1   2
BRANCH   1  26
ATOM     26  C   UNL A   1      42.604  21.756  27.148  1.00  0.00     0.202 C 
BRANCH  26  27
ATOM     27  C   UNL A   1      43.453  22.851  26.494  1.00  0.00     0.261 C 
BRANCH  27  28
ATOM     28  O   UNL A   1      43.360  24.099  27.202  1.00  0.00    -0.460 OA
BRANCH  28  29
ATOM     29  C   UNL A   1      42.639  25.048  26.564  1.00  0.00     0.338 C 
ATOM     30  O   UNL A   1      42.310  25.052  25.381  1.00  0.00    -0.246 OA
BRANCH  29  31
ATOM     31  C   UNL A   1      42.097  26.016  27.534  1.00  0.00     0.060 A 
ATOM     32  C   UNL A   1      42.776  27.235  27.665  1.00  0.00     0.016 A 
ATOM     33  C   UNL A   1      40.994  25.725  28.339  1.00  0.00     0.016 A 
ATOM     34  C   UNL A   1      42.396  28.142  28.648  1.00  0.00     0.010 A 
ATOM     35  C   UNL A   1      40.619  26.634  29.333  1.00  0.00     0.010 A 
ATOM     36  C   UNL A   1      41.347  27.824  29.519  1.00  0.00    -0.014 A 
BRANCH  36  37
ATOM     37  C   UNL A   1      41.137  28.662  30.723  1.00  0.00     0.031 A 
ATOM     38  C   UNL A   1      40.017  29.667  30.719  1.00  0.00     0.074 A 
ATOM     39  C   UNL A   1      41.904  28.504  31.814  1.00  0.00     0.049 A 
ATOM     40  N   UNL A   1      39.648  30.501  31.655  1.00  0.00    -0.248 NA
ATOM     41  C   UNL A   1      39.207  29.740  29.493  1.00  0.00     0.031 C 
ATOM     42  C   UNL A   1      43.002  27.546  31.942  1.00  0.00     0.029 A 
ATOM     43  N   UNL A   1      41.880  29.156  33.020  1.00  0.00    -0.354 N 
ATOM     44  C   UNL A   1      38.576  31.210  31.128  1.00  0.00     0.074 A 
ATOM     45  C   UNL A   1      38.369  30.725  29.780  1.00  0.00     0.031 C 
ATOM     46  C   UNL A   1      43.562  27.689  33.154  1.00  0.00     0.029 A 
ATOM     47  C   UNL A   1      42.879  28.761  33.877  1.00  0.00     0.049 A 
ATOM     48  H   UNL A   1      41.213  29.842  33.251  1.00  0.00     0.167 HD
ATOM     49  C   UNL A   1      37.828  32.174  31.715  1.00  0.00     0.037 A 
ATOM     50  C   UNL A   1      43.218  29.229  35.094  1.00  0.00     0.037 A 
ATOM     51  C   UNL A   1      38.038  32.647  33.058  1.00  0.00     0.049 A 
ATOM     52  C   UNL A   1      42.395  30.322  35.720  1.00  0.00     0.074 A 
ATOM     53  C   UNL A   1      37.306  33.584  33.764  1.00  0.00     0.029 A 
ATOM     54  N   UNL A   1      39.065  32.230  33.893  1.00  0.00    -0.354 N 
ATOM     55  N   UNL A   1      41.352  30.950  35.232  1.00  0.00    -0.248 NA
ATOM     56  C   UNL A   1      42.788  30.764  37.065  1.00  0.00     0.031 C 
ATOM     57  C   UNL A   1      37.924  33.775  35.006  1.00  0.00     0.029 A 
ATOM     58  C   UNL A   1      39.008  32.915  35.095  1.00  0.00     0.049 A 
ATOM     59  H   UNL A   1      39.736  31.547  33.664  1.00  0.00     0.167 HD
ATOM     60  C   UNL A   1      40.953  31.849  36.215  1.00  0.00     0.074 A 
ATOM     61  C   UNL A   1      41.860  31.674  37.330  1.00  0.00     0.031 C 
ATOM     62  C   UNL A   1      39.926  32.737  36.195  1.00  0.00     0.037 A 
BRANCH  49  63
ATOM     63  C   UNL A   1      36.745  32.809  30.885  1.00  0.00     0.058 A 
ATOM     64  C   UNL A   1      35.389  32.484  31.055  1.00  0.00     0.135 A 
ATOM     65  C   UNL A   1      37.074  33.751  29.897  1.00  0.00     0.135 A 
ATOM     66  F   UNL A   1      35.021  31.578  31.974  1.00  0.00    -0.206 F 
ATOM     67  C   UNL A   1      34.402  33.038  30.245  1.00  0.00     0.059 A 
ATOM     68  C   UNL A   1      36.100  34.339  29.095  1.00  0.00     0.059 A 
ATOM     69  F   UNL A   1      38.354  34.097  29.692  1.00  0.00    -0.206 F 
ATOM     70  C   UNL A   1      34.770  33.959  29.261  1.00  0.00     0.060 A 
BRANCH  70  71
ATOM     71  S   UNL A   1      33.485  34.643  28.194  1.00  0.00     0.124 S 
ATOM     72  O   UNL A   1      32.678  35.389  29.154  1.00  0.00    -0.237 OA
ATOM     73  O   UNL A   1      34.256  35.450  27.252  1.00  0.00    -0.237 OA
ATOM     74  O   UNL A   1      32.850  33.459  27.625  1.00  0.00    -0.744 OA
ENDBRANCH  70  71
ENDBRANCH  49  63
BRANCH  50  75
ATOM     75  C   UNL A   1      44.406  28.661  35.784  1.00  0.00     0.058 A 
ATOM     76  C   UNL A   1      45.686  29.200  35.596  1.00  0.00     0.135 A 
ATOM     77  C   UNL A   1      44.267  27.602  36.695  1.00  0.00     0.135 A 
ATOM     78  F   UNL A   1      45.870  30.205  34.728  1.00  0.00    -0.206 F 
ATOM     79  C   UNL A   1      46.788  28.713  36.293  1.00  0.00     0.059 A 
ATOM     80  C   UNL A   1      45.348  27.113  37.420  1.00  0.00     0.059 A 
ATOM     81  F   UNL A   1      43.059  27.060  36.916  1.00  0.00    -0.206 F 
ATOM     82  C   UNL A   1      46.607  27.676  37.211  1.00  0.00     0.060 A 
BRANCH  82  83
ATOM     83  S   UNL A   1      48.025  27.120  38.182  1.00  0.00     0.124 S 
ATOM     84  O   UNL A   1      48.666  26.192  37.259  1.00  0.00    -0.237 OA
ATOM     85  O   UNL A   1      48.736  28.371  38.427  1.00  0.00    -0.237 OA
ATOM     86  O   UNL A   1      47.409  26.517  39.360  1.00  0.00    -0.744 OA
ENDBRANCH  82  83
ENDBRANCH  50  75
BRANCH  62  87
ATOM     87  C   UNL A   1      39.713  33.579  37.423  1.00  0.00     0.058 A 
ATOM     88  C   UNL A   1      40.363  34.811  37.594  1.00  0.00     0.135 A 
ATOM     89  C   UNL A   1      38.802  33.176  38.414  1.00  0.00     0.135 A 
ATOM     90  F   UNL A   1      41.247  35.241  36.679  1.00  0.00    -0.206 F 
ATOM     91  C   UNL A   1      40.133  35.604  38.714  1.00  0.00     0.059 A 
ATOM     92  C   UNL A   1      38.538  33.965  39.528  1.00  0.00     0.059 A 
ATOM     93  F   UNL A   1      38.145  32.012  38.294  1.00  0.00    -0.206 F 
ATOM     94  C   UNL A   1      39.217  35.174  39.675  1.00  0.00     0.060 A 
BRANCH  94  95
ATOM     95  S   UNL A   1      38.903  36.227  41.108  1.00  0.00     0.124 S 
ATOM     96  O   UNL A   1      38.532  37.487  40.470  1.00  0.00    -0.237 OA
ATOM     97  O   UNL A   1      37.824  35.519  41.788  1.00  0.00    -0.237 OA
ATOM     98  O   UNL A   1      40.183  36.232  41.811  1.00  0.00    -0.744 OA
ENDBRANCH  94  95
ENDBRANCH  62  87
ENDBRANCH  36  37
ENDBRANCH  29  31
ENDBRANCH  28  29
ENDBRANCH  27  28
ENDBRANCH  26  27
ENDBRANCH   1  26
TORSDOF 21
ENDMDL
MODEL 2
REMARK VINA RESULT:     -10.3      2.394      8.714
REMARK SMILES CO[C@H]1CCC[C@H]1NC(=O)N[C@](C)(C(=O)OCCOCCOC(=O)c1ccc(-c2c3nc(c(-c4c(F)cc(S(=O)(=O)[O-])cc4F)c4ccc([nH]4)c(-c4c(F)cc(S(=O)(=O)[O-])cc4F)c4nc(c(-c5c(F)cc(S(=O)(=O)[O-])cc5F)c5ccc2[nH]5)C=C4)C=C3)cc1)C(F)(F)F
REMARK SMILES IDX 19 1 18 2 17 3 16 4 14 5 15 6 12 7 13 8 11 9 8 10 9 11 10 13
REMARK SMILES IDX 7 15 3 16 4 17 5 18 6 19 2 20 1 21 91 22 92 23 93 24 94 25
REMARK SMILES IDX 20 26 21 27 22 28 23 29 24 30 25 31 26 32 90 33 27 34 89 35
REMARK SMILES IDX 28 36 29 37 30 38 83 39 31 40 88 41 82 42 84 43 32 44 87 45
REMARK SMILES IDX 81 46 80 47 33 49 67 50 46 51 66 52 47 53 50 54 65 55 85 56
REMARK SMILES IDX 48 57 49 58 64 60 86 61 51 62 34 63 35 64 44 65 36 66 37 67
REMARK SMILES IDX 43 68 45 69 38 70 39 71 40 72 41 73 42 74 68 75 69 76 78 77
REMARK SMILES IDX 70 78 71 79 77 80 79 81 72 82 73 83 74 84 75 85 76 86 52 87
REMARK SMILES IDX 53 88 62 89 54 90 55 91 61 92 63 93 56 94 57 95 58 96 59 97
REMARK SMILES IDX 60 98
REMARK H PARENT 8 12 11 14 84 48 50 59
REMARK Flexibility Score: inf
ROOT
ATOM      1  O   UNL A   1      37.783  22.124  25.014  1.00  0.00    -0.374 OA
ENDROOT
BRANCH   1   2
ATOM      2  C   UNL A   1      37.549  20.714  25.040  1.00  0.00     0.202 C 
BRANCH   2   3
ATOM      3  C   UNL A   1      36.084  20.283  25.017  1.00  0.00     0.261 C 
BRANCH   3   4
ATOM      4  O   UNL A   1      35.246  21.419  24.746  1.00  0.00    -0.461 OA
BRANCH   4   5
ATOM      5  C   UNL A   1      34.616  21.953  25.821  1.00  0.00     0.341 C 
ATOM      6  O   UNL A   1      34.786  21.555  26.969  1.00  0.00    -0.249 OA
BRANCH   5   7
ATOM      7  C   UNL A   1      33.578  23.031  25.458  1.00  0.00     0.232 C 
ATOM      8  C   UNL A   1      33.846  24.427  26.061  1.00  0.00     0.058 C 
BRANCH   7   9
ATOM      9  N   UNL A   1      33.758  23.058  23.964  1.00  0.00    -0.315 N 
ATOM     10  N   UNL A   1      32.701  24.862  22.871  1.00  0.00    -0.333 N 
ATOM     11  C   UNL A   1      33.497  23.800  22.896  1.00  0.00     0.316 C 
ATOM     12  H   UNL A   1      32.754  25.376  22.034  1.00  0.00     0.165 HD
ATOM     13  O   UNL A   1      34.054  23.471  21.848  1.00  0.00    -0.249 OA
ATOM     14  H   UNL A   1      34.233  22.243  23.683  1.00  0.00     0.166 HD
BRANCH  10  15
ATOM     15  C   UNL A   1      31.779  25.403  23.824  1.00  0.00     0.112 C 
ATOM     16  C   UNL A   1      31.871  26.919  24.031  1.00  0.00     0.140 C 
ATOM     17  C   UNL A   1      30.595  27.168  24.838  1.00  0.00     0.034 C 
ATOM     18  C   UNL A   1      29.543  26.239  24.218  1.00  0.00     0.005 C 
ATOM     19  C   UNL A   1      30.321  25.196  23.417  1.00  0.00     0.028 C 
BRANCH  16  20
ATOM     20  O   UNL A   1      31.841  27.587  22.766  1.00  0.00    -0.379 OA
ATOM     21  C   UNL A   1      32.927  28.489  22.606  1.00  0.00     0.195 C 
ENDBRANCH  16  20
ENDBRANCH  10  15
ENDBRANCH   7   9
BRANCH   7  22
ATOM     22  C   UNL A   1      32.330  22.367  26.099  1.00  0.00     0.422 C 
ATOM     23  F   UNL A   1      32.237  21.051  25.777  1.00  0.00    -0.168 F 
ATOM     24  F   UNL A   1      32.361  22.364  27.456  1.00  0.00    -0.168 F 
ATOM     25  F   UNL A   1      31.169  22.950  25.739  1.00  0.00    -0.168 F 
ENDBRANCH   7  22
ENDBRANCH   5   7
ENDBRANCH   4   5
ENDBRANCH   3   4
ENDBRANCH   2   3
ENDBRANCH   1   2
BRANCH   1  26
ATOM     26  C   UNL A   1      38.401  22.709  26.160  1.00  0.00     0.202 C 
BRANCH  26  27
ATOM     27  C   UNL A   1      39.884  22.400  26.390  1.00  0.00     0.261 C 
BRANCH  27  28
ATOM     28  O   UNL A   1      40.423  23.143  27.496  1.00  0.00    -0.460 OA
BRANCH  28  29
ATOM     29  C   UNL A   1      41.214  24.180  27.138  1.00  0.00     0.338 C 
ATOM     30  O   UNL A   1      42.002  24.214  26.196  1.00  0.00    -0.246 OA
BRANCH  29  31
ATOM     31  C   UNL A   1      40.861  25.383  27.912  1.00  0.00     0.060 A 
ATOM     32  C   UNL A   1      41.854  26.359  28.062  1.00  0.00     0.016 A 
ATOM     33  C   UNL A   1      39.617  25.533  28.527  1.00  0.00     0.016 A 
ATOM     34  C   UNL A   1      41.632  27.459  28.883  1.00  0.00     0.010 A 
ATOM     35  C   UNL A   1      39.398  26.635  29.360  1.00  0.00     0.010 A 
ATOM     36  C   UNL A   1      40.421  27.577  29.575  1.00  0.00    -0.014 A 
BRANCH  36  37
ATOM     37  C   UNL A   1      40.305  28.591  30.649  1.00  0.00     0.031 A 
ATOM     38  C   UNL A   1      41.194  28.471  31.857  1.00  0.00     0.074 A 
ATOM     39  C   UNL A   1      39.451  29.622  30.533  1.00  0.00     0.049 A 
ATOM     40  N   UNL A   1      41.266  29.238  32.913  1.00  0.00    -0.248 NA
ATOM     41  C   UNL A   1      42.122  27.329  31.876  1.00  0.00     0.031 C 
ATOM     42  C   UNL A   1      38.559  29.855  29.398  1.00  0.00     0.029 A 
ATOM     43  N   UNL A   1      39.191  30.661  31.389  1.00  0.00    -0.354 N 
ATOM     44  C   UNL A   1      42.235  28.666  33.728  1.00  0.00     0.074 A 
ATOM     45  C   UNL A   1      42.704  27.473  33.057  1.00  0.00     0.031 C 
ATOM     46  C   UNL A   1      37.832  30.958  29.639  1.00  0.00     0.029 A 
ATOM     47  C   UNL A   1      38.190  31.494  30.951  1.00  0.00     0.049 A 
ATOM     48  H   UNL A   1      39.674  30.798  32.236  1.00  0.00     0.167 HD
ATOM     49  C   UNL A   1      42.695  29.098  34.926  1.00  0.00     0.037 A 
ATOM     50  C   UNL A   1      37.612  32.553  31.552  1.00  0.00     0.037 A 
ATOM     51  C   UNL A   1      42.226  30.289  35.585  1.00  0.00     0.049 A 
ATOM     52  C   UNL A   1      38.115  33.002  32.897  1.00  0.00     0.074 A 
ATOM     53  C   UNL A   1      42.660  30.842  36.775  1.00  0.00     0.029 A 
ATOM     54  N   UNL A   1      41.204  31.104  35.116  1.00  0.00    -0.354 N 
ATOM     55  N   UNL A   1      39.066  32.483  33.637  1.00  0.00    -0.248 NA
ATOM     56  C   UNL A   1      37.474  34.186  33.486  1.00  0.00     0.031 C 
ATOM     57  C   UNL A   1      41.864  31.960  37.054  1.00  0.00     0.029 A 
ATOM     58  C   UNL A   1      40.971  32.136  36.009  1.00  0.00     0.049 A 
ATOM     59  H   UNL A   1      40.717  30.967  34.271  1.00  0.00     0.167 HD
ATOM     60  C   UNL A   1      39.150  33.285  34.770  1.00  0.00     0.074 A 
ATOM     61  C   UNL A   1      38.161  34.332  34.612  1.00  0.00     0.031 C 
ATOM     62  C   UNL A   1      39.974  33.166  35.842  1.00  0.00     0.037 A 
BRANCH  49  63
ATOM     63  C   UNL A   1      43.727  28.249  35.617  1.00  0.00     0.058 A 
ATOM     64  C   UNL A   1      43.376  27.267  36.557  1.00  0.00     0.135 A 
ATOM     65  C   UNL A   1      45.091  28.432  35.339  1.00  0.00     0.135 A 
ATOM     66  F   UNL A   1      42.088  27.062  36.873  1.00  0.00    -0.206 F 
ATOM     67  C   UNL A   1      44.344  26.525  37.229  1.00  0.00     0.059 A 
ATOM     68  C   UNL A   1      46.075  27.681  35.978  1.00  0.00     0.059 A 
ATOM     69  F   UNL A   1      45.483  29.358  34.450  1.00  0.00    -0.206 F 
ATOM     70  C   UNL A   1      45.692  26.747  36.938  1.00  0.00     0.060 A 
BRANCH  70  71
ATOM     71  S   UNL A   1      46.938  25.804  37.841  1.00  0.00     0.124 S 
ATOM     72  O   UNL A   1      47.977  26.810  38.037  1.00  0.00    -0.237 OA
ATOM     73  O   UNL A   1      46.215  25.397  39.042  1.00  0.00    -0.237 OA
ATOM     74  O   UNL A   1      47.277  24.722  36.922  1.00  0.00    -0.744 OA
ENDBRANCH  70  71
ENDBRANCH  49  63
BRANCH  50  75
ATOM     75  C   UNL A   1      36.483  33.243  30.876  1.00  0.00     0.058 A 
ATOM     76  C   UNL A   1      35.168  33.126  31.348  1.00  0.00     0.135 A 
ATOM     77  C   UNL A   1      36.714  34.086  29.777  1.00  0.00     0.135 A 
ATOM     78  F   UNL A   1      34.898  32.325  32.388  1.00  0.00    -0.206 F 
ATOM     79  C   UNL A   1      34.121  33.826  30.757  1.00  0.00     0.059 A 
ATOM     80  C   UNL A   1      35.687  34.813  29.183  1.00  0.00     0.059 A 
ATOM     81  F   UNL A   1      37.958  34.238  29.296  1.00  0.00    -0.206 F 
ATOM     82  C   UNL A   1      34.392  34.676  29.682  1.00  0.00     0.060 A 
BRANCH  82  83
ATOM     83  S   UNL A   1      33.042  35.654  28.988  1.00  0.00     0.124 S 
ATOM     84  O   UNL A   1      33.770  36.732  28.328  1.00  0.00    -0.237 OA
ATOM     85  O   UNL A   1      32.389  34.691  28.107  1.00  0.00    -0.237 OA
ATOM     86  O   UNL A   1      32.269  36.041  30.164  1.00  0.00    -0.744 OA
ENDBRANCH  82  83
ENDBRANCH  50  75
BRANCH  62  87
ATOM     87  C   UNL A   1      39.857  34.203  36.926  1.00  0.00     0.058 A 
ATOM     88  C   UNL A   1      40.438  35.474  36.797  1.00  0.00     0.135 A 
ATOM     89  C   UNL A   1      39.104  33.941  38.083  1.00  0.00     0.135 A 
ATOM     90  F   UNL A   1      41.172  35.774  35.714  1.00  0.00    -0.206 F 
ATOM     91  C   UNL A   1      40.294  36.442  37.786  1.00  0.00     0.059 A 
ATOM     92  C   UNL A   1      38.925  34.903  39.071  1.00  0.00     0.059 A 
ATOM     93  F   UNL A   1      38.517  32.745  38.251  1.00  0.00    -0.206 F 
ATOM     94  C   UNL A   1      39.534  36.148  38.920  1.00  0.00     0.060 A 
BRANCH  94  95
ATOM     95  S   UNL A   1      39.327  37.424  40.180  1.00  0.00     0.124 S 
ATOM     96  O   UNL A   1      40.710  37.822  40.425  1.00  0.00    -0.237 OA
ATOM     97  O   UNL A   1      38.496  38.408  39.496  1.00  0.00    -0.237 OA
ATOM     98  O   UNL A   1      38.674  36.714  41.277  1.00  0.00    -0.744 OA
ENDBRANCH  94  95
ENDBRANCH  62  87
ENDBRANCH  36  37
ENDBRANCH  29  31
ENDBRANCH  28  29
ENDBRANCH  27  28
ENDBRANCH  26  27
ENDBRANCH   1  26
TORSDOF 21
ENDMDL
MODEL 3
REMARK VINA RESULT:     -10.0      2.363      3.096
REMARK SMILES CO[C@H]1CCC[C@H]1NC(=O)N[C@](C)(C(=O)OCCOCCOC(=O)c1ccc(-c2c3nc(c(-c4c(F)cc(S(=O)(=O)[O-])cc4F)c4ccc([nH]4)c(-c4c(F)cc(S(=O)(=O)[O-])cc4F)c4nc(c(-c5c(F)cc(S(=O)(=O)[O-])cc5F)c5ccc2[nH]5)C=C4)C=C3)cc1)C(F)(F)F
REMARK SMILES IDX 19 1 18 2 17 3 16 4 14 5 15 6 12 7 13 8 11 9 8 10 9 11 10 13
REMARK SMILES IDX 7 15 3 16 4 17 5 18 6 19 2 20 1 21 91 22 92 23 93 24 94 25
REMARK SMILES IDX 20 26 21 27 22 28 23 29 24 30 25 31 26 32 90 33 27 34 89 35
REMARK SMILES IDX 28 36 29 37 30 38 83 39 31 40 88 41 82 42 84 43 32 44 87 45
REMARK SMILES IDX 81 46 80 47 33 49 67 50 46 51 66 52 47 53 50 54 65 55 85 56
REMARK SMILES IDX 48 57 49 58 64 60 86 61 51 62 34 63 35 64 44 65 36 66 37 67
REMARK SMILES IDX 43 68 45 69 38 70 39 71 40 72 41 73 42 74 68 75 69 76 78 77
REMARK SMILES IDX 70 78 71 79 77 80 79 81 72 82 73 83 74 84 75 85 76 86 52 87
REMARK SMILES IDX 53 88 62 89 54 90 55 91 61 92 63 93 56 94 57 95 58 96 59 97
REMARK SMILES IDX 60 98
REMARK H PARENT 8 12 11 14 84 48 50 59
REMARK Flexibility Score: inf
ROOT
ATOM      1  O   UNL A   1      38.825  20.748  25.512  1.00  0.00    -0.374 OA
ENDROOT
BRANCH   1   2
ATOM      2  C   UNL A   1      37.707  21.454  24.969  1.00  0.00     0.202 C 
BRANCH   2   3
ATOM      3  C   UNL A   1      36.346  20.784  25.154  1.00  0.00     0.261 C 
BRANCH   3   4
ATOM      4  O   UNL A   1      35.315  21.616  24.595  1.00  0.00    -0.461 OA
BRANCH   4   5
ATOM      5  C   UNL A   1      34.507  22.231  25.494  1.00  0.00     0.341 C 
ATOM      6  O   UNL A   1      34.468  21.930  26.683  1.00  0.00    -0.249 OA
BRANCH   5   7
ATOM      7  C   UNL A   1      33.557  23.266  24.865  1.00  0.00     0.232 C 
ATOM      8  C   UNL A   1      33.416  23.179  23.329  1.00  0.00     0.058 C 
BRANCH   7   9
ATOM      9  N   UNL A   1      32.271  22.864  25.535  1.00  0.00    -0.315 N 
ATOM     10  N   UNL A   1      30.477  24.364  25.219  1.00  0.00    -0.333 N 
ATOM     11  C   UNL A   1      30.998  23.221  25.648  1.00  0.00     0.316 C 
ATOM     12  H   UNL A   1      29.494  24.384  25.246  1.00  0.00     0.165 HD
ATOM     13  O   UNL A   1      30.246  22.410  26.191  1.00  0.00    -0.249 OA
ATOM     14  H   UNL A   1      32.430  22.059  26.079  1.00  0.00     0.166 HD
BRANCH  10  15
ATOM     15  C   UNL A   1      31.066  25.572  24.727  1.00  0.00     0.112 C 
ATOM     16  C   UNL A   1      30.256  26.300  23.649  1.00  0.00     0.140 C 
ATOM     17  C   UNL A   1      31.001  27.635  23.595  1.00  0.00     0.034 C 
ATOM     18  C   UNL A   1      31.362  27.951  25.052  1.00  0.00     0.005 C 
ATOM     19  C   UNL A   1      31.232  26.633  25.813  1.00  0.00     0.028 C 
BRANCH  16  20
ATOM     20  O   UNL A   1      28.903  26.462  24.083  1.00  0.00    -0.379 OA
ATOM     21  C   UNL A   1      28.249  27.539  23.424  1.00  0.00     0.195 C 
ENDBRANCH  16  20
ENDBRANCH  10  15
ENDBRANCH   7   9
BRANCH   7  22
ATOM     22  C   UNL A   1      34.311  24.554  25.292  1.00  0.00     0.422 C 
ATOM     23  F   UNL A   1      35.651  24.351  25.371  1.00  0.00    -0.168 F 
ATOM     24  F   UNL A   1      34.192  25.567  24.397  1.00  0.00    -0.168 F 
ATOM     25  F   UNL A   1      33.908  25.040  26.484  1.00  0.00    -0.168 F 
ENDBRANCH   7  22
ENDBRANCH   5   7
ENDBRANCH   4   5
ENDBRANCH   3   4
ENDBRANCH   2   3
ENDBRANCH   1   2
BRANCH   1  26
ATOM     26  C   UNL A   1      39.831  21.517  26.172  1.00  0.00     0.202 C 
BRANCH  26  27
ATOM     27  C   UNL A   1      39.462  22.947  26.581  1.00  0.00     0.261 C 
BRANCH  27  28
ATOM     28  O   UNL A   1      40.452  23.530  27.446  1.00  0.00    -0.460 OA
BRANCH  28  29
ATOM     29  C   UNL A   1      40.981  24.687  26.986  1.00  0.00     0.338 C 
ATOM     30  O   UNL A   1      41.489  24.877  25.884  1.00  0.00    -0.246 OA
BRANCH  29  31
ATOM     31  C   UNL A   1      40.685  25.790  27.916  1.00  0.00     0.060 A 
ATOM     32  C   UNL A   1      41.618  26.832  27.987  1.00  0.00     0.016 A 
ATOM     33  C   UNL A   1      39.559  25.785  28.743  1.00  0.00     0.016 A 
ATOM     34  C   UNL A   1      41.466  27.841  28.932  1.00  0.00     0.010 A 
ATOM     35  C   UNL A   1      39.413  26.795  29.699  1.00  0.00     0.010 A 
ATOM     36  C   UNL A   1      40.389  27.800  29.825  1.00  0.00    -0.014 A 
BRANCH  36  37
ATOM     37  C   UNL A   1      40.391  28.713  30.992  1.00  0.00     0.031 A 
ATOM     38  C   UNL A   1      39.392  29.837  31.034  1.00  0.00     0.074 A 
ATOM     39  C   UNL A   1      41.241  28.521  32.015  1.00  0.00     0.049 A 
ATOM     40  N   UNL A   1      39.211  30.752  31.950  1.00  0.00    -0.248 NA
ATOM     41  C   UNL A   1      38.478  29.944  29.886  1.00  0.00     0.031 C 
ATOM     42  C   UNL A   1      42.235  27.452  32.096  1.00  0.00     0.029 A 
ATOM     43  N   UNL A   1      41.408  29.229  33.178  1.00  0.00    -0.354 N 
ATOM     44  C   UNL A   1      38.175  31.552  31.484  1.00  0.00     0.074 A 
ATOM     45  C   UNL A   1      37.785  31.030  30.192  1.00  0.00     0.031 C 
ATOM     46  C   UNL A   1      42.925  27.587  33.240  1.00  0.00     0.029 A 
ATOM     47  C   UNL A   1      42.438  28.763  33.959  1.00  0.00     0.049 A 
ATOM     48  H   UNL A   1      40.845  29.996  33.429  1.00  0.00     0.167 HD
ATOM     49  C   UNL A   1      37.598  32.622  32.081  1.00  0.00     0.037 A 
ATOM     50  C   UNL A   1      42.945  29.247  35.110  1.00  0.00     0.037 A 
ATOM     51  C   UNL A   1      37.990  33.132  33.369  1.00  0.00     0.049 A 
ATOM     52  C   UNL A   1      42.311  30.455  35.745  1.00  0.00     0.074 A 
ATOM     53  C   UNL A   1      37.438  34.178  34.084  1.00  0.00     0.029 A 
ATOM     54  N   UNL A   1      39.043  32.641  34.128  1.00  0.00    -0.354 N 
ATOM     55  N   UNL A   1      41.299  31.174  35.320  1.00  0.00    -0.248 NA
ATOM     56  C   UNL A   1      42.880  30.913  37.020  1.00  0.00     0.031 C 
ATOM     57  C   UNL A   1      38.193  34.356  35.250  1.00  0.00     0.029 A 
ATOM     58  C   UNL A   1      39.180  33.384  35.288  1.00  0.00     0.049 A 
ATOM     59  H   UNL A   1      39.611  31.876  33.877  1.00  0.00     0.167 HD
ATOM     60  C   UNL A   1      41.099  32.159  36.282  1.00  0.00     0.074 A 
ATOM     61  C   UNL A   1      42.088  31.935  37.317  1.00  0.00     0.031 C 
ATOM     62  C   UNL A   1      40.177  33.155  36.306  1.00  0.00     0.037 A 
BRANCH  49  63
ATOM     63  C   UNL A   1      36.513  33.335  31.320  1.00  0.00     0.058 A 
ATOM     64  C   UNL A   1      35.164  33.260  31.700  1.00  0.00     0.135 A 
ATOM     65  C   UNL A   1      36.833  34.099  30.186  1.00  0.00     0.135 A 
ATOM     66  F   UNL A   1      34.801  32.530  32.767  1.00  0.00    -0.206 F 
ATOM     67  C   UNL A   1      34.164  33.880  30.957  1.00  0.00     0.059 A 
ATOM     68  C   UNL A   1      35.852  34.751  29.444  1.00  0.00     0.059 A 
ATOM     69  F   UNL A   1      38.107  34.204  29.778  1.00  0.00    -0.206 F 
ATOM     70  C   UNL A   1      34.519  34.617  29.824  1.00  0.00     0.060 A 
BRANCH  70  71
ATOM     71  S   UNL A   1      33.210  35.387  28.849  1.00  0.00     0.124 S 
ATOM     72  O   UNL A   1      33.971  36.333  28.038  1.00  0.00    -0.237 OA
ATOM     73  O   UNL A   1      32.642  34.250  28.130  1.00  0.00    -0.237 OA
ATOM     74  O   UNL A   1      32.340  35.983  29.858  1.00  0.00    -0.744 OA
ENDBRANCH  70  71
ENDBRANCH  49  63
BRANCH  50  75
ATOM     75  C   UNL A   1      44.126  28.582  35.718  1.00  0.00     0.058 A 
ATOM     76  C   UNL A   1      45.431  28.998  35.423  1.00  0.00     0.135 A 
ATOM     77  C   UNL A   1      43.963  27.551  36.658  1.00  0.00     0.135 A 
ATOM     78  F   UNL A   1      45.637  29.972  34.524  1.00  0.00    -0.206 F 
ATOM     79  C   UNL A   1      46.535  28.421  36.043  1.00  0.00     0.059 A 
ATOM     80  C   UNL A   1      45.048  26.974  37.308  1.00  0.00     0.059 A 
ATOM     81  F   UNL A   1      42.732  27.125  36.982  1.00  0.00    -0.206 F 
ATOM     82  C   UNL A   1      46.333  27.417  36.993  1.00  0.00     0.060 A 
BRANCH  82  83
ATOM     83  S   UNL A   1      47.766  26.746  37.863  1.00  0.00     0.124 S 
ATOM     84  O   UNL A   1      48.018  25.522  37.112  1.00  0.00    -0.237 OA
ATOM     85  O   UNL A   1      48.750  27.811  37.698  1.00  0.00    -0.237 OA
ATOM     86  O   UNL A   1      47.275  26.562  39.226  1.00  0.00    -0.744 OA
ENDBRANCH  82  83
ENDBRANCH  50  75
BRANCH  62  87
ATOM     87  C   UNL A   1      40.180  34.074  37.497  1.00  0.00     0.058 A 
ATOM     88  C   UNL A   1      40.859  35.302  37.479  1.00  0.00     0.135 A 
ATOM     89  C   UNL A   1      39.446  33.748  38.649  1.00  0.00     0.135 A 
ATOM     90  F   UNL A   1      41.580  35.660  36.405  1.00  0.00    -0.206 F 
ATOM     91  C   UNL A   1      40.827  36.166  38.571  1.00  0.00     0.059 A 
ATOM     92  C   UNL A   1      39.378  34.608  39.740  1.00  0.00     0.059 A 
ATOM     93  F   UNL A   1      38.768  32.590  38.714  1.00  0.00    -0.206 F 
ATOM     94  C   UNL A   1      40.081  35.810  39.696  1.00  0.00     0.060 A 
BRANCH  94  95
ATOM     95  S   UNL A   1      40.020  36.954  41.092  1.00  0.00     0.124 S 
ATOM     96  O   UNL A   1      38.801  36.525  41.771  1.00  0.00    -0.237 OA
ATOM     97  O   UNL A   1      41.269  36.665  41.789  1.00  0.00    -0.237 OA
ATOM     98  O   UNL A   1      39.955  38.266  40.452  1.00  0.00    -0.744 OA
ENDBRANCH  94  95
ENDBRANCH  62  87
ENDBRANCH  36  37
ENDBRANCH  29  31
ENDBRANCH  28  29
ENDBRANCH  27  28
ENDBRANCH  26  27
ENDBRANCH   1  26
TORSDOF 21
ENDMDL
