MODEL 1
REMARK VINA RESULT:     -11.4      0.000      0.000
REMARK SMILES CC1=C(CC(=O)OCCOCCOC(=O)c2ccc(-c3c4nc(c(-c5c(F)cc(S(=O)(=O)[O-])cc5F)c5ccc([nH]5)c(-c5c(F)cc(S(=O)(=O)[O-])cc5F)c5nc(c(-c6c(F)cc(S(=O)(=O)[O-])cc6F)c6ccc3[nH]6)C=C5)C=C4)cc2)c2cc(F)ccc2/C1=C\c1cccc(OCc2ccccc2)c1
REMARK SMILES IDX 9 1 8 2 7 3 5 4 6 5 4 6 3 7 1 8 2 9 89 10 82 11 88 12 90 13
REMARK SMILES IDX 83 14 87 15 84 16 86 17 85 18 91 19 92 20 104 21 93 22 95 23
REMARK SMILES IDX 94 24 96 25 97 26 98 27 99 28 103 29 100 30 102 31 101 32
REMARK SMILES IDX 10 33 11 34 12 35 13 36 14 37 15 38 16 39 17 40 81 41 18 42
REMARK SMILES IDX 80 43 19 44 20 45 21 46 74 47 22 48 79 49 73 50 75 51 23 52
REMARK SMILES IDX 78 53 72 54 71 55 24 57 58 58 37 59 57 60 38 61 41 62 56 63
REMARK SMILES IDX 76 64 39 65 40 66 55 68 77 69 42 70 25 71 26 72 35 73 27 74
REMARK SMILES IDX 28 75 34 76 36 77 29 78 30 79 31 80 32 81 33 82 59 83 60 84
REMARK SMILES IDX 69 85 61 86 62 87 68 88 70 89 63 90 64 91 65 92 66 93 67 94
REMARK SMILES IDX 43 95 44 96 53 97 45 98 46 99 52 100 54 101 47 102 48 103
REMARK SMILES IDX 49 104 50 105 51 106
REMARK H PARENT 75 56 41 67
REMARK Flexibility Score: inf
ROOT
ATOM      1  C   UNL A   1      33.548  34.856  30.331  1.00  0.00     0.202 C 
ENDROOT
BRANCH   1   2
ATOM      2  C   UNL A   1      34.039  35.003  28.883  1.00  0.00     0.261 C 
BRANCH   2   3
ATOM      3  O   UNL A   1      33.413  34.109  27.940  1.00  0.00    -0.463 OA
BRANCH   3   4
ATOM      4  C   UNL A   1      33.989  32.880  27.834  1.00  0.00     0.310 C 
ATOM      5  O   UNL A   1      35.192  32.690  27.665  1.00  0.00    -0.252 OA
BRANCH   4   6
ATOM      6  C   UNL A   1      33.031  31.698  27.957  1.00  0.00     0.159 C 
BRANCH   6   7
ATOM      7  C   UNL A   1      32.988  30.656  26.884  1.00  0.00    -0.025 C 
ATOM      8  C   UNL A   1      34.955  29.197  27.581  1.00  0.00     0.045 C 
ATOM      9  C   UNL A   1      33.806  29.590  26.710  1.00  0.00    -0.039 C 
ATOM     10  C   UNL A   1      33.350  28.796  25.555  1.00  0.00    -0.014 C 
ATOM     11  C   UNL A   1      31.912  30.558  25.879  1.00  0.00    -0.011 A 
ATOM     12  C   UNL A   1      32.146  29.462  25.027  1.00  0.00    -0.010 A 
ATOM     13  C   UNL A   1      33.920  27.653  25.134  1.00  0.00     0.017 C 
ATOM     14  C   UNL A   1      30.787  31.352  25.699  1.00  0.00     0.048 A 
ATOM     15  C   UNL A   1      31.314  29.206  23.943  1.00  0.00     0.012 A 
ATOM     16  C   UNL A   1      29.955  31.087  24.610  1.00  0.00     0.123 A 
ATOM     17  C   UNL A   1      30.219  30.042  23.725  1.00  0.00     0.040 A 
ATOM     18  F   UNL A   1      28.910  31.891  24.375  1.00  0.00    -0.207 F 
BRANCH  13  19
ATOM     19  C   UNL A   1      33.422  26.766  24.080  1.00  0.00    -0.021 A 
ATOM     20  C   UNL A   1      33.699  27.010  22.734  1.00  0.00     0.008 A 
ATOM     21  C   UNL A   1      32.641  25.656  24.439  1.00  0.00     0.054 A 
ATOM     22  C   UNL A   1      33.179  26.163  21.757  1.00  0.00     0.004 A 
ATOM     23  C   UNL A   1      32.173  24.767  23.473  1.00  0.00     0.120 A 
ATOM     24  C   UNL A   1      32.424  25.045  22.127  1.00  0.00     0.046 A 
BRANCH  23  25
ATOM     25  O   UNL A   1      31.481  23.610  23.706  1.00  0.00    -0.489 OA
BRANCH  25  26
ATOM     26  C   UNL A   1      31.858  22.421  23.001  1.00  0.00     0.265 C 
BRANCH  26  27
ATOM     27  C   UNL A   1      32.974  21.647  23.669  1.00  0.00    -0.011 A 
ATOM     28  C   UNL A   1      34.206  22.260  23.936  1.00  0.00     0.007 A 
ATOM     29  C   UNL A   1      32.790  20.310  24.054  1.00  0.00     0.007 A 
ATOM     30  C   UNL A   1      35.218  21.558  24.597  1.00  0.00     0.000 A 
ATOM     31  C   UNL A   1      33.790  19.620  24.738  1.00  0.00     0.000 A 
ATOM     32  C   UNL A   1      35.005  20.245  25.009  1.00  0.00     0.000 A 
ENDBRANCH  26  27
ENDBRANCH  25  26
ENDBRANCH  23  25
ENDBRANCH  13  19
ENDBRANCH   6   7
ENDBRANCH   4   6
ENDBRANCH   3   4
ENDBRANCH   2   3
ENDBRANCH   1   2
BRANCH   1  33
ATOM     33  O   UNL A   1      34.243  33.965  31.200  1.00  0.00    -0.374 OA
BRANCH  33  34
ATOM     34  C   UNL A   1      35.537  34.349  31.651  1.00  0.00     0.202 C 
BRANCH  34  35
ATOM     35  C   UNL A   1      36.696  33.362  31.469  1.00  0.00     0.261 C 
BRANCH  35  36
ATOM     36  O   UNL A   1      36.409  32.279  30.584  1.00  0.00    -0.460 OA
BRANCH  36  37
ATOM     37  C   UNL A   1      36.640  31.054  31.113  1.00  0.00     0.338 C 
ATOM     38  O   UNL A   1      35.902  30.398  31.833  1.00  0.00    -0.246 OA
BRANCH  37  39
ATOM     39  C   UNL A   1      37.884  30.527  30.543  1.00  0.00     0.060 A 
ATOM     40  C   UNL A   1      38.106  30.552  29.165  1.00  0.00     0.016 A 
ATOM     41  C   UNL A   1      38.849  30.031  31.426  1.00  0.00     0.016 A 
ATOM     42  C   UNL A   1      39.327  30.096  28.671  1.00  0.00     0.010 A 
ATOM     43  C   UNL A   1      40.066  29.581  30.930  1.00  0.00     0.010 A 
ATOM     44  C   UNL A   1      40.319  29.629  29.551  1.00  0.00    -0.014 A 
BRANCH  44  45
ATOM     45  C   UNL A   1      41.671  29.302  29.050  1.00  0.00     0.031 A 
ATOM     46  C   UNL A   1      42.013  27.917  28.597  1.00  0.00     0.074 A 
ATOM     47  C   UNL A   1      42.603  30.274  29.060  1.00  0.00     0.049 A 
ATOM     48  N   UNL A   1      43.146  27.463  28.131  1.00  0.00    -0.248 NA
ATOM     49  C   UNL A   1      40.948  26.908  28.691  1.00  0.00     0.031 C 
ATOM     50  C   UNL A   1      42.375  31.645  29.523  1.00  0.00     0.029 A 
ATOM     51  N   UNL A   1      43.918  30.263  28.679  1.00  0.00    -0.354 N 
ATOM     52  C   UNL A   1      42.933  26.117  27.863  1.00  0.00     0.074 A 
ATOM     53  C   UNL A   1      41.575  25.817  28.270  1.00  0.00     0.031 C 
ATOM     54  C   UNL A   1      43.504  32.352  29.368  1.00  0.00     0.029 A 
ATOM     55  C   UNL A   1      44.544  31.475  28.837  1.00  0.00     0.049 A 
ATOM     56  H   UNL A   1      44.371  29.463  28.326  1.00  0.00     0.167 HD
ATOM     57  C   UNL A   1      43.790  25.225  27.311  1.00  0.00     0.037 A 
ATOM     58  C   UNL A   1      45.815  31.840  28.584  1.00  0.00     0.037 A 
ATOM     59  C   UNL A   1      45.146  25.542  26.936  1.00  0.00     0.049 A 
ATOM     60  C   UNL A   1      46.761  30.821  28.017  1.00  0.00     0.074 A 
ATOM     61  C   UNL A   1      46.088  24.722  26.340  1.00  0.00     0.029 A 
ATOM     62  N   UNL A   1      45.759  26.774  27.135  1.00  0.00    -0.354 N 
ATOM     63  N   UNL A   1      46.528  29.568  27.704  1.00  0.00    -0.248 NA
ATOM     64  C   UNL A   1      48.138  31.262  27.764  1.00  0.00     0.031 C 
ATOM     65  C   UNL A   1      47.286  25.438  26.234  1.00  0.00     0.029 A 
ATOM     66  C   UNL A   1      47.076  26.724  26.705  1.00  0.00     0.049 A 
ATOM     67  H   UNL A   1      45.321  27.564  27.524  1.00  0.00     0.167 HD
ATOM     68  C   UNL A   1      47.727  29.072  27.206  1.00  0.00     0.074 A 
ATOM     69  C   UNL A   1      48.675  30.167  27.241  1.00  0.00     0.031 C 
ATOM     70  C   UNL A   1      48.014  27.822  26.763  1.00  0.00     0.037 A 
BRANCH  57  71
ATOM     71  C   UNL A   1      43.289  23.822  27.089  1.00  0.00     0.058 A 
ATOM     72  C   UNL A   1      43.075  22.941  28.162  1.00  0.00     0.135 A 
ATOM     73  C   UNL A   1      42.992  23.360  25.797  1.00  0.00     0.135 A 
ATOM     74  F   UNL A   1      43.353  23.322  29.419  1.00  0.00    -0.206 F 
ATOM     75  C   UNL A   1      42.621  21.642  27.957  1.00  0.00     0.059 A 
ATOM     76  C   UNL A   1      42.506  22.075  25.572  1.00  0.00     0.059 A 
ATOM     77  F   UNL A   1      43.176  24.160  24.734  1.00  0.00    -0.206 F 
ATOM     78  C   UNL A   1      42.341  21.217  26.658  1.00  0.00     0.060 A 
BRANCH  78  79
ATOM     79  S   UNL A   1      41.770  19.522  26.415  1.00  0.00     0.124 S 
ATOM     80  O   UNL A   1      42.385  19.190  25.133  1.00  0.00    -0.237 OA
ATOM     81  O   UNL A   1      42.325  18.838  27.578  1.00  0.00    -0.237 OA
ATOM     82  O   UNL A   1      40.316  19.649  26.398  1.00  0.00    -0.744 OA
ENDBRANCH  78  79
ENDBRANCH  57  71
BRANCH  58  83
ATOM     83  C   UNL A   1      46.230  33.244  28.834  1.00  0.00     0.058 A 
ATOM     84  C   UNL A   1      46.629  33.656  30.113  1.00  0.00     0.135 A 
ATOM     85  C   UNL A   1      46.320  34.177  27.788  1.00  0.00     0.135 A 
ATOM     86  F   UNL A   1      46.557  32.803  31.146  1.00  0.00    -0.206 F 
ATOM     87  C   UNL A   1      47.113  34.940  30.346  1.00  0.00     0.059 A 
ATOM     88  C   UNL A   1      46.823  35.458  27.991  1.00  0.00     0.059 A 
ATOM     89  F   UNL A   1      45.966  33.825  26.542  1.00  0.00    -0.206 F 
ATOM     90  C   UNL A   1      47.219  35.829  29.275  1.00  0.00     0.060 A 
BRANCH  90  91
ATOM     91  S   UNL A   1      47.936  37.458  29.578  1.00  0.00     0.124 S 
ATOM     92  O   UNL A   1      48.955  37.531  28.538  1.00  0.00    -0.237 OA
ATOM     93  O   UNL A   1      46.781  38.334  29.404  1.00  0.00    -0.237 OA
ATOM     94  O   UNL A   1      48.437  37.357  30.946  1.00  0.00    -0.744 OA
ENDBRANCH  90  91
ENDBRANCH  58  83
BRANCH  70  95
ATOM     95  C   UNL A   1      49.415  27.565  26.277  1.00  0.00     0.058 A 
ATOM     96  C   UNL A   1      50.456  27.260  27.168  1.00  0.00     0.135 A 
ATOM     97  C   UNL A   1      49.705  27.557  24.903  1.00  0.00     0.135 A 
ATOM     98  F   UNL A   1      50.236  27.263  28.492  1.00  0.00    -0.206 F 
ATOM     99  C   UNL A   1      51.739  26.971  26.714  1.00  0.00     0.059 A 
ATOM    100  C   UNL A   1      50.973  27.240  24.425  1.00  0.00     0.059 A 
ATOM    101  F   UNL A   1      48.745  27.833  24.007  1.00  0.00    -0.206 F 
ATOM    102  C   UNL A   1      51.985  26.956  25.341  1.00  0.00     0.060 A 
BRANCH 102 103
ATOM    103  S   UNL A   1      53.646  26.536  24.770  1.00  0.00     0.124 S 
ATOM    104  O   UNL A   1      54.151  25.743  25.886  1.00  0.00    -0.237 OA
ATOM    105  O   UNL A   1      53.373  25.800  23.540  1.00  0.00    -0.237 OA
ATOM    106  O   UNL A   1      54.283  27.837  24.587  1.00  0.00    -0.744 OA
ENDBRANCH 102 103
ENDBRANCH  70  95
ENDBRANCH  44  45
ENDBRANCH  37  39
ENDBRANCH  36  37
ENDBRANCH  35  36
ENDBRANCH  34  35
ENDBRANCH  33  34
ENDBRANCH   1  33
TORSDOF 22
ENDMDL
MODEL 2
REMARK VINA RESULT:     -11.0      1.322      2.158
REMARK SMILES CC1=C(CC(=O)OCCOCCOC(=O)c2ccc(-c3c4nc(c(-c5c(F)cc(S(=O)(=O)[O-])cc5F)c5ccc([nH]5)c(-c5c(F)cc(S(=O)(=O)[O-])cc5F)c5nc(c(-c6c(F)cc(S(=O)(=O)[O-])cc6F)c6ccc3[nH]6)C=C5)C=C4)cc2)c2cc(F)ccc2/C1=C\c1cccc(OCc2ccccc2)c1
REMARK SMILES IDX 9 1 8 2 7 3 5 4 6 5 4 6 3 7 1 8 2 9 89 10 82 11 88 12 90 13
REMARK SMILES IDX 83 14 87 15 84 16 86 17 85 18 91 19 92 20 104 21 93 22 95 23
REMARK SMILES IDX 94 24 96 25 97 26 98 27 99 28 103 29 100 30 102 31 101 32
REMARK SMILES IDX 10 33 11 34 12 35 13 36 14 37 15 38 16 39 17 40 81 41 18 42
REMARK SMILES IDX 80 43 19 44 20 45 21 46 74 47 22 48 79 49 73 50 75 51 23 52
REMARK SMILES IDX 78 53 72 54 71 55 24 57 58 58 37 59 57 60 38 61 41 62 56 63
REMARK SMILES IDX 76 64 39 65 40 66 55 68 77 69 42 70 25 71 26 72 35 73 27 74
REMARK SMILES IDX 28 75 34 76 36 77 29 78 30 79 31 80 32 81 33 82 59 83 60 84
REMARK SMILES IDX 69 85 61 86 62 87 68 88 70 89 63 90 64 91 65 92 66 93 67 94
REMARK SMILES IDX 43 95 44 96 53 97 45 98 46 99 52 100 54 101 47 102 48 103
REMARK SMILES IDX 49 104 50 105 51 106
REMARK H PARENT 75 56 41 67
REMARK Flexibility Score: inf
ROOT
ATOM      1  C   UNL A   1      33.987  33.858  29.326  1.00  0.00     0.202 C 
ENDROOT
BRANCH   1   2
ATOM      2  C   UNL A   1      34.448  32.789  28.325  1.00  0.00     0.261 C 
BRANCH   2   3
ATOM      3  O   UNL A   1      33.389  32.196  27.545  1.00  0.00    -0.463 OA
BRANCH   3   4
ATOM      4  C   UNL A   1      33.630  30.931  27.103  1.00  0.00     0.310 C 
ATOM      5  O   UNL A   1      34.621  30.269  27.401  1.00  0.00    -0.252 OA
BRANCH   4   6
ATOM      6  C   UNL A   1      32.552  30.342  26.196  1.00  0.00     0.159 C 
BRANCH   6   7
ATOM      7  C   UNL A   1      32.551  28.878  25.891  1.00  0.00    -0.025 C 
ATOM      8  C   UNL A   1      31.402  27.976  27.977  1.00  0.00     0.045 C 
ATOM      9  C   UNL A   1      32.071  27.860  26.645  1.00  0.00    -0.039 C 
ATOM     10  C   UNL A   1      32.225  26.586  25.920  1.00  0.00    -0.014 C 
ATOM     11  C   UNL A   1      32.979  28.308  24.599  1.00  0.00    -0.011 A 
ATOM     12  C   UNL A   1      32.838  26.907  24.619  1.00  0.00    -0.010 A 
ATOM     13  C   UNL A   1      31.814  25.388  26.372  1.00  0.00     0.017 C 
ATOM     14  C   UNL A   1      33.457  28.943  23.460  1.00  0.00     0.048 A 
ATOM     15  C   UNL A   1      33.253  26.130  23.544  1.00  0.00     0.012 A 
ATOM     16  C   UNL A   1      33.870  28.155  22.385  1.00  0.00     0.123 A 
ATOM     17  C   UNL A   1      33.792  26.763  22.424  1.00  0.00     0.040 A 
ATOM     18  F   UNL A   1      34.407  28.748  21.310  1.00  0.00    -0.207 F 
BRANCH  13  19
ATOM     19  C   UNL A   1      31.826  24.124  25.631  1.00  0.00    -0.021 A 
ATOM     20  C   UNL A   1      30.846  23.829  24.683  1.00  0.00     0.008 A 
ATOM     21  C   UNL A   1      32.842  23.193  25.895  1.00  0.00     0.054 A 
ATOM     22  C   UNL A   1      30.871  22.601  24.023  1.00  0.00     0.004 A 
ATOM     23  C   UNL A   1      32.913  21.991  25.192  1.00  0.00     0.120 A 
ATOM     24  C   UNL A   1      31.903  21.691  24.274  1.00  0.00     0.046 A 
BRANCH  23  25
ATOM     25  O   UNL A   1      33.899  21.049  25.298  1.00  0.00    -0.489 OA
BRANCH  25  26
ATOM     26  C   UNL A   1      33.680  19.905  26.131  1.00  0.00     0.265 C 
BRANCH  26  27
ATOM     27  C   UNL A   1      33.553  18.608  25.360  1.00  0.00    -0.011 A 
ATOM     28  C   UNL A   1      34.376  18.352  24.255  1.00  0.00     0.007 A 
ATOM     29  C   UNL A   1      32.625  17.630  25.750  1.00  0.00     0.007 A 
ATOM     30  C   UNL A   1      34.291  17.134  23.576  1.00  0.00     0.000 A 
ATOM     31  C   UNL A   1      32.560  16.404  25.087  1.00  0.00     0.000 A 
ATOM     32  C   UNL A   1      33.393  16.157  24.000  1.00  0.00     0.000 A 
ENDBRANCH  26  27
ENDBRANCH  25  26
ENDBRANCH  23  25
ENDBRANCH  13  19
ENDBRANCH   6   7
ENDBRANCH   4   6
ENDBRANCH   3   4
ENDBRANCH   2   3
ENDBRANCH   1   2
BRANCH   1  33
ATOM     33  O   UNL A   1      34.040  33.557  30.719  1.00  0.00    -0.374 OA
BRANCH  33  34
ATOM     34  C   UNL A   1      35.135  34.070  31.470  1.00  0.00     0.202 C 
BRANCH  34  35
ATOM     35  C   UNL A   1      36.299  33.129  31.799  1.00  0.00     0.261 C 
BRANCH  35  36
ATOM     36  O   UNL A   1      36.565  32.152  30.792  1.00  0.00    -0.460 OA
BRANCH  36  37
ATOM     37  C   UNL A   1      36.779  30.905  31.273  1.00  0.00     0.338 C 
ATOM     38  O   UNL A   1      36.035  30.234  31.974  1.00  0.00    -0.246 OA
BRANCH  37  39
ATOM     39  C   UNL A   1      38.010  30.378  30.676  1.00  0.00     0.060 A 
ATOM     40  C   UNL A   1      38.229  30.462  29.299  1.00  0.00     0.016 A 
ATOM     41  C   UNL A   1      38.967  29.823  31.532  1.00  0.00     0.016 A 
ATOM     42  C   UNL A   1      39.439  30.004  28.781  1.00  0.00     0.010 A 
ATOM     43  C   UNL A   1      40.173  29.371  31.011  1.00  0.00     0.010 A 
ATOM     44  C   UNL A   1      40.424  29.478  29.635  1.00  0.00    -0.014 A 
BRANCH  44  45
ATOM     45  C   UNL A   1      41.768  29.146  29.115  1.00  0.00     0.031 A 
ATOM     46  C   UNL A   1      42.095  27.764  28.643  1.00  0.00     0.074 A 
ATOM     47  C   UNL A   1      42.706  30.111  29.125  1.00  0.00     0.049 A 
ATOM     48  N   UNL A   1      43.218  27.307  28.159  1.00  0.00    -0.248 NA
ATOM     49  C   UNL A   1      41.023  26.761  28.739  1.00  0.00     0.031 C 
ATOM     50  C   UNL A   1      42.494  31.479  29.604  1.00  0.00     0.029 A 
ATOM     51  N   UNL A   1      44.017  30.095  28.728  1.00  0.00    -0.354 N 
ATOM     52  C   UNL A   1      42.993  25.965  27.879  1.00  0.00     0.074 A 
ATOM     53  C   UNL A   1      41.638  25.670  28.299  1.00  0.00     0.031 C 
ATOM     54  C   UNL A   1      43.626  32.180  29.444  1.00  0.00     0.029 A 
ATOM     55  C   UNL A   1      44.653  31.302  28.891  1.00  0.00     0.049 A 
ATOM     56  H   UNL A   1      44.460  29.296  28.361  1.00  0.00     0.167 HD
ATOM     57  C   UNL A   1      43.837  25.073  27.308  1.00  0.00     0.037 A 
ATOM     58  C   UNL A   1      45.924  31.660  28.628  1.00  0.00     0.037 A 
ATOM     59  C   UNL A   1      45.190  25.385  26.920  1.00  0.00     0.049 A 
ATOM     60  C   UNL A   1      46.856  30.640  28.038  1.00  0.00     0.074 A 
ATOM     61  C   UNL A   1      46.120  24.565  26.305  1.00  0.00     0.029 A 
ATOM     62  N   UNL A   1      45.815  26.610  27.125  1.00  0.00    -0.354 N 
ATOM     63  N   UNL A   1      46.611  29.393  27.715  1.00  0.00    -0.248 NA
ATOM     64  C   UNL A   1      48.233  31.074  27.774  1.00  0.00     0.031 C 
ATOM     65  C   UNL A   1      47.321  25.273  26.192  1.00  0.00     0.029 A 
ATOM     66  C   UNL A   1      47.126  26.556  26.680  1.00  0.00     0.049 A 
ATOM     67  H   UNL A   1      45.387  27.399  27.528  1.00  0.00     0.167 HD
ATOM     68  C   UNL A   1      47.800  28.893  27.197  1.00  0.00     0.074 A 
ATOM     69  C   UNL A   1      48.756  29.981  27.233  1.00  0.00     0.031 C 
ATOM     70  C   UNL A   1      48.072  27.646  26.738  1.00  0.00     0.037 A 
BRANCH  57  71
ATOM     71  C   UNL A   1      43.323  23.677  27.077  1.00  0.00     0.058 A 
ATOM     72  C   UNL A   1      43.327  22.714  28.100  1.00  0.00     0.135 A 
ATOM     73  C   UNL A   1      42.795  23.300  25.831  1.00  0.00     0.135 A 
ATOM     74  F   UNL A   1      43.830  23.012  29.309  1.00  0.00    -0.206 F 
ATOM     75  C   UNL A   1      42.861  21.421  27.886  1.00  0.00     0.059 A 
ATOM     76  C   UNL A   1      42.295  22.022  25.603  1.00  0.00     0.059 A 
ATOM     77  F   UNL A   1      42.765  24.180  24.817  1.00  0.00    -0.206 F 
ATOM     78  C   UNL A   1      42.348  21.083  26.633  1.00  0.00     0.060 A 
BRANCH  78  79
ATOM     79  S   UNL A   1      41.767  19.395  26.372  1.00  0.00     0.124 S 
ATOM     80  O   UNL A   1      41.873  18.840  27.718  1.00  0.00    -0.237 OA
ATOM     81  O   UNL A   1      40.409  19.607  25.880  1.00  0.00    -0.237 OA
ATOM     82  O   UNL A   1      42.708  18.855  25.395  1.00  0.00    -0.744 OA
ENDBRANCH  78  79
ENDBRANCH  57  71
BRANCH  58  83
ATOM     83  C   UNL A   1      46.352  33.058  28.887  1.00  0.00     0.058 A 
ATOM     84  C   UNL A   1      46.974  33.404  30.095  1.00  0.00     0.135 A 
ATOM     85  C   UNL A   1      46.229  34.054  27.906  1.00  0.00     0.135 A 
ATOM     86  F   UNL A   1      47.110  32.488  31.066  1.00  0.00    -0.206 F 
ATOM     87  C   UNL A   1      47.468  34.686  30.318  1.00  0.00     0.059 A 
ATOM     88  C   UNL A   1      46.738  35.336  28.095  1.00  0.00     0.059 A 
ATOM     89  F   UNL A   1      45.657  33.769  26.726  1.00  0.00    -0.206 F 
ATOM     90  C   UNL A   1      47.357  35.640  29.306  1.00  0.00     0.060 A 
BRANCH  90  91
ATOM     91  S   UNL A   1      48.088  37.269  29.577  1.00  0.00     0.124 S 
ATOM     92  O   UNL A   1      48.669  37.115  30.905  1.00  0.00    -0.237 OA
ATOM     93  O   UNL A   1      49.036  37.363  28.471  1.00  0.00    -0.237 OA
ATOM     94  O   UNL A   1      46.943  38.171  29.491  1.00  0.00    -0.744 OA
ENDBRANCH  90  91
ENDBRANCH  58  83
BRANCH  70  95
ATOM     95  C   UNL A   1      49.466  27.385  26.233  1.00  0.00     0.058 A 
ATOM     96  C   UNL A   1      50.516  27.065  27.109  1.00  0.00     0.135 A 
ATOM     97  C   UNL A   1      49.740  27.386  24.856  1.00  0.00     0.135 A 
ATOM     98  F   UNL A   1      50.311  27.058  28.436  1.00  0.00    -0.206 F 
ATOM     99  C   UNL A   1      51.791  26.772  26.637  1.00  0.00     0.059 A 
ATOM    100  C   UNL A   1      50.999  27.065  24.360  1.00  0.00     0.059 A 
ATOM    101  F   UNL A   1      48.770  27.676  23.974  1.00  0.00    -0.206 F 
ATOM    102  C   UNL A   1      52.021  26.767  25.261  1.00  0.00     0.060 A 
BRANCH 102 103
ATOM    103  S   UNL A   1      53.672  26.342  24.666  1.00  0.00     0.124 S 
ATOM    104  O   UNL A   1      54.439  26.326  25.908  1.00  0.00    -0.237 OA
ATOM    105  O   UNL A   1      53.450  25.042  24.041  1.00  0.00    -0.237 OA
ATOM    106  O   UNL A   1      53.993  27.428  23.744  1.00  0.00    -0.744 OA
ENDBRANCH 102 103
ENDBRANCH  70  95
ENDBRANCH  44  45
ENDBRANCH  37  39
ENDBRANCH  36  37
ENDBRANCH  35  36
ENDBRANCH  34  35
ENDBRANCH  33  34
ENDBRANCH   1  33
TORSDOF 22
ENDMDL
MODEL 3
REMARK VINA RESULT:     -10.7      7.439     14.700
REMARK SMILES CC1=C(CC(=O)OCCOCCOC(=O)c2ccc(-c3c4nc(c(-c5c(F)cc(S(=O)(=O)[O-])cc5F)c5ccc([nH]5)c(-c5c(F)cc(S(=O)(=O)[O-])cc5F)c5nc(c(-c6c(F)cc(S(=O)(=O)[O-])cc6F)c6ccc3[nH]6)C=C5)C=C4)cc2)c2cc(F)ccc2/C1=C\c1cccc(OCc2ccccc2)c1
REMARK SMILES IDX 9 1 8 2 7 3 5 4 6 5 4 6 3 7 1 8 2 9 89 10 82 11 88 12 90 13
REMARK SMILES IDX 83 14 87 15 84 16 86 17 85 18 91 19 92 20 104 21 93 22 95 23
REMARK SMILES IDX 94 24 96 25 97 26 98 27 99 28 103 29 100 30 102 31 101 32
REMARK SMILES IDX 10 33 11 34 12 35 13 36 14 37 15 38 16 39 17 40 81 41 18 42
REMARK SMILES IDX 80 43 19 44 20 45 21 46 74 47 22 48 79 49 73 50 75 51 23 52
REMARK SMILES IDX 78 53 72 54 71 55 24 57 58 58 37 59 57 60 38 61 41 62 56 63
REMARK SMILES IDX 76 64 39 65 40 66 55 68 77 69 42 70 25 71 26 72 35 73 27 74
REMARK SMILES IDX 28 75 34 76 36 77 29 78 30 79 31 80 32 81 33 82 59 83 60 84
REMARK SMILES IDX 69 85 61 86 62 87 68 88 70 89 63 90 64 91 65 92 66 93 67 94
REMARK SMILES IDX 43 95 44 96 53 97 45 98 46 99 52 100 54 101 47 102 48 103
REMARK SMILES IDX 49 104 50 105 51 106
REMARK H PARENT 75 56 41 67
REMARK Flexibility Score: inf
ROOT
ATOM      1  C   UNL A   1      46.371  39.748  26.014  1.00  0.00     0.202 C 
ENDROOT
BRANCH   1   2
ATOM      2  C   UNL A   1      44.874  40.093  25.991  1.00  0.00     0.261 C 
BRANCH   2   3
ATOM      3  O   UNL A   1      44.472  40.958  24.909  1.00  0.00    -0.463 OA
BRANCH   3   4
ATOM      4  C   UNL A   1      43.469  41.831  25.204  1.00  0.00     0.310 C 
ATOM      5  O   UNL A   1      42.474  41.545  25.865  1.00  0.00    -0.252 OA
BRANCH   4   6
ATOM      6  C   UNL A   1      43.658  43.247  24.667  1.00  0.00     0.159 C 
BRANCH   6   7
ATOM      7  C   UNL A   1      43.572  43.506  23.196  1.00  0.00    -0.025 C 
ATOM      8  C   UNL A   1      41.252  42.579  22.701  1.00  0.00     0.045 C 
ATOM      9  C   UNL A   1      42.556  43.219  22.347  1.00  0.00    -0.039 C 
ATOM     10  C   UNL A   1      42.881  43.712  20.996  1.00  0.00    -0.014 C 
ATOM     11  C   UNL A   1      44.582  44.268  22.436  1.00  0.00    -0.011 A 
ATOM     12  C   UNL A   1      44.203  44.356  21.083  1.00  0.00    -0.010 A 
ATOM     13  C   UNL A   1      42.068  43.622  19.929  1.00  0.00     0.017 C 
ATOM     14  C   UNL A   1      45.759  44.864  22.869  1.00  0.00     0.048 A 
ATOM     15  C   UNL A   1      45.033  44.957  20.144  1.00  0.00     0.012 A 
ATOM     16  C   UNL A   1      46.586  45.467  21.920  1.00  0.00     0.123 A 
ATOM     17  C   UNL A   1      46.246  45.500  20.568  1.00  0.00     0.040 A 
ATOM     18  F   UNL A   1      47.762  45.976  22.309  1.00  0.00    -0.207 F 
BRANCH  13  19
ATOM     19  C   UNL A   1      42.294  44.214  18.607  1.00  0.00    -0.021 A 
ATOM     20  C   UNL A   1      43.021  43.540  17.625  1.00  0.00     0.008 A 
ATOM     21  C   UNL A   1      41.774  45.489  18.337  1.00  0.00     0.054 A 
ATOM     22  C   UNL A   1      43.245  44.150  16.392  1.00  0.00     0.004 A 
ATOM     23  C   UNL A   1      41.935  46.077  17.083  1.00  0.00     0.120 A 
ATOM     24  C   UNL A   1      42.700  45.410  16.123  1.00  0.00     0.046 A 
BRANCH  23  25
ATOM     25  O   UNL A   1      41.403  47.270  16.675  1.00  0.00    -0.489 OA
BRANCH  25  26
ATOM     26  C   UNL A   1      42.287  48.352  16.356  1.00  0.00     0.265 C 
BRANCH  26  27
ATOM     27  C   UNL A   1      43.485  48.449  17.277  1.00  0.00    -0.011 A 
ATOM     28  C   UNL A   1      44.744  48.000  16.857  1.00  0.00     0.007 A 
ATOM     29  C   UNL A   1      43.362  49.009  18.558  1.00  0.00     0.007 A 
ATOM     30  C   UNL A   1      45.858  48.136  17.690  1.00  0.00     0.000 A 
ATOM     31  C   UNL A   1      44.479  49.169  19.377  1.00  0.00     0.000 A 
ATOM     32  C   UNL A   1      45.727  48.732  18.942  1.00  0.00     0.000 A 
ENDBRANCH  26  27
ENDBRANCH  25  26
ENDBRANCH  23  25
ENDBRANCH  13  19
ENDBRANCH   6   7
ENDBRANCH   4   6
ENDBRANCH   3   4
ENDBRANCH   2   3
ENDBRANCH   1   2
BRANCH   1  33
ATOM     33  O   UNL A   1      46.980  39.437  27.264  1.00  0.00    -0.374 OA
BRANCH  33  34
ATOM     34  C   UNL A   1      48.074  38.526  27.264  1.00  0.00     0.202 C 
BRANCH  34  35
ATOM     35  C   UNL A   1      48.919  38.401  28.536  1.00  0.00     0.261 C 
BRANCH  35  36
ATOM     36  O   UNL A   1      48.996  37.074  29.060  1.00  0.00    -0.460 OA
BRANCH  36  37
ATOM     37  C   UNL A   1      47.933  36.715  29.817  1.00  0.00     0.338 C 
ATOM     38  O   UNL A   1      47.238  37.433  30.520  1.00  0.00    -0.246 OA
BRANCH  37  39
ATOM     39  C   UNL A   1      47.612  35.312  29.536  1.00  0.00     0.060 A 
ATOM     40  C   UNL A   1      47.710  34.343  30.537  1.00  0.00     0.016 A 
ATOM     41  C   UNL A   1      47.175  34.986  28.249  1.00  0.00     0.016 A 
ATOM     42  C   UNL A   1      47.338  33.032  30.244  1.00  0.00     0.010 A 
ATOM     43  C   UNL A   1      46.801  33.679  27.961  1.00  0.00     0.010 A 
ATOM     44  C   UNL A   1      46.862  32.699  28.963  1.00  0.00    -0.014 A 
BRANCH  44  45
ATOM     45  C   UNL A   1      46.310  31.353  28.696  1.00  0.00     0.031 A 
ATOM     46  C   UNL A   1      44.887  31.023  29.018  1.00  0.00     0.074 A 
ATOM     47  C   UNL A   1      47.140  30.416  28.202  1.00  0.00     0.049 A 
ATOM     48  N   UNL A   1      44.247  29.898  28.847  1.00  0.00    -0.248 NA
ATOM     49  C   UNL A   1      44.079  32.094  29.621  1.00  0.00     0.031 C 
ATOM     50  C   UNL A   1      48.557  30.631  27.894  1.00  0.00     0.029 A 
ATOM     51  N   UNL A   1      46.923  29.103  27.875  1.00  0.00    -0.354 N 
ATOM     52  C   UNL A   1      42.956  30.121  29.309  1.00  0.00     0.074 A 
ATOM     53  C   UNL A   1      42.921  31.477  29.818  1.00  0.00     0.031 C 
ATOM     54  C   UNL A   1      49.073  29.498  27.394  1.00  0.00     0.029 A 
ATOM     55  C   UNL A   1      48.038  28.469  27.385  1.00  0.00     0.049 A 
ATOM     56  H   UNL A   1      46.051  28.658  27.981  1.00  0.00     0.167 HD
ATOM     57  C   UNL A   1      41.899  29.274  29.291  1.00  0.00     0.037 A 
ATOM     58  C   UNL A   1      48.209  27.198  26.976  1.00  0.00     0.037 A 
ATOM     59  C   UNL A   1      41.966  27.920  28.800  1.00  0.00     0.049 A 
ATOM     60  C   UNL A   1      47.034  26.263  27.009  1.00  0.00     0.074 A 
ATOM     61  C   UNL A   1      40.947  26.987  28.707  1.00  0.00     0.029 A 
ATOM     62  N   UNL A   1      43.118  27.297  28.336  1.00  0.00    -0.354 N 
ATOM     63  N   UNL A   1      45.800  26.506  27.385  1.00  0.00    -0.248 NA
ATOM     64  C   UNL A   1      47.269  24.885  26.560  1.00  0.00     0.031 C 
ATOM     65  C   UNL A   1      41.495  25.786  28.244  1.00  0.00     0.029 A 
ATOM     66  C   UNL A   1      42.843  25.984  27.988  1.00  0.00     0.049 A 
ATOM     67  H   UNL A   1      44.001  27.727  28.266  1.00  0.00     0.167 HD
ATOM     68  C   UNL A   1      45.107  25.314  27.208  1.00  0.00     0.074 A 
ATOM     69  C   UNL A   1      46.056  24.359  26.672  1.00  0.00     0.031 C 
ATOM     70  C   UNL A   1      43.804  25.039  27.469  1.00  0.00     0.037 A 
BRANCH  57  71
ATOM     71  C   UNL A   1      40.587  29.785  29.823  1.00  0.00     0.058 A 
ATOM     72  C   UNL A   1      40.353  29.911  31.203  1.00  0.00     0.135 A 
ATOM     73  C   UNL A   1      39.561  30.182  28.950  1.00  0.00     0.135 A 
ATOM     74  F   UNL A   1      41.291  29.537  32.087  1.00  0.00    -0.206 F 
ATOM     75  C   UNL A   1      39.137  30.375  31.696  1.00  0.00     0.059 A 
ATOM     76  C   UNL A   1      38.349  30.679  29.421  1.00  0.00     0.059 A 
ATOM     77  F   UNL A   1      39.730  30.085  27.621  1.00  0.00    -0.206 F 
ATOM     78  C   UNL A   1      38.140  30.755  30.797  1.00  0.00     0.060 A 
BRANCH  78  79
ATOM     79  S   UNL A   1      36.565  31.336  31.460  1.00  0.00     0.124 S 
ATOM     80  O   UNL A   1      36.954  32.612  32.053  1.00  0.00    -0.237 OA
ATOM     81  O   UNL A   1      35.737  31.421  30.262  1.00  0.00    -0.237 OA
ATOM     82  O   UNL A   1      36.187  30.294  32.409  1.00  0.00    -0.744 OA
ENDBRANCH  78  79
ENDBRANCH  57  71
BRANCH  58  83
ATOM     83  C   UNL A   1      49.537  26.772  26.467  1.00  0.00     0.058 A 
ATOM     84  C   UNL A   1      49.907  27.016  25.137  1.00  0.00     0.135 A 
ATOM     85  C   UNL A   1      50.494  26.193  27.316  1.00  0.00     0.135 A 
ATOM     86  F   UNL A   1      49.026  27.562  24.285  1.00  0.00    -0.206 F 
ATOM     87  C   UNL A   1      51.181  26.712  24.667  1.00  0.00     0.059 A 
ATOM     88  C   UNL A   1      51.783  25.903  26.877  1.00  0.00     0.059 A 
ATOM     89  F   UNL A   1      50.195  25.956  28.603  1.00  0.00    -0.206 F 
ATOM     90  C   UNL A   1      52.116  26.168  25.551  1.00  0.00     0.060 A 
BRANCH  90  91
ATOM     91  S   UNL A   1      53.792  25.868  24.948  1.00  0.00     0.124 S 
ATOM     92  O   UNL A   1      53.959  26.950  23.986  1.00  0.00    -0.237 OA
ATOM     93  O   UNL A   1      54.577  25.975  26.174  1.00  0.00    -0.237 OA
ATOM     94  O   UNL A   1      53.710  24.525  24.380  1.00  0.00    -0.744 OA
ENDBRANCH  90  91
ENDBRANCH  58  83
BRANCH  70  95
ATOM     95  C   UNL A   1      43.322  23.643  27.179  1.00  0.00     0.058 A 
ATOM     96  C   UNL A   1      43.100  22.715  28.208  1.00  0.00     0.135 A 
ATOM     97  C   UNL A   1      43.012  23.253  25.866  1.00  0.00     0.135 A 
ATOM     98  F   UNL A   1      43.388  23.033  29.480  1.00  0.00    -0.206 F 
ATOM     99  C   UNL A   1      42.603  21.442  27.944  1.00  0.00     0.059 A 
ATOM    100  C   UNL A   1      42.484  21.997  25.582  1.00  0.00     0.059 A 
ATOM    101  F   UNL A   1      43.196  24.105  24.845  1.00  0.00    -0.206 F 
ATOM    102  C   UNL A   1      42.291  21.096  26.628  1.00  0.00     0.060 A 
BRANCH 102 103
ATOM    103  S   UNL A   1      41.607  19.455  26.310  1.00  0.00     0.124 S 
ATOM    104  O   UNL A   1      41.874  18.774  27.573  1.00  0.00    -0.237 OA
ATOM    105  O   UNL A   1      40.206  19.753  26.034  1.00  0.00    -0.237 OA
ATOM    106  O   UNL A   1      42.379  18.980  25.166  1.00  0.00    -0.744 OA
ENDBRANCH 102 103
ENDBRANCH  70  95
ENDBRANCH  44  45
ENDBRANCH  37  39
ENDBRANCH  36  37
ENDBRANCH  35  36
ENDBRANCH  34  35
ENDBRANCH  33  34
ENDBRANCH   1  33
TORSDOF 22
ENDMDL
