MODEL 1
REMARK VINA RESULT:     -10.8      0.000      0.000
REMARK SMILES COC(=O)c1ccc(-c2ccc(C(=O)OCCOCCOC(=O)c3ccc(-c4c5nc(c(-c6c(F)cc(S(=O)(=O)[O-])cc6F)c6ccc([nH]6)c(-c6c(F)cc(S(=O)(=O)[O-])cc6F)c6nc(c(-c7c(F)cc(S(=O)(=O)[O-])cc7F)c7ccc4[nH]7)C=C6)C=C5)cc3)cc2O)cc1F
REMARK SMILES IDX 18 1 17 2 16 3 15 4 13 5 14 6 12 7 9 8 10 9 91 10 11 11
REMARK SMILES IDX 90 12 8 13 5 14 6 15 94 16 7 17 93 18 95 19 3 20 4 21 2 22
REMARK SMILES IDX 1 23 92 24 19 26 20 27 21 28 22 29 23 30 24 31 25 32 89 33
REMARK SMILES IDX 26 34 88 35 27 36 28 37 29 38 82 39 30 40 87 41 81 42 83 43
REMARK SMILES IDX 31 44 86 45 80 46 79 47 32 49 66 50 45 51 65 52 46 53 49 54
REMARK SMILES IDX 64 55 84 56 47 57 48 58 63 60 85 61 50 62 33 63 34 64 43 65
REMARK SMILES IDX 35 66 36 67 42 68 44 69 37 70 38 71 39 72 40 73 41 74 67 75
REMARK SMILES IDX 68 76 77 77 69 78 70 79 76 80 78 81 71 82 72 83 73 84 74 85
REMARK SMILES IDX 75 86 51 87 52 88 61 89 53 90 54 91 60 92 62 93 55 94 56 95
REMARK SMILES IDX 57 96 58 97 59 98
REMARK H PARENT 92 25 83 48 49 59
REMARK Flexibility Score: inf
ROOT
ATOM      1  O   UNL A   1      43.782  22.313  24.597  1.00  0.00    -0.374 OA
ENDROOT
BRANCH   1   2
ATOM      2  C   UNL A   1      44.048  21.183  25.429  1.00  0.00     0.202 C 
BRANCH   2   3
ATOM      3  C   UNL A   1      42.820  20.432  25.953  1.00  0.00     0.261 C 
BRANCH   3   4
ATOM      4  O   UNL A   1      41.610  21.157  25.674  1.00  0.00    -0.460 OA
BRANCH   4   5
ATOM      5  C   UNL A   1      40.808  21.358  26.745  1.00  0.00     0.338 C 
ATOM      6  O   UNL A   1      41.117  21.259  27.924  1.00  0.00    -0.246 OA
BRANCH   5   7
ATOM      7  C   UNL A   1      39.494  21.886  26.314  1.00  0.00     0.063 A 
ATOM      8  C   UNL A   1      36.977  22.995  25.714  1.00  0.00     0.024 A 
ATOM      9  C   UNL A   1      37.984  23.780  26.297  1.00  0.00     0.013 A 
ATOM     10  C   UNL A   1      37.288  21.664  25.371  1.00  0.00     0.124 A 
ATOM     11  C   UNL A   1      39.228  23.230  26.602  1.00  0.00     0.016 A 
ATOM     12  C   UNL A   1      38.538  21.106  25.658  1.00  0.00     0.062 A 
BRANCH   8  13
ATOM     13  C   UNL A   1      35.617  23.549  25.608  1.00  0.00    -0.012 A 
ATOM     14  C   UNL A   1      32.977  24.462  25.219  1.00  0.00     0.095 A 
ATOM     15  C   UNL A   1      33.303  23.712  26.357  1.00  0.00     0.019 A 
ATOM     16  C   UNL A   1      33.976  24.783  24.303  1.00  0.00     0.138 A 
ATOM     17  C   UNL A   1      34.614  23.253  26.544  1.00  0.00     0.010 A 
ATOM     18  C   UNL A   1      35.278  24.332  24.492  1.00  0.00     0.049 A 
ATOM     19  F   UNL A   1      33.719  25.532  23.221  1.00  0.00    -0.206 F 
BRANCH  14  20
ATOM     20  C   UNL A   1      31.580  24.895  25.028  1.00  0.00     0.340 C 
ATOM     21  O   UNL A   1      30.721  24.192  24.518  1.00  0.00    -0.246 OA
BRANCH  20  22
ATOM     22  O   UNL A   1      31.434  26.186  25.410  1.00  0.00    -0.465 OA
ATOM     23  C   UNL A   1      30.303  26.848  24.847  1.00  0.00     0.282 C 
ENDBRANCH  20  22
ENDBRANCH  14  20
ENDBRANCH   8  13
BRANCH  10  24
ATOM     24  O   UNL A   1      36.327  20.899  24.763  1.00  0.00    -0.507 OA
ATOM     25  H   UNL A   1      35.589  20.595  25.255  1.00  0.00     0.293 HD
ENDBRANCH  10  24
ENDBRANCH   5   7
ENDBRANCH   4   5
ENDBRANCH   3   4
ENDBRANCH   2   3
ENDBRANCH   1   2
BRANCH   1  26
ATOM     26  C   UNL A   1      44.394  23.549  24.972  1.00  0.00     0.202 C 
BRANCH  26  27
ATOM     27  C   UNL A   1      44.088  24.060  26.384  1.00  0.00     0.261 C 
BRANCH  27  28
ATOM     28  O   UNL A   1      42.694  24.377  26.551  1.00  0.00    -0.460 OA
BRANCH  28  29
ATOM     29  C   UNL A   1      42.306  25.544  25.984  1.00  0.00     0.338 C 
ATOM     30  O   UNL A   1      42.250  25.800  24.789  1.00  0.00    -0.246 OA
BRANCH  29  31
ATOM     31  C   UNL A   1      41.769  26.453  27.014  1.00  0.00     0.060 A 
ATOM     32  C   UNL A   1      42.265  27.762  27.043  1.00  0.00     0.016 A 
ATOM     33  C   UNL A   1      40.847  26.023  27.973  1.00  0.00     0.016 A 
ATOM     34  C   UNL A   1      41.882  28.632  28.060  1.00  0.00     0.010 A 
ATOM     35  C   UNL A   1      40.470  26.897  28.999  1.00  0.00     0.010 A 
ATOM     36  C   UNL A   1      41.011  28.194  29.066  1.00  0.00    -0.014 A 
BRANCH  36  37
ATOM     37  C   UNL A   1      40.770  29.052  30.252  1.00  0.00     0.031 A 
ATOM     38  C   UNL A   1      41.623  28.862  31.477  1.00  0.00     0.074 A 
ATOM     39  C   UNL A   1      39.821  30.006  30.228  1.00  0.00     0.049 A 
ATOM     40  N   UNL A   1      41.559  29.473  32.631  1.00  0.00    -0.248 NA
ATOM     41  C   UNL A   1      42.690  27.851  31.391  1.00  0.00     0.031 C 
ATOM     42  C   UNL A   1      38.958  30.307  29.086  1.00  0.00     0.029 A 
ATOM     43  N   UNL A   1      39.423  30.895  31.195  1.00  0.00    -0.354 N 
ATOM     44  C   UNL A   1      42.567  28.918  33.410  1.00  0.00     0.074 A 
ATOM     45  C   UNL A   1      43.215  27.904  32.607  1.00  0.00     0.031 C 
ATOM     46  C   UNL A   1      38.121  31.302  29.424  1.00  0.00     0.029 A 
ATOM     47  C   UNL A   1      38.368  31.689  30.813  1.00  0.00     0.049 A 
ATOM     48  H   UNL A   1      39.851  30.957  32.079  1.00  0.00     0.167 HD
ATOM     49  C   UNL A   1      42.923  29.233  34.677  1.00  0.00     0.037 A 
ATOM     50  C   UNL A   1      37.667  32.606  31.510  1.00  0.00     0.037 A 
ATOM     51  C   UNL A   1      42.287  30.255  35.466  1.00  0.00     0.049 A 
ATOM     52  C   UNL A   1      38.051  32.902  32.937  1.00  0.00     0.074 A 
ATOM     53  C   UNL A   1      42.603  30.669  36.747  1.00  0.00     0.029 A 
ATOM     54  N   UNL A   1      41.206  31.019  35.053  1.00  0.00    -0.354 N 
ATOM     55  N   UNL A   1      39.020  32.385  33.652  1.00  0.00    -0.248 NA
ATOM     56  C   UNL A   1      37.247  33.906  33.651  1.00  0.00     0.031 C 
ATOM     57  C   UNL A   1      41.683  31.651  37.128  1.00  0.00     0.029 A 
ATOM     58  C   UNL A   1      40.826  31.883  36.065  1.00  0.00     0.049 A 
ATOM     59  H   UNL A   1      40.774  30.957  34.170  1.00  0.00     0.167 HD
ATOM     60  C   UNL A   1      38.955  33.012  34.892  1.00  0.00     0.074 A 
ATOM     61  C   UNL A   1      37.859  33.956  34.827  1.00  0.00     0.031 C 
ATOM     62  C   UNL A   1      39.734  32.822  35.986  1.00  0.00     0.037 A 
BRANCH  49  63
ATOM     63  C   UNL A   1      44.051  28.465  35.307  1.00  0.00     0.058 A 
ATOM     64  C   UNL A   1      45.380  28.868  35.108  1.00  0.00     0.135 A 
ATOM     65  C   UNL A   1      43.824  27.283  36.028  1.00  0.00     0.135 A 
ATOM     66  F   UNL A   1      45.651  29.998  34.434  1.00  0.00    -0.206 F 
ATOM     67  C   UNL A   1      46.448  28.112  35.579  1.00  0.00     0.059 A 
ATOM     68  C   UNL A   1      44.877  26.521  36.528  1.00  0.00     0.059 A 
ATOM     69  F   UNL A   1      42.570  26.867  36.265  1.00  0.00    -0.206 F 
ATOM     70  C   UNL A   1      46.185  26.934  36.281  1.00  0.00     0.060 A 
BRANCH  70  71
ATOM     71  S   UNL A   1      47.583  25.965  36.884  1.00  0.00     0.124 S 
ATOM     72  O   UNL A   1      47.081  24.601  36.757  1.00  0.00    -0.237 OA
ATOM     73  O   UNL A   1      48.643  26.343  35.954  1.00  0.00    -0.237 OA
ATOM     74  O   UNL A   1      47.762  26.445  38.252  1.00  0.00    -0.744 OA
ENDBRANCH  70  71
ENDBRANCH  49  63
BRANCH  50  75
ATOM     75  C   UNL A   1      36.517  33.298  30.869  1.00  0.00     0.058 A 
ATOM     76  C   UNL A   1      36.721  34.254  29.861  1.00  0.00     0.135 A 
ATOM     77  C   UNL A   1      35.197  33.036  31.264  1.00  0.00     0.135 A 
ATOM     78  F   UNL A   1      37.965  34.545  29.450  1.00  0.00    -0.206 F 
ATOM     79  C   UNL A   1      35.660  34.943  29.286  1.00  0.00     0.059 A 
ATOM     80  C   UNL A   1      34.117  33.696  30.686  1.00  0.00     0.059 A 
ATOM     81  F   UNL A   1      34.952  32.118  32.212  1.00  0.00    -0.206 F 
ATOM     82  C   UNL A   1      34.362  34.661  29.709  1.00  0.00     0.060 A 
BRANCH  82  83
ATOM     83  S   UNL A   1      33.000  35.581  28.961  1.00  0.00     0.124 S 
ATOM     84  O   UNL A   1      32.241  35.984  30.140  1.00  0.00    -0.237 OA
ATOM     85  O   UNL A   1      33.702  36.651  28.260  1.00  0.00    -0.237 OA
ATOM     86  O   UNL A   1      32.354  34.592  28.105  1.00  0.00    -0.744 OA
ENDBRANCH  82  83
ENDBRANCH  50  75
BRANCH  62  87
ATOM     87  C   UNL A   1      39.451  33.654  37.206  1.00  0.00     0.058 A 
ATOM     88  C   UNL A   1      40.062  34.908  37.369  1.00  0.00     0.135 A 
ATOM     89  C   UNL A   1      38.652  33.172  38.254  1.00  0.00     0.135 A 
ATOM     90  F   UNL A   1      40.841  35.413  36.399  1.00  0.00    -0.206 F 
ATOM     91  C   UNL A   1      39.908  35.646  38.537  1.00  0.00     0.059 A 
ATOM     92  C   UNL A   1      38.464  33.905  39.422  1.00  0.00     0.059 A 
ATOM     93  F   UNL A   1      38.038  31.984  38.142  1.00  0.00    -0.206 F 
ATOM     94  C   UNL A   1      39.112  35.132  39.562  1.00  0.00     0.060 A 
BRANCH  94  95
ATOM     95  S   UNL A   1      38.921  36.103  41.072  1.00  0.00     0.124 S 
ATOM     96  O   UNL A   1      37.756  35.476  41.686  1.00  0.00    -0.237 OA
ATOM     97  O   UNL A   1      40.195  35.874  41.749  1.00  0.00    -0.237 OA
ATOM     98  O   UNL A   1      38.718  37.462  40.579  1.00  0.00    -0.744 OA
ENDBRANCH  94  95
ENDBRANCH  62  87
ENDBRANCH  36  37
ENDBRANCH  29  31
ENDBRANCH  28  29
ENDBRANCH  27  28
ENDBRANCH  26  27
ENDBRANCH   1  26
TORSDOF 21
ENDMDL
MODEL 2
REMARK VINA RESULT:     -10.8      1.363      2.111
REMARK SMILES COC(=O)c1ccc(-c2ccc(C(=O)OCCOCCOC(=O)c3ccc(-c4c5nc(c(-c6c(F)cc(S(=O)(=O)[O-])cc6F)c6ccc([nH]6)c(-c6c(F)cc(S(=O)(=O)[O-])cc6F)c6nc(c(-c7c(F)cc(S(=O)(=O)[O-])cc7F)c7ccc4[nH]7)C=C6)C=C5)cc3)cc2O)cc1F
REMARK SMILES IDX 18 1 17 2 16 3 15 4 13 5 14 6 12 7 9 8 10 9 91 10 11 11
REMARK SMILES IDX 90 12 8 13 5 14 6 15 94 16 7 17 93 18 95 19 3 20 4 21 2 22
REMARK SMILES IDX 1 23 92 24 19 26 20 27 21 28 22 29 23 30 24 31 25 32 89 33
REMARK SMILES IDX 26 34 88 35 27 36 28 37 29 38 82 39 30 40 87 41 81 42 83 43
REMARK SMILES IDX 31 44 86 45 80 46 79 47 32 49 66 50 45 51 65 52 46 53 49 54
REMARK SMILES IDX 64 55 84 56 47 57 48 58 63 60 85 61 50 62 33 63 34 64 43 65
REMARK SMILES IDX 35 66 36 67 42 68 44 69 37 70 38 71 39 72 40 73 41 74 67 75
REMARK SMILES IDX 68 76 77 77 69 78 70 79 76 80 78 81 71 82 72 83 73 84 74 85
REMARK SMILES IDX 75 86 51 87 52 88 61 89 53 90 54 91 60 92 62 93 55 94 56 95
REMARK SMILES IDX 57 96 58 97 59 98
REMARK H PARENT 92 25 83 48 49 59
REMARK Flexibility Score: inf
ROOT
ATOM      1  O   UNL A   1      43.877  21.274  24.645  1.00  0.00    -0.374 OA
ENDROOT
BRANCH   1   2
ATOM      2  C   UNL A   1      44.520  20.114  25.174  1.00  0.00     0.202 C 
BRANCH   2   3
ATOM      3  C   UNL A   1      43.601  18.950  25.553  1.00  0.00     0.261 C 
BRANCH   3   4
ATOM      4  O   UNL A   1      42.219  19.289  25.339  1.00  0.00    -0.460 OA
BRANCH   4   5
ATOM      5  C   UNL A   1      41.525  19.581  26.463  1.00  0.00     0.338 C 
ATOM      6  O   UNL A   1      41.922  19.494  27.616  1.00  0.00    -0.246 OA
BRANCH   5   7
ATOM      7  C   UNL A   1      40.221  20.192  26.121  1.00  0.00     0.063 A 
ATOM      8  C   UNL A   1      37.770  21.264  25.244  1.00  0.00     0.024 A 
ATOM      9  C   UNL A   1      38.107  19.929  24.969  1.00  0.00     0.013 A 
ATOM     10  C   UNL A   1      38.658  22.023  26.033  1.00  0.00     0.124 A 
ATOM     11  C   UNL A   1      39.324  19.400  25.395  1.00  0.00     0.016 A 
ATOM     12  C   UNL A   1      39.874  21.497  26.479  1.00  0.00     0.062 A 
BRANCH   8  13
ATOM     13  C   UNL A   1      36.583  21.845  24.595  1.00  0.00    -0.012 A 
ATOM     14  C   UNL A   1      34.224  23.004  23.572  1.00  0.00     0.095 A 
ATOM     15  C   UNL A   1      35.455  23.654  23.412  1.00  0.00     0.019 A 
ATOM     16  C   UNL A   1      34.183  21.765  24.207  1.00  0.00     0.138 A 
ATOM     17  C   UNL A   1      36.625  23.080  23.928  1.00  0.00     0.010 A 
ATOM     18  C   UNL A   1      35.345  21.192  24.713  1.00  0.00     0.049 A 
ATOM     19  F   UNL A   1      33.034  21.087  24.346  1.00  0.00    -0.206 F 
BRANCH  14  20
ATOM     20  C   UNL A   1      33.004  23.652  23.056  1.00  0.00     0.340 C 
ATOM     21  O   UNL A   1      32.002  23.836  23.731  1.00  0.00    -0.246 OA
BRANCH  20  22
ATOM     22  O   UNL A   1      33.137  23.915  21.734  1.00  0.00    -0.465 OA
ATOM     23  C   UNL A   1      32.825  25.255  21.361  1.00  0.00     0.282 C 
ENDBRANCH  20  22
ENDBRANCH  14  20
ENDBRANCH   8  13
BRANCH  10  24
ATOM     24  O   UNL A   1      38.322  23.315  26.343  1.00  0.00    -0.507 OA
ATOM     25  H   UNL A   1      38.867  24.022  26.059  1.00  0.00     0.293 HD
ENDBRANCH  10  24
ENDBRANCH   5   7
ENDBRANCH   4   5
ENDBRANCH   3   4
ENDBRANCH   2   3
ENDBRANCH   1   2
BRANCH   1  26
ATOM     26  C   UNL A   1      44.343  22.542  25.113  1.00  0.00     0.202 C 
BRANCH  26  27
ATOM     27  C   UNL A   1      43.795  23.012  26.465  1.00  0.00     0.261 C 
BRANCH  27  28
ATOM     28  O   UNL A   1      42.480  23.587  26.342  1.00  0.00    -0.460 OA
BRANCH  28  29
ATOM     29  C   UNL A   1      42.456  24.841  25.831  1.00  0.00     0.338 C 
ATOM     30  O   UNL A   1      42.645  25.165  24.667  1.00  0.00    -0.246 OA
BRANCH  29  31
ATOM     31  C   UNL A   1      41.982  25.794  26.852  1.00  0.00     0.060 A 
ATOM     32  C   UNL A   1      42.612  27.043  26.911  1.00  0.00     0.016 A 
ATOM     33  C   UNL A   1      40.988  25.458  27.775  1.00  0.00     0.016 A 
ATOM     34  C   UNL A   1      42.288  27.942  27.924  1.00  0.00     0.010 A 
ATOM     35  C   UNL A   1      40.669  26.360  28.796  1.00  0.00     0.010 A 
ATOM     36  C   UNL A   1      41.341  27.592  28.894  1.00  0.00    -0.014 A 
BRANCH  36  37
ATOM     37  C   UNL A   1      41.151  28.462  30.081  1.00  0.00     0.031 A 
ATOM     38  C   UNL A   1      42.034  28.263  31.283  1.00  0.00     0.074 A 
ATOM     39  C   UNL A   1      40.221  29.434  30.076  1.00  0.00     0.049 A 
ATOM     40  N   UNL A   1      42.014  28.883  32.434  1.00  0.00    -0.248 NA
ATOM     41  C   UNL A   1      43.078  27.231  31.174  1.00  0.00     0.031 C 
ATOM     42  C   UNL A   1      39.331  29.745  28.958  1.00  0.00     0.029 A 
ATOM     43  N   UNL A   1      39.867  30.337  31.048  1.00  0.00    -0.354 N 
ATOM     44  C   UNL A   1      43.033  28.313  33.188  1.00  0.00     0.074 A 
ATOM     45  C   UNL A   1      43.638  27.281  32.374  1.00  0.00     0.031 C 
ATOM     46  C   UNL A   1      38.524  30.759  29.312  1.00  0.00     0.029 A 
ATOM     47  C   UNL A   1      38.818  31.149  30.690  1.00  0.00     0.049 A 
ATOM     48  H   UNL A   1      40.322  30.396  31.919  1.00  0.00     0.167 HD
ATOM     49  C   UNL A   1      43.431  28.629  34.442  1.00  0.00     0.037 A 
ATOM     50  C   UNL A   1      38.155  32.085  31.400  1.00  0.00     0.037 A 
ATOM     51  C   UNL A   1      42.838  29.669  35.241  1.00  0.00     0.049 A 
ATOM     52  C   UNL A   1      38.585  32.384  32.813  1.00  0.00     0.074 A 
ATOM     53  C   UNL A   1      43.198  30.085  36.510  1.00  0.00     0.029 A 
ATOM     54  N   UNL A   1      41.761  30.452  34.853  1.00  0.00    -0.354 N 
ATOM     55  N   UNL A   1      39.564  31.852  33.505  1.00  0.00    -0.248 NA
ATOM     56  C   UNL A   1      37.822  33.408  33.543  1.00  0.00     0.031 C 
ATOM     57  C   UNL A   1      42.309  31.087  36.910  1.00  0.00     0.029 A 
ATOM     58  C   UNL A   1      41.427  31.330  35.869  1.00  0.00     0.049 A 
ATOM     59  H   UNL A   1      41.303  30.392  33.984  1.00  0.00     0.167 HD
ATOM     60  C   UNL A   1      39.546  32.488  34.741  1.00  0.00     0.074 A 
ATOM     61  C   UNL A   1      38.468  33.453  34.701  1.00  0.00     0.031 C 
ATOM     62  C   UNL A   1      40.352  32.289  35.814  1.00  0.00     0.037 A 
BRANCH  49  63
ATOM     63  C   UNL A   1      44.560  27.843  35.046  1.00  0.00     0.058 A 
ATOM     64  C   UNL A   1      45.892  28.213  34.799  1.00  0.00     0.135 A 
ATOM     65  C   UNL A   1      44.330  26.675  35.788  1.00  0.00     0.135 A 
ATOM     66  F   UNL A   1      46.166  29.328  34.103  1.00  0.00    -0.206 F 
ATOM     67  C   UNL A   1      46.956  27.438  35.246  1.00  0.00     0.059 A 
ATOM     68  C   UNL A   1      45.381  25.895  36.264  1.00  0.00     0.059 A 
ATOM     69  F   UNL A   1      43.075  26.291  36.070  1.00  0.00    -0.206 F 
ATOM     70  C   UNL A   1      46.690  26.276  35.971  1.00  0.00     0.060 A 
BRANCH  70  71
ATOM     71  S   UNL A   1      48.084  25.281  36.542  1.00  0.00     0.124 S 
ATOM     72  O   UNL A   1      49.114  26.294  36.743  1.00  0.00    -0.237 OA
ATOM     73  O   UNL A   1      47.548  24.669  37.753  1.00  0.00    -0.237 OA
ATOM     74  O   UNL A   1      48.317  24.358  35.434  1.00  0.00    -0.744 OA
ENDBRANCH  70  71
ENDBRANCH  49  63
BRANCH  50  75
ATOM     75  C   UNL A   1      37.002  32.796  30.787  1.00  0.00     0.058 A 
ATOM     76  C   UNL A   1      35.682  32.451  31.120  1.00  0.00     0.135 A 
ATOM     77  C   UNL A   1      37.192  33.814  29.842  1.00  0.00     0.135 A 
ATOM     78  F   UNL A   1      35.444  31.479  32.015  1.00  0.00    -0.206 F 
ATOM     79  C   UNL A   1      34.594  33.073  30.520  1.00  0.00     0.059 A 
ATOM     80  C   UNL A   1      36.118  34.468  29.245  1.00  0.00     0.059 A 
ATOM     81  F   UNL A   1      38.436  34.190  29.504  1.00  0.00    -0.206 F 
ATOM     82  C   UNL A   1      34.822  34.077  29.579  1.00  0.00     0.060 A 
BRANCH  82  83
ATOM     83  S   UNL A   1      33.393  34.859  28.800  1.00  0.00     0.124 S 
ATOM     84  O   UNL A   1      33.971  36.114  28.332  1.00  0.00    -0.237 OA
ATOM     85  O   UNL A   1      33.044  33.894  27.762  1.00  0.00    -0.237 OA
ATOM     86  O   UNL A   1      32.434  34.977  29.893  1.00  0.00    -0.744 OA
ENDBRANCH  82  83
ENDBRANCH  50  75
BRANCH  62  87
ATOM     87  C   UNL A   1      40.120  33.136  37.036  1.00  0.00     0.058 A 
ATOM     88  C   UNL A   1      39.047  32.861  37.899  1.00  0.00     0.135 A 
ATOM     89  C   UNL A   1      40.900  34.272  37.300  1.00  0.00     0.135 A 
ATOM     90  F   UNL A   1      38.266  31.790  37.687  1.00  0.00    -0.206 F 
ATOM     91  C   UNL A   1      38.742  33.695  38.968  1.00  0.00     0.059 A 
ATOM     92  C   UNL A   1      40.629  35.107  38.379  1.00  0.00     0.059 A 
ATOM     93  F   UNL A   1      41.943  34.572  36.511  1.00  0.00    -0.206 F 
ATOM     94  C   UNL A   1      39.535  34.820  39.197  1.00  0.00     0.060 A 
BRANCH  94  95
ATOM     95  S   UNL A   1      39.127  35.892  40.591  1.00  0.00     0.124 S 
ATOM     96  O   UNL A   1      38.027  35.165  41.215  1.00  0.00    -0.237 OA
ATOM     97  O   UNL A   1      40.380  35.915  41.341  1.00  0.00    -0.237 OA
ATOM     98  O   UNL A   1      38.763  37.155  39.954  1.00  0.00    -0.744 OA
ENDBRANCH  94  95
ENDBRANCH  62  87
ENDBRANCH  36  37
ENDBRANCH  29  31
ENDBRANCH  28  29
ENDBRANCH  27  28
ENDBRANCH  26  27
ENDBRANCH   1  26
TORSDOF 21
ENDMDL
MODEL 3
REMARK VINA RESULT:     -10.7      4.573     10.923
REMARK SMILES COC(=O)c1ccc(-c2ccc(C(=O)OCCOCCOC(=O)c3ccc(-c4c5nc(c(-c6c(F)cc(S(=O)(=O)[O-])cc6F)c6ccc([nH]6)c(-c6c(F)cc(S(=O)(=O)[O-])cc6F)c6nc(c(-c7c(F)cc(S(=O)(=O)[O-])cc7F)c7ccc4[nH]7)C=C6)C=C5)cc3)cc2O)cc1F
REMARK SMILES IDX 18 1 17 2 16 3 15 4 13 5 14 6 12 7 9 8 10 9 91 10 11 11
REMARK SMILES IDX 90 12 8 13 5 14 6 15 94 16 7 17 93 18 95 19 3 20 4 21 2 22
REMARK SMILES IDX 1 23 92 24 19 26 20 27 21 28 22 29 23 30 24 31 25 32 89 33
REMARK SMILES IDX 26 34 88 35 27 36 28 37 29 38 82 39 30 40 87 41 81 42 83 43
REMARK SMILES IDX 31 44 86 45 80 46 79 47 32 49 66 50 45 51 65 52 46 53 49 54
REMARK SMILES IDX 64 55 84 56 47 57 48 58 63 60 85 61 50 62 33 63 34 64 43 65
REMARK SMILES IDX 35 66 36 67 42 68 44 69 37 70 38 71 39 72 40 73 41 74 67 75
REMARK SMILES IDX 68 76 77 77 69 78 70 79 76 80 78 81 71 82 72 83 73 84 74 85
REMARK SMILES IDX 75 86 51 87 52 88 61 89 53 90 54 91 60 92 62 93 55 94 56 95
REMARK SMILES IDX 57 96 58 97 59 98
REMARK H PARENT 92 25 83 48 49 59
REMARK Flexibility Score: inf
ROOT
ATOM      1  O   UNL A   1      33.384  28.827  25.136  1.00  0.00    -0.374 OA
ENDROOT
BRANCH   1   2
ATOM      2  C   UNL A   1      33.271  28.397  23.779  1.00  0.00     0.202 C 
BRANCH   2   3
ATOM      3  C   UNL A   1      31.849  28.309  23.218  1.00  0.00     0.261 C 
BRANCH   3   4
ATOM      4  O   UNL A   1      31.523  26.960  22.839  1.00  0.00    -0.460 OA
BRANCH   4   5
ATOM      5  C   UNL A   1      30.829  26.261  23.766  1.00  0.00     0.338 C 
ATOM      6  O   UNL A   1      29.793  26.600  24.320  1.00  0.00    -0.246 OA
BRANCH   5   7
ATOM      7  C   UNL A   1      31.407  24.909  23.932  1.00  0.00     0.063 A 
ATOM      8  C   UNL A   1      32.463  22.300  24.010  1.00  0.00     0.024 A 
ATOM      9  C   UNL A   1      32.838  23.193  22.994  1.00  0.00     0.013 A 
ATOM     10  C   UNL A   1      31.606  22.771  25.025  1.00  0.00     0.124 A 
ATOM     11  C   UNL A   1      32.309  24.482  22.950  1.00  0.00     0.016 A 
ATOM     12  C   UNL A   1      31.082  24.067  24.999  1.00  0.00     0.062 A 
BRANCH   8  13
ATOM     13  C   UNL A   1      32.871  20.889  23.900  1.00  0.00    -0.012 A 
ATOM     14  C   UNL A   1      33.608  18.168  23.926  1.00  0.00     0.095 A 
ATOM     15  C   UNL A   1      32.434  18.573  23.277  1.00  0.00     0.019 A 
ATOM     16  C   UNL A   1      34.424  19.124  24.523  1.00  0.00     0.138 A 
ATOM     17  C   UNL A   1      32.065  19.925  23.272  1.00  0.00     0.010 A 
ATOM     18  C   UNL A   1      34.061  20.467  24.513  1.00  0.00     0.049 A 
ATOM     19  F   UNL A   1      35.577  18.787  25.119  1.00  0.00    -0.206 F 
BRANCH  14  20
ATOM     20  C   UNL A   1      33.949  16.733  23.950  1.00  0.00     0.340 C 
ATOM     21  O   UNL A   1      34.233  16.091  22.949  1.00  0.00    -0.246 OA
BRANCH  20  22
ATOM     22  O   UNL A   1      33.810  16.239  25.204  1.00  0.00    -0.465 OA
ATOM     23  C   UNL A   1      32.926  15.125  25.309  1.00  0.00     0.282 C 
ENDBRANCH  20  22
ENDBRANCH  14  20
ENDBRANCH   8  13
BRANCH  10  24
ATOM     24  O   UNL A   1      31.265  21.921  26.045  1.00  0.00    -0.507 OA
ATOM     25  H   UNL A   1      31.451  22.156  26.933  1.00  0.00     0.293 HD
ENDBRANCH  10  24
ENDBRANCH   5   7
ENDBRANCH   4   5
ENDBRANCH   3   4
ENDBRANCH   2   3
ENDBRANCH   1   2
BRANCH   1  26
ATOM     26  C   UNL A   1      32.307  29.611  25.657  1.00  0.00     0.202 C 
BRANCH  26  27
ATOM     27  C   UNL A   1      32.639  30.518  26.847  1.00  0.00     0.261 C 
BRANCH  27  28
ATOM     28  O   UNL A   1      33.690  29.970  27.664  1.00  0.00    -0.460 OA
BRANCH  28  29
ATOM     29  C   UNL A   1      34.594  30.876  28.106  1.00  0.00     0.338 C 
ATOM     30  O   UNL A   1      34.371  32.022  28.470  1.00  0.00    -0.246 OA
BRANCH  29  31
ATOM     31  C   UNL A   1      35.913  30.236  28.270  1.00  0.00     0.060 A 
ATOM     32  C   UNL A   1      36.204  29.668  29.517  1.00  0.00     0.016 A 
ATOM     33  C   UNL A   1      36.872  30.243  27.254  1.00  0.00     0.016 A 
ATOM     34  C   UNL A   1      37.472  29.150  29.770  1.00  0.00     0.010 A 
ATOM     35  C   UNL A   1      38.147  29.729  27.513  1.00  0.00     0.010 A 
ATOM     36  C   UNL A   1      38.463  29.210  28.782  1.00  0.00    -0.014 A 
BRANCH  36  37
ATOM     37  C   UNL A   1      39.861  28.848  29.123  1.00  0.00     0.031 A 
ATOM     38  C   UNL A   1      40.718  29.848  29.850  1.00  0.00     0.074 A 
ATOM     39  C   UNL A   1      40.350  27.634  28.811  1.00  0.00     0.049 A 
ATOM     40  N   UNL A   1      41.972  29.754  30.210  1.00  0.00    -0.248 NA
ATOM     41  C   UNL A   1      40.080  31.121  30.223  1.00  0.00     0.031 C 
ATOM     42  C   UNL A   1      39.604  26.571  28.139  1.00  0.00     0.029 A 
ATOM     43  N   UNL A   1      41.595  27.094  29.016  1.00  0.00    -0.354 N 
ATOM     44  C   UNL A   1      42.275  30.954  30.842  1.00  0.00     0.074 A 
ATOM     45  C   UNL A   1      41.082  31.771  30.798  1.00  0.00     0.031 C 
ATOM     46  C   UNL A   1      40.411  25.510  27.974  1.00  0.00     0.029 A 
ATOM     47  C   UNL A   1      41.738  25.827  28.501  1.00  0.00     0.049 A 
ATOM     48  H   UNL A   1      42.318  27.569  29.486  1.00  0.00     0.167 HD
ATOM     49  C   UNL A   1      43.441  31.334  31.414  1.00  0.00     0.037 A 
ATOM     50  C   UNL A   1      42.820  25.025  28.441  1.00  0.00     0.037 A 
ATOM     51  C   UNL A   1      44.620  30.510  31.472  1.00  0.00     0.049 A 
ATOM     52  C   UNL A   1      44.121  25.491  29.040  1.00  0.00     0.074 A 
ATOM     53  C   UNL A   1      45.838  30.797  32.063  1.00  0.00     0.029 A 
ATOM     54  N   UNL A   1      44.732  29.245  30.917  1.00  0.00    -0.354 N 
ATOM     55  N   UNL A   1      44.386  26.619  29.654  1.00  0.00    -0.248 NA
ATOM     56  C   UNL A   1      45.270  24.578  28.940  1.00  0.00     0.031 C 
ATOM     57  C   UNL A   1      46.702  29.725  31.824  1.00  0.00     0.029 A 
ATOM     58  C   UNL A   1      46.007  28.749  31.128  1.00  0.00     0.049 A 
ATOM     59  H   UNL A   1      44.012  28.769  30.443  1.00  0.00     0.167 HD
ATOM     60  C   UNL A   1      45.724  26.544  30.029  1.00  0.00     0.074 A 
ATOM     61  C   UNL A   1      46.212  25.255  29.584  1.00  0.00     0.031 C 
ATOM     62  C   UNL A   1      46.479  27.461  30.682  1.00  0.00     0.037 A 
BRANCH  49  63
ATOM     63  C   UNL A   1      43.517  32.705  32.025  1.00  0.00     0.058 A 
ATOM     64  C   UNL A   1      43.037  32.928  33.325  1.00  0.00     0.135 A 
ATOM     65  C   UNL A   1      43.977  33.812  31.295  1.00  0.00     0.135 A 
ATOM     66  F   UNL A   1      42.595  31.902  34.069  1.00  0.00    -0.206 F 
ATOM     67  C   UNL A   1      42.985  34.206  33.871  1.00  0.00     0.059 A 
ATOM     68  C   UNL A   1      43.955  35.097  31.830  1.00  0.00     0.059 A 
ATOM     69  F   UNL A   1      44.467  33.647  30.056  1.00  0.00    -0.206 F 
ATOM     70  C   UNL A   1      43.439  35.286  33.112  1.00  0.00     0.060 A 
BRANCH  70  71
ATOM     71  S   UNL A   1      43.364  36.937  33.836  1.00  0.00     0.124 S 
ATOM     72  O   UNL A   1      43.328  37.785  32.650  1.00  0.00    -0.237 OA
ATOM     73  O   UNL A   1      42.129  36.875  34.612  1.00  0.00    -0.237 OA
ATOM     74  O   UNL A   1      44.588  37.015  34.629  1.00  0.00    -0.744 OA
ENDBRANCH  70  71
ENDBRANCH  49  63
BRANCH  50  75
ATOM     75  C   UNL A   1      42.719  23.701  27.771  1.00  0.00     0.058 A 
ATOM     76  C   UNL A   1      42.473  22.534  28.513  1.00  0.00     0.135 A 
ATOM     77  C   UNL A   1      42.887  23.571  26.385  1.00  0.00     0.135 A 
ATOM     78  F   UNL A   1      42.310  22.602  29.843  1.00  0.00    -0.206 F 
ATOM     79  C   UNL A   1      42.424  21.284  27.907  1.00  0.00     0.059 A 
ATOM     80  C   UNL A   1      42.817  22.333  25.753  1.00  0.00     0.059 A 
ATOM     81  F   UNL A   1      43.106  24.661  25.633  1.00  0.00    -0.206 F 
ATOM     82  C   UNL A   1      42.603  21.193  26.527  1.00  0.00     0.060 A 
BRANCH  82  83
ATOM     83  S   UNL A   1      42.551  19.557  25.764  1.00  0.00     0.124 S 
ATOM     84  O   UNL A   1      42.988  18.709  26.868  1.00  0.00    -0.237 OA
ATOM     85  O   UNL A   1      41.147  19.439  25.388  1.00  0.00    -0.237 OA
ATOM     86  O   UNL A   1      43.489  19.673  24.651  1.00  0.00    -0.744 OA
ENDBRANCH  82  83
ENDBRANCH  50  75
BRANCH  62  87
ATOM     87  C   UNL A   1      47.912  27.112  30.977  1.00  0.00     0.058 A 
ATOM     88  C   UNL A   1      48.924  27.417  30.052  1.00  0.00     0.135 A 
ATOM     89  C   UNL A   1      48.270  26.395  32.129  1.00  0.00     0.135 A 
ATOM     90  F   UNL A   1      48.633  28.097  28.931  1.00  0.00    -0.206 F 
ATOM     91  C   UNL A   1      50.236  27.004  30.247  1.00  0.00     0.059 A 
ATOM     92  C   UNL A   1      49.583  25.993  32.357  1.00  0.00     0.059 A 
ATOM     93  F   UNL A   1      47.343  26.088  33.048  1.00  0.00    -0.206 F 
ATOM     94  C   UNL A   1      50.556  26.285  31.400  1.00  0.00     0.060 A 
BRANCH  94  95
ATOM     95  S   UNL A   1      52.265  25.757  31.639  1.00  0.00     0.124 S 
ATOM     96  O   UNL A   1      52.851  26.039  30.334  1.00  0.00    -0.237 OA
ATOM     97  O   UNL A   1      52.705  26.620  32.732  1.00  0.00    -0.237 OA
ATOM     98  O   UNL A   1      52.139  24.343  31.980  1.00  0.00    -0.744 OA
ENDBRANCH  94  95
ENDBRANCH  62  87
ENDBRANCH  36  37
ENDBRANCH  29  31
ENDBRANCH  28  29
ENDBRANCH  27  28
ENDBRANCH  26  27
ENDBRANCH   1  26
TORSDOF 21
ENDMDL
