MODEL 1
REMARK VINA RESULT:     -10.2      0.000      0.000
REMARK SMILES C[C@@H]1C[C@H](C)CN(S(=O)(=O)N[C@](C)(C(=O)OCCOCCOC(=O)c2ccc(-c3c4nc(c(-c5c(F)cc(S(=O)(=O)[O-])cc5F)c5ccc([nH]5)c(-c5c(F)cc(S(=O)(=O)[O-])cc5F)c5nc(c(-c6c(F)cc(S(=O)(=O)[O-])cc6F)c6ccc3[nH]6)C=C5)C=C4)cc2)C2CC2)C1
REMARK SMILES IDX 19 1 18 2 17 3 16 4 14 5 15 6 12 7 13 8 11 9 8 11 9 12 10 13
REMARK SMILES IDX 7 14 1 15 2 16 3 17 94 18 4 19 5 20 6 21 91 22 92 23 93 24
REMARK SMILES IDX 20 25 21 26 22 27 23 28 24 29 25 30 26 31 90 32 27 33 89 34
REMARK SMILES IDX 28 35 29 36 30 37 83 38 31 39 88 40 82 41 84 42 32 43 87 44
REMARK SMILES IDX 81 45 80 46 33 48 67 49 46 50 66 51 47 52 50 53 65 54 85 55
REMARK SMILES IDX 48 56 49 57 64 59 86 60 51 61 34 62 35 63 44 64 36 65 37 66
REMARK SMILES IDX 43 67 45 68 38 69 39 70 40 71 41 72 42 73 68 74 69 75 78 76
REMARK SMILES IDX 70 77 71 78 77 79 79 80 72 81 73 82 74 83 75 84 76 85 52 86
REMARK SMILES IDX 53 87 62 88 54 89 55 90 61 91 63 92 56 93 57 94 58 95 59 96
REMARK SMILES IDX 60 97
REMARK H PARENT 11 10 84 47 50 58
REMARK Flexibility Score: inf
ROOT
ATOM      1  O   UNL A   1      39.282  22.433  26.337  1.00  0.00    -0.374 OA
ENDROOT
BRANCH   1   2
ATOM      2  C   UNL A   1      37.988  22.155  25.802  1.00  0.00     0.202 C 
BRANCH   2   3
ATOM      3  C   UNL A   1      37.250  23.239  25.010  1.00  0.00     0.261 C 
BRANCH   3   4
ATOM      4  O   UNL A   1      35.893  23.489  25.418  1.00  0.00    -0.462 OA
BRANCH   4   5
ATOM      5  C   UNL A   1      35.005  23.483  24.389  1.00  0.00     0.327 C 
ATOM      6  O   UNL A   1      35.347  23.459  23.214  1.00  0.00    -0.250 OA
BRANCH   5   7
ATOM      7  C   UNL A   1      33.531  23.509  24.815  1.00  0.00     0.131 C 
ATOM      8  C   UNL A   1      33.476  24.152  26.223  1.00  0.00     0.042 C 
BRANCH   7   9
ATOM      9  N   UNL A   1      32.675  24.265  23.863  1.00  0.00    -0.185 NA
ATOM     10  H   UNL A   1      33.182  25.126  23.657  1.00  0.00     0.143 HD
BRANCH   9  11
ATOM     11  S   UNL A   1      31.100  24.733  24.190  1.00  0.00     0.280 S 
ATOM     12  O   UNL A   1      30.782  24.400  25.556  1.00  0.00    -0.195 OA
ATOM     13  O   UNL A   1      30.349  24.109  23.125  1.00  0.00    -0.195 OA
BRANCH  11  14
ATOM     14  N   UNL A   1      30.962  26.400  23.971  1.00  0.00    -0.188 NA
ATOM     15  C   UNL A   1      32.174  28.353  27.066  1.00  0.00     0.009 C 
ATOM     16  C   UNL A   1      32.285  27.515  25.798  1.00  0.00     0.001 C 
ATOM     17  C   UNL A   1      33.129  28.269  24.760  1.00  0.00     0.009 C 
ATOM     18  C   UNL A   1      30.887  27.172  25.252  1.00  0.00     0.106 C 
ATOM     19  C   UNL A   1      33.181  27.483  23.456  1.00  0.00     0.001 C 
ATOM     20  C   UNL A   1      33.976  28.245  22.389  1.00  0.00     0.009 C 
ATOM     21  C   UNL A   1      31.752  27.186  22.987  1.00  0.00     0.106 C 
ENDBRANCH  11  14
ENDBRANCH   9  11
ENDBRANCH   7   9
BRANCH   7  22
ATOM     22  C   UNL A   1      32.963  22.079  24.971  1.00  0.00     0.021 C 
ATOM     23  C   UNL A   1      32.571  21.229  23.773  1.00  0.00     0.006 C 
ATOM     24  C   UNL A   1      33.738  20.818  24.611  1.00  0.00     0.006 C 
ENDBRANCH   7  22
ENDBRANCH   5   7
ENDBRANCH   4   5
ENDBRANCH   3   4
ENDBRANCH   2   3
ENDBRANCH   1   2
BRANCH   1  25
ATOM     25  C   UNL A   1      40.314  21.468  26.135  1.00  0.00     0.202 C 
BRANCH  25  26
ATOM     26  C   UNL A   1      41.757  21.958  26.195  1.00  0.00     0.261 C 
BRANCH  26  27
ATOM     27  O   UNL A   1      41.877  23.061  27.104  1.00  0.00    -0.460 OA
BRANCH  27  28
ATOM     28  C   UNL A   1      42.138  24.240  26.495  1.00  0.00     0.338 C 
ATOM     29  O   UNL A   1      42.574  24.403  25.368  1.00  0.00    -0.246 OA
BRANCH  28  30
ATOM     30  C   UNL A   1      41.620  25.350  27.317  1.00  0.00     0.060 A 
ATOM     31  C   UNL A   1      42.327  26.560  27.267  1.00  0.00     0.016 A 
ATOM     32  C   UNL A   1      40.504  25.209  28.143  1.00  0.00     0.016 A 
ATOM     33  C   UNL A   1      41.986  27.599  28.122  1.00  0.00     0.010 A 
ATOM     34  C   UNL A   1      40.164  26.251  29.006  1.00  0.00     0.010 A 
ATOM     35  C   UNL A   1      40.944  27.421  29.038  1.00  0.00    -0.014 A 
BRANCH  35  36
ATOM     36  C   UNL A   1      40.809  28.371  30.163  1.00  0.00     0.031 A 
ATOM     37  C   UNL A   1      41.731  28.216  31.341  1.00  0.00     0.074 A 
ATOM     38  C   UNL A   1      39.914  29.372  30.111  1.00  0.00     0.049 A 
ATOM     39  N   UNL A   1      41.768  28.889  32.459  1.00  0.00    -0.248 NA
ATOM     40  C   UNL A   1      42.747  27.152  31.247  1.00  0.00     0.031 C 
ATOM     41  C   UNL A   1      39.010  29.639  28.994  1.00  0.00     0.029 A 
ATOM     42  N   UNL A   1      39.615  30.344  31.030  1.00  0.00    -0.354 N 
ATOM     43  C   UNL A   1      42.794  28.323  33.207  1.00  0.00     0.074 A 
ATOM     44  C   UNL A   1      43.337  27.232  32.430  1.00  0.00     0.031 C 
ATOM     45  C   UNL A   1      38.244  30.699  29.299  1.00  0.00     0.029 A 
ATOM     46  C   UNL A   1      38.578  31.158  30.647  1.00  0.00     0.049 A 
ATOM     47  H   UNL A   1      40.099  30.448  31.881  1.00  0.00     0.167 HD
ATOM     48  C   UNL A   1      43.245  28.689  34.430  1.00  0.00     0.037 A 
ATOM     49  C   UNL A   1      37.953  32.140  31.323  1.00  0.00     0.037 A 
ATOM     50  C   UNL A   1      42.697  29.785  35.185  1.00  0.00     0.049 A 
ATOM     51  C   UNL A   1      38.431  32.490  32.708  1.00  0.00     0.074 A 
ATOM     52  C   UNL A   1      43.092  30.259  36.422  1.00  0.00     0.029 A 
ATOM     53  N   UNL A   1      41.631  30.574  34.776  1.00  0.00    -0.354 N 
ATOM     54  N   UNL A   1      39.413  31.961  33.400  1.00  0.00    -0.248 NA
ATOM     55  C   UNL A   1      37.721  33.572  33.403  1.00  0.00     0.031 C 
ATOM     56  C   UNL A   1      42.225  31.294  36.789  1.00  0.00     0.029 A 
ATOM     57  C   UNL A   1      41.333  31.512  35.750  1.00  0.00     0.049 A 
ATOM     58  H   UNL A   1      41.156  30.481  33.918  1.00  0.00     0.167 HD
ATOM     59  C   UNL A   1      39.457  32.664  34.600  1.00  0.00     0.074 A 
ATOM     60  C   UNL A   1      38.410  33.664  34.532  1.00  0.00     0.031 C 
ATOM     61  C   UNL A   1      40.289  32.502  35.660  1.00  0.00     0.037 A 
BRANCH  48  62
ATOM     62  C   UNL A   1      44.358  27.881  35.040  1.00  0.00     0.058 A 
ATOM     63  C   UNL A   1      45.709  28.213  34.856  1.00  0.00     0.135 A 
ATOM     64  C   UNL A   1      44.063  26.776  35.856  1.00  0.00     0.135 A 
ATOM     65  F   UNL A   1      46.052  29.245  34.069  1.00  0.00    -0.206 F 
ATOM     66  C   UNL A   1      46.729  27.468  35.442  1.00  0.00     0.059 A 
ATOM     67  C   UNL A   1      45.063  26.035  36.477  1.00  0.00     0.059 A 
ATOM     68  F   UNL A   1      42.787  26.408  36.061  1.00  0.00    -0.206 F 
ATOM     69  C   UNL A   1      46.395  26.382  36.254  1.00  0.00     0.060 A 
BRANCH  69  70
ATOM     70  S   UNL A   1      47.728  25.436  37.021  1.00  0.00     0.124 S 
ATOM     71  O   UNL A   1      48.322  24.777  35.861  1.00  0.00    -0.237 OA
ATOM     72  O   UNL A   1      48.537  26.483  37.636  1.00  0.00    -0.237 OA
ATOM     73  O   UNL A   1      47.030  24.555  37.952  1.00  0.00    -0.744 OA
ENDBRANCH  69  70
ENDBRANCH  48  62
BRANCH  49  74
ATOM     74  C   UNL A   1      36.798  32.845  30.704  1.00  0.00     0.058 A 
ATOM     75  C   UNL A   1      35.479  32.540  31.070  1.00  0.00     0.135 A 
ATOM     76  C   UNL A   1      36.995  33.849  29.742  1.00  0.00     0.135 A 
ATOM     77  F   UNL A   1      35.240  31.582  31.978  1.00  0.00    -0.206 F 
ATOM     78  C   UNL A   1      34.395  33.193  30.494  1.00  0.00     0.059 A 
ATOM     79  C   UNL A   1      35.928  34.537  29.174  1.00  0.00     0.059 A 
ATOM     80  F   UNL A   1      38.237  34.188  29.366  1.00  0.00    -0.206 F 
ATOM     81  C   UNL A   1      34.630  34.194  29.549  1.00  0.00     0.060 A 
BRANCH  81  82
ATOM     82  S   UNL A   1      33.215  35.067  28.844  1.00  0.00     0.124 S 
ATOM     83  O   UNL A   1      32.669  34.060  27.941  1.00  0.00    -0.237 OA
ATOM     84  O   UNL A   1      32.418  35.362  30.030  1.00  0.00    -0.237 OA
ATOM     85  O   UNL A   1      33.823  36.227  28.200  1.00  0.00    -0.744 OA
ENDBRANCH  81  82
ENDBRANCH  49  74
BRANCH  61  86
ATOM     86  C   UNL A   1      40.130  33.450  36.818  1.00  0.00     0.058 A 
ATOM     87  C   UNL A   1      40.905  34.613  36.938  1.00  0.00     0.135 A 
ATOM     88  C   UNL A   1      39.143  33.217  37.792  1.00  0.00     0.135 A 
ATOM     89  F   UNL A   1      41.866  34.881  36.038  1.00  0.00    -0.206 F 
ATOM     90  C   UNL A   1      40.728  35.498  37.997  1.00  0.00     0.059 A 
ATOM     91  C   UNL A   1      38.926  34.105  38.840  1.00  0.00     0.059 A 
ATOM     92  F   UNL A   1      38.363  32.126  37.718  1.00  0.00    -0.206 F 
ATOM     93  C   UNL A   1      39.733  35.237  38.941  1.00  0.00     0.060 A 
BRANCH  93  94
ATOM     94  S   UNL A   1      39.493  36.412  40.289  1.00  0.00     0.124 S 
ATOM     95  O   UNL A   1      38.983  35.546  41.347  1.00  0.00    -0.237 OA
ATOM     96  O   UNL A   1      40.840  36.935  40.490  1.00  0.00    -0.237 OA
ATOM     97  O   UNL A   1      38.531  37.366  39.742  1.00  0.00    -0.744 OA
ENDBRANCH  93  94
ENDBRANCH  61  86
ENDBRANCH  35  36
ENDBRANCH  28  30
ENDBRANCH  27  28
ENDBRANCH  26  27
ENDBRANCH  25  26
ENDBRANCH   1  25
TORSDOF 21
ENDMDL
MODEL 2
REMARK VINA RESULT:     -10.0      2.672      9.273
REMARK SMILES C[C@@H]1C[C@H](C)CN(S(=O)(=O)N[C@](C)(C(=O)OCCOCCOC(=O)c2ccc(-c3c4nc(c(-c5c(F)cc(S(=O)(=O)[O-])cc5F)c5ccc([nH]5)c(-c5c(F)cc(S(=O)(=O)[O-])cc5F)c5nc(c(-c6c(F)cc(S(=O)(=O)[O-])cc6F)c6ccc3[nH]6)C=C5)C=C4)cc2)C2CC2)C1
REMARK SMILES IDX 19 1 18 2 17 3 16 4 14 5 15 6 12 7 13 8 11 9 8 11 9 12 10 13
REMARK SMILES IDX 7 14 1 15 2 16 3 17 94 18 4 19 5 20 6 21 91 22 92 23 93 24
REMARK SMILES IDX 20 25 21 26 22 27 23 28 24 29 25 30 26 31 90 32 27 33 89 34
REMARK SMILES IDX 28 35 29 36 30 37 83 38 31 39 88 40 82 41 84 42 32 43 87 44
REMARK SMILES IDX 81 45 80 46 33 48 67 49 46 50 66 51 47 52 50 53 65 54 85 55
REMARK SMILES IDX 48 56 49 57 64 59 86 60 51 61 34 62 35 63 44 64 36 65 37 66
REMARK SMILES IDX 43 67 45 68 38 69 39 70 40 71 41 72 42 73 68 74 69 75 78 76
REMARK SMILES IDX 70 77 71 78 77 79 79 80 72 81 73 82 74 83 75 84 76 85 52 86
REMARK SMILES IDX 53 87 62 88 54 89 55 90 61 91 63 92 56 93 57 94 58 95 59 96
REMARK SMILES IDX 60 97
REMARK H PARENT 11 10 84 47 50 58
REMARK Flexibility Score: inf
ROOT
ATOM      1  O   UNL A   1      32.684  29.449  25.320  1.00  0.00    -0.374 OA
ENDROOT
BRANCH   1   2
ATOM      2  C   UNL A   1      32.562  29.324  23.903  1.00  0.00     0.202 C 
BRANCH   2   3
ATOM      3  C   UNL A   1      33.726  28.747  23.093  1.00  0.00     0.261 C 
BRANCH   3   4
ATOM      4  O   UNL A   1      33.531  27.414  22.588  1.00  0.00    -0.462 OA
BRANCH   4   5
ATOM      5  C   UNL A   1      33.423  26.473  23.563  1.00  0.00     0.327 C 
ATOM      6  O   UNL A   1      34.238  26.355  24.468  1.00  0.00    -0.250 OA
BRANCH   5   7
ATOM      7  C   UNL A   1      32.193  25.563  23.441  1.00  0.00     0.131 C 
ATOM      8  C   UNL A   1      31.814  25.509  21.941  1.00  0.00     0.042 C 
BRANCH   7   9
ATOM      9  N   UNL A   1      32.442  24.194  23.966  1.00  0.00    -0.185 NA
ATOM     10  H   UNL A   1      33.010  24.318  24.805  1.00  0.00     0.143 HD
BRANCH   9  11
ATOM     11  S   UNL A   1      33.187  22.976  23.089  1.00  0.00     0.280 S 
ATOM     12  O   UNL A   1      34.103  23.567  22.146  1.00  0.00    -0.195 OA
ATOM     13  O   UNL A   1      32.070  22.207  22.591  1.00  0.00    -0.195 OA
BRANCH  11  14
ATOM     14  N   UNL A   1      34.036  21.973  24.146  1.00  0.00    -0.188 NA
ATOM     15  C   UNL A   1      37.284  23.633  25.393  1.00  0.00     0.009 C 
ATOM     16  C   UNL A   1      35.785  23.379  25.283  1.00  0.00     0.001 C 
ATOM     17  C   UNL A   1      35.229  23.000  26.663  1.00  0.00     0.009 C 
ATOM     18  C   UNL A   1      35.497  22.289  24.235  1.00  0.00     0.106 C 
ATOM     19  C   UNL A   1      33.748  22.661  26.555  1.00  0.00     0.001 C 
ATOM     20  C   UNL A   1      33.185  22.229  27.915  1.00  0.00     0.009 C 
ATOM     21  C   UNL A   1      33.553  21.573  25.494  1.00  0.00     0.106 C 
ENDBRANCH  11  14
ENDBRANCH   9  11
ENDBRANCH   7   9
BRANCH   7  22
ATOM     22  C   UNL A   1      30.971  26.164  24.175  1.00  0.00     0.021 C 
ATOM     23  C   UNL A   1      30.167  25.370  25.191  1.00  0.00     0.006 C 
ATOM     24  C   UNL A   1      30.973  26.541  25.651  1.00  0.00     0.006 C 
ENDBRANCH   7  22
ENDBRANCH   5   7
ENDBRANCH   4   5
ENDBRANCH   3   4
ENDBRANCH   2   3
ENDBRANCH   1   2
BRANCH   1  25
ATOM     25  C   UNL A   1      31.858  30.404  25.984  1.00  0.00     0.202 C 
BRANCH  25  26
ATOM     26  C   UNL A   1      32.503  31.262  27.067  1.00  0.00     0.261 C 
BRANCH  26  27
ATOM     27  O   UNL A   1      33.867  30.868  27.274  1.00  0.00    -0.460 OA
BRANCH  27  28
ATOM     28  C   UNL A   1      34.538  31.669  28.134  1.00  0.00     0.338 C 
ATOM     29  O   UNL A   1      34.089  32.619  28.753  1.00  0.00    -0.246 OA
BRANCH  28  30
ATOM     30  C   UNL A   1      35.876  31.105  28.397  1.00  0.00     0.060 A 
ATOM     31  C   UNL A   1      35.931  29.767  28.811  1.00  0.00     0.016 A 
ATOM     32  C   UNL A   1      37.041  31.866  28.283  1.00  0.00     0.016 A 
ATOM     33  C   UNL A   1      37.137  29.215  29.216  1.00  0.00     0.010 A 
ATOM     34  C   UNL A   1      38.253  31.312  28.695  1.00  0.00     0.010 A 
ATOM     35  C   UNL A   1      38.290  30.008  29.220  1.00  0.00    -0.014 A 
BRANCH  35  36
ATOM     36  C   UNL A   1      39.479  29.541  29.964  1.00  0.00     0.031 A 
ATOM     37  C   UNL A   1      39.795  30.194  31.282  1.00  0.00     0.074 A 
ATOM     38  C   UNL A   1      40.229  28.531  29.494  1.00  0.00     0.049 A 
ATOM     39  N   UNL A   1      40.805  29.993  32.085  1.00  0.00    -0.248 NA
ATOM     40  C   UNL A   1      38.846  31.217  31.756  1.00  0.00     0.031 C 
ATOM     41  C   UNL A   1      39.977  27.799  28.254  1.00  0.00     0.029 A 
ATOM     42  N   UNL A   1      41.362  27.954  30.005  1.00  0.00    -0.354 N 
ATOM     43  C   UNL A   1      40.624  30.873  33.146  1.00  0.00     0.074 A 
ATOM     44  C   UNL A   1      39.424  31.630  32.873  1.00  0.00     0.031 C 
ATOM     45  C   UNL A   1      40.940  26.877  28.091  1.00  0.00     0.029 A 
ATOM     46  C   UNL A   1      41.894  26.982  29.194  1.00  0.00     0.049 A 
ATOM     47  H   UNL A   1      41.756  28.212  30.869  1.00  0.00     0.167 HD
ATOM     48  C   UNL A   1      41.390  31.026  34.253  1.00  0.00     0.037 A 
ATOM     49  C   UNL A   1      43.038  26.282  29.318  1.00  0.00     0.037 A 
ATOM     50  C   UNL A   1      42.577  30.255  34.511  1.00  0.00     0.049 A 
ATOM     51  C   UNL A   1      43.906  26.512  30.526  1.00  0.00     0.074 A 
ATOM     52  C   UNL A   1      43.415  30.309  35.610  1.00  0.00     0.029 A 
ATOM     53  N   UNL A   1      43.099  29.294  33.656  1.00  0.00    -0.354 N 
ATOM     54  N   UNL A   1      43.719  27.333  31.534  1.00  0.00    -0.248 NA
ATOM     55  C   UNL A   1      45.140  25.721  30.619  1.00  0.00     0.031 C 
ATOM     56  C   UNL A   1      44.478  29.427  35.391  1.00  0.00     0.029 A 
ATOM     57  C   UNL A   1      44.266  28.771  34.188  1.00  0.00     0.049 A 
ATOM     58  H   UNL A   1      42.699  29.024  32.798  1.00  0.00     0.167 HD
ATOM     59  C   UNL A   1      44.794  27.136  32.393  1.00  0.00     0.074 A 
ATOM     60  C   UNL A   1      45.622  26.109  31.792  1.00  0.00     0.031 C 
ATOM     61  C   UNL A   1      45.072  27.744  33.574  1.00  0.00     0.037 A 
BRANCH  48  62
ATOM     62  C   UNL A   1      40.988  32.083  35.245  1.00  0.00     0.058 A 
ATOM     63  C   UNL A   1      40.031  31.845  36.243  1.00  0.00     0.135 A 
ATOM     64  C   UNL A   1      41.603  33.346  35.218  1.00  0.00     0.135 A 
ATOM     65  F   UNL A   1      39.395  30.664  36.304  1.00  0.00    -0.206 F 
ATOM     66  C   UNL A   1      39.682  32.826  37.167  1.00  0.00     0.059 A 
ATOM     67  C   UNL A   1      41.294  34.332  36.149  1.00  0.00     0.059 A 
ATOM     68  F   UNL A   1      42.521  33.631  34.280  1.00  0.00    -0.206 F 
ATOM     69  C   UNL A   1      40.323  34.066  37.114  1.00  0.00     0.060 A 
BRANCH  69  70
ATOM     70  S   UNL A   1      39.872  35.322  38.330  1.00  0.00     0.124 S 
ATOM     71  O   UNL A   1      38.660  34.748  38.907  1.00  0.00    -0.237 OA
ATOM     72  O   UNL A   1      41.041  35.342  39.203  1.00  0.00    -0.237 OA
ATOM     73  O   UNL A   1      39.674  36.523  37.523  1.00  0.00    -0.744 OA
ENDBRANCH  69  70
ENDBRANCH  48  62
BRANCH  49  74
ATOM     74  C   UNL A   1      43.430  25.313  28.259  1.00  0.00     0.058 A 
ATOM     75  C   UNL A   1      44.152  25.724  27.129  1.00  0.00     0.135 A 
ATOM     76  C   UNL A   1      43.099  23.953  28.364  1.00  0.00     0.135 A 
ATOM     77  F   UNL A   1      44.483  27.015  26.978  1.00  0.00    -0.206 F 
ATOM     78  C   UNL A   1      44.520  24.825  26.134  1.00  0.00     0.059 A 
ATOM     79  C   UNL A   1      43.481  23.029  27.397  1.00  0.00     0.059 A 
ATOM     80  F   UNL A   1      42.419  23.505  29.431  1.00  0.00    -0.206 F 
ATOM     81  C   UNL A   1      44.184  23.478  26.279  1.00  0.00     0.060 A 
BRANCH  81  82
ATOM     82  S   UNL A   1      44.708  22.312  25.003  1.00  0.00     0.124 S 
ATOM     83  O   UNL A   1      45.936  21.778  25.581  1.00  0.00    -0.237 OA
ATOM     84  O   UNL A   1      43.576  21.394  24.948  1.00  0.00    -0.237 OA
ATOM     85  O   UNL A   1      44.880  23.158  23.826  1.00  0.00    -0.744 OA
ENDBRANCH  81  82
ENDBRANCH  49  74
BRANCH  61  86
ATOM     86  C   UNL A   1      46.301  27.290  34.316  1.00  0.00     0.058 A 
ATOM     87  C   UNL A   1      47.544  27.919  34.147  1.00  0.00     0.135 A 
ATOM     88  C   UNL A   1      46.216  26.248  35.254  1.00  0.00     0.135 A 
ATOM     89  F   UNL A   1      47.682  28.917  33.260  1.00  0.00    -0.206 F 
ATOM     90  C   UNL A   1      48.666  27.512  34.862  1.00  0.00     0.059 A 
ATOM     91  C   UNL A   1      47.317  25.847  36.004  1.00  0.00     0.059 A 
ATOM     92  F   UNL A   1      45.048  25.620  35.466  1.00  0.00    -0.206 F 
ATOM     93  C   UNL A   1      48.542  26.477  35.791  1.00  0.00     0.060 A 
BRANCH  93  94
ATOM     94  S   UNL A   1      49.999  25.984  36.734  1.00  0.00     0.124 S 
ATOM     95  O   UNL A   1      50.454  24.818  35.984  1.00  0.00    -0.237 OA
ATOM     96  O   UNL A   1      50.845  27.169  36.642  1.00  0.00    -0.237 OA
ATOM     97  O   UNL A   1      49.464  25.705  38.064  1.00  0.00    -0.744 OA
ENDBRANCH  93  94
ENDBRANCH  61  86
ENDBRANCH  35  36
ENDBRANCH  28  30
ENDBRANCH  27  28
ENDBRANCH  26  27
ENDBRANCH  25  26
ENDBRANCH   1  25
TORSDOF 21
ENDMDL
MODEL 3
REMARK VINA RESULT:     -10.0      1.314      8.272
REMARK SMILES C[C@@H]1C[C@H](C)CN(S(=O)(=O)N[C@](C)(C(=O)OCCOCCOC(=O)c2ccc(-c3c4nc(c(-c5c(F)cc(S(=O)(=O)[O-])cc5F)c5ccc([nH]5)c(-c5c(F)cc(S(=O)(=O)[O-])cc5F)c5nc(c(-c6c(F)cc(S(=O)(=O)[O-])cc6F)c6ccc3[nH]6)C=C5)C=C4)cc2)C2CC2)C1
REMARK SMILES IDX 19 1 18 2 17 3 16 4 14 5 15 6 12 7 13 8 11 9 8 11 9 12 10 13
REMARK SMILES IDX 7 14 1 15 2 16 3 17 94 18 4 19 5 20 6 21 91 22 92 23 93 24
REMARK SMILES IDX 20 25 21 26 22 27 23 28 24 29 25 30 26 31 90 32 27 33 89 34
REMARK SMILES IDX 28 35 29 36 30 37 83 38 31 39 88 40 82 41 84 42 32 43 87 44
REMARK SMILES IDX 81 45 80 46 33 48 67 49 46 50 66 51 47 52 50 53 65 54 85 55
REMARK SMILES IDX 48 56 49 57 64 59 86 60 51 61 34 62 35 63 44 64 36 65 37 66
REMARK SMILES IDX 43 67 45 68 38 69 39 70 40 71 41 72 42 73 68 74 69 75 78 76
REMARK SMILES IDX 70 77 71 78 77 79 79 80 72 81 73 82 74 83 75 84 76 85 52 86
REMARK SMILES IDX 53 87 62 88 54 89 55 90 61 91 63 92 56 93 57 94 58 95 59 96
REMARK SMILES IDX 60 97
REMARK H PARENT 11 10 84 47 50 58
REMARK Flexibility Score: inf
ROOT
ATOM      1  O   UNL A   1      39.794  21.802  25.764  1.00  0.00    -0.374 OA
ENDROOT
BRANCH   1   2
ATOM      2  C   UNL A   1      38.478  21.330  26.052  1.00  0.00     0.202 C 
BRANCH   2   3
ATOM      3  C   UNL A   1      37.305  21.782  25.177  1.00  0.00     0.261 C 
BRANCH   3   4
ATOM      4  O   UNL A   1      36.019  21.248  25.541  1.00  0.00    -0.462 OA
BRANCH   4   5
ATOM      5  C   UNL A   1      34.989  21.772  24.825  1.00  0.00     0.327 C 
ATOM      6  O   UNL A   1      35.153  22.430  23.807  1.00  0.00    -0.250 OA
BRANCH   5   7
ATOM      7  C   UNL A   1      33.596  21.471  25.393  1.00  0.00     0.131 C 
ATOM      8  C   UNL A   1      33.776  21.163  26.900  1.00  0.00     0.042 C 
BRANCH   7   9
ATOM      9  N   UNL A   1      32.646  22.600  25.201  1.00  0.00    -0.185 NA
ATOM     10  H   UNL A   1      32.826  22.957  24.262  1.00  0.00     0.143 HD
BRANCH   9  11
ATOM     11  S   UNL A   1      32.581  23.948  26.194  1.00  0.00     0.280 S 
ATOM     12  O   UNL A   1      33.922  24.416  26.442  1.00  0.00    -0.195 OA
ATOM     13  O   UNL A   1      31.783  23.492  27.308  1.00  0.00    -0.195 OA
BRANCH  11  14
ATOM     14  N   UNL A   1      31.697  25.160  25.423  1.00  0.00    -0.188 NA
ATOM     15  C   UNL A   1      31.553  28.386  27.529  1.00  0.00     0.009 C 
ATOM     16  C   UNL A   1      32.163  27.320  26.626  1.00  0.00     0.001 C 
ATOM     17  C   UNL A   1      32.645  27.971  25.321  1.00  0.00     0.009 C 
ATOM     18  C   UNL A   1      31.148  26.194  26.358  1.00  0.00     0.106 C 
ATOM     19  C   UNL A   1      33.181  26.906  24.372  1.00  0.00     0.001 C 
ATOM     20  C   UNL A   1      33.620  27.531  23.042  1.00  0.00     0.009 C 
ATOM     21  C   UNL A   1      32.111  25.829  24.163  1.00  0.00     0.106 C 
ENDBRANCH  11  14
ENDBRANCH   9  11
ENDBRANCH   7   9
BRANCH   7  22
ATOM     22  C   UNL A   1      32.990  20.197  24.760  1.00  0.00     0.021 C 
ATOM     23  C   UNL A   1      33.836  18.982  24.418  1.00  0.00     0.006 C 
ATOM     24  C   UNL A   1      32.821  18.881  25.508  1.00  0.00     0.006 C 
ENDBRANCH   7  22
ENDBRANCH   5   7
ENDBRANCH   4   5
ENDBRANCH   3   4
ENDBRANCH   2   3
ENDBRANCH   1   2
BRANCH   1  25
ATOM     25  C   UNL A   1      40.552  22.375  26.829  1.00  0.00     0.202 C 
BRANCH  25  26
ATOM     26  C   UNL A   1      41.376  23.619  26.517  1.00  0.00     0.261 C 
BRANCH  26  27
ATOM     27  O   UNL A   1      40.518  24.740  26.262  1.00  0.00    -0.460 OA
BRANCH  27  28
ATOM     28  C   UNL A   1      41.174  25.921  26.194  1.00  0.00     0.338 C 
ATOM     29  O   UNL A   1      41.456  26.546  25.186  1.00  0.00    -0.246 OA
BRANCH  28  30
ATOM     30  C   UNL A   1      41.333  26.480  27.550  1.00  0.00     0.060 A 
ATOM     31  C   UNL A   1      40.319  26.196  28.476  1.00  0.00     0.016 A 
ATOM     32  C   UNL A   1      42.414  27.290  27.901  1.00  0.00     0.016 A 
ATOM     33  C   UNL A   1      40.326  26.806  29.722  1.00  0.00     0.010 A 
ATOM     34  C   UNL A   1      42.419  27.908  29.152  1.00  0.00     0.010 A 
ATOM     35  C   UNL A   1      41.343  27.715  30.037  1.00  0.00    -0.014 A 
BRANCH  35  36
ATOM     36  C   UNL A   1      41.168  28.612  31.199  1.00  0.00     0.031 A 
ATOM     37  C   UNL A   1      40.069  29.638  31.146  1.00  0.00     0.074 A 
ATOM     38  C   UNL A   1      41.943  28.484  32.288  1.00  0.00     0.049 A 
ATOM     39  N   UNL A   1      39.757  30.563  32.013  1.00  0.00    -0.248 NA
ATOM     40  C   UNL A   1      39.208  29.621  29.950  1.00  0.00     0.031 C 
ATOM     41  C   UNL A   1      43.001  27.490  32.458  1.00  0.00     0.029 A 
ATOM     42  N   UNL A   1      41.963  29.204  33.453  1.00  0.00    -0.354 N 
ATOM     43  C   UNL A   1      38.679  31.248  31.463  1.00  0.00     0.074 A 
ATOM     44  C   UNL A   1      38.408  30.652  30.174  1.00  0.00     0.031 C 
ATOM     45  C   UNL A   1      43.580  27.672  33.656  1.00  0.00     0.029 A 
ATOM     46  C   UNL A   1      42.959  28.819  34.317  1.00  0.00     0.049 A 
ATOM     47  H   UNL A   1      41.325  29.926  33.652  1.00  0.00     0.167 HD
ATOM     48  C   UNL A   1      37.975  32.276  31.992  1.00  0.00     0.037 A 
ATOM     49  C   UNL A   1      43.341  29.354  35.492  1.00  0.00     0.037 A 
ATOM     50  C   UNL A   1      38.255  32.850  33.282  1.00  0.00     0.049 A 
ATOM     51  C   UNL A   1      42.583  30.538  36.034  1.00  0.00     0.074 A 
ATOM     52  C   UNL A   1      37.592  33.878  33.928  1.00  0.00     0.029 A 
ATOM     53  N   UNL A   1      39.287  32.450  34.121  1.00  0.00    -0.354 N 
ATOM     54  N   UNL A   1      41.555  31.168  35.515  1.00  0.00    -0.248 NA
ATOM     55  C   UNL A   1      43.034  31.083  37.322  1.00  0.00     0.031 C 
ATOM     56  C   UNL A   1      38.261  34.141  35.128  1.00  0.00     0.029 A 
ATOM     57  C   UNL A   1      39.298  33.231  35.264  1.00  0.00     0.049 A 
ATOM     58  H   UNL A   1      39.917  31.718  33.931  1.00  0.00     0.167 HD
ATOM     59  C   UNL A   1      41.217  32.163  36.426  1.00  0.00     0.074 A 
ATOM     60  C   UNL A   1      42.144  32.043  37.534  1.00  0.00     0.031 C 
ATOM     61  C   UNL A   1      40.229  33.090  36.357  1.00  0.00     0.037 A 
BRANCH  48  62
ATOM     62  C   UNL A   1      36.864  32.867  31.168  1.00  0.00     0.058 A 
ATOM     63  C   UNL A   1      35.517  32.533  31.382  1.00  0.00     0.135 A 
ATOM     64  C   UNL A   1      37.151  33.814  30.171  1.00  0.00     0.135 A 
ATOM     65  F   UNL A   1      35.185  31.618  32.306  1.00  0.00    -0.206 F 
ATOM     66  C   UNL A   1      34.497  33.101  30.624  1.00  0.00     0.059 A 
ATOM     67  C   UNL A   1      36.146  34.419  29.423  1.00  0.00     0.059 A 
ATOM     68  F   UNL A   1      38.423  34.166  29.919  1.00  0.00    -0.206 F 
ATOM     69  C   UNL A   1      34.822  34.047  29.649  1.00  0.00     0.060 A 
BRANCH  69  70
ATOM     70  S   UNL A   1      33.486  34.788  28.687  1.00  0.00     0.124 S 
ATOM     71  O   UNL A   1      32.519  35.110  29.732  1.00  0.00    -0.237 OA
ATOM     72  O   UNL A   1      34.149  35.928  28.064  1.00  0.00    -0.237 OA
ATOM     73  O   UNL A   1      33.089  33.720  27.775  1.00  0.00    -0.744 OA
ENDBRANCH  69  70
ENDBRANCH  48  62
BRANCH  49  74
ATOM     74  C   UNL A   1      44.506  28.784  36.221  1.00  0.00     0.058 A 
ATOM     75  C   UNL A   1      44.354  27.707  37.107  1.00  0.00     0.135 A 
ATOM     76  C   UNL A   1      45.798  29.299  36.034  1.00  0.00     0.135 A 
ATOM     77  F   UNL A   1      43.137  27.186  37.326  1.00  0.00    -0.206 F 
ATOM     78  C   UNL A   1      45.438  27.171  37.793  1.00  0.00     0.059 A 
ATOM     79  C   UNL A   1      46.902  28.761  36.686  1.00  0.00     0.059 A 
ATOM     80  F   UNL A   1      46.000  30.322  35.188  1.00  0.00    -0.206 F 
ATOM     81  C   UNL A   1      46.710  27.702  37.572  1.00  0.00     0.060 A 
BRANCH  81  82
ATOM     82  S   UNL A   1      48.117  26.966  38.433  1.00  0.00     0.124 S 
ATOM     83  O   UNL A   1      49.085  28.057  38.399  1.00  0.00    -0.237 OA
ATOM     84  O   UNL A   1      47.545  26.660  39.740  1.00  0.00    -0.237 OA
ATOM     85  O   UNL A   1      48.444  25.806  37.611  1.00  0.00    -0.744 OA
ENDBRANCH  81  82
ENDBRANCH  49  74
BRANCH  61  86
ATOM     86  C   UNL A   1      40.071  34.026  37.526  1.00  0.00     0.058 A 
ATOM     87  C   UNL A   1      40.711  35.274  37.570  1.00  0.00     0.135 A 
ATOM     88  C   UNL A   1      39.219  33.689  38.591  1.00  0.00     0.135 A 
ATOM     89  F   UNL A   1      41.540  35.643  36.580  1.00  0.00    -0.206 F 
ATOM     90  C   UNL A   1      40.533  36.144  38.640  1.00  0.00     0.059 A 
ATOM     91  C   UNL A   1      39.000  34.557  39.656  1.00  0.00     0.059 A 
ATOM     92  F   UNL A   1      38.571  32.513  38.595  1.00  0.00    -0.206 F 
ATOM     93  C   UNL A   1      39.673  35.778  39.678  1.00  0.00     0.060 A 
BRANCH  93  94
ATOM     94  S   UNL A   1      39.427  36.932  41.043  1.00  0.00     0.124 S 
ATOM     95  O   UNL A   1      38.692  38.009  40.388  1.00  0.00    -0.237 OA
ATOM     96  O   UNL A   1      38.664  36.130  41.994  1.00  0.00    -0.237 OA
ATOM     97  O   UNL A   1      40.787  37.262  41.459  1.00  0.00    -0.744 OA
ENDBRANCH  93  94
ENDBRANCH  61  86
ENDBRANCH  35  36
ENDBRANCH  28  30
ENDBRANCH  27  28
ENDBRANCH  26  27
ENDBRANCH  25  26
ENDBRANCH   1  25
TORSDOF 21
ENDMDL
