MODEL 1
REMARK VINA RESULT:     -12.3      0.000      0.000
REMARK SMILES O=C(Cc1ccc(NC(=O)c2ccc(N3C(=O)c4ccccc4C3=O)cc2)cc1)OCCOCCOC(=O)c1ccc(-c2c3nc(c(-c4c(F)cc(S(=O)(=O)[O-])cc4F)c4ccc([nH]4)c(-c4c(F)cc(S(=O)(=O)[O-])cc4F)c4nc(c(-c5c(F)cc(S(=O)(=O)[O-])cc5F)c5ccc2[nH]5)C=C4)C=C3)cc1
REMARK SMILES IDX 32 1 31 2 30 3 2 4 1 5 3 6 4 7 5 8 29 9 6 10 28 11 7 12 8 13
REMARK SMILES IDX 9 14 10 16 11 17 12 18 27 19 13 20 26 21 14 22 15 23 16 24
REMARK SMILES IDX 24 25 17 26 18 27 23 28 25 29 19 30 22 31 20 32 21 33 33 34
REMARK SMILES IDX 34 35 35 36 36 37 37 38 38 39 39 40 40 41 104 42 41 43
REMARK SMILES IDX 103 44 42 45 43 46 44 47 97 48 45 49 102 50 96 51 98 52
REMARK SMILES IDX 46 53 101 54 95 55 94 56 47 58 81 59 60 60 80 61 61 62 64 63
REMARK SMILES IDX 79 64 99 65 62 66 63 67 78 69 100 70 65 71 48 72 49 73 58 74
REMARK SMILES IDX 50 75 51 76 57 77 59 78 52 79 53 80 54 81 55 82 56 83 82 84
REMARK SMILES IDX 83 85 92 86 84 87 85 88 91 89 93 90 86 91 87 92 88 93 89 94
REMARK SMILES IDX 90 95 66 96 67 97 76 98 68 99 69 100 75 101 77 102 70 103
REMARK SMILES IDX 71 104 72 105 73 106 74 107
REMARK H PARENT 8 15 98 57 64 68
REMARK Flexibility Score: inf
ROOT
ATOM      1  C   UNL A   1      33.802  33.989  29.164  1.00  0.00     0.202 C 
ENDROOT
BRANCH   1   2
ATOM      2  C   UNL A   1      33.649  33.011  27.996  1.00  0.00     0.261 C 
BRANCH   2   3
ATOM      3  O   UNL A   1      33.980  31.641  28.266  1.00  0.00    -0.463 OA
BRANCH   3   4
ATOM      4  C   UNL A   1      35.097  30.992  27.861  1.00  0.00     0.310 C 
ATOM      5  O   UNL A   1      36.133  31.635  27.687  1.00  0.00    -0.252 OA
BRANCH   4   6
ATOM      6  C   UNL A   1      35.052  29.530  27.482  1.00  0.00     0.158 C 
BRANCH   6   7
ATOM      7  C   UNL A   1      33.835  29.060  26.741  1.00  0.00    -0.037 A 
ATOM      8  C   UNL A   1      32.793  28.441  27.437  1.00  0.00     0.006 A 
ATOM      9  C   UNL A   1      33.752  29.175  25.348  1.00  0.00     0.006 A 
ATOM     10  C   UNL A   1      31.686  27.953  26.750  1.00  0.00     0.026 A 
ATOM     11  C   UNL A   1      32.618  28.720  24.672  1.00  0.00     0.026 A 
ATOM     12  C   UNL A   1      31.545  28.174  25.379  1.00  0.00     0.041 A 
BRANCH  12  13
ATOM     13  N   UNL A   1      30.362  27.917  24.660  1.00  0.00    -0.322 N 
ATOM     14  C   UNL A   1      29.931  26.783  23.996  1.00  0.00     0.255 C 
ATOM     15  H   UNL A   1      29.733  28.673  24.625  1.00  0.00     0.170 HD
ATOM     16  O   UNL A   1      28.891  26.803  23.341  1.00  0.00    -0.269 OA
BRANCH  14  17
ATOM     17  C   UNL A   1      30.673  25.508  24.105  1.00  0.00     0.040 A 
ATOM     18  C   UNL A   1      30.409  24.663  25.179  1.00  0.00     0.016 A 
ATOM     19  C   UNL A   1      31.566  25.105  23.114  1.00  0.00     0.016 A 
ATOM     20  C   UNL A   1      30.935  23.362  25.188  1.00  0.00     0.028 A 
ATOM     21  C   UNL A   1      32.063  23.797  23.117  1.00  0.00     0.028 A 
ATOM     22  C   UNL A   1      31.732  22.882  24.133  1.00  0.00     0.052 A 
BRANCH  22  23
ATOM     23  N   UNL A   1      32.167  21.520  24.070  1.00  0.00    -0.242 N 
ATOM     24  C   UNL A   1      32.062  20.710  22.957  1.00  0.00     0.266 C 
ATOM     25  C   UNL A   1      32.728  20.809  25.119  1.00  0.00     0.266 C 
ATOM     26  O   UNL A   1      31.619  20.903  21.836  1.00  0.00    -0.268 OA
ATOM     27  C   UNL A   1      32.617  19.411  23.306  1.00  0.00     0.053 A 
ATOM     28  C   UNL A   1      33.009  19.462  24.623  1.00  0.00     0.053 A 
ATOM     29  O   UNL A   1      32.989  21.117  26.264  1.00  0.00    -0.268 OA
ATOM     30  C   UNL A   1      32.775  18.278  22.530  1.00  0.00     0.015 A 
ATOM     31  C   UNL A   1      33.571  18.367  25.254  1.00  0.00     0.015 A 
ATOM     32  C   UNL A   1      33.351  17.162  23.139  1.00  0.00     0.001 A 
ATOM     33  C   UNL A   1      33.741  17.203  24.492  1.00  0.00     0.001 A 
ENDBRANCH  22  23
ENDBRANCH  14  17
ENDBRANCH  12  13
ENDBRANCH   6   7
ENDBRANCH   4   6
ENDBRANCH   3   4
ENDBRANCH   2   3
ENDBRANCH   1   2
BRANCH   1  34
ATOM     34  O   UNL A   1      34.039  33.484  30.471  1.00  0.00    -0.374 OA
BRANCH  34  35
ATOM     35  C   UNL A   1      35.393  33.308  30.898  1.00  0.00     0.202 C 
BRANCH  35  36
ATOM     36  C   UNL A   1      35.757  32.077  31.730  1.00  0.00     0.261 C 
BRANCH  36  37
ATOM     37  O   UNL A   1      36.095  30.950  30.911  1.00  0.00    -0.460 OA
BRANCH  37  38
ATOM     38  C   UNL A   1      36.960  30.083  31.491  1.00  0.00     0.338 C 
ATOM     39  O   UNL A   1      36.687  29.185  32.270  1.00  0.00    -0.246 OA
BRANCH  38  40
ATOM     40  C   UNL A   1      38.291  30.224  30.875  1.00  0.00     0.060 A 
ATOM     41  C   UNL A   1      38.376  30.038  29.490  1.00  0.00     0.016 A 
ATOM     42  C   UNL A   1      39.437  30.445  31.642  1.00  0.00     0.016 A 
ATOM     43  C   UNL A   1      39.620  29.955  28.879  1.00  0.00     0.010 A 
ATOM     44  C   UNL A   1      40.687  30.359  31.029  1.00  0.00     0.010 A 
ATOM     45  C   UNL A   1      40.777  30.039  29.662  1.00  0.00    -0.014 A 
BRANCH  45  46
ATOM     46  C   UNL A   1      42.047  29.535  29.093  1.00  0.00     0.031 A 
ATOM     47  C   UNL A   1      43.216  30.483  29.019  1.00  0.00     0.074 A 
ATOM     48  C   UNL A   1      42.176  28.248  28.730  1.00  0.00     0.049 A 
ATOM     49  N   UNL A   1      44.431  30.272  28.589  1.00  0.00    -0.248 NA
ATOM     50  C   UNL A   1      42.981  31.859  29.492  1.00  0.00     0.031 C 
ATOM     51  C   UNL A   1      41.120  27.240  28.807  1.00  0.00     0.029 A 
ATOM     52  N   UNL A   1      43.256  27.570  28.232  1.00  0.00    -0.354 N 
ATOM     53  C   UNL A   1      45.097  31.486  28.724  1.00  0.00     0.074 A 
ATOM     54  C   UNL A   1      44.143  32.439  29.241  1.00  0.00     0.031 C 
ATOM     55  C   UNL A   1      41.608  26.065  28.372  1.00  0.00     0.029 A 
ATOM     56  C   UNL A   1      42.999  26.249  27.961  1.00  0.00     0.049 A 
ATOM     57  H   UNL A   1      44.135  27.990  28.082  1.00  0.00     0.167 HD
ATOM     58  C   UNL A   1      46.391  31.773  28.452  1.00  0.00     0.037 A 
ATOM     59  C   UNL A   1      43.797  25.303  27.431  1.00  0.00     0.037 A 
ATOM     60  C   UNL A   1      47.332  30.808  27.950  1.00  0.00     0.049 A 
ATOM     61  C   UNL A   1      45.222  25.659  27.095  1.00  0.00     0.074 A 
ATOM     62  C   UNL A   1      48.672  30.981  27.657  1.00  0.00     0.029 A 
ATOM     63  N   UNL A   1      47.026  29.485  27.660  1.00  0.00    -0.354 N 
ATOM     64  N   UNL A   1      45.846  26.806  27.243  1.00  0.00    -0.248 NA
ATOM     65  C   UNL A   1      46.056  24.589  26.533  1.00  0.00     0.031 C 
ATOM     66  C   UNL A   1      49.163  29.779  27.136  1.00  0.00     0.029 A 
ATOM     67  C   UNL A   1      48.147  28.836  27.170  1.00  0.00     0.049 A 
ATOM     68  H   UNL A   1      46.143  29.068  27.785  1.00  0.00     0.167 HD
ATOM     69  C   UNL A   1      47.156  26.582  26.832  1.00  0.00     0.074 A 
ATOM     70  C   UNL A   1      47.234  25.191  26.436  1.00  0.00     0.031 C 
ATOM     71  C   UNL A   1      48.204  27.445  26.793  1.00  0.00     0.037 A 
BRANCH  58  72
ATOM     72  C   UNL A   1      46.852  33.192  28.658  1.00  0.00     0.058 A 
ATOM     73  C   UNL A   1      46.763  34.162  27.646  1.00  0.00     0.135 A 
ATOM     74  C   UNL A   1      47.372  33.593  29.899  1.00  0.00     0.135 A 
ATOM     75  F   UNL A   1      46.294  33.833  26.432  1.00  0.00    -0.206 F 
ATOM     76  C   UNL A   1      47.198  35.469  27.848  1.00  0.00     0.059 A 
ATOM     77  C   UNL A   1      47.784  34.901  30.134  1.00  0.00     0.059 A 
ATOM     78  F   UNL A   1      47.488  32.706  30.901  1.00  0.00    -0.206 F 
ATOM     79  C   UNL A   1      47.705  35.829  29.098  1.00  0.00     0.060 A 
BRANCH  79  80
ATOM     80  S   UNL A   1      48.258  37.530  29.349  1.00  0.00     0.124 S 
ATOM     81  O   UNL A   1      48.149  37.662  30.798  1.00  0.00    -0.237 OA
ATOM     82  O   UNL A   1      49.617  37.497  28.817  1.00  0.00    -0.237 OA
ATOM     83  O   UNL A   1      47.303  38.316  28.575  1.00  0.00    -0.744 OA
ENDBRANCH  79  80
ENDBRANCH  58  72
BRANCH  59  84
ATOM     84  C   UNL A   1      43.273  23.931  27.198  1.00  0.00     0.058 A 
ATOM     85  C   UNL A   1      42.935  23.490  25.910  1.00  0.00     0.135 A 
ATOM     86  C   UNL A   1      43.103  23.029  28.261  1.00  0.00     0.135 A 
ATOM     87  F   UNL A   1      43.073  24.316  24.862  1.00  0.00    -0.206 F 
ATOM     88  C   UNL A   1      42.429  22.214  25.686  1.00  0.00     0.059 A 
ATOM     89  C   UNL A   1      42.627  21.738  28.058  1.00  0.00     0.059 A 
ATOM     90  F   UNL A   1      43.426  23.395  29.512  1.00  0.00    -0.206 F 
ATOM     91  C   UNL A   1      42.281  21.344  26.766  1.00  0.00     0.060 A 
BRANCH  91  92
ATOM     92  S   UNL A   1      41.664  19.676  26.457  1.00  0.00     0.124 S 
ATOM     93  O   UNL A   1      42.170  18.954  27.618  1.00  0.00    -0.237 OA
ATOM     94  O   UNL A   1      40.221  19.888  26.414  1.00  0.00    -0.237 OA
ATOM     95  O   UNL A   1      42.275  19.323  25.178  1.00  0.00    -0.744 OA
ENDBRANCH  91  92
ENDBRANCH  59  84
BRANCH  71  96
ATOM     96  C   UNL A   1      49.538  26.893  26.367  1.00  0.00     0.058 A 
ATOM     97  C   UNL A   1      49.991  26.971  25.041  1.00  0.00     0.135 A 
ATOM     98  C   UNL A   1      50.387  26.299  27.316  1.00  0.00     0.135 A 
ATOM     99  F   UNL A   1      49.219  27.528  24.094  1.00  0.00    -0.206 F 
ATOM    100  C   UNL A   1      51.220  26.439  24.662  1.00  0.00     0.059 A 
ATOM    101  C   UNL A   1      51.635  25.793  26.966  1.00  0.00     0.059 A 
ATOM    102  F   UNL A   1      50.012  26.213  28.603  1.00  0.00    -0.206 F 
ATOM    103  C   UNL A   1      52.033  25.849  25.631  1.00  0.00     0.060 A 
BRANCH 103 104
ATOM    104  S   UNL A   1      53.623  25.162  25.127  1.00  0.00     0.124 S 
ATOM    105  O   UNL A   1      54.522  25.751  26.114  1.00  0.00    -0.237 OA
ATOM    106  O   UNL A   1      53.397  23.726  25.253  1.00  0.00    -0.237 OA
ATOM    107  O   UNL A   1      53.787  25.648  23.760  1.00  0.00    -0.744 OA
ENDBRANCH 103 104
ENDBRANCH  71  96
ENDBRANCH  45  46
ENDBRANCH  38  40
ENDBRANCH  37  38
ENDBRANCH  36  37
ENDBRANCH  35  36
ENDBRANCH  34  35
ENDBRANCH   1  34
TORSDOF 21
ENDMDL
MODEL 2
REMARK VINA RESULT:     -11.5      0.922      7.948
REMARK SMILES O=C(Cc1ccc(NC(=O)c2ccc(N3C(=O)c4ccccc4C3=O)cc2)cc1)OCCOCCOC(=O)c1ccc(-c2c3nc(c(-c4c(F)cc(S(=O)(=O)[O-])cc4F)c4ccc([nH]4)c(-c4c(F)cc(S(=O)(=O)[O-])cc4F)c4nc(c(-c5c(F)cc(S(=O)(=O)[O-])cc5F)c5ccc2[nH]5)C=C4)C=C3)cc1
REMARK SMILES IDX 32 1 31 2 30 3 2 4 1 5 3 6 4 7 5 8 29 9 6 10 28 11 7 12 8 13
REMARK SMILES IDX 9 14 10 16 11 17 12 18 27 19 13 20 26 21 14 22 15 23 16 24
REMARK SMILES IDX 24 25 17 26 18 27 23 28 25 29 19 30 22 31 20 32 21 33 33 34
REMARK SMILES IDX 34 35 35 36 36 37 37 38 38 39 39 40 40 41 104 42 41 43
REMARK SMILES IDX 103 44 42 45 43 46 44 47 97 48 45 49 102 50 96 51 98 52
REMARK SMILES IDX 46 53 101 54 95 55 94 56 47 58 81 59 60 60 80 61 61 62 64 63
REMARK SMILES IDX 79 64 99 65 62 66 63 67 78 69 100 70 65 71 48 72 49 73 58 74
REMARK SMILES IDX 50 75 51 76 57 77 59 78 52 79 53 80 54 81 55 82 56 83 82 84
REMARK SMILES IDX 83 85 92 86 84 87 85 88 91 89 93 90 86 91 87 92 88 93 89 94
REMARK SMILES IDX 90 95 66 96 67 97 76 98 68 99 69 100 75 101 77 102 70 103
REMARK SMILES IDX 71 104 72 105 73 106 74 107
REMARK H PARENT 8 15 98 57 64 68
REMARK Flexibility Score: inf
ROOT
ATOM      1  C   UNL A   1      34.279  34.173  29.573  1.00  0.00     0.202 C 
ENDROOT
BRANCH   1   2
ATOM      2  C   UNL A   1      34.116  33.610  28.159  1.00  0.00     0.261 C 
BRANCH   2   3
ATOM      3  O   UNL A   1      33.982  32.184  28.054  1.00  0.00    -0.463 OA
BRANCH   3   4
ATOM      4  C   UNL A   1      34.993  31.286  28.007  1.00  0.00     0.310 C 
ATOM      5  O   UNL A   1      36.156  31.692  28.008  1.00  0.00    -0.252 OA
BRANCH   4   6
ATOM      6  C   UNL A   1      34.716  29.814  27.808  1.00  0.00     0.158 C 
BRANCH   6   7
ATOM      7  C   UNL A   1      33.797  29.445  26.680  1.00  0.00    -0.037 A 
ATOM      8  C   UNL A   1      32.417  29.612  26.826  1.00  0.00     0.006 A 
ATOM      9  C   UNL A   1      34.296  28.875  25.503  1.00  0.00     0.006 A 
ATOM     10  C   UNL A   1      31.555  29.221  25.805  1.00  0.00     0.026 A 
ATOM     11  C   UNL A   1      33.426  28.525  24.468  1.00  0.00     0.026 A 
ATOM     12  C   UNL A   1      32.055  28.766  24.585  1.00  0.00     0.041 A 
BRANCH  12  13
ATOM     13  N   UNL A   1      31.265  28.570  23.436  1.00  0.00    -0.322 N 
ATOM     14  C   UNL A   1      31.014  27.434  22.689  1.00  0.00     0.255 C 
ATOM     15  H   UNL A   1      30.813  29.381  23.109  1.00  0.00     0.170 HD
ATOM     16  O   UNL A   1      30.360  27.504  21.651  1.00  0.00    -0.269 OA
BRANCH  14  17
ATOM     17  C   UNL A   1      31.469  26.104  23.149  1.00  0.00     0.040 A 
ATOM     18  C   UNL A   1      30.764  25.462  24.163  1.00  0.00     0.016 A 
ATOM     19  C   UNL A   1      32.536  25.454  22.533  1.00  0.00     0.016 A 
ATOM     20  C   UNL A   1      31.041  24.119  24.462  1.00  0.00     0.028 A 
ATOM     21  C   UNL A   1      32.788  24.107  22.819  1.00  0.00     0.028 A 
ATOM     22  C   UNL A   1      32.024  23.396  23.763  1.00  0.00     0.052 A 
BRANCH  22  23
ATOM     23  N   UNL A   1      32.228  21.995  23.973  1.00  0.00    -0.242 N 
ATOM     24  C   UNL A   1      32.600  21.424  25.173  1.00  0.00     0.266 C 
ATOM     25  C   UNL A   1      32.112  21.015  23.000  1.00  0.00     0.266 C 
ATOM     26  O   UNL A   1      32.833  21.897  26.274  1.00  0.00    -0.268 OA
ATOM     27  C   UNL A   1      32.698  19.987  24.963  1.00  0.00     0.053 A 
ATOM     28  C   UNL A   1      32.417  19.736  23.641  1.00  0.00     0.053 A 
ATOM     29  O   UNL A   1      31.823  21.066  21.822  1.00  0.00    -0.268 OA
ATOM     30  C   UNL A   1      33.000  18.980  25.860  1.00  0.00     0.015 A 
ATOM     31  C   UNL A   1      32.439  18.452  23.128  1.00  0.00     0.015 A 
ATOM     32  C   UNL A   1      33.016  17.672  25.371  1.00  0.00     0.001 A 
ATOM     33  C   UNL A   1      32.744  17.410  24.014  1.00  0.00     0.001 A 
ENDBRANCH  22  23
ENDBRANCH  14  17
ENDBRANCH  12  13
ENDBRANCH   6   7
ENDBRANCH   4   6
ENDBRANCH   3   4
ENDBRANCH   2   3
ENDBRANCH   1   2
BRANCH   1  34
ATOM     34  O   UNL A   1      35.571  34.213  30.165  1.00  0.00    -0.374 OA
BRANCH  34  35
ATOM     35  C   UNL A   1      35.678  34.022  31.579  1.00  0.00     0.202 C 
BRANCH  35  36
ATOM     36  C   UNL A   1      36.919  33.327  32.144  1.00  0.00     0.261 C 
BRANCH  36  37
ATOM     37  O   UNL A   1      37.428  32.322  31.257  1.00  0.00    -0.460 OA
BRANCH  37  38
ATOM     38  C   UNL A   1      37.510  31.087  31.809  1.00  0.00     0.338 C 
ATOM     39  O   UNL A   1      36.756  30.601  32.634  1.00  0.00    -0.246 OA
BRANCH  38  40
ATOM     40  C   UNL A   1      38.533  30.296  31.102  1.00  0.00     0.060 A 
ATOM     41  C   UNL A   1      39.480  29.628  31.889  1.00  0.00     0.016 A 
ATOM     42  C   UNL A   1      38.617  30.277  29.708  1.00  0.00     0.016 A 
ATOM     43  C   UNL A   1      40.583  29.036  31.290  1.00  0.00     0.010 A 
ATOM     44  C   UNL A   1      39.727  29.685  29.106  1.00  0.00     0.010 A 
ATOM     45  C   UNL A   1      40.745  29.132  29.903  1.00  0.00    -0.014 A 
BRANCH  45  46
ATOM     46  C   UNL A   1      42.091  28.886  29.336  1.00  0.00     0.031 A 
ATOM     47  C   UNL A   1      42.376  27.527  28.753  1.00  0.00     0.074 A 
ATOM     48  C   UNL A   1      42.999  29.874  29.269  1.00  0.00     0.049 A 
ATOM     49  N   UNL A   1      43.461  27.081  28.178  1.00  0.00    -0.248 NA
ATOM     50  C   UNL A   1      41.290  26.534  28.831  1.00  0.00     0.031 C 
ATOM     51  C   UNL A   1      42.804  31.236  29.761  1.00  0.00     0.029 A 
ATOM     52  N   UNL A   1      44.267  29.878  28.752  1.00  0.00    -0.354 N 
ATOM     53  C   UNL A   1      43.195  25.757  27.844  1.00  0.00     0.074 A 
ATOM     54  C   UNL A   1      41.861  25.460  28.311  1.00  0.00     0.031 C 
ATOM     55  C   UNL A   1      43.917  31.950  29.518  1.00  0.00     0.029 A 
ATOM     56  C   UNL A   1      44.909  31.086  28.881  1.00  0.00     0.049 A 
ATOM     57  H   UNL A   1      44.680  29.092  28.327  1.00  0.00     0.167 HD
ATOM     58  C   UNL A   1      43.990  24.875  27.194  1.00  0.00     0.037 A 
ATOM     59  C   UNL A   1      46.159  31.443  28.533  1.00  0.00     0.037 A 
ATOM     60  C   UNL A   1      45.312  25.191  26.724  1.00  0.00     0.049 A 
ATOM     61  C   UNL A   1      47.041  30.430  27.850  1.00  0.00     0.074 A 
ATOM     62  C   UNL A   1      46.199  24.384  26.036  1.00  0.00     0.029 A 
ATOM     63  N   UNL A   1      45.939  26.418  26.899  1.00  0.00    -0.354 N 
ATOM     64  N   UNL A   1      46.773  29.186  27.523  1.00  0.00    -0.248 NA
ATOM     65  C   UNL A   1      48.390  30.871  27.476  1.00  0.00     0.031 C 
ATOM     66  C   UNL A   1      47.384  25.102  25.847  1.00  0.00     0.029 A 
ATOM     67  C   UNL A   1      47.211  26.381  26.353  1.00  0.00     0.049 A 
ATOM     68  H   UNL A   1      45.539  27.199  27.345  1.00  0.00     0.167 HD
ATOM     69  C   UNL A   1      47.905  28.712  26.867  1.00  0.00     0.074 A 
ATOM     70  C   UNL A   1      48.855  29.805  26.840  1.00  0.00     0.031 C 
ATOM     71  C   UNL A   1      48.137  27.487  26.328  1.00  0.00     0.037 A 
BRANCH  58  72
ATOM     72  C   UNL A   1      43.465  23.479  26.988  1.00  0.00     0.058 A 
ATOM     73  C   UNL A   1      43.302  22.575  28.051  1.00  0.00     0.135 A 
ATOM     74  C   UNL A   1      43.096  23.044  25.704  1.00  0.00     0.135 A 
ATOM     75  F   UNL A   1      43.659  22.925  29.297  1.00  0.00    -0.206 F 
ATOM     76  C   UNL A   1      42.821  21.285  27.845  1.00  0.00     0.059 A 
ATOM     77  C   UNL A   1      42.583  21.771  25.479  1.00  0.00     0.059 A 
ATOM     78  F   UNL A   1      43.236  23.863  24.648  1.00  0.00    -0.206 F 
ATOM     79  C   UNL A   1      42.462  20.893  26.554  1.00  0.00     0.060 A 
BRANCH  79  80
ATOM     80  S   UNL A   1      41.831  19.220  26.303  1.00  0.00     0.124 S 
ATOM     81  O   UNL A   1      41.889  18.680  27.658  1.00  0.00    -0.237 OA
ATOM     82  O   UNL A   1      40.493  19.468  25.778  1.00  0.00    -0.237 OA
ATOM     83  O   UNL A   1      42.776  18.638  25.356  1.00  0.00    -0.744 OA
ENDBRANCH  79  80
ENDBRANCH  58  72
BRANCH  59  84
ATOM     84  C   UNL A   1      46.645  32.821  28.810  1.00  0.00     0.058 A 
ATOM     85  C   UNL A   1      47.322  33.127  29.999  1.00  0.00     0.135 A 
ATOM     86  C   UNL A   1      46.446  33.860  27.887  1.00  0.00     0.135 A 
ATOM     87  F   UNL A   1      47.533  32.171  30.916  1.00  0.00    -0.206 F 
ATOM     88  C   UNL A   1      47.765  34.417  30.273  1.00  0.00     0.059 A 
ATOM     89  C   UNL A   1      46.905  35.151  28.125  1.00  0.00     0.059 A 
ATOM     90  F   UNL A   1      45.816  33.616  26.725  1.00  0.00    -0.206 F 
ATOM     91  C   UNL A   1      47.555  35.422  29.328  1.00  0.00     0.060 A 
BRANCH  91  92
ATOM     92  S   UNL A   1      48.173  37.082  29.677  1.00  0.00     0.124 S 
ATOM     93  O   UNL A   1      49.495  37.038  29.065  1.00  0.00    -0.237 OA
ATOM     94  O   UNL A   1      47.186  37.922  29.007  1.00  0.00    -0.237 OA
ATOM     95  O   UNL A   1      48.154  37.148  31.135  1.00  0.00    -0.744 OA
ENDBRANCH  91  92
ENDBRANCH  59  84
BRANCH  71  96
ATOM     96  C   UNL A   1      49.443  27.287  25.607  1.00  0.00     0.058 A 
ATOM     97  C   UNL A   1      50.607  26.870  26.271  1.00  0.00     0.135 A 
ATOM     98  C   UNL A   1      49.518  27.489  24.219  1.00  0.00     0.135 A 
ATOM     99  F   UNL A   1      50.591  26.662  27.598  1.00  0.00    -0.206 F 
ATOM    100  C   UNL A   1      51.811  26.707  25.592  1.00  0.00     0.059 A 
ATOM    101  C   UNL A   1      50.701  27.297  23.514  1.00  0.00     0.059 A 
ATOM    102  F   UNL A   1      48.430  27.870  23.529  1.00  0.00    -0.206 F 
ATOM    103  C   UNL A   1      51.848  26.925  24.214  1.00  0.00     0.060 A 
BRANCH 103 104
ATOM    104  S   UNL A   1      53.414  26.711  23.345  1.00  0.00     0.124 S 
ATOM    105  O   UNL A   1      54.184  25.938  24.314  1.00  0.00    -0.237 OA
ATOM    106  O   UNL A   1      53.006  25.992  22.141  1.00  0.00    -0.237 OA
ATOM    107  O   UNL A   1      53.873  28.079  23.125  1.00  0.00    -0.744 OA
ENDBRANCH 103 104
ENDBRANCH  71  96
ENDBRANCH  45  46
ENDBRANCH  38  40
ENDBRANCH  37  38
ENDBRANCH  36  37
ENDBRANCH  35  36
ENDBRANCH  34  35
ENDBRANCH   1  34
TORSDOF 21
ENDMDL
MODEL 3
REMARK VINA RESULT:     -11.3      6.126      9.014
REMARK SMILES O=C(Cc1ccc(NC(=O)c2ccc(N3C(=O)c4ccccc4C3=O)cc2)cc1)OCCOCCOC(=O)c1ccc(-c2c3nc(c(-c4c(F)cc(S(=O)(=O)[O-])cc4F)c4ccc([nH]4)c(-c4c(F)cc(S(=O)(=O)[O-])cc4F)c4nc(c(-c5c(F)cc(S(=O)(=O)[O-])cc5F)c5ccc2[nH]5)C=C4)C=C3)cc1
REMARK SMILES IDX 32 1 31 2 30 3 2 4 1 5 3 6 4 7 5 8 29 9 6 10 28 11 7 12 8 13
REMARK SMILES IDX 9 14 10 16 11 17 12 18 27 19 13 20 26 21 14 22 15 23 16 24
REMARK SMILES IDX 24 25 17 26 18 27 23 28 25 29 19 30 22 31 20 32 21 33 33 34
REMARK SMILES IDX 34 35 35 36 36 37 37 38 38 39 39 40 40 41 104 42 41 43
REMARK SMILES IDX 103 44 42 45 43 46 44 47 97 48 45 49 102 50 96 51 98 52
REMARK SMILES IDX 46 53 101 54 95 55 94 56 47 58 81 59 60 60 80 61 61 62 64 63
REMARK SMILES IDX 79 64 99 65 62 66 63 67 78 69 100 70 65 71 48 72 49 73 58 74
REMARK SMILES IDX 50 75 51 76 57 77 59 78 52 79 53 80 54 81 55 82 56 83 82 84
REMARK SMILES IDX 83 85 92 86 84 87 85 88 91 89 93 90 86 91 87 92 88 93 89 94
REMARK SMILES IDX 90 95 66 96 67 97 76 98 68 99 69 100 75 101 77 102 70 103
REMARK SMILES IDX 71 104 72 105 73 106 74 107
REMARK H PARENT 8 15 98 57 64 68
REMARK Flexibility Score: inf
ROOT
ATOM      1  C   UNL A   1      34.164  31.929  27.977  1.00  0.00     0.202 C 
ENDROOT
BRANCH   1   2
ATOM      2  C   UNL A   1      34.328  30.447  27.628  1.00  0.00     0.261 C 
BRANCH   2   3
ATOM      3  O   UNL A   1      33.120  29.714  27.380  1.00  0.00    -0.463 OA
BRANCH   3   4
ATOM      4  C   UNL A   1      33.034  28.423  26.983  1.00  0.00     0.310 C 
ATOM      5  O   UNL A   1      34.046  27.854  26.571  1.00  0.00    -0.252 OA
BRANCH   4   6
ATOM      6  C   UNL A   1      31.697  27.722  26.902  1.00  0.00     0.158 C 
BRANCH   6   7
ATOM      7  C   UNL A   1      31.617  26.521  26.007  1.00  0.00    -0.037 A 
ATOM      8  C   UNL A   1      31.758  25.240  26.548  1.00  0.00     0.006 A 
ATOM      9  C   UNL A   1      31.467  26.664  24.622  1.00  0.00     0.006 A 
ATOM     10  C   UNL A   1      31.741  24.124  25.716  1.00  0.00     0.026 A 
ATOM     11  C   UNL A   1      31.408  25.537  23.802  1.00  0.00     0.026 A 
ATOM     12  C   UNL A   1      31.469  24.255  24.354  1.00  0.00     0.041 A 
BRANCH  12  13
ATOM     13  N   UNL A   1      31.210  23.169  23.497  1.00  0.00    -0.322 N 
ATOM     14  C   UNL A   1      32.047  22.191  22.992  1.00  0.00     0.255 C 
ATOM     15  H   UNL A   1      30.272  23.092  23.208  1.00  0.00     0.170 HD
ATOM     16  O   UNL A   1      31.630  21.378  22.170  1.00  0.00    -0.269 OA
BRANCH  14  17
ATOM     17  C   UNL A   1      33.440  22.059  23.471  1.00  0.00     0.040 A 
ATOM     18  C   UNL A   1      34.416  22.905  22.952  1.00  0.00     0.016 A 
ATOM     19  C   UNL A   1      33.773  21.163  24.486  1.00  0.00     0.016 A 
ATOM     20  C   UNL A   1      35.688  22.947  23.543  1.00  0.00     0.028 A 
ATOM     21  C   UNL A   1      35.035  21.232  25.086  1.00  0.00     0.028 A 
ATOM     22  C   UNL A   1      36.011  22.149  24.655  1.00  0.00     0.052 A 
BRANCH  22  23
ATOM     23  N   UNL A   1      37.260  22.275  25.343  1.00  0.00    -0.242 N 
ATOM     24  C   UNL A   1      37.690  23.415  25.991  1.00  0.00     0.266 C 
ATOM     25  C   UNL A   1      38.228  21.288  25.434  1.00  0.00     0.266 C 
ATOM     26  O   UNL A   1      37.186  24.516  26.146  1.00  0.00    -0.268 OA
ATOM     27  C   UNL A   1      39.000  23.130  26.557  1.00  0.00     0.053 A 
ATOM     28  C   UNL A   1      39.337  21.843  26.208  1.00  0.00     0.053 A 
ATOM     29  O   UNL A   1      38.275  20.151  25.008  1.00  0.00    -0.268 OA
ATOM     30  C   UNL A   1      39.827  23.929  27.324  1.00  0.00     0.015 A 
ATOM     31  C   UNL A   1      40.540  21.280  26.594  1.00  0.00     0.015 A 
ATOM     32  C   UNL A   1      41.042  23.381  27.737  1.00  0.00     0.001 A 
ATOM     33  C   UNL A   1      41.400  22.068  27.371  1.00  0.00     0.001 A 
ENDBRANCH  22  23
ENDBRANCH  14  17
ENDBRANCH  12  13
ENDBRANCH   6   7
ENDBRANCH   4   6
ENDBRANCH   3   4
ENDBRANCH   2   3
ENDBRANCH   1   2
BRANCH   1  34
ATOM     34  O   UNL A   1      35.137  32.864  27.531  1.00  0.00    -0.374 OA
BRANCH  34  35
ATOM     35  C   UNL A   1      35.254  34.108  28.227  1.00  0.00     0.202 C 
BRANCH  35  36
ATOM     36  C   UNL A   1      33.998  34.949  28.465  1.00  0.00     0.261 C 
BRANCH  36  37
ATOM     37  O   UNL A   1      34.097  35.747  29.653  1.00  0.00    -0.460 OA
BRANCH  37  38
ATOM     38  C   UNL A   1      33.441  35.233  30.721  1.00  0.00     0.338 C 
ATOM     39  O   UNL A   1      32.234  35.127  30.860  1.00  0.00    -0.246 OA
BRANCH  38  40
ATOM     40  C   UNL A   1      34.406  34.596  31.636  1.00  0.00     0.060 A 
ATOM     41  C   UNL A   1      35.345  35.430  32.255  1.00  0.00     0.016 A 
ATOM     42  C   UNL A   1      34.447  33.212  31.815  1.00  0.00     0.016 A 
ATOM     43  C   UNL A   1      36.403  34.875  32.962  1.00  0.00     0.010 A 
ATOM     44  C   UNL A   1      35.510  32.653  32.524  1.00  0.00     0.010 A 
ATOM     45  C   UNL A   1      36.527  33.482  33.032  1.00  0.00    -0.014 A 
BRANCH  45  46
ATOM     46  C   UNL A   1      37.842  32.913  33.403  1.00  0.00     0.031 A 
ATOM     47  C   UNL A   1      38.337  33.133  34.809  1.00  0.00     0.074 A 
ATOM     48  C   UNL A   1      38.532  32.154  32.536  1.00  0.00     0.049 A 
ATOM     49  N   UNL A   1      39.436  32.714  35.378  1.00  0.00    -0.248 NA
ATOM     50  C   UNL A   1      37.475  33.936  35.694  1.00  0.00     0.031 C 
ATOM     51  C   UNL A   1      38.117  31.843  31.170  1.00  0.00     0.029 A 
ATOM     52  N   UNL A   1      39.728  31.502  32.685  1.00  0.00    -0.354 N 
ATOM     53  C   UNL A   1      39.405  33.216  36.675  1.00  0.00     0.074 A 
ATOM     54  C   UNL A   1      38.198  33.999  36.801  1.00  0.00     0.031 C 
ATOM     55  C   UNL A   1      39.046  31.053  30.603  1.00  0.00     0.029 A 
ATOM     56  C   UNL A   1      40.131  30.830  31.557  1.00  0.00     0.049 A 
ATOM     57  H   UNL A   1      40.248  31.513  33.521  1.00  0.00     0.167 HD
ATOM     58  C   UNL A   1      40.299  33.028  37.673  1.00  0.00     0.037 A 
ATOM     59  C   UNL A   1      41.254  30.126  31.325  1.00  0.00     0.037 A 
ATOM     60  C   UNL A   1      41.491  32.233  37.536  1.00  0.00     0.049 A 
ATOM     61  C   UNL A   1      42.256  29.967  32.440  1.00  0.00     0.074 A 
ATOM     62  C   UNL A   1      42.457  31.957  38.485  1.00  0.00     0.029 A 
ATOM     63  N   UNL A   1      41.880  31.591  36.368  1.00  0.00    -0.354 N 
ATOM     64  N   UNL A   1      42.208  30.431  33.668  1.00  0.00    -0.248 NA
ATOM     65  C   UNL A   1      43.457  29.178  32.142  1.00  0.00     0.031 C 
ATOM     66  C   UNL A   1      43.460  31.195  37.875  1.00  0.00     0.029 A 
ATOM     67  C   UNL A   1      43.084  30.937  36.566  1.00  0.00     0.049 A 
ATOM     68  H   UNL A   1      41.374  31.597  35.524  1.00  0.00     0.167 HD
ATOM     69  C   UNL A   1      43.352  29.953  34.300  1.00  0.00     0.074 A 
ATOM     70  C   UNL A   1      44.066  29.161  33.320  1.00  0.00     0.031 C 
ATOM     71  C   UNL A   1      43.772  30.144  35.577  1.00  0.00     0.037 A 
BRANCH  58  72
ATOM     72  C   UNL A   1      40.040  33.720  38.985  1.00  0.00     0.058 A 
ATOM     73  C   UNL A   1      39.199  33.174  39.967  1.00  0.00     0.135 A 
ATOM     74  C   UNL A   1      40.665  34.946  39.273  1.00  0.00     0.135 A 
ATOM     75  F   UNL A   1      38.556  32.017  39.740  1.00  0.00    -0.206 F 
ATOM     76  C   UNL A   1      38.963  33.828  41.174  1.00  0.00     0.059 A 
ATOM     77  C   UNL A   1      40.470  35.602  40.485  1.00  0.00     0.059 A 
ATOM     78  F   UNL A   1      41.475  35.519  38.369  1.00  0.00    -0.206 F 
ATOM     79  C   UNL A   1      39.607  35.042  41.423  1.00  0.00     0.060 A 
BRANCH  79  80
ATOM     80  S   UNL A   1      39.300  35.875  42.996  1.00  0.00     0.124 S 
ATOM     81  O   UNL A   1      40.207  35.160  43.887  1.00  0.00    -0.237 OA
ATOM     82  O   UNL A   1      39.666  37.255  42.693  1.00  0.00    -0.237 OA
ATOM     83  O   UNL A   1      37.878  35.643  43.232  1.00  0.00    -0.744 OA
ENDBRANCH  79  80
ENDBRANCH  58  72
BRANCH  59  84
ATOM     84  C   UNL A   1      41.484  29.508  29.992  1.00  0.00     0.058 A 
ATOM     85  C   UNL A   1      41.026  28.215  29.701  1.00  0.00     0.135 A 
ATOM     86  C   UNL A   1      42.163  30.203  28.978  1.00  0.00     0.135 A 
ATOM     87  F   UNL A   1      40.377  27.508  30.638  1.00  0.00    -0.206 F 
ATOM     88  C   UNL A   1      41.251  27.624  28.462  1.00  0.00     0.059 A 
ATOM     89  C   UNL A   1      42.375  29.644  27.722  1.00  0.00     0.059 A 
ATOM     90  F   UNL A   1      42.609  31.450  29.200  1.00  0.00    -0.206 F 
ATOM     91  C   UNL A   1      41.924  28.348  27.477  1.00  0.00     0.060 A 
BRANCH  91  92
ATOM     92  S   UNL A   1      42.172  27.586  25.859  1.00  0.00     0.124 S 
ATOM     93  O   UNL A   1      40.930  26.841  25.692  1.00  0.00    -0.237 OA
ATOM     94  O   UNL A   1      42.341  28.751  24.997  1.00  0.00    -0.237 OA
ATOM     95  O   UNL A   1      43.373  26.778  26.050  1.00  0.00    -0.744 OA
ENDBRANCH  91  92
ENDBRANCH  59  84
BRANCH  71  96
ATOM     96  C   UNL A   1      45.027  29.432  36.005  1.00  0.00     0.058 A 
ATOM     97  C   UNL A   1      46.297  30.017  35.883  1.00  0.00     0.135 A 
ATOM     98  C   UNL A   1      44.949  28.150  36.574  1.00  0.00     0.135 A 
ATOM     99  F   UNL A   1      46.429  31.240  35.345  1.00  0.00    -0.206 F 
ATOM    100  C   UNL A   1      47.449  29.337  36.267  1.00  0.00     0.059 A 
ATOM    101  C   UNL A   1      46.084  27.467  36.998  1.00  0.00     0.059 A 
ATOM    102  F   UNL A   1      43.758  27.549  36.731  1.00  0.00    -0.206 F 
ATOM    103  C   UNL A   1      47.332  28.062  36.820  1.00  0.00     0.060 A 
BRANCH 103 104
ATOM    104  S   UNL A   1      48.832  27.190  37.314  1.00  0.00     0.124 S 
ATOM    105  O   UNL A   1      49.710  27.449  36.178  1.00  0.00    -0.237 OA
ATOM    106  O   UNL A   1      49.190  27.864  38.559  1.00  0.00    -0.237 OA
ATOM    107  O   UNL A   1      48.390  25.806  37.462  1.00  0.00    -0.744 OA
ENDBRANCH 103 104
ENDBRANCH  71  96
ENDBRANCH  45  46
ENDBRANCH  38  40
ENDBRANCH  37  38
ENDBRANCH  36  37
ENDBRANCH  35  36
ENDBRANCH  34  35
ENDBRANCH   1  34
TORSDOF 21
ENDMDL
