MODEL 1
REMARK VINA RESULT:     -10.9      0.000      0.000
REMARK SMILES O=C(OCCOCCOC(=O)c1ccc2c(c1)[C@@H](C1CCOCC1)C(=O)N2)c1ccc(-c2c3nc(c(-c4c(F)cc(S(=O)(=O)[O-])cc4F)c4ccc([nH]4)c(-c4c(F)cc(S(=O)(=O)[O-])cc4F)c4nc(c(-c5c(F)cc(S(=O)(=O)[O-])cc5F)c5ccc2[nH]5)C=C4)C=C3)cc1
REMARK SMILES IDX 5 1 4 2 3 3 2 4 1 5 28 6 29 7 93 8 30 9 92 10 31 11 32 12
REMARK SMILES IDX 33 13 86 14 34 15 91 16 85 17 87 18 35 19 90 20 84 21 83 22
REMARK SMILES IDX 36 24 70 25 49 26 69 27 50 28 53 29 68 30 88 31 51 32 52 33
REMARK SMILES IDX 67 35 89 36 54 37 37 38 38 39 47 40 39 41 40 42 46 43 48 44
REMARK SMILES IDX 41 45 42 46 43 47 44 48 45 49 71 50 72 51 81 52 73 53 74 54
REMARK SMILES IDX 80 55 82 56 75 57 76 58 77 59 78 60 79 61 55 62 56 63 65 64
REMARK SMILES IDX 57 65 58 66 64 67 66 68 59 69 60 70 61 71 62 72 63 73 6 74
REMARK SMILES IDX 7 75 8 76 9 77 10 78 11 79 12 80 13 81 17 82 14 83 16 84
REMARK SMILES IDX 15 85 18 86 27 87 25 88 26 90 19 91 20 92 24 93 21 94 23 95
REMARK SMILES IDX 22 96
REMARK H PARENT 87 23 53 34 27 89
REMARK Flexibility Score: inf
ROOT
ATOM      1  C   UNL A   1      40.738  21.762  27.623  1.00  0.00     0.202 C 
ENDROOT
BRANCH   1   2
ATOM      2  C   UNL A   1      39.929  22.229  26.412  1.00  0.00     0.261 C 
BRANCH   2   3
ATOM      3  O   UNL A   1      39.570  23.612  26.565  1.00  0.00    -0.460 OA
BRANCH   3   4
ATOM      4  C   UNL A   1      40.393  24.683  26.662  1.00  0.00     0.338 C 
ATOM      5  O   UNL A   1      41.255  24.838  25.798  1.00  0.00    -0.246 OA
BRANCH   4   6
ATOM      6  C   UNL A   1      40.306  25.695  27.756  1.00  0.00     0.060 A 
ATOM      7  C   UNL A   1      39.308  25.728  28.732  1.00  0.00     0.016 A 
ATOM      8  C   UNL A   1      41.361  26.618  27.863  1.00  0.00     0.016 A 
ATOM      9  C   UNL A   1      39.310  26.675  29.743  1.00  0.00     0.010 A 
ATOM     10  C   UNL A   1      41.396  27.549  28.907  1.00  0.00     0.010 A 
ATOM     11  C   UNL A   1      40.359  27.584  29.844  1.00  0.00    -0.014 A 
BRANCH  11  12
ATOM     12  C   UNL A   1      40.282  28.602  30.905  1.00  0.00     0.031 A 
ATOM     13  C   UNL A   1      41.291  28.559  32.008  1.00  0.00     0.074 A 
ATOM     14  C   UNL A   1      39.409  29.619  30.776  1.00  0.00     0.049 A 
ATOM     15  N   UNL A   1      41.411  29.339  33.047  1.00  0.00    -0.248 NA
ATOM     16  C   UNL A   1      42.316  27.504  31.922  1.00  0.00     0.031 C 
ATOM     17  C   UNL A   1      38.476  29.790  29.657  1.00  0.00     0.029 A 
ATOM     18  N   UNL A   1      39.185  30.714  31.565  1.00  0.00    -0.354 N 
ATOM     19  C   UNL A   1      42.511  28.861  33.748  1.00  0.00     0.074 A 
ATOM     20  C   UNL A   1      43.020  27.718  33.023  1.00  0.00     0.031 C 
ATOM     21  C   UNL A   1      37.799  30.938  29.821  1.00  0.00     0.029 A 
ATOM     22  C   UNL A   1      38.199  31.544  31.085  1.00  0.00     0.049 A 
ATOM     23  H   UNL A   1      39.682  30.890  32.396  1.00  0.00     0.167 HD
ATOM     24  C   UNL A   1      43.036  29.338  34.900  1.00  0.00     0.037 A 
ATOM     25  C   UNL A   1      37.663  32.651  31.632  1.00  0.00     0.037 A 
ATOM     26  C   UNL A   1      42.491  30.472  35.597  1.00  0.00     0.049 A 
ATOM     27  C   UNL A   1      38.202  33.104  32.963  1.00  0.00     0.074 A 
ATOM     28  C   UNL A   1      42.871  31.004  36.814  1.00  0.00     0.029 A 
ATOM     29  N   UNL A   1      41.441  31.250  35.125  1.00  0.00    -0.354 N 
ATOM     30  N   UNL A   1      39.190  32.597  33.665  1.00  0.00    -0.248 NA
ATOM     31  C   UNL A   1      37.549  34.260  33.588  1.00  0.00     0.031 C 
ATOM     32  C   UNL A   1      42.025  32.084  37.094  1.00  0.00     0.029 A 
ATOM     33  C   UNL A   1      41.150  32.253  36.031  1.00  0.00     0.049 A 
ATOM     34  H   UNL A   1      40.974  31.109  34.270  1.00  0.00     0.167 HD
ATOM     35  C   UNL A   1      39.286  33.378  34.809  1.00  0.00     0.074 A 
ATOM     36  C   UNL A   1      38.267  34.404  34.693  1.00  0.00     0.031 C 
ATOM     37  C   UNL A   1      40.129  33.259  35.865  1.00  0.00     0.037 A 
BRANCH  24  38
ATOM     38  C   UNL A   1      44.196  28.587  35.486  1.00  0.00     0.058 A 
ATOM     39  C   UNL A   1      45.525  28.890  35.147  1.00  0.00     0.135 A 
ATOM     40  C   UNL A   1      43.974  27.518  36.368  1.00  0.00     0.135 A 
ATOM     41  F   UNL A   1      45.794  29.881  34.282  1.00  0.00    -0.206 F 
ATOM     42  C   UNL A   1      46.590  28.139  35.637  1.00  0.00     0.059 A 
ATOM     43  C   UNL A   1      45.024  26.768  36.889  1.00  0.00     0.059 A 
ATOM     44  F   UNL A   1      42.722  27.177  36.714  1.00  0.00    -0.206 F 
ATOM     45  C   UNL A   1      46.327  27.074  36.502  1.00  0.00     0.060 A 
BRANCH  45  46
ATOM     46  S   UNL A   1      47.714  26.085  37.103  1.00  0.00     0.124 S 
ATOM     47  O   UNL A   1      48.792  27.070  37.109  1.00  0.00    -0.237 OA
ATOM     48  O   UNL A   1      47.245  25.652  38.416  1.00  0.00    -0.237 OA
ATOM     49  O   UNL A   1      47.836  25.029  36.105  1.00  0.00    -0.744 OA
ENDBRANCH  45  46
ENDBRANCH  24  38
BRANCH  25  50
ATOM     50  C   UNL A   1      36.538  33.359  30.962  1.00  0.00     0.058 A 
ATOM     51  C   UNL A   1      36.730  34.095  29.783  1.00  0.00     0.135 A 
ATOM     52  C   UNL A   1      35.238  33.318  31.495  1.00  0.00     0.135 A 
ATOM     53  F   UNL A   1      37.951  34.175  29.233  1.00  0.00    -0.206 F 
ATOM     54  C   UNL A   1      35.682  34.778  29.168  1.00  0.00     0.059 A 
ATOM     55  C   UNL A   1      34.169  33.967  30.884  1.00  0.00     0.059 A 
ATOM     56  F   UNL A   1      34.992  32.622  32.615  1.00  0.00    -0.206 F 
ATOM     57  C   UNL A   1      34.404  34.709  29.728  1.00  0.00     0.060 A 
BRANCH  57  58
ATOM     58  S   UNL A   1      33.045  35.577  28.915  1.00  0.00     0.124 S 
ATOM     59  O   UNL A   1      33.744  36.693  28.289  1.00  0.00    -0.237 OA
ATOM     60  O   UNL A   1      32.526  34.558  28.008  1.00  0.00    -0.237 OA
ATOM     61  O   UNL A   1      32.162  35.927  30.023  1.00  0.00    -0.744 OA
ENDBRANCH  57  58
ENDBRANCH  25  50
BRANCH  37  62
ATOM     62  C   UNL A   1      39.996  34.282  36.955  1.00  0.00     0.058 A 
ATOM     63  C   UNL A   1      40.643  35.524  36.877  1.00  0.00     0.135 A 
ATOM     64  C   UNL A   1      39.162  34.035  38.055  1.00  0.00     0.135 A 
ATOM     65  F   UNL A   1      41.456  35.800  35.845  1.00  0.00    -0.206 F 
ATOM     66  C   UNL A   1      40.480  36.485  37.866  1.00  0.00     0.059 A 
ATOM     67  C   UNL A   1      38.965  34.992  39.044  1.00  0.00     0.059 A 
ATOM     68  F   UNL A   1      38.516  32.864  38.167  1.00  0.00    -0.206 F 
ATOM     69  C   UNL A   1      39.636  36.210  38.944  1.00  0.00     0.060 A 
BRANCH  69  70
ATOM     70  S   UNL A   1      39.394  37.484  40.199  1.00  0.00     0.124 S 
ATOM     71  O   UNL A   1      40.746  38.015  40.341  1.00  0.00    -0.237 OA
ATOM     72  O   UNL A   1      38.427  38.372  39.562  1.00  0.00    -0.237 OA
ATOM     73  O   UNL A   1      38.889  36.737  41.347  1.00  0.00    -0.744 OA
ENDBRANCH  69  70
ENDBRANCH  37  62
ENDBRANCH  11  12
ENDBRANCH   4   6
ENDBRANCH   3   4
ENDBRANCH   2   3
ENDBRANCH   1   2
BRANCH   1  74
ATOM     74  O   UNL A   1      40.945  20.353  27.678  1.00  0.00    -0.374 OA
BRANCH  74  75
ATOM     75  C   UNL A   1      40.780  19.642  26.445  1.00  0.00     0.202 C 
BRANCH  75  76
ATOM     76  C   UNL A   1      42.064  18.864  26.142  1.00  0.00     0.261 C 
BRANCH  76  77
ATOM     77  O   UNL A   1      42.753  19.535  25.073  1.00  0.00    -0.460 OA
BRANCH  77  78
ATOM     78  C   UNL A   1      44.106  19.455  25.126  1.00  0.00     0.338 C 
ATOM     79  O   UNL A   1      44.805  18.461  25.020  1.00  0.00    -0.246 OA
BRANCH  78  80
ATOM     80  C   UNL A   1      44.634  20.835  25.122  1.00  0.00     0.060 A 
ATOM     81  C   UNL A   1      45.677  21.190  24.242  1.00  0.00     0.018 A 
ATOM     82  C   UNL A   1      44.108  21.760  26.046  1.00  0.00     0.022 A 
ATOM     83  C   UNL A   1      46.191  22.484  24.251  1.00  0.00     0.027 A 
ATOM     84  C   UNL A   1      44.665  23.025  26.084  1.00  0.00    -0.011 A 
ATOM     85  C   UNL A   1      45.659  23.370  25.166  1.00  0.00     0.045 A 
ATOM     86  C   UNL A   1      44.352  24.224  26.957  1.00  0.00     0.114 C 
ATOM     87  N   UNL A   1      45.961  24.712  25.282  1.00  0.00    -0.325 N 
ATOM     88  C   UNL A   1      45.182  25.326  26.249  1.00  0.00     0.232 C 
ATOM     89  H   UNL A   1      46.645  25.174  24.745  1.00  0.00     0.169 HD
ATOM     90  O   UNL A   1      45.167  26.527  26.465  1.00  0.00    -0.274 OA
BRANCH  86  91
ATOM     91  C   UNL A   1      44.718  24.064  28.460  1.00  0.00     0.010 C 
ATOM     92  C   UNL A   1      43.595  23.358  29.250  1.00  0.00     0.033 C 
ATOM     93  C   UNL A   1      45.089  25.383  29.168  1.00  0.00     0.033 C 
ATOM     94  C   UNL A   1      43.892  23.285  30.743  1.00  0.00     0.160 C 
ATOM     95  C   UNL A   1      45.307  25.173  30.665  1.00  0.00     0.160 C 
ATOM     96  O   UNL A   1      44.157  24.586  31.265  1.00  0.00    -0.381 OA
ENDBRANCH  86  91
ENDBRANCH  78  80
ENDBRANCH  77  78
ENDBRANCH  76  77
ENDBRANCH  75  76
ENDBRANCH  74  75
ENDBRANCH   1  74
TORSDOF 18
ENDMDL
MODEL 2
REMARK VINA RESULT:     -10.6      3.661     10.046
REMARK SMILES O=C(OCCOCCOC(=O)c1ccc2c(c1)[C@@H](C1CCOCC1)C(=O)N2)c1ccc(-c2c3nc(c(-c4c(F)cc(S(=O)(=O)[O-])cc4F)c4ccc([nH]4)c(-c4c(F)cc(S(=O)(=O)[O-])cc4F)c4nc(c(-c5c(F)cc(S(=O)(=O)[O-])cc5F)c5ccc2[nH]5)C=C4)C=C3)cc1
REMARK SMILES IDX 5 1 4 2 3 3 2 4 1 5 28 6 29 7 93 8 30 9 92 10 31 11 32 12
REMARK SMILES IDX 33 13 86 14 34 15 91 16 85 17 87 18 35 19 90 20 84 21 83 22
REMARK SMILES IDX 36 24 70 25 49 26 69 27 50 28 53 29 68 30 88 31 51 32 52 33
REMARK SMILES IDX 67 35 89 36 54 37 37 38 38 39 47 40 39 41 40 42 46 43 48 44
REMARK SMILES IDX 41 45 42 46 43 47 44 48 45 49 71 50 72 51 81 52 73 53 74 54
REMARK SMILES IDX 80 55 82 56 75 57 76 58 77 59 78 60 79 61 55 62 56 63 65 64
REMARK SMILES IDX 57 65 58 66 64 67 66 68 59 69 60 70 61 71 62 72 63 73 6 74
REMARK SMILES IDX 7 75 8 76 9 77 10 78 11 79 12 80 13 81 17 82 14 83 16 84
REMARK SMILES IDX 15 85 18 86 27 87 25 88 26 90 19 91 20 92 24 93 21 94 23 95
REMARK SMILES IDX 22 96
REMARK H PARENT 87 23 53 34 27 89
REMARK Flexibility Score: inf
ROOT
ATOM      1  C   UNL A   1      41.510  21.783  26.148  1.00  0.00     0.202 C 
ENDROOT
BRANCH   1   2
ATOM      2  C   UNL A   1      42.375  22.890  25.542  1.00  0.00     0.261 C 
BRANCH   2   3
ATOM      3  O   UNL A   1      42.505  23.977  26.472  1.00  0.00    -0.460 OA
BRANCH   3   4
ATOM      4  C   UNL A   1      41.985  25.224  26.378  1.00  0.00     0.338 C 
ATOM      5  O   UNL A   1      41.667  25.643  25.266  1.00  0.00    -0.246 OA
BRANCH   4   6
ATOM      6  C   UNL A   1      41.767  26.119  27.553  1.00  0.00     0.060 A 
ATOM      7  C   UNL A   1      40.731  25.978  28.479  1.00  0.00     0.016 A 
ATOM      8  C   UNL A   1      42.733  27.111  27.793  1.00  0.00     0.016 A 
ATOM      9  C   UNL A   1      40.610  26.823  29.570  1.00  0.00     0.010 A 
ATOM     10  C   UNL A   1      42.645  27.940  28.917  1.00  0.00     0.010 A 
ATOM     11  C   UNL A   1      41.571  27.802  29.802  1.00  0.00    -0.014 A 
BRANCH  11  12
ATOM     12  C   UNL A   1      41.364  28.706  30.945  1.00  0.00     0.031 A 
ATOM     13  C   UNL A   1      40.233  29.684  30.886  1.00  0.00     0.074 A 
ATOM     14  C   UNL A   1      42.097  28.531  32.061  1.00  0.00     0.049 A 
ATOM     15  N   UNL A   1      39.870  30.578  31.763  1.00  0.00    -0.248 NA
ATOM     16  C   UNL A   1      39.385  29.637  29.682  1.00  0.00     0.031 C 
ATOM     17  C   UNL A   1      43.137  27.510  32.232  1.00  0.00     0.029 A 
ATOM     18  N   UNL A   1      42.060  29.173  33.269  1.00  0.00    -0.354 N 
ATOM     19  C   UNL A   1      38.764  31.214  31.212  1.00  0.00     0.074 A 
ATOM     20  C   UNL A   1      38.519  30.609  29.922  1.00  0.00     0.031 C 
ATOM     21  C   UNL A   1      43.621  27.582  33.483  1.00  0.00     0.029 A 
ATOM     22  C   UNL A   1      42.976  28.692  34.175  1.00  0.00     0.049 A 
ATOM     23  H   UNL A   1      41.438  29.908  33.469  1.00  0.00     0.167 HD
ATOM     24  C   UNL A   1      38.029  32.217  31.743  1.00  0.00     0.037 A 
ATOM     25  C   UNL A   1      43.276  29.129  35.412  1.00  0.00     0.037 A 
ATOM     26  C   UNL A   1      38.314  32.800  33.027  1.00  0.00     0.049 A 
ATOM     27  C   UNL A   1      42.507  30.311  35.940  1.00  0.00     0.074 A 
ATOM     28  C   UNL A   1      37.706  33.877  33.643  1.00  0.00     0.029 A 
ATOM     29  N   UNL A   1      39.299  32.341  33.893  1.00  0.00    -0.354 N 
ATOM     30  N   UNL A   1      41.515  30.964  35.378  1.00  0.00    -0.248 NA
ATOM     31  C   UNL A   1      42.905  30.832  37.253  1.00  0.00     0.031 C 
ATOM     32  C   UNL A   1      38.349  34.091  34.869  1.00  0.00     0.029 A 
ATOM     33  C   UNL A   1      39.326  33.120  35.035  1.00  0.00     0.049 A 
ATOM     34  H   UNL A   1      39.891  31.574  33.719  1.00  0.00     0.167 HD
ATOM     35  C   UNL A   1      41.161  31.965  36.273  1.00  0.00     0.074 A 
ATOM     36  C   UNL A   1      42.034  31.817  37.423  1.00  0.00     0.031 C 
ATOM     37  C   UNL A   1      40.210  32.925  36.159  1.00  0.00     0.037 A 
BRANCH  24  38
ATOM     38  C   UNL A   1      36.917  32.772  30.901  1.00  0.00     0.058 A 
ATOM     39  C   UNL A   1      37.146  33.746  29.916  1.00  0.00     0.135 A 
ATOM     40  C   UNL A   1      35.594  32.353  31.112  1.00  0.00     0.135 A 
ATOM     41  F   UNL A   1      38.387  34.207  29.695  1.00  0.00    -0.206 F 
ATOM     42  C   UNL A   1      36.097  34.309  29.193  1.00  0.00     0.059 A 
ATOM     43  C   UNL A   1      34.533  32.885  30.385  1.00  0.00     0.059 A 
ATOM     44  F   UNL A   1      35.318  31.434  32.052  1.00  0.00    -0.206 F 
ATOM     45  C   UNL A   1      34.793  33.876  29.441  1.00  0.00     0.060 A 
BRANCH  45  46
ATOM     46  S   UNL A   1      33.438  34.639  28.522  1.00  0.00     0.124 S 
ATOM     47  O   UNL A   1      32.574  35.099  29.606  1.00  0.00    -0.237 OA
ATOM     48  O   UNL A   1      34.121  35.687  27.770  1.00  0.00    -0.237 OA
ATOM     49  O   UNL A   1      32.909  33.541  27.721  1.00  0.00    -0.744 OA
ENDBRANCH  45  46
ENDBRANCH  24  38
BRANCH  25  50
ATOM     50  C   UNL A   1      44.371  28.494  36.196  1.00  0.00     0.058 A 
ATOM     51  C   UNL A   1      45.696  28.942  36.103  1.00  0.00     0.135 A 
ATOM     52  C   UNL A   1      44.111  27.413  37.056  1.00  0.00     0.135 A 
ATOM     53  F   UNL A   1      46.003  29.966  35.292  1.00  0.00    -0.206 F 
ATOM     54  C   UNL A   1      46.727  28.333  36.818  1.00  0.00     0.059 A 
ATOM     55  C   UNL A   1      45.117  26.807  37.803  1.00  0.00     0.059 A 
ATOM     56  F   UNL A   1      42.860  26.947  37.194  1.00  0.00    -0.206 F 
ATOM     57  C   UNL A   1      46.426  27.264  37.665  1.00  0.00     0.060 A 
BRANCH  57  58
ATOM     58  S   UNL A   1      47.761  26.493  38.606  1.00  0.00     0.124 S 
ATOM     59  O   UNL A   1      47.121  26.280  39.899  1.00  0.00    -0.237 OA
ATOM     60  O   UNL A   1      48.037  25.292  37.825  1.00  0.00    -0.237 OA
ATOM     61  O   UNL A   1      48.814  27.503  38.582  1.00  0.00    -0.744 OA
ENDBRANCH  57  58
ENDBRANCH  25  50
BRANCH  37  62
ATOM     62  C   UNL A   1      40.054  33.864  37.320  1.00  0.00     0.058 A 
ATOM     63  C   UNL A   1      40.666  35.126  37.329  1.00  0.00     0.135 A 
ATOM     64  C   UNL A   1      39.231  33.516  38.401  1.00  0.00     0.135 A 
ATOM     65  F   UNL A   1      41.467  35.497  36.317  1.00  0.00    -0.206 F 
ATOM     66  C   UNL A   1      40.481  36.009  38.385  1.00  0.00     0.059 A 
ATOM     67  C   UNL A   1      39.013  34.394  39.457  1.00  0.00     0.059 A 
ATOM     68  F   UNL A   1      38.618  32.322  38.430  1.00  0.00    -0.206 F 
ATOM     69  C   UNL A   1      39.649  35.634  39.443  1.00  0.00     0.060 A 
BRANCH  69  70
ATOM     70  S   UNL A   1      39.378  36.808  40.786  1.00  0.00     0.124 S 
ATOM     71  O   UNL A   1      40.703  36.868  41.394  1.00  0.00    -0.237 OA
ATOM     72  O   UNL A   1      38.952  38.008  40.073  1.00  0.00    -0.237 OA
ATOM     73  O   UNL A   1      38.345  36.166  41.593  1.00  0.00    -0.744 OA
ENDBRANCH  69  70
ENDBRANCH  37  62
ENDBRANCH  11  12
ENDBRANCH   4   6
ENDBRANCH   3   4
ENDBRANCH   2   3
ENDBRANCH   1   2
BRANCH   1  74
ATOM     74  O   UNL A   1      40.497  22.254  27.032  1.00  0.00    -0.374 OA
BRANCH  74  75
ATOM     75  C   UNL A   1      39.260  22.646  26.424  1.00  0.00     0.202 C 
BRANCH  75  76
ATOM     76  C   UNL A   1      38.665  21.445  25.684  1.00  0.00     0.261 C 
BRANCH  76  77
ATOM     77  O   UNL A   1      37.238  21.472  25.861  1.00  0.00    -0.460 OA
BRANCH  77  78
ATOM     78  C   UNL A   1      36.532  21.824  24.757  1.00  0.00     0.338 C 
ATOM     79  O   UNL A   1      36.942  21.975  23.618  1.00  0.00    -0.246 OA
BRANCH  78  80
ATOM     80  C   UNL A   1      35.099  21.790  25.117  1.00  0.00     0.060 A 
ATOM     81  C   UNL A   1      34.339  20.626  24.882  1.00  0.00     0.018 A 
ATOM     82  C   UNL A   1      34.509  22.956  25.644  1.00  0.00     0.022 A 
ATOM     83  C   UNL A   1      32.983  20.598  25.199  1.00  0.00     0.027 A 
ATOM     84  C   UNL A   1      33.151  22.934  25.904  1.00  0.00    -0.011 A 
ATOM     85  C   UNL A   1      32.431  21.753  25.715  1.00  0.00     0.045 A 
ATOM     86  C   UNL A   1      32.224  24.005  26.443  1.00  0.00     0.114 C 
ATOM     87  N   UNL A   1      31.138  21.912  26.173  1.00  0.00    -0.325 N 
ATOM     88  C   UNL A   1      30.940  23.175  26.704  1.00  0.00     0.232 C 
ATOM     89  H   UNL A   1      30.445  21.214  26.128  1.00  0.00     0.169 HD
ATOM     90  O   UNL A   1      29.926  23.532  27.282  1.00  0.00    -0.274 OA
BRANCH  86  91
ATOM     91  C   UNL A   1      31.980  25.212  25.492  1.00  0.00     0.010 C 
ATOM     92  C   UNL A   1      31.239  26.363  26.208  1.00  0.00     0.033 C 
ATOM     93  C   UNL A   1      31.233  24.856  24.191  1.00  0.00     0.033 C 
ATOM     94  C   UNL A   1      30.901  27.511  25.265  1.00  0.00     0.160 C 
ATOM     95  C   UNL A   1      30.911  26.103  23.370  1.00  0.00     0.160 C 
ATOM     96  O   UNL A   1      30.161  27.035  24.143  1.00  0.00    -0.381 OA
ENDBRANCH  86  91
ENDBRANCH  78  80
ENDBRANCH  77  78
ENDBRANCH  76  77
ENDBRANCH  75  76
ENDBRANCH  74  75
ENDBRANCH   1  74
TORSDOF 18
ENDMDL
MODEL 3
REMARK VINA RESULT:     -10.6      6.629     13.294
REMARK SMILES O=C(OCCOCCOC(=O)c1ccc2c(c1)[C@@H](C1CCOCC1)C(=O)N2)c1ccc(-c2c3nc(c(-c4c(F)cc(S(=O)(=O)[O-])cc4F)c4ccc([nH]4)c(-c4c(F)cc(S(=O)(=O)[O-])cc4F)c4nc(c(-c5c(F)cc(S(=O)(=O)[O-])cc5F)c5ccc2[nH]5)C=C4)C=C3)cc1
REMARK SMILES IDX 5 1 4 2 3 3 2 4 1 5 28 6 29 7 93 8 30 9 92 10 31 11 32 12
REMARK SMILES IDX 33 13 86 14 34 15 91 16 85 17 87 18 35 19 90 20 84 21 83 22
REMARK SMILES IDX 36 24 70 25 49 26 69 27 50 28 53 29 68 30 88 31 51 32 52 33
REMARK SMILES IDX 67 35 89 36 54 37 37 38 38 39 47 40 39 41 40 42 46 43 48 44
REMARK SMILES IDX 41 45 42 46 43 47 44 48 45 49 71 50 72 51 81 52 73 53 74 54
REMARK SMILES IDX 80 55 82 56 75 57 76 58 77 59 78 60 79 61 55 62 56 63 65 64
REMARK SMILES IDX 57 65 58 66 64 67 66 68 59 69 60 70 61 71 62 72 63 73 6 74
REMARK SMILES IDX 7 75 8 76 9 77 10 78 11 79 12 80 13 81 17 82 14 83 16 84
REMARK SMILES IDX 15 85 18 86 27 87 25 88 26 90 19 91 20 92 24 93 21 94 23 95
REMARK SMILES IDX 22 96
REMARK H PARENT 87 23 53 34 27 89
REMARK Flexibility Score: inf
ROOT
ATOM      1  C   UNL A   1      34.216  32.712  28.232  1.00  0.00     0.202 C 
ENDROOT
BRANCH   1   2
ATOM      2  C   UNL A   1      35.266  32.664  29.344  1.00  0.00     0.261 C 
BRANCH   2   3
ATOM      3  O   UNL A   1      35.465  31.307  29.773  1.00  0.00    -0.460 OA
BRANCH   3   4
ATOM      4  C   UNL A   1      36.434  30.820  30.583  1.00  0.00     0.338 C 
ATOM      5  O   UNL A   1      36.189  30.701  31.783  1.00  0.00    -0.246 OA
BRANCH   4   6
ATOM      6  C   UNL A   1      37.786  30.410  30.100  1.00  0.00     0.060 A 
ATOM      7  C   UNL A   1      38.166  30.348  28.758  1.00  0.00     0.016 A 
ATOM      8  C   UNL A   1      38.769  30.164  31.074  1.00  0.00     0.016 A 
ATOM      9  C   UNL A   1      39.452  29.994  28.382  1.00  0.00     0.010 A 
ATOM     10  C   UNL A   1      40.082  29.852  30.705  1.00  0.00     0.010 A 
ATOM     11  C   UNL A   1      40.420  29.755  29.351  1.00  0.00    -0.014 A 
BRANCH  11  12
ATOM     12  C   UNL A   1      41.754  29.331  28.896  1.00  0.00     0.031 A 
ATOM     13  C   UNL A   1      42.882  30.310  28.981  1.00  0.00     0.074 A 
ATOM     14  C   UNL A   1      41.953  28.043  28.557  1.00  0.00     0.049 A 
ATOM     15  N   UNL A   1      44.129  30.164  28.630  1.00  0.00    -0.248 NA
ATOM     16  C   UNL A   1      42.566  31.629  29.556  1.00  0.00     0.031 C 
ATOM     17  C   UNL A   1      40.920  27.001  28.569  1.00  0.00     0.029 A 
ATOM     18  N   UNL A   1      43.087  27.381  28.173  1.00  0.00    -0.354 N 
ATOM     19  C   UNL A   1      44.745  31.375  28.924  1.00  0.00     0.074 A 
ATOM     20  C   UNL A   1      43.733  32.249  29.474  1.00  0.00     0.031 C 
ATOM     21  C   UNL A   1      41.477  25.827  28.233  1.00  0.00     0.029 A 
ATOM     22  C   UNL A   1      42.883  26.045  27.916  1.00  0.00     0.049 A 
ATOM     23  H   UNL A   1      43.964  27.819  28.088  1.00  0.00     0.167 HD
ATOM     24  C   UNL A   1      46.040  31.717  28.739  1.00  0.00     0.037 A 
ATOM     25  C   UNL A   1      43.738  25.118  27.446  1.00  0.00     0.037 A 
ATOM     26  C   UNL A   1      47.014  30.820  28.177  1.00  0.00     0.049 A 
ATOM     27  C   UNL A   1      45.150  25.553  27.156  1.00  0.00     0.074 A 
ATOM     28  C   UNL A   1      48.335  31.067  27.855  1.00  0.00     0.029 A 
ATOM     29  N   UNL A   1      46.760  29.492  27.855  1.00  0.00    -0.354 N 
ATOM     30  N   UNL A   1      45.706  26.726  27.358  1.00  0.00    -0.248 NA
ATOM     31  C   UNL A   1      46.045  24.554  26.561  1.00  0.00     0.031 C 
ATOM     32  C   UNL A   1      48.870  29.896  27.305  1.00  0.00     0.029 A 
ATOM     33  C   UNL A   1      47.896  28.908  27.326  1.00  0.00     0.049 A 
ATOM     34  H   UNL A   1      45.898  29.035  27.984  1.00  0.00     0.167 HD
ATOM     35  C   UNL A   1      47.021  26.604  26.925  1.00  0.00     0.074 A 
ATOM     36  C   UNL A   1      47.180  25.236  26.470  1.00  0.00     0.031 C 
ATOM     37  C   UNL A   1      48.007  27.535  26.895  1.00  0.00     0.037 A 
BRANCH  24  38
ATOM     38  C   UNL A   1      46.432  33.125  29.083  1.00  0.00     0.058 A 
ATOM     39  C   UNL A   1      46.911  33.474  30.356  1.00  0.00     0.135 A 
ATOM     40  C   UNL A   1      46.285  34.151  28.135  1.00  0.00     0.135 A 
ATOM     41  F   UNL A   1      47.039  32.538  31.310  1.00  0.00    -0.206 F 
ATOM     42  C   UNL A   1      47.199  34.795  30.687  1.00  0.00     0.059 A 
ATOM     43  C   UNL A   1      46.589  35.475  28.438  1.00  0.00     0.059 A 
ATOM     44  F   UNL A   1      45.817  33.875  26.907  1.00  0.00    -0.206 F 
ATOM     45  C   UNL A   1      47.027  35.790  29.722  1.00  0.00     0.060 A 
BRANCH  45  46
ATOM     46  S   UNL A   1      47.370  37.504  30.176  1.00  0.00     0.124 S 
ATOM     47  O   UNL A   1      46.036  37.987  30.518  1.00  0.00    -0.237 OA
ATOM     48  O   UNL A   1      48.295  37.353  31.295  1.00  0.00    -0.237 OA
ATOM     49  O   UNL A   1      47.949  38.067  28.961  1.00  0.00    -0.744 OA
ENDBRANCH  45  46
ENDBRANCH  24  38
BRANCH  25  50
ATOM     50  C   UNL A   1      43.274  23.730  27.169  1.00  0.00     0.058 A 
ATOM     51  C   UNL A   1      43.133  22.784  28.195  1.00  0.00     0.135 A 
ATOM     52  C   UNL A   1      42.966  23.318  25.861  1.00  0.00     0.135 A 
ATOM     53  F   UNL A   1      43.420  23.120  29.462  1.00  0.00    -0.206 F 
ATOM     54  C   UNL A   1      42.722  21.478  27.934  1.00  0.00     0.059 A 
ATOM     55  C   UNL A   1      42.525  22.028  25.579  1.00  0.00     0.059 A 
ATOM     56  F   UNL A   1      43.072  24.183  24.841  1.00  0.00    -0.206 F 
ATOM     57  C   UNL A   1      42.422  21.110  26.621  1.00  0.00     0.060 A 
BRANCH  57  58
ATOM     58  S   UNL A   1      41.868  19.422  26.291  1.00  0.00     0.124 S 
ATOM     59  O   UNL A   1      40.426  19.605  26.178  1.00  0.00    -0.237 OA
ATOM     60  O   UNL A   1      42.571  19.102  25.053  1.00  0.00    -0.237 OA
ATOM     61  O   UNL A   1      42.321  18.686  27.468  1.00  0.00    -0.744 OA
ENDBRANCH  57  58
ENDBRANCH  25  50
BRANCH  37  62
ATOM     62  C   UNL A   1      49.343  27.088  26.381  1.00  0.00     0.058 A 
ATOM     63  C   UNL A   1      50.306  26.527  27.233  1.00  0.00     0.135 A 
ATOM     64  C   UNL A   1      49.633  27.166  25.010  1.00  0.00     0.135 A 
ATOM     65  F   UNL A   1      50.073  26.439  28.552  1.00  0.00    -0.206 F 
ATOM     66  C   UNL A   1      51.524  26.072  26.744  1.00  0.00     0.059 A 
ATOM     67  C   UNL A   1      50.835  26.694  24.496  1.00  0.00     0.059 A 
ATOM     68  F   UNL A   1      48.737  27.687  24.157  1.00  0.00    -0.206 F 
ATOM     69  C   UNL A   1      51.777  26.157  25.372  1.00  0.00     0.060 A 
BRANCH  69  70
ATOM     70  S   UNL A   1      53.343  25.520  24.742  1.00  0.00     0.124 S 
ATOM     71  O   UNL A   1      53.225  25.810  23.317  1.00  0.00    -0.237 OA
ATOM     72  O   UNL A   1      54.323  26.317  25.474  1.00  0.00    -0.237 OA
ATOM     73  O   UNL A   1      53.302  24.106  25.101  1.00  0.00    -0.744 OA
ENDBRANCH  69  70
ENDBRANCH  37  62
ENDBRANCH  11  12
ENDBRANCH   4   6
ENDBRANCH   3   4
ENDBRANCH   2   3
ENDBRANCH   1   2
BRANCH   1  74
ATOM     74  O   UNL A   1      34.300  31.634  27.305  1.00  0.00    -0.374 OA
BRANCH  74  75
ATOM     75  C   UNL A   1      33.366  30.563  27.495  1.00  0.00     0.202 C 
BRANCH  75  76
ATOM     76  C   UNL A   1      33.050  29.930  26.137  1.00  0.00     0.261 C 
BRANCH  76  77
ATOM     77  O   UNL A   1      31.720  29.385  26.197  1.00  0.00    -0.460 OA
BRANCH  77  78
ATOM     78  C   UNL A   1      31.655  28.074  26.541  1.00  0.00     0.338 C 
ATOM     79  O   UNL A   1      31.451  27.595  27.644  1.00  0.00    -0.246 OA
BRANCH  78  80
ATOM     80  C   UNL A   1      31.658  27.286  25.290  1.00  0.00     0.060 A 
ATOM     81  C   UNL A   1      30.622  27.454  24.348  1.00  0.00     0.018 A 
ATOM     82  C   UNL A   1      32.680  26.338  25.094  1.00  0.00     0.022 A 
ATOM     83  C   UNL A   1      30.610  26.697  23.178  1.00  0.00     0.027 A 
ATOM     84  C   UNL A   1      32.628  25.554  23.956  1.00  0.00    -0.011 A 
ATOM     85  C   UNL A   1      31.624  25.776  23.011  1.00  0.00     0.045 A 
ATOM     86  C   UNL A   1      33.541  24.448  23.466  1.00  0.00     0.114 C 
ATOM     87  N   UNL A   1      31.846  24.992  21.896  1.00  0.00    -0.325 N 
ATOM     88  C   UNL A   1      33.002  24.239  22.027  1.00  0.00     0.232 C 
ATOM     89  H   UNL A   1      31.257  24.972  21.107  1.00  0.00     0.169 HD
ATOM     90  O   UNL A   1      33.487  23.556  21.140  1.00  0.00    -0.274 OA
BRANCH  86  91
ATOM     91  C   UNL A   1      33.521  23.145  24.315  1.00  0.00     0.010 C 
ATOM     92  C   UNL A   1      34.806  22.312  24.112  1.00  0.00     0.033 C 
ATOM     93  C   UNL A   1      32.289  22.249  24.074  1.00  0.00     0.033 C 
ATOM     94  C   UNL A   1      34.758  20.982  24.856  1.00  0.00     0.160 C 
ATOM     95  C   UNL A   1      32.398  20.930  24.836  1.00  0.00     0.160 C 
ATOM     96  O   UNL A   1      33.595  20.244  24.486  1.00  0.00    -0.381 OA
ENDBRANCH  86  91
ENDBRANCH  78  80
ENDBRANCH  77  78
ENDBRANCH  76  77
ENDBRANCH  75  76
ENDBRANCH  74  75
ENDBRANCH   1  74
TORSDOF 18
ENDMDL
