MODEL 1
REMARK VINA RESULT:     -10.9      0.000      0.000
REMARK SMILES O=C(CCN/C(=[NH+]\S(=O)(=O)c1ccccc1)c1ccccc1)OCCOCCOC(=O)c1ccc(-c2c3nc(c(-c4c(F)cc(S(=O)(=O)[O-])cc4F)c4ccc([nH]4)c(-c4c(F)cc(S(=O)(=O)[O-])cc4F)c4nc(c(-c5c(F)cc(S(=O)(=O)[O-])cc5F)c5ccc2[nH]5)C=C4)C=C3)cc1
REMARK SMILES IDX 25 1 24 2 23 3 2 4 1 5 3 6 4 7 5 8 6 9 7 11 17 13 18 14
REMARK SMILES IDX 22 15 19 16 21 17 20 18 8 19 9 20 10 21 11 22 12 23 16 24
REMARK SMILES IDX 13 25 15 26 14 27 26 28 27 29 28 30 29 31 30 32 31 33 32 34
REMARK SMILES IDX 33 35 97 36 34 37 96 38 35 39 36 40 37 41 90 42 38 43 95 44
REMARK SMILES IDX 89 45 91 46 39 47 94 48 88 49 87 50 40 52 74 53 53 54 73 55
REMARK SMILES IDX 54 56 57 57 72 58 92 59 55 60 56 61 71 63 93 64 58 65 41 66
REMARK SMILES IDX 42 67 51 68 43 69 44 70 50 71 52 72 45 73 46 74 47 75 48 76
REMARK SMILES IDX 49 77 75 78 76 79 85 80 77 81 78 82 84 83 86 84 79 85 80 86
REMARK SMILES IDX 81 87 82 88 83 89 59 90 60 91 69 92 61 93 62 94 68 95 70 96
REMARK SMILES IDX 63 97 64 98 65 99 66 100 67 101
REMARK H PARENT 5 10 7 12 91 51 57 62
REMARK Flexibility Score: inf
ROOT
ATOM      1  C   UNL A   1      35.308  20.596  25.011  1.00  0.00     0.202 C 
ENDROOT
BRANCH   1   2
ATOM      2  C   UNL A   1      33.874  20.484  24.475  1.00  0.00     0.261 C 
BRANCH   2   3
ATOM      3  O   UNL A   1      33.226  21.702  24.073  1.00  0.00    -0.463 OA
BRANCH   3   4
ATOM      4  C   UNL A   1      32.705  21.879  22.845  1.00  0.00     0.309 C 
ATOM      5  O   UNL A   1      31.868  21.096  22.402  1.00  0.00    -0.252 OA
BRANCH   4   6
ATOM      6  C   UNL A   1      33.284  22.953  21.974  1.00  0.00     0.168 C 
BRANCH   6   7
ATOM      7  C   UNL A   1      33.967  24.056  22.756  1.00  0.00     0.245 C 
BRANCH   7   8
ATOM      8  N   UNL A   1      33.152  25.246  22.971  1.00  0.00    -0.273 N 
ATOM      9  C   UNL A   1      32.197  25.551  23.936  1.00  0.00     0.290 C 
ATOM     10  H   UNL A   1      33.306  25.964  22.314  1.00  0.00     0.305 HD
ATOM     11  N   UNL A   1      31.413  26.592  23.920  1.00  0.00    -0.162 N 
ATOM     12  H   UNL A   1      30.826  26.760  24.692  1.00  0.00     0.327 HD
BRANCH   9  13
ATOM     13  C   UNL A   1      31.988  24.653  25.130  1.00  0.00     0.064 A 
ATOM     14  C   UNL A   1      33.076  24.369  25.968  1.00  0.00     0.016 A 
ATOM     15  C   UNL A   1      30.752  24.055  25.395  1.00  0.00     0.016 A 
ATOM     16  C   UNL A   1      32.913  23.544  27.083  1.00  0.00     0.001 A 
ATOM     17  C   UNL A   1      30.580  23.262  26.534  1.00  0.00     0.001 A 
ATOM     18  C   UNL A   1      31.661  23.009  27.378  1.00  0.00     0.000 A 
ENDBRANCH   9  13
BRANCH  11  19
ATOM     19  S   UNL A   1      31.375  27.616  22.665  1.00  0.00     0.328 S 
ATOM     20  O   UNL A   1      32.387  28.636  22.856  1.00  0.00    -0.179 OA
ATOM     21  O   UNL A   1      31.375  26.810  21.457  1.00  0.00    -0.179 OA
BRANCH  19  22
ATOM     22  C   UNL A   1      29.798  28.433  22.659  1.00  0.00     0.109 A 
ATOM     23  C   UNL A   1      29.632  29.705  22.114  1.00  0.00     0.024 A 
ATOM     24  C   UNL A   1      28.729  27.779  23.291  1.00  0.00     0.024 A 
ATOM     25  C   UNL A   1      28.377  30.319  22.204  1.00  0.00     0.001 A 
ATOM     26  C   UNL A   1      27.487  28.402  23.385  1.00  0.00     0.001 A 
ATOM     27  C   UNL A   1      27.313  29.673  22.843  1.00  0.00     0.000 A 
ENDBRANCH  19  22
ENDBRANCH  11  19
ENDBRANCH   7   8
ENDBRANCH   6   7
ENDBRANCH   4   6
ENDBRANCH   3   4
ENDBRANCH   2   3
ENDBRANCH   1   2
BRANCH   1  28
ATOM     28  O   UNL A   1      36.112  21.697  24.591  1.00  0.00    -0.374 OA
BRANCH  28  29
ATOM     29  C   UNL A   1      36.963  22.333  25.534  1.00  0.00     0.202 C 
BRANCH  29  30
ATOM     30  C   UNL A   1      38.438  21.959  25.463  1.00  0.00     0.261 C 
BRANCH  30  31
ATOM     31  O   UNL A   1      39.142  22.370  26.639  1.00  0.00    -0.460 OA
BRANCH  31  32
ATOM     32  C   UNL A   1      40.347  22.946  26.418  1.00  0.00     0.338 C 
ATOM     33  O   UNL A   1      41.251  22.527  25.714  1.00  0.00    -0.246 OA
BRANCH  32  34
ATOM     34  C   UNL A   1      40.361  24.269  27.067  1.00  0.00     0.060 A 
ATOM     35  C   UNL A   1      41.384  25.168  26.737  1.00  0.00     0.016 A 
ATOM     36  C   UNL A   1      39.399  24.600  28.024  1.00  0.00     0.016 A 
ATOM     37  C   UNL A   1      41.474  26.389  27.400  1.00  0.00     0.010 A 
ATOM     38  C   UNL A   1      39.492  25.819  28.687  1.00  0.00     0.010 A 
ATOM     39  C   UNL A   1      40.547  26.700  28.401  1.00  0.00    -0.014 A 
BRANCH  39  40
ATOM     40  C   UNL A   1      40.764  27.848  29.304  1.00  0.00     0.031 A 
ATOM     41  C   UNL A   1      41.868  27.744  30.315  1.00  0.00     0.074 A 
ATOM     42  C   UNL A   1      39.939  28.905  29.283  1.00  0.00     0.049 A 
ATOM     43  N   UNL A   1      42.135  28.516  31.333  1.00  0.00    -0.248 NA
ATOM     44  C   UNL A   1      42.781  26.600  30.162  1.00  0.00     0.031 C 
ATOM     45  C   UNL A   1      38.855  29.111  28.325  1.00  0.00     0.029 A 
ATOM     46  N   UNL A   1      39.860  29.985  30.125  1.00  0.00    -0.354 N 
ATOM     47  C   UNL A   1      43.235  27.940  31.958  1.00  0.00     0.074 A 
ATOM     48  C   UNL A   1      43.573  26.746  31.213  1.00  0.00     0.031 C 
ATOM     49  C   UNL A   1      38.189  30.229  28.660  1.00  0.00     0.029 A 
ATOM     50  C   UNL A   1      38.772  30.786  29.880  1.00  0.00     0.049 A 
ATOM     51  H   UNL A   1      40.518  30.166  30.835  1.00  0.00     0.167 HD
ATOM     52  C   UNL A   1      43.894  28.365  33.061  1.00  0.00     0.037 A 
ATOM     53  C   UNL A   1      38.278  31.819  30.591  1.00  0.00     0.037 A 
ATOM     54  C   UNL A   1      43.518  29.536  33.808  1.00  0.00     0.049 A 
ATOM     55  C   UNL A   1      38.985  32.247  31.851  1.00  0.00     0.074 A 
ATOM     56  C   UNL A   1      44.120  30.072  34.931  1.00  0.00     0.029 A 
ATOM     57  N   UNL A   1      42.424  30.341  33.515  1.00  0.00    -0.354 N 
ATOM     58  N   UNL A   1      40.044  31.720  32.421  1.00  0.00    -0.248 NA
ATOM     59  C   UNL A   1      38.434  33.406  32.566  1.00  0.00     0.031 C 
ATOM     60  C   UNL A   1      43.356  31.165  35.352  1.00  0.00     0.029 A 
ATOM     61  C   UNL A   1      42.317  31.353  34.452  1.00  0.00     0.049 A 
ATOM     62  H   UNL A   1      41.814  30.209  32.754  1.00  0.00     0.167 HD
ATOM     63  C   UNL A   1      40.307  32.502  33.541  1.00  0.00     0.074 A 
ATOM     64  C   UNL A   1      39.291  33.536  33.571  1.00  0.00     0.031 C 
ATOM     65  C   UNL A   1      41.303  32.382  34.455  1.00  0.00     0.037 A 
BRANCH  52  66
ATOM     66  C   UNL A   1      45.037  27.518  33.546  1.00  0.00     0.058 A 
ATOM     67  C   UNL A   1      46.357  27.733  33.115  1.00  0.00     0.135 A 
ATOM     68  C   UNL A   1      44.804  26.449  34.425  1.00  0.00     0.135 A 
ATOM     69  F   UNL A   1      46.636  28.729  32.259  1.00  0.00    -0.206 F 
ATOM     70  C   UNL A   1      47.394  26.886  33.496  1.00  0.00     0.059 A 
ATOM     71  C   UNL A   1      45.830  25.609  34.845  1.00  0.00     0.059 A 
ATOM     72  F   UNL A   1      43.562  26.195  34.868  1.00  0.00    -0.206 F 
ATOM     73  C   UNL A   1      47.117  25.820  34.353  1.00  0.00     0.060 A 
BRANCH  73  74
ATOM     74  S   UNL A   1      48.460  24.700  34.799  1.00  0.00     0.124 S 
ATOM     75  O   UNL A   1      49.117  25.444  35.868  1.00  0.00    -0.237 OA
ATOM     76  O   UNL A   1      47.741  23.499  35.213  1.00  0.00    -0.237 OA
ATOM     77  O   UNL A   1      49.223  24.573  33.561  1.00  0.00    -0.744 OA
ENDBRANCH  73  74
ENDBRANCH  52  66
BRANCH  53  78
ATOM     78  C   UNL A   1      37.041  32.498  30.125  1.00  0.00     0.058 A 
ATOM     79  C   UNL A   1      35.794  32.196  30.689  1.00  0.00     0.135 A 
ATOM     80  C   UNL A   1      37.091  33.510  29.152  1.00  0.00     0.135 A 
ATOM     81  F   UNL A   1      35.693  31.229  31.613  1.00  0.00    -0.206 F 
ATOM     82  C   UNL A   1      34.640  32.877  30.312  1.00  0.00     0.059 A 
ATOM     83  C   UNL A   1      35.956  34.221  28.776  1.00  0.00     0.059 A 
ATOM     84  F   UNL A   1      38.263  33.842  28.588  1.00  0.00    -0.206 F 
ATOM     85  C   UNL A   1      34.734  33.897  29.364  1.00  0.00     0.060 A 
BRANCH  85  86
ATOM     86  S   UNL A   1      33.246  34.837  28.955  1.00  0.00     0.124 S 
ATOM     87  O   UNL A   1      32.607  34.960  30.261  1.00  0.00    -0.237 OA
ATOM     88  O   UNL A   1      33.805  36.066  28.400  1.00  0.00    -0.237 OA
ATOM     89  O   UNL A   1      32.559  33.980  27.995  1.00  0.00    -0.744 OA
ENDBRANCH  85  86
ENDBRANCH  53  78
BRANCH  65  90
ATOM     90  C   UNL A   1      41.391  33.420  35.542  1.00  0.00     0.058 A 
ATOM     91  C   UNL A   1      41.969  34.678  35.324  1.00  0.00     0.135 A 
ATOM     92  C   UNL A   1      40.788  33.180  36.789  1.00  0.00     0.135 A 
ATOM     93  F   UNL A   1      42.565  34.956  34.153  1.00  0.00    -0.206 F 
ATOM     94  C   UNL A   1      41.951  35.664  36.306  1.00  0.00     0.059 A 
ATOM     95  C   UNL A   1      40.735  34.160  37.774  1.00  0.00     0.059 A 
ATOM     96  F   UNL A   1      40.211  31.996  37.045  1.00  0.00    -0.206 F 
ATOM     97  C   UNL A   1      41.322  35.399  37.525  1.00  0.00     0.060 A 
BRANCH  97  98
ATOM     98  S   UNL A   1      41.242  36.710  38.764  1.00  0.00     0.124 S 
ATOM     99  O   UNL A   1      41.327  35.949  40.006  1.00  0.00    -0.237 OA
ATOM    100  O   UNL A   1      42.410  37.521  38.436  1.00  0.00    -0.237 OA
ATOM    101  O   UNL A   1      39.953  37.345  38.505  1.00  0.00    -0.744 OA
ENDBRANCH  97  98
ENDBRANCH  65  90
ENDBRANCH  39  40
ENDBRANCH  32  34
ENDBRANCH  31  32
ENDBRANCH  30  31
ENDBRANCH  29  30
ENDBRANCH  28  29
ENDBRANCH   1  28
TORSDOF 22
ENDMDL
MODEL 2
REMARK VINA RESULT:     -10.9      1.424      2.238
REMARK SMILES O=C(CCN/C(=[NH+]\S(=O)(=O)c1ccccc1)c1ccccc1)OCCOCCOC(=O)c1ccc(-c2c3nc(c(-c4c(F)cc(S(=O)(=O)[O-])cc4F)c4ccc([nH]4)c(-c4c(F)cc(S(=O)(=O)[O-])cc4F)c4nc(c(-c5c(F)cc(S(=O)(=O)[O-])cc5F)c5ccc2[nH]5)C=C4)C=C3)cc1
REMARK SMILES IDX 25 1 24 2 23 3 2 4 1 5 3 6 4 7 5 8 6 9 7 11 17 13 18 14
REMARK SMILES IDX 22 15 19 16 21 17 20 18 8 19 9 20 10 21 11 22 12 23 16 24
REMARK SMILES IDX 13 25 15 26 14 27 26 28 27 29 28 30 29 31 30 32 31 33 32 34
REMARK SMILES IDX 33 35 97 36 34 37 96 38 35 39 36 40 37 41 90 42 38 43 95 44
REMARK SMILES IDX 89 45 91 46 39 47 94 48 88 49 87 50 40 52 74 53 53 54 73 55
REMARK SMILES IDX 54 56 57 57 72 58 92 59 55 60 56 61 71 63 93 64 58 65 41 66
REMARK SMILES IDX 42 67 51 68 43 69 44 70 50 71 52 72 45 73 46 74 47 75 48 76
REMARK SMILES IDX 49 77 75 78 76 79 85 80 77 81 78 82 84 83 86 84 79 85 80 86
REMARK SMILES IDX 81 87 82 88 83 89 59 90 60 91 69 92 61 93 62 94 68 95 70 96
REMARK SMILES IDX 63 97 64 98 65 99 66 100 67 101
REMARK H PARENT 5 10 7 12 91 51 57 62
REMARK Flexibility Score: inf
ROOT
ATOM      1  C   UNL A   1      35.572  22.692  26.125  1.00  0.00     0.202 C 
ENDROOT
BRANCH   1   2
ATOM      2  C   UNL A   1      34.144  22.131  26.087  1.00  0.00     0.261 C 
BRANCH   2   3
ATOM      3  O   UNL A   1      33.112  22.922  26.700  1.00  0.00    -0.463 OA
BRANCH   3   4
ATOM      4  C   UNL A   1      32.265  23.689  25.989  1.00  0.00     0.309 C 
ATOM      5  O   UNL A   1      31.221  23.219  25.541  1.00  0.00    -0.252 OA
BRANCH   4   6
ATOM      6  C   UNL A   1      32.697  25.077  25.623  1.00  0.00     0.168 C 
BRANCH   6   7
ATOM      7  C   UNL A   1      31.745  26.150  26.110  1.00  0.00     0.245 C 
BRANCH   7   8
ATOM      8  N   UNL A   1      31.388  27.148  25.108  1.00  0.00    -0.273 N 
ATOM      9  C   UNL A   1      31.698  28.500  25.000  1.00  0.00     0.290 C 
ATOM     10  H   UNL A   1      30.825  26.803  24.378  1.00  0.00     0.305 HD
ATOM     11  N   UNL A   1      31.174  29.328  24.139  1.00  0.00    -0.162 N 
ATOM     12  H   UNL A   1      31.521  30.249  24.091  1.00  0.00     0.327 HD
BRANCH   9  13
ATOM     13  C   UNL A   1      32.712  29.139  25.916  1.00  0.00     0.064 A 
ATOM     14  C   UNL A   1      33.959  28.522  26.088  1.00  0.00     0.016 A 
ATOM     15  C   UNL A   1      32.424  30.301  26.638  1.00  0.00     0.016 A 
ATOM     16  C   UNL A   1      34.920  29.091  26.927  1.00  0.00     0.001 A 
ATOM     17  C   UNL A   1      33.400  30.892  27.446  1.00  0.00     0.001 A 
ATOM     18  C   UNL A   1      34.648  30.287  27.589  1.00  0.00     0.000 A 
ENDBRANCH   9  13
BRANCH  11  19
ATOM     19  S   UNL A   1      29.970  28.887  23.150  1.00  0.00     0.328 S 
ATOM     20  O   UNL A   1      30.528  28.196  22.004  1.00  0.00    -0.179 OA
ATOM     21  O   UNL A   1      28.962  28.238  23.969  1.00  0.00    -0.179 OA
BRANCH  19  22
ATOM     22  C   UNL A   1      29.179  30.357  22.545  1.00  0.00     0.109 A 
ATOM     23  C   UNL A   1      28.738  30.465  21.227  1.00  0.00     0.024 A 
ATOM     24  C   UNL A   1      29.073  31.444  23.426  1.00  0.00     0.024 A 
ATOM     25  C   UNL A   1      28.184  31.676  20.797  1.00  0.00     0.001 A 
ATOM     26  C   UNL A   1      28.530  32.649  22.987  1.00  0.00     0.001 A 
ATOM     27  C   UNL A   1      28.088  32.764  21.672  1.00  0.00     0.000 A 
ENDBRANCH  19  22
ENDBRANCH  11  19
ENDBRANCH   7   8
ENDBRANCH   6   7
ENDBRANCH   4   6
ENDBRANCH   3   4
ENDBRANCH   2   3
ENDBRANCH   1   2
BRANCH   1  28
ATOM     28  O   UNL A   1      36.532  22.184  25.201  1.00  0.00    -0.374 OA
BRANCH  28  29
ATOM     29  C   UNL A   1      37.885  22.606  25.305  1.00  0.00     0.202 C 
BRANCH  29  30
ATOM     30  C   UNL A   1      38.850  21.609  25.934  1.00  0.00     0.261 C 
BRANCH  30  31
ATOM     31  O   UNL A   1      39.707  22.240  26.891  1.00  0.00    -0.460 OA
BRANCH  31  32
ATOM     32  C   UNL A   1      40.667  23.039  26.367  1.00  0.00     0.338 C 
ATOM     33  O   UNL A   1      41.390  22.802  25.414  1.00  0.00    -0.246 OA
BRANCH  32  34
ATOM     34  C   UNL A   1      40.618  24.343  27.053  1.00  0.00     0.060 A 
ATOM     35  C   UNL A   1      41.490  25.355  26.632  1.00  0.00     0.016 A 
ATOM     36  C   UNL A   1      39.750  24.547  28.128  1.00  0.00     0.016 A 
ATOM     37  C   UNL A   1      41.529  26.566  27.320  1.00  0.00     0.010 A 
ATOM     38  C   UNL A   1      39.793  25.754  28.816  1.00  0.00     0.010 A 
ATOM     39  C   UNL A   1      40.704  26.753  28.435  1.00  0.00    -0.014 A 
BRANCH  39  40
ATOM     40  C   UNL A   1      40.906  27.899  29.343  1.00  0.00     0.031 A 
ATOM     41  C   UNL A   1      42.018  27.810  30.346  1.00  0.00     0.074 A 
ATOM     42  C   UNL A   1      40.062  28.942  29.332  1.00  0.00     0.049 A 
ATOM     43  N   UNL A   1      42.277  28.580  31.367  1.00  0.00    -0.248 NA
ATOM     44  C   UNL A   1      42.950  26.683  30.182  1.00  0.00     0.031 C 
ATOM     45  C   UNL A   1      38.969  29.133  28.382  1.00  0.00     0.029 A 
ATOM     46  N   UNL A   1      39.969  30.015  30.180  1.00  0.00    -0.354 N 
ATOM     47  C   UNL A   1      43.390  28.021  31.983  1.00  0.00     0.074 A 
ATOM     48  C   UNL A   1      43.745  26.838  31.230  1.00  0.00     0.031 C 
ATOM     49  C   UNL A   1      38.285  30.237  28.726  1.00  0.00     0.029 A 
ATOM     50  C   UNL A   1      38.865  30.798  29.946  1.00  0.00     0.049 A 
ATOM     51  H   UNL A   1      40.628  30.205  30.887  1.00  0.00     0.167 HD
ATOM     52  C   UNL A   1      44.047  28.453  33.085  1.00  0.00     0.037 A 
ATOM     53  C   UNL A   1      38.357  31.819  30.665  1.00  0.00     0.037 A 
ATOM     54  C   UNL A   1      43.656  29.613  33.840  1.00  0.00     0.049 A 
ATOM     55  C   UNL A   1      39.064  32.252  31.924  1.00  0.00     0.074 A 
ATOM     56  C   UNL A   1      44.254  30.153  34.962  1.00  0.00     0.029 A 
ATOM     57  N   UNL A   1      42.546  30.399  33.557  1.00  0.00    -0.354 N 
ATOM     58  N   UNL A   1      40.135  31.741  32.484  1.00  0.00    -0.248 NA
ATOM     59  C   UNL A   1      38.497  33.398  32.648  1.00  0.00     0.031 C 
ATOM     60  C   UNL A   1      43.474  31.230  35.393  1.00  0.00     0.029 A 
ATOM     61  C   UNL A   1      42.426  31.404  34.500  1.00  0.00     0.049 A 
ATOM     62  H   UNL A   1      41.934  30.261  32.799  1.00  0.00     0.167 HD
ATOM     63  C   UNL A   1      40.391  32.522  33.607  1.00  0.00     0.074 A 
ATOM     64  C   UNL A   1      39.357  33.537  33.649  1.00  0.00     0.031 C 
ATOM     65  C   UNL A   1      41.394  32.415  34.515  1.00  0.00     0.037 A 
BRANCH  52  66
ATOM     66  C   UNL A   1      45.208  27.623  33.558  1.00  0.00     0.058 A 
ATOM     67  C   UNL A   1      46.520  27.857  33.113  1.00  0.00     0.135 A 
ATOM     68  C   UNL A   1      45.000  26.551  34.441  1.00  0.00     0.135 A 
ATOM     69  F   UNL A   1      46.775  28.856  32.253  1.00  0.00    -0.206 F 
ATOM     70  C   UNL A   1      47.574  27.026  33.484  1.00  0.00     0.059 A 
ATOM     71  C   UNL A   1      46.044  25.728  34.851  1.00  0.00     0.059 A 
ATOM     72  F   UNL A   1      43.767  26.280  34.898  1.00  0.00    -0.206 F 
ATOM     73  C   UNL A   1      47.322  25.958  34.346  1.00  0.00     0.060 A 
BRANCH  73  74
ATOM     74  S   UNL A   1      48.686  24.858  34.779  1.00  0.00     0.124 S 
ATOM     75  O   UNL A   1      48.933  24.187  33.506  1.00  0.00    -0.237 OA
ATOM     76  O   UNL A   1      49.719  25.794  35.211  1.00  0.00    -0.237 OA
ATOM     77  O   UNL A   1      48.125  24.018  35.833  1.00  0.00    -0.744 OA
ENDBRANCH  73  74
ENDBRANCH  52  66
BRANCH  53  78
ATOM     78  C   UNL A   1      37.105  32.478  30.210  1.00  0.00     0.058 A 
ATOM     79  C   UNL A   1      35.862  32.116  30.745  1.00  0.00     0.135 A 
ATOM     80  C   UNL A   1      37.136  33.529  29.278  1.00  0.00     0.135 A 
ATOM     81  F   UNL A   1      35.780  31.111  31.628  1.00  0.00    -0.206 F 
ATOM     82  C   UNL A   1      34.693  32.776  30.380  1.00  0.00     0.059 A 
ATOM     83  C   UNL A   1      35.984  34.219  28.915  1.00  0.00     0.059 A 
ATOM     84  F   UNL A   1      38.304  33.919  28.743  1.00  0.00    -0.206 F 
ATOM     85  C   UNL A   1      34.766  33.836  29.474  1.00  0.00     0.060 A 
BRANCH  85  86
ATOM     86  S   UNL A   1      33.255  34.746  29.083  1.00  0.00     0.124 S 
ATOM     87  O   UNL A   1      32.791  35.132  30.410  1.00  0.00    -0.237 OA
ATOM     88  O   UNL A   1      33.760  35.829  28.244  1.00  0.00    -0.237 OA
ATOM     89  O   UNL A   1      32.436  33.757  28.390  1.00  0.00    -0.744 OA
ENDBRANCH  85  86
ENDBRANCH  53  78
BRANCH  65  90
ATOM     90  C   UNL A   1      41.470  33.449  35.606  1.00  0.00     0.058 A 
ATOM     91  C   UNL A   1      42.129  34.673  35.428  1.00  0.00     0.135 A 
ATOM     92  C   UNL A   1      40.777  33.245  36.813  1.00  0.00     0.135 A 
ATOM     93  F   UNL A   1      42.811  34.915  34.297  1.00  0.00    -0.206 F 
ATOM     94  C   UNL A   1      42.102  35.660  36.409  1.00  0.00     0.059 A 
ATOM     95  C   UNL A   1      40.715  34.227  37.794  1.00  0.00     0.059 A 
ATOM     96  F   UNL A   1      40.121  32.094  37.030  1.00  0.00    -0.206 F 
ATOM     97  C   UNL A   1      41.384  35.432  37.585  1.00  0.00     0.060 A 
BRANCH  97  98
ATOM     98  S   UNL A   1      41.298  36.748  38.818  1.00  0.00     0.124 S 
ATOM     99  O   UNL A   1      42.402  37.609  38.408  1.00  0.00    -0.237 OA
ATOM    100  O   UNL A   1      39.959  37.288  38.605  1.00  0.00    -0.237 OA
ATOM    101  O   UNL A   1      41.489  36.043  40.082  1.00  0.00    -0.744 OA
ENDBRANCH  97  98
ENDBRANCH  65  90
ENDBRANCH  39  40
ENDBRANCH  32  34
ENDBRANCH  31  32
ENDBRANCH  30  31
ENDBRANCH  29  30
ENDBRANCH  28  29
ENDBRANCH   1  28
TORSDOF 22
ENDMDL
MODEL 3
REMARK VINA RESULT:     -10.8      5.404      9.721
REMARK SMILES O=C(CCN/C(=[NH+]\S(=O)(=O)c1ccccc1)c1ccccc1)OCCOCCOC(=O)c1ccc(-c2c3nc(c(-c4c(F)cc(S(=O)(=O)[O-])cc4F)c4ccc([nH]4)c(-c4c(F)cc(S(=O)(=O)[O-])cc4F)c4nc(c(-c5c(F)cc(S(=O)(=O)[O-])cc5F)c5ccc2[nH]5)C=C4)C=C3)cc1
REMARK SMILES IDX 25 1 24 2 23 3 2 4 1 5 3 6 4 7 5 8 6 9 7 11 17 13 18 14
REMARK SMILES IDX 22 15 19 16 21 17 20 18 8 19 9 20 10 21 11 22 12 23 16 24
REMARK SMILES IDX 13 25 15 26 14 27 26 28 27 29 28 30 29 31 30 32 31 33 32 34
REMARK SMILES IDX 33 35 97 36 34 37 96 38 35 39 36 40 37 41 90 42 38 43 95 44
REMARK SMILES IDX 89 45 91 46 39 47 94 48 88 49 87 50 40 52 74 53 53 54 73 55
REMARK SMILES IDX 54 56 57 57 72 58 92 59 55 60 56 61 71 63 93 64 58 65 41 66
REMARK SMILES IDX 42 67 51 68 43 69 44 70 50 71 52 72 45 73 46 74 47 75 48 76
REMARK SMILES IDX 49 77 75 78 76 79 85 80 77 81 78 82 84 83 86 84 79 85 80 86
REMARK SMILES IDX 81 87 82 88 83 89 59 90 60 91 69 92 61 93 62 94 68 95 70 96
REMARK SMILES IDX 63 97 64 98 65 99 66 100 67 101
REMARK H PARENT 5 10 7 12 91 51 57 62
REMARK Flexibility Score: inf
ROOT
ATOM      1  C   UNL A   1      35.158  20.577  25.253  1.00  0.00     0.202 C 
ENDROOT
BRANCH   1   2
ATOM      2  C   UNL A   1      33.785  20.840  24.619  1.00  0.00     0.261 C 
BRANCH   2   3
ATOM      3  O   UNL A   1      33.569  22.135  24.036  1.00  0.00    -0.463 OA
BRANCH   3   4
ATOM      4  C   UNL A   1      32.923  22.310  22.867  1.00  0.00     0.309 C 
ATOM      5  O   UNL A   1      32.133  21.462  22.457  1.00  0.00    -0.252 OA
BRANCH   4   6
ATOM      6  C   UNL A   1      33.309  23.476  22.008  1.00  0.00     0.168 C 
BRANCH   6   7
ATOM      7  C   UNL A   1      33.927  24.617  22.789  1.00  0.00     0.245 C 
BRANCH   7   8
ATOM      8  N   UNL A   1      33.020  25.723  23.073  1.00  0.00    -0.273 N 
ATOM      9  C   UNL A   1      32.011  25.870  24.020  1.00  0.00     0.290 C 
ATOM     10  H   UNL A   1      33.145  26.507  22.490  1.00  0.00     0.305 HD
ATOM     11  N   UNL A   1      31.153  26.852  24.062  1.00  0.00    -0.162 N 
ATOM     12  H   UNL A   1      30.527  26.907  24.820  1.00  0.00     0.327 HD
BRANCH   9  13
ATOM     13  C   UNL A   1      31.824  24.855  25.119  1.00  0.00     0.064 A 
ATOM     14  C   UNL A   1      30.663  24.069  25.129  1.00  0.00     0.016 A 
ATOM     15  C   UNL A   1      32.751  24.712  26.156  1.00  0.00     0.016 A 
ATOM     16  C   UNL A   1      30.463  23.117  26.132  1.00  0.00     0.001 A 
ATOM     17  C   UNL A   1      32.569  23.731  27.136  1.00  0.00     0.001 A 
ATOM     18  C   UNL A   1      31.426  22.934  27.123  1.00  0.00     0.000 A 
ENDBRANCH   9  13
BRANCH  11  19
ATOM     19  S   UNL A   1      31.087  27.981  22.903  1.00  0.00     0.328 S 
ATOM     20  O   UNL A   1      32.235  28.857  23.029  1.00  0.00    -0.179 OA
ATOM     21  O   UNL A   1      30.833  27.293  21.650  1.00  0.00    -0.179 OA
BRANCH  19  22
ATOM     22  C   UNL A   1      29.637  28.972  23.172  1.00  0.00     0.109 A 
ATOM     23  C   UNL A   1      28.355  28.474  22.949  1.00  0.00     0.024 A 
ATOM     24  C   UNL A   1      29.830  30.309  23.553  1.00  0.00     0.024 A 
ATOM     25  C   UNL A   1      27.260  29.329  23.115  1.00  0.00     0.001 A 
ATOM     26  C   UNL A   1      28.735  31.157  23.705  1.00  0.00     0.001 A 
ATOM     27  C   UNL A   1      27.451  30.665  23.484  1.00  0.00     0.000 A 
ENDBRANCH  19  22
ENDBRANCH  11  19
ENDBRANCH   7   8
ENDBRANCH   6   7
ENDBRANCH   4   6
ENDBRANCH   3   4
ENDBRANCH   2   3
ENDBRANCH   1   2
BRANCH   1  28
ATOM     28  O   UNL A   1      36.319  21.108  24.617  1.00  0.00    -0.374 OA
BRANCH  28  29
ATOM     29  C   UNL A   1      37.424  21.507  25.415  1.00  0.00     0.202 C 
BRANCH  29  30
ATOM     30  C   UNL A   1      38.662  20.622  25.335  1.00  0.00     0.261 C 
BRANCH  30  31
ATOM     31  O   UNL A   1      39.516  20.808  26.468  1.00  0.00    -0.460 OA
BRANCH  31  32
ATOM     32  C   UNL A   1      40.773  20.325  26.329  1.00  0.00     0.338 C 
ATOM     33  O   UNL A   1      41.103  19.229  25.908  1.00  0.00    -0.246 OA
BRANCH  32  34
ATOM     34  C   UNL A   1      41.728  21.403  26.643  1.00  0.00     0.060 A 
ATOM     35  C   UNL A   1      42.128  21.578  27.974  1.00  0.00     0.016 A 
ATOM     36  C   UNL A   1      42.187  22.259  25.640  1.00  0.00     0.016 A 
ATOM     37  C   UNL A   1      42.957  22.644  28.314  1.00  0.00     0.010 A 
ATOM     38  C   UNL A   1      43.013  23.324  25.981  1.00  0.00     0.010 A 
ATOM     39  C   UNL A   1      43.372  23.539  27.322  1.00  0.00    -0.014 A 
BRANCH  39  40
ATOM     40  C   UNL A   1      44.019  24.818  27.677  1.00  0.00     0.031 A 
ATOM     41  C   UNL A   1      43.139  25.942  28.137  1.00  0.00     0.074 A 
ATOM     42  C   UNL A   1      45.337  24.994  27.501  1.00  0.00     0.049 A 
ATOM     43  N   UNL A   1      43.430  27.202  28.317  1.00  0.00    -0.248 NA
ATOM     44  C   UNL A   1      41.735  25.597  28.410  1.00  0.00     0.031 C 
ATOM     45  C   UNL A   1      46.278  23.958  27.082  1.00  0.00     0.029 A 
ATOM     46  N   UNL A   1      46.101  26.127  27.609  1.00  0.00    -0.354 N 
ATOM     47  C   UNL A   1      42.240  27.807  28.706  1.00  0.00     0.074 A 
ATOM     48  C   UNL A   1      41.223  26.779  28.717  1.00  0.00     0.031 C 
ATOM     49  C   UNL A   1      47.492  24.514  26.927  1.00  0.00     0.029 A 
ATOM     50  C   UNL A   1      47.397  25.950  27.189  1.00  0.00     0.049 A 
ATOM     51  H   UNL A   1      45.755  26.982  27.953  1.00  0.00     0.167 HD
ATOM     52  C   UNL A   1      42.019  29.106  29.012  1.00  0.00     0.037 A 
ATOM     53  C   UNL A   1      48.376  26.855  26.991  1.00  0.00     0.037 A 
ATOM     54  C   UNL A   1      43.039  30.120  28.960  1.00  0.00     0.049 A 
ATOM     55  C   UNL A   1      48.100  28.309  27.278  1.00  0.00     0.074 A 
ATOM     56  C   UNL A   1      42.934  31.464  29.263  1.00  0.00     0.029 A 
ATOM     57  N   UNL A   1      44.349  29.899  28.554  1.00  0.00    -0.354 N 
ATOM     58  N   UNL A   1      46.983  28.872  27.677  1.00  0.00    -0.248 NA
ATOM     59  C   UNL A   1      49.212  29.250  27.091  1.00  0.00     0.031 C 
ATOM     60  C   UNL A   1      44.165  32.068  28.985  1.00  0.00     0.029 A 
ATOM     61  C   UNL A   1      45.057  31.088  28.574  1.00  0.00     0.049 A 
ATOM     62  H   UNL A   1      44.719  29.026  28.291  1.00  0.00     0.167 HD
ATOM     63  C   UNL A   1      47.266  30.227  27.821  1.00  0.00     0.074 A 
ATOM     64  C   UNL A   1      48.659  30.398  27.460  1.00  0.00     0.031 C 
ATOM     65  C   UNL A   1      46.451  31.234  28.222  1.00  0.00     0.037 A 
BRANCH  52  66
ATOM     66  C   UNL A   1      40.610  29.496  29.365  1.00  0.00     0.058 A 
ATOM     67  C   UNL A   1      39.621  29.679  28.384  1.00  0.00     0.135 A 
ATOM     68  C   UNL A   1      40.253  29.728  30.703  1.00  0.00     0.135 A 
ATOM     69  F   UNL A   1      39.912  29.490  27.087  1.00  0.00    -0.206 F 
ATOM     70  C   UNL A   1      38.346  30.129  28.712  1.00  0.00     0.059 A 
ATOM     71  C   UNL A   1      38.974  30.148  31.057  1.00  0.00     0.059 A 
ATOM     72  F   UNL A   1      41.157  29.571  31.682  1.00  0.00    -0.206 F 
ATOM     73  C   UNL A   1      38.036  30.371  30.050  1.00  0.00     0.060 A 
BRANCH  73  74
ATOM     74  S   UNL A   1      36.395  31.004  30.457  1.00  0.00     0.124 S 
ATOM     75  O   UNL A   1      36.068  30.220  31.644  1.00  0.00    -0.237 OA
ATOM     76  O   UNL A   1      36.654  32.421  30.685  1.00  0.00    -0.237 OA
ATOM     77  O   UNL A   1      35.608  30.698  29.266  1.00  0.00    -0.744 OA
ENDBRANCH  73  74
ENDBRANCH  52  66
BRANCH  53  78
ATOM     78  C   UNL A   1      49.695  26.401  26.479  1.00  0.00     0.058 A 
ATOM     79  C   UNL A   1      50.007  26.479  25.115  1.00  0.00     0.135 A 
ATOM     80  C   UNL A   1      50.694  25.940  27.353  1.00  0.00     0.135 A 
ATOM     81  F   UNL A   1      49.083  26.900  24.240  1.00  0.00    -0.206 F 
ATOM     82  C   UNL A   1      51.264  26.125  24.634  1.00  0.00     0.059 A 
ATOM     83  C   UNL A   1      51.965  25.603  26.900  1.00  0.00     0.059 A 
ATOM     84  F   UNL A   1      50.447  25.856  28.670  1.00  0.00    -0.206 F 
ATOM     85  C   UNL A   1      52.241  25.701  25.538  1.00  0.00     0.060 A 
BRANCH  85  86
ATOM     86  S   UNL A   1      53.896  25.336  24.912  1.00  0.00     0.124 S 
ATOM     87  O   UNL A   1      53.897  23.878  24.911  1.00  0.00    -0.237 OA
ATOM     88  O   UNL A   1      53.872  25.974  23.598  1.00  0.00    -0.237 OA
ATOM     89  O   UNL A   1      54.774  25.968  25.891  1.00  0.00    -0.744 OA
ENDBRANCH  85  86
ENDBRANCH  53  78
BRANCH  65  90
ATOM     90  C   UNL A   1      47.044  32.611  28.354  1.00  0.00     0.058 A 
ATOM     91  C   UNL A   1      47.781  32.999  29.482  1.00  0.00     0.135 A 
ATOM     92  C   UNL A   1      46.957  33.516  27.282  1.00  0.00     0.135 A 
ATOM     93  F   UNL A   1      47.889  32.175  30.536  1.00  0.00    -0.206 F 
ATOM     94  C   UNL A   1      48.411  34.239  29.544  1.00  0.00     0.059 A 
ATOM     95  C   UNL A   1      47.600  34.748  27.312  1.00  0.00     0.059 A 
ATOM     96  F   UNL A   1      46.271  33.189  26.176  1.00  0.00    -0.206 F 
ATOM     97  C   UNL A   1      48.323  35.103  28.450  1.00  0.00     0.060 A 
BRANCH  97  98
ATOM     98  S   UNL A   1      49.204  36.678  28.515  1.00  0.00     0.124 S 
ATOM     99  O   UNL A   1      49.856  36.598  29.818  1.00  0.00    -0.237 OA
ATOM    100  O   UNL A   1      50.087  36.590  27.357  1.00  0.00    -0.237 OA
ATOM    101  O   UNL A   1      48.137  37.668  28.408  1.00  0.00    -0.744 OA
ENDBRANCH  97  98
ENDBRANCH  65  90
ENDBRANCH  39  40
ENDBRANCH  32  34
ENDBRANCH  31  32
ENDBRANCH  30  31
ENDBRANCH  29  30
ENDBRANCH  28  29
ENDBRANCH   1  28
TORSDOF 22
ENDMDL
