MODEL 1
REMARK VINA RESULT:     -11.2      0.000      0.000
REMARK SMILES O=C(OCCOCCOC(=O)c1ccc(F)c(NS(=O)(=O)c2cc(Cl)sc2Cl)c1)c1ccc(-c2c3nc(c(-c4c(F)cc(S(=O)(=O)[O-])cc4F)c4ccc([nH]4)c(-c4c(F)cc(S(=O)(=O)[O-])cc4F)c4nc(c(-c5c(F)cc(S(=O)(=O)[O-])cc5F)c5ccc2[nH]5)C=C4)C=C3)cc1
REMARK SMILES IDX 6 1 5 2 4 3 3 4 2 5 1 6 30 7 31 8 95 9 32 10 94 11 33 12
REMARK SMILES IDX 34 13 35 14 88 15 36 16 93 17 87 18 89 19 37 20 92 21 86 22
REMARK SMILES IDX 85 23 38 25 72 26 51 27 71 28 52 29 55 30 70 31 90 32 53 33
REMARK SMILES IDX 54 34 69 36 91 37 56 38 39 39 40 40 49 41 41 42 42 43 48 44
REMARK SMILES IDX 50 45 43 46 44 47 45 48 46 49 47 50 73 51 74 52 83 53 75 54
REMARK SMILES IDX 76 55 82 56 84 57 77 58 78 59 79 60 80 61 81 62 57 63 58 64
REMARK SMILES IDX 67 65 59 66 60 67 66 68 68 69 61 70 62 71 63 72 64 73 65 74
REMARK SMILES IDX 7 75 8 76 9 77 10 78 11 79 12 80 13 81 29 82 14 83 17 84
REMARK SMILES IDX 15 85 16 86 18 87 19 89 20 90 21 91 22 92 23 93 27 94 24 95
REMARK SMILES IDX 26 96 28 97 25 98
REMARK H PARENT 89 24 55 35 18 88
REMARK Flexibility Score: inf
ROOT
ATOM      1  O   UNL A   1      38.527  21.888  26.165  1.00  0.00    -0.374 OA
ENDROOT
BRANCH   1   2
ATOM      2  C   UNL A   1      39.910  21.591  26.000  1.00  0.00     0.202 C 
BRANCH   2   3
ATOM      3  C   UNL A   1      40.822  22.583  26.726  1.00  0.00     0.261 C 
BRANCH   3   4
ATOM      4  O   UNL A   1      40.326  23.921  26.621  1.00  0.00    -0.460 OA
BRANCH   4   5
ATOM      5  C   UNL A   1      41.095  25.038  26.638  1.00  0.00     0.338 C 
ATOM      6  O   UNL A   1      41.753  25.319  25.638  1.00  0.00    -0.246 OA
BRANCH   5   7
ATOM      7  C   UNL A   1      41.022  26.036  27.752  1.00  0.00     0.060 A 
ATOM      8  C   UNL A   1      41.921  27.085  27.978  1.00  0.00     0.016 A 
ATOM      9  C   UNL A   1      39.895  25.941  28.586  1.00  0.00     0.016 A 
ATOM     10  C   UNL A   1      41.738  27.984  29.024  1.00  0.00     0.010 A 
ATOM     11  C   UNL A   1      39.693  26.850  29.625  1.00  0.00     0.010 A 
ATOM     12  C   UNL A   1      40.627  27.865  29.854  1.00  0.00    -0.014 A 
BRANCH  12  13
ATOM     13  C   UNL A   1      40.508  28.754  31.022  1.00  0.00     0.031 A 
ATOM     14  C   UNL A   1      39.476  29.836  30.982  1.00  0.00     0.074 A 
ATOM     15  C   UNL A   1      41.272  28.541  32.106  1.00  0.00     0.049 A 
ATOM     16  N   UNL A   1      39.258  30.797  31.835  1.00  0.00    -0.248 NA
ATOM     17  C   UNL A   1      38.562  29.828  29.828  1.00  0.00     0.031 C 
ATOM     18  C   UNL A   1      42.220  27.436  32.264  1.00  0.00     0.029 A 
ATOM     19  N   UNL A   1      41.367  29.235  33.282  1.00  0.00    -0.354 N 
ATOM     20  C   UNL A   1      38.197  31.524  31.311  1.00  0.00     0.074 A 
ATOM     21  C   UNL A   1      37.816  30.895  30.067  1.00  0.00     0.031 C 
ATOM     22  C   UNL A   1      42.797  27.525  33.474  1.00  0.00     0.029 A 
ATOM     23  C   UNL A   1      42.304  28.724  34.147  1.00  0.00     0.049 A 
ATOM     24  H   UNL A   1      40.816  30.024  33.489  1.00  0.00     0.167 HD
ATOM     25  C   UNL A   1      37.610  32.628  31.826  1.00  0.00     0.037 A 
ATOM     26  C   UNL A   1      42.734  29.196  35.333  1.00  0.00     0.037 A 
ATOM     27  C   UNL A   1      38.029  33.236  33.060  1.00  0.00     0.049 A 
ATOM     28  C   UNL A   1      42.127  30.473  35.849  1.00  0.00     0.074 A 
ATOM     29  C   UNL A   1      37.569  34.396  33.652  1.00  0.00     0.029 A 
ATOM     30  N   UNL A   1      39.018  32.722  33.889  1.00  0.00    -0.354 N 
ATOM     31  N   UNL A   1      41.177  31.204  35.312  1.00  0.00    -0.248 NA
ATOM     32  C   UNL A   1      42.656  31.005  37.111  1.00  0.00     0.031 C 
ATOM     33  C   UNL A   1      38.303  34.599  34.825  1.00  0.00     0.029 A 
ATOM     34  C   UNL A   1      39.192  33.545  34.985  1.00  0.00     0.049 A 
ATOM     35  H   UNL A   1      39.519  31.892  33.721  1.00  0.00     0.167 HD
ATOM     36  C   UNL A   1      40.986  32.277  36.172  1.00  0.00     0.074 A 
ATOM     37  C   UNL A   1      41.914  32.094  37.272  1.00  0.00     0.031 C 
ATOM     38  C   UNL A   1      40.125  33.319  36.063  1.00  0.00     0.037 A 
BRANCH  25  39
ATOM     39  C   UNL A   1      36.516  33.263  31.018  1.00  0.00     0.058 A 
ATOM     40  C   UNL A   1      35.184  33.200  31.455  1.00  0.00     0.135 A 
ATOM     41  C   UNL A   1      36.783  33.969  29.833  1.00  0.00     0.135 A 
ATOM     42  F   UNL A   1      34.875  32.553  32.590  1.00  0.00    -0.206 F 
ATOM     43  C   UNL A   1      34.155  33.820  30.753  1.00  0.00     0.059 A 
ATOM     44  C   UNL A   1      35.773  34.615  29.126  1.00  0.00     0.059 A 
ATOM     45  F   UNL A   1      38.045  34.091  29.390  1.00  0.00    -0.206 F 
ATOM     46  C   UNL A   1      34.460  34.531  29.591  1.00  0.00     0.060 A 
BRANCH  46  47
ATOM     47  S   UNL A   1      33.130  35.412  28.745  1.00  0.00     0.124 S 
ATOM     48  O   UNL A   1      33.870  36.412  27.983  1.00  0.00    -0.237 OA
ATOM     49  O   UNL A   1      32.505  34.350  27.963  1.00  0.00    -0.237 OA
ATOM     50  O   UNL A   1      32.317  35.928  29.842  1.00  0.00    -0.744 OA
ENDBRANCH  46  47
ENDBRANCH  25  39
BRANCH  26  51
ATOM     51  C   UNL A   1      43.795  28.466  36.075  1.00  0.00     0.058 A 
ATOM     52  C   UNL A   1      45.151  28.787  35.907  1.00  0.00     0.135 A 
ATOM     53  C   UNL A   1      43.483  27.380  36.906  1.00  0.00     0.135 A 
ATOM     54  F   UNL A   1      45.507  29.816  35.122  1.00  0.00    -0.206 F 
ATOM     55  C   UNL A   1      46.161  28.034  36.499  1.00  0.00     0.059 A 
ATOM     56  C   UNL A   1      44.475  26.623  37.527  1.00  0.00     0.059 A 
ATOM     57  F   UNL A   1      42.201  27.042  37.113  1.00  0.00    -0.206 F 
ATOM     58  C   UNL A   1      45.813  26.944  37.297  1.00  0.00     0.060 A 
BRANCH  58  59
ATOM     59  S   UNL A   1      47.139  25.948  38.013  1.00  0.00     0.124 S 
ATOM     60  O   UNL A   1      47.951  26.970  38.667  1.00  0.00    -0.237 OA
ATOM     61  O   UNL A   1      46.405  25.056  38.905  1.00  0.00    -0.237 OA
ATOM     62  O   UNL A   1      47.748  25.308  36.852  1.00  0.00    -0.744 OA
ENDBRANCH  58  59
ENDBRANCH  26  51
BRANCH  38  63
ATOM     63  C   UNL A   1      40.127  34.337  37.164  1.00  0.00     0.058 A 
ATOM     64  C   UNL A   1      39.209  34.237  38.220  1.00  0.00     0.135 A 
ATOM     65  C   UNL A   1      40.941  35.477  37.099  1.00  0.00     0.135 A 
ATOM     66  F   UNL A   1      38.407  33.164  38.320  1.00  0.00    -0.206 F 
ATOM     67  C   UNL A   1      39.070  35.252  39.156  1.00  0.00     0.059 A 
ATOM     68  C   UNL A   1      40.833  36.499  38.036  1.00  0.00     0.059 A 
ATOM     69  F   UNL A   1      41.841  35.610  36.111  1.00  0.00    -0.206 F 
ATOM     70  C   UNL A   1      39.877  36.387  39.047  1.00  0.00     0.060 A 
BRANCH  70  71
ATOM     71  S   UNL A   1      39.653  37.718  40.245  1.00  0.00     0.124 S 
ATOM     72  O   UNL A   1      38.570  38.485  39.639  1.00  0.00    -0.237 OA
ATOM     73  O   UNL A   1      39.309  36.986  41.461  1.00  0.00    -0.237 OA
ATOM     74  O   UNL A   1      40.956  38.376  40.266  1.00  0.00    -0.744 OA
ENDBRANCH  70  71
ENDBRANCH  38  63
ENDBRANCH  12  13
ENDBRANCH   5   7
ENDBRANCH   4   5
ENDBRANCH   3   4
ENDBRANCH   2   3
ENDBRANCH   1   2
BRANCH   1  75
ATOM     75  C   UNL A   1      37.688  21.526  25.067  1.00  0.00     0.202 C 
BRANCH  75  76
ATOM     76  C   UNL A   1      36.233  21.341  25.509  1.00  0.00     0.261 C 
BRANCH  76  77
ATOM     77  O   UNL A   1      35.354  21.296  24.369  1.00  0.00    -0.460 OA
BRANCH  77  78
ATOM     78  C   UNL A   1      34.144  20.726  24.596  1.00  0.00     0.338 C 
ATOM     79  O   UNL A   1      33.901  19.570  24.888  1.00  0.00    -0.246 OA
BRANCH  78  80
ATOM     80  C   UNL A   1      33.135  21.798  24.677  1.00  0.00     0.062 A 
ATOM     81  C   UNL A   1      32.211  21.873  25.720  1.00  0.00     0.019 A 
ATOM     82  C   UNL A   1      33.073  22.689  23.593  1.00  0.00     0.045 A 
ATOM     83  C   UNL A   1      31.214  22.849  25.668  1.00  0.00     0.042 A 
ATOM     84  C   UNL A   1      32.048  23.618  23.503  1.00  0.00     0.085 A 
ATOM     85  C   UNL A   1      31.128  23.691  24.556  1.00  0.00     0.147 A 
ATOM     86  F   UNL A   1      30.105  24.556  24.478  1.00  0.00    -0.205 F 
BRANCH  84  87
ATOM     87  N   UNL A   1      31.741  24.284  22.266  1.00  0.00    -0.277 N 
ATOM     88  H   UNL A   1      31.163  23.832  21.610  1.00  0.00     0.180 HD
BRANCH  87  89
ATOM     89  S   UNL A   1      32.339  25.821  21.904  1.00  0.00     0.264 S 
ATOM     90  O   UNL A   1      33.759  25.623  21.690  1.00  0.00    -0.201 OA
ATOM     91  O   UNL A   1      31.517  26.405  20.875  1.00  0.00    -0.201 OA
BRANCH  89  92
ATOM     92  C   UNL A   1      32.288  26.889  23.263  1.00  0.00     0.118 A 
ATOM     93  C   UNL A   1      33.440  27.159  24.084  1.00  0.00     0.056 A 
ATOM     94  C   UNL A   1      31.203  27.621  23.689  1.00  0.00     0.115 A 
ATOM     95  C   UNL A   1      33.149  28.068  25.069  1.00  0.00     0.096 A 
ATOM     96  S   UNL A   1      31.537  28.572  25.062  1.00  0.00    -0.110 S 
ATOM     97  Cl  UNL A   1      29.595  27.672  23.075  1.00  0.00    -0.071 Cl
ATOM     98  Cl  UNL A   1      34.234  28.693  26.243  1.00  0.00    -0.072 Cl
ENDBRANCH  89  92
ENDBRANCH  87  89
ENDBRANCH  84  87
ENDBRANCH  78  80
ENDBRANCH  77  78
ENDBRANCH  76  77
ENDBRANCH  75  76
ENDBRANCH   1  75
TORSDOF 20
ENDMDL
MODEL 2
REMARK VINA RESULT:     -11.0      1.372      8.318
REMARK SMILES O=C(OCCOCCOC(=O)c1ccc(F)c(NS(=O)(=O)c2cc(Cl)sc2Cl)c1)c1ccc(-c2c3nc(c(-c4c(F)cc(S(=O)(=O)[O-])cc4F)c4ccc([nH]4)c(-c4c(F)cc(S(=O)(=O)[O-])cc4F)c4nc(c(-c5c(F)cc(S(=O)(=O)[O-])cc5F)c5ccc2[nH]5)C=C4)C=C3)cc1
REMARK SMILES IDX 6 1 5 2 4 3 3 4 2 5 1 6 30 7 31 8 95 9 32 10 94 11 33 12
REMARK SMILES IDX 34 13 35 14 88 15 36 16 93 17 87 18 89 19 37 20 92 21 86 22
REMARK SMILES IDX 85 23 38 25 72 26 51 27 71 28 52 29 55 30 70 31 90 32 53 33
REMARK SMILES IDX 54 34 69 36 91 37 56 38 39 39 40 40 49 41 41 42 42 43 48 44
REMARK SMILES IDX 50 45 43 46 44 47 45 48 46 49 47 50 73 51 74 52 83 53 75 54
REMARK SMILES IDX 76 55 82 56 84 57 77 58 78 59 79 60 80 61 81 62 57 63 58 64
REMARK SMILES IDX 67 65 59 66 60 67 66 68 68 69 61 70 62 71 63 72 64 73 65 74
REMARK SMILES IDX 7 75 8 76 9 77 10 78 11 79 12 80 13 81 29 82 14 83 17 84
REMARK SMILES IDX 15 85 16 86 18 87 19 89 20 90 21 91 22 92 23 93 27 94 24 95
REMARK SMILES IDX 26 96 28 97 25 98
REMARK H PARENT 89 24 55 35 18 88
REMARK Flexibility Score: inf
ROOT
ATOM      1  O   UNL A   1      39.216  21.689  26.136  1.00  0.00    -0.374 OA
ENDROOT
BRANCH   1   2
ATOM      2  C   UNL A   1      40.221  22.391  26.862  1.00  0.00     0.202 C 
BRANCH   2   3
ATOM      3  C   UNL A   1      41.513  22.575  26.062  1.00  0.00     0.261 C 
BRANCH   3   4
ATOM      4  O   UNL A   1      42.201  23.769  26.447  1.00  0.00    -0.460 OA
BRANCH   4   5
ATOM      5  C   UNL A   1      41.726  25.028  26.281  1.00  0.00     0.338 C 
ATOM      6  O   UNL A   1      41.358  25.379  25.161  1.00  0.00    -0.246 OA
BRANCH   5   7
ATOM      7  C   UNL A   1      41.456  25.935  27.441  1.00  0.00     0.060 A 
ATOM      8  C   UNL A   1      40.438  25.779  28.389  1.00  0.00     0.016 A 
ATOM      9  C   UNL A   1      42.370  26.987  27.621  1.00  0.00     0.016 A 
ATOM     10  C   UNL A   1      40.300  26.661  29.457  1.00  0.00     0.010 A 
ATOM     11  C   UNL A   1      42.252  27.864  28.699  1.00  0.00     0.010 A 
ATOM     12  C   UNL A   1      41.202  27.710  29.610  1.00  0.00    -0.014 A 
BRANCH  12  13
ATOM     13  C   UNL A   1      40.975  28.698  30.678  1.00  0.00     0.031 A 
ATOM     14  C   UNL A   1      41.885  28.676  31.865  1.00  0.00     0.074 A 
ATOM     15  C   UNL A   1      40.011  29.624  30.540  1.00  0.00     0.049 A 
ATOM     16  N   UNL A   1      41.818  29.368  32.967  1.00  0.00    -0.248 NA
ATOM     17  C   UNL A   1      43.030  27.752  31.795  1.00  0.00     0.031 C 
ATOM     18  C   UNL A   1      39.159  29.782  29.360  1.00  0.00     0.029 A 
ATOM     19  N   UNL A   1      39.593  30.611  31.390  1.00  0.00    -0.354 N 
ATOM     20  C   UNL A   1      42.897  28.948  33.735  1.00  0.00     0.074 A 
ATOM     21  C   UNL A   1      43.602  27.943  32.974  1.00  0.00     0.031 C 
ATOM     22  C   UNL A   1      38.321  30.812  29.561  1.00  0.00     0.029 A 
ATOM     23  C   UNL A   1      38.538  31.345  30.903  1.00  0.00     0.049 A 
ATOM     24  H   UNL A   1      40.009  30.781  32.267  1.00  0.00     0.167 HD
ATOM     25  C   UNL A   1      43.250  29.366  34.972  1.00  0.00     0.037 A 
ATOM     26  C   UNL A   1      37.813  32.314  31.496  1.00  0.00     0.037 A 
ATOM     27  C   UNL A   1      42.512  30.358  35.705  1.00  0.00     0.049 A 
ATOM     28  C   UNL A   1      38.169  32.704  32.904  1.00  0.00     0.074 A 
ATOM     29  C   UNL A   1      42.719  30.813  36.992  1.00  0.00     0.029 A 
ATOM     30  N   UNL A   1      41.415  31.047  35.203  1.00  0.00    -0.354 N 
ATOM     31  N   UNL A   1      39.142  32.249  33.660  1.00  0.00    -0.248 NA
ATOM     32  C   UNL A   1      37.325  33.715  33.553  1.00  0.00     0.031 C 
ATOM     33  C   UNL A   1      41.726  31.755  37.280  1.00  0.00     0.029 A 
ATOM     34  C   UNL A   1      40.925  31.918  36.157  1.00  0.00     0.049 A 
ATOM     35  H   UNL A   1      41.042  30.933  34.299  1.00  0.00     0.167 HD
ATOM     36  C   UNL A   1      39.037  32.923  34.869  1.00  0.00     0.074 A 
ATOM     37  C   UNL A   1      37.908  33.825  34.741  1.00  0.00     0.031 C 
ATOM     38  C   UNL A   1      39.800  32.806  35.983  1.00  0.00     0.037 A 
BRANCH  25  39
ATOM     39  C   UNL A   1      44.432  28.696  35.609  1.00  0.00     0.058 A 
ATOM     40  C   UNL A   1      45.717  29.244  35.468  1.00  0.00     0.135 A 
ATOM     41  C   UNL A   1      44.297  27.539  36.393  1.00  0.00     0.135 A 
ATOM     42  F   UNL A   1      45.901  30.359  34.743  1.00  0.00    -0.206 F 
ATOM     43  C   UNL A   1      46.825  28.673  36.086  1.00  0.00     0.059 A 
ATOM     44  C   UNL A   1      45.388  26.964  37.039  1.00  0.00     0.059 A 
ATOM     45  F   UNL A   1      43.085  26.996  36.590  1.00  0.00    -0.206 F 
ATOM     46  C   UNL A   1      46.650  27.536  36.876  1.00  0.00     0.060 A 
BRANCH  46  47
ATOM     47  S   UNL A   1      48.080  26.865  37.751  1.00  0.00     0.124 S 
ATOM     48  O   UNL A   1      47.473  26.364  38.979  1.00  0.00    -0.237 OA
ATOM     49  O   UNL A   1      48.564  25.850  36.820  1.00  0.00    -0.237 OA
ATOM     50  O   UNL A   1      48.954  28.024  37.906  1.00  0.00    -0.744 OA
ENDBRANCH  46  47
ENDBRANCH  25  39
BRANCH  26  51
ATOM     51  C   UNL A   1      36.685  32.942  30.758  1.00  0.00     0.058 A 
ATOM     52  C   UNL A   1      36.915  33.900  29.758  1.00  0.00     0.135 A 
ATOM     53  C   UNL A   1      35.353  32.659  31.092  1.00  0.00     0.135 A 
ATOM     54  F   UNL A   1      38.171  34.210  29.399  1.00  0.00    -0.206 F 
ATOM     55  C   UNL A   1      35.871  34.585  29.145  1.00  0.00     0.059 A 
ATOM     56  C   UNL A   1      34.288  33.317  30.479  1.00  0.00     0.059 A 
ATOM     57  F   UNL A   1      35.078  31.741  32.031  1.00  0.00    -0.206 F 
ATOM     58  C   UNL A   1      34.559  34.296  29.523  1.00  0.00     0.060 A 
BRANCH  58  59
ATOM     59  S   UNL A   1      33.220  35.233  28.754  1.00  0.00     0.124 S 
ATOM     60  O   UNL A   1      32.410  35.590  29.914  1.00  0.00    -0.237 OA
ATOM     61  O   UNL A   1      33.939  36.334  28.121  1.00  0.00    -0.237 OA
ATOM     62  O   UNL A   1      32.616  34.272  27.837  1.00  0.00    -0.744 OA
ENDBRANCH  58  59
ENDBRANCH  26  51
BRANCH  38  63
ATOM     63  C   UNL A   1      39.458  33.682  37.152  1.00  0.00     0.058 A 
ATOM     64  C   UNL A   1      40.034  34.955  37.271  1.00  0.00     0.135 A 
ATOM     65  C   UNL A   1      38.675  33.205  38.213  1.00  0.00     0.135 A 
ATOM     66  F   UNL A   1      40.795  35.450  36.281  1.00  0.00    -0.206 F 
ATOM     67  C   UNL A   1      39.875  35.715  38.422  1.00  0.00     0.059 A 
ATOM     68  C   UNL A   1      38.486  33.957  39.368  1.00  0.00     0.059 A 
ATOM     69  F   UNL A   1      38.097  31.996  38.137  1.00  0.00    -0.206 F 
ATOM     70  C   UNL A   1      39.111  35.201  39.471  1.00  0.00     0.060 A 
BRANCH  70  71
ATOM     71  S   UNL A   1      38.951  36.182  40.978  1.00  0.00     0.124 S 
ATOM     72  O   UNL A   1      38.673  37.510  40.441  1.00  0.00    -0.237 OA
ATOM     73  O   UNL A   1      37.837  35.525  41.657  1.00  0.00    -0.237 OA
ATOM     74  O   UNL A   1      40.250  36.023  41.623  1.00  0.00    -0.744 OA
ENDBRANCH  70  71
ENDBRANCH  38  63
ENDBRANCH  12  13
ENDBRANCH   5   7
ENDBRANCH   4   5
ENDBRANCH   3   4
ENDBRANCH   2   3
ENDBRANCH   1   2
BRANCH   1  75
ATOM     75  C   UNL A   1      38.025  22.430  25.867  1.00  0.00     0.202 C 
BRANCH  75  76
ATOM     76  C   UNL A   1      36.840  21.502  25.580  1.00  0.00     0.261 C 
BRANCH  76  77
ATOM     77  O   UNL A   1      36.445  21.592  24.197  1.00  0.00    -0.460 OA
BRANCH  77  78
ATOM     78  C   UNL A   1      35.603  22.616  23.905  1.00  0.00     0.338 C 
ATOM     79  O   UNL A   1      35.769  23.523  23.112  1.00  0.00    -0.246 OA
BRANCH  78  80
ATOM     80  C   UNL A   1      34.299  22.336  24.535  1.00  0.00     0.062 A 
ATOM     81  C   UNL A   1      33.503  21.256  24.151  1.00  0.00     0.019 A 
ATOM     82  C   UNL A   1      33.838  23.273  25.474  1.00  0.00     0.045 A 
ATOM     83  C   UNL A   1      32.233  21.122  24.713  1.00  0.00     0.042 A 
ATOM     84  C   UNL A   1      32.554  23.184  25.987  1.00  0.00     0.085 A 
ATOM     85  C   UNL A   1      31.764  22.093  25.601  1.00  0.00     0.147 A 
ATOM     86  F   UNL A   1      30.504  22.000  26.054  1.00  0.00    -0.205 F 
BRANCH  84  87
ATOM     87  N   UNL A   1      31.926  24.295  26.650  1.00  0.00    -0.277 N 
ATOM     88  H   UNL A   1      32.001  24.372  27.628  1.00  0.00     0.180 HD
BRANCH  87  89
ATOM     89  S   UNL A   1      31.065  25.473  25.801  1.00  0.00     0.264 S 
ATOM     90  O   UNL A   1      31.131  25.052  24.415  1.00  0.00    -0.201 OA
ATOM     91  O   UNL A   1      29.792  25.668  26.448  1.00  0.00    -0.201 OA
BRANCH  89  92
ATOM     92  C   UNL A   1      31.869  27.004  25.790  1.00  0.00     0.118 A 
ATOM     93  C   UNL A   1      32.997  27.296  26.636  1.00  0.00     0.056 A 
ATOM     94  C   UNL A   1      31.577  28.076  24.978  1.00  0.00     0.115 A 
ATOM     95  C   UNL A   1      33.477  28.560  26.409  1.00  0.00     0.096 A 
ATOM     96  S   UNL A   1      32.596  29.414  25.248  1.00  0.00    -0.110 S 
ATOM     97  Cl  UNL A   1      30.338  28.263  23.797  1.00  0.00    -0.071 Cl
ATOM     98  Cl  UNL A   1      34.825  29.300  27.172  1.00  0.00    -0.072 Cl
ENDBRANCH  89  92
ENDBRANCH  87  89
ENDBRANCH  84  87
ENDBRANCH  78  80
ENDBRANCH  77  78
ENDBRANCH  76  77
ENDBRANCH  75  76
ENDBRANCH   1  75
TORSDOF 20
ENDMDL
MODEL 3
REMARK VINA RESULT:     -11.0      1.326      8.308
REMARK SMILES O=C(OCCOCCOC(=O)c1ccc(F)c(NS(=O)(=O)c2cc(Cl)sc2Cl)c1)c1ccc(-c2c3nc(c(-c4c(F)cc(S(=O)(=O)[O-])cc4F)c4ccc([nH]4)c(-c4c(F)cc(S(=O)(=O)[O-])cc4F)c4nc(c(-c5c(F)cc(S(=O)(=O)[O-])cc5F)c5ccc2[nH]5)C=C4)C=C3)cc1
REMARK SMILES IDX 6 1 5 2 4 3 3 4 2 5 1 6 30 7 31 8 95 9 32 10 94 11 33 12
REMARK SMILES IDX 34 13 35 14 88 15 36 16 93 17 87 18 89 19 37 20 92 21 86 22
REMARK SMILES IDX 85 23 38 25 72 26 51 27 71 28 52 29 55 30 70 31 90 32 53 33
REMARK SMILES IDX 54 34 69 36 91 37 56 38 39 39 40 40 49 41 41 42 42 43 48 44
REMARK SMILES IDX 50 45 43 46 44 47 45 48 46 49 47 50 73 51 74 52 83 53 75 54
REMARK SMILES IDX 76 55 82 56 84 57 77 58 78 59 79 60 80 61 81 62 57 63 58 64
REMARK SMILES IDX 67 65 59 66 60 67 66 68 68 69 61 70 62 71 63 72 64 73 65 74
REMARK SMILES IDX 7 75 8 76 9 77 10 78 11 79 12 80 13 81 29 82 14 83 17 84
REMARK SMILES IDX 15 85 16 86 18 87 19 89 20 90 21 91 22 92 23 93 27 94 24 95
REMARK SMILES IDX 26 96 28 97 25 98
REMARK H PARENT 89 24 55 35 18 88
REMARK Flexibility Score: inf
ROOT
ATOM      1  O   UNL A   1      38.848  21.922  26.129  1.00  0.00    -0.374 OA
ENDROOT
BRANCH   1   2
ATOM      2  C   UNL A   1      39.889  22.440  26.952  1.00  0.00     0.202 C 
BRANCH   2   3
ATOM      3  C   UNL A   1      41.208  22.623  26.198  1.00  0.00     0.261 C 
BRANCH   3   4
ATOM      4  O   UNL A   1      41.893  23.805  26.622  1.00  0.00    -0.460 OA
BRANCH   4   5
ATOM      5  C   UNL A   1      41.446  25.072  26.434  1.00  0.00     0.338 C 
ATOM      6  O   UNL A   1      41.075  25.408  25.311  1.00  0.00    -0.246 OA
BRANCH   5   7
ATOM      7  C   UNL A   1      41.211  26.010  27.577  1.00  0.00     0.060 A 
ATOM      8  C   UNL A   1      40.194  25.904  28.533  1.00  0.00     0.016 A 
ATOM      9  C   UNL A   1      42.159  27.036  27.732  1.00  0.00     0.016 A 
ATOM     10  C   UNL A   1      40.090  26.812  29.583  1.00  0.00     0.010 A 
ATOM     11  C   UNL A   1      42.074  27.937  28.793  1.00  0.00     0.010 A 
ATOM     12  C   UNL A   1      41.025  27.834  29.712  1.00  0.00    -0.014 A 
BRANCH  12  13
ATOM     13  C   UNL A   1      40.836  28.850  30.761  1.00  0.00     0.031 A 
ATOM     14  C   UNL A   1      41.767  28.838  31.931  1.00  0.00     0.074 A 
ATOM     15  C   UNL A   1      39.885  29.789  30.620  1.00  0.00     0.049 A 
ATOM     16  N   UNL A   1      41.733  29.556  33.019  1.00  0.00    -0.248 NA
ATOM     17  C   UNL A   1      42.895  27.893  31.861  1.00  0.00     0.031 C 
ATOM     18  C   UNL A   1      39.014  29.935  29.452  1.00  0.00     0.029 A 
ATOM     19  N   UNL A   1      39.501  30.803  31.455  1.00  0.00    -0.354 N 
ATOM     20  C   UNL A   1      42.818  29.135  33.775  1.00  0.00     0.074 A 
ATOM     21  C   UNL A   1      43.492  28.100  33.025  1.00  0.00     0.031 C 
ATOM     22  C   UNL A   1      38.198  30.985  29.645  1.00  0.00     0.029 A 
ATOM     23  C   UNL A   1      38.449  31.543  30.971  1.00  0.00     0.049 A 
ATOM     24  H   UNL A   1      39.935  30.984  32.319  1.00  0.00     0.167 HD
ATOM     25  C   UNL A   1      43.202  29.573  34.996  1.00  0.00     0.037 A 
ATOM     26  C   UNL A   1      37.752  32.538  31.554  1.00  0.00     0.037 A 
ATOM     27  C   UNL A   1      42.495  30.594  35.720  1.00  0.00     0.049 A 
ATOM     28  C   UNL A   1      38.141  32.953  32.947  1.00  0.00     0.074 A 
ATOM     29  C   UNL A   1      42.734  31.074  36.993  1.00  0.00     0.029 A 
ATOM     30  N   UNL A   1      41.401  31.291  35.222  1.00  0.00    -0.354 N 
ATOM     31  N   UNL A   1      39.121  32.498  33.694  1.00  0.00    -0.248 NA
ATOM     32  C   UNL A   1      37.327  33.993  33.588  1.00  0.00     0.031 C 
ATOM     33  C   UNL A   1      41.763  32.040  37.277  1.00  0.00     0.029 A 
ATOM     34  C   UNL A   1      40.944  32.192  36.166  1.00  0.00     0.049 A 
ATOM     35  H   UNL A   1      41.009  31.163  34.329  1.00  0.00     0.167 HD
ATOM     36  C   UNL A   1      39.049  33.201  34.889  1.00  0.00     0.074 A 
ATOM     37  C   UNL A   1      37.934  34.119  34.763  1.00  0.00     0.031 C 
ATOM     38  C   UNL A   1      39.831  33.096  35.992  1.00  0.00     0.037 A 
BRANCH  25  39
ATOM     39  C   UNL A   1      44.384  28.898  35.626  1.00  0.00     0.058 A 
ATOM     40  C   UNL A   1      44.207  27.751  36.416  1.00  0.00     0.135 A 
ATOM     41  C   UNL A   1      45.697  29.353  35.418  1.00  0.00     0.135 A 
ATOM     42  F   UNL A   1      42.976  27.263  36.632  1.00  0.00    -0.206 F 
ATOM     43  C   UNL A   1      45.288  27.075  36.974  1.00  0.00     0.059 A 
ATOM     44  C   UNL A   1      46.795  28.680  35.948  1.00  0.00     0.059 A 
ATOM     45  F   UNL A   1      45.925  30.423  34.641  1.00  0.00    -0.206 F 
ATOM     46  C   UNL A   1      46.580  27.543  36.729  1.00  0.00     0.060 A 
BRANCH  46  47
ATOM     47  S   UNL A   1      47.977  26.600  37.377  1.00  0.00     0.124 S 
ATOM     48  O   UNL A   1      49.111  27.298  36.782  1.00  0.00    -0.237 OA
ATOM     49  O   UNL A   1      47.815  26.759  38.819  1.00  0.00    -0.237 OA
ATOM     50  O   UNL A   1      47.733  25.251  36.876  1.00  0.00    -0.744 OA
ENDBRANCH  46  47
ENDBRANCH  25  39
BRANCH  26  51
ATOM     51  C   UNL A   1      36.622  33.170  30.824  1.00  0.00     0.058 A 
ATOM     52  C   UNL A   1      36.849  34.111  29.807  1.00  0.00     0.135 A 
ATOM     53  C   UNL A   1      35.291  32.907  31.179  1.00  0.00     0.135 A 
ATOM     54  F   UNL A   1      38.104  34.403  29.428  1.00  0.00    -0.206 F 
ATOM     55  C   UNL A   1      35.804  34.800  29.200  1.00  0.00     0.059 A 
ATOM     56  C   UNL A   1      34.225  33.569  30.571  1.00  0.00     0.059 A 
ATOM     57  F   UNL A   1      35.018  32.004  32.133  1.00  0.00    -0.206 F 
ATOM     58  C   UNL A   1      34.495  34.532  29.599  1.00  0.00     0.060 A 
BRANCH  58  59
ATOM     59  S   UNL A   1      33.156  35.474  28.835  1.00  0.00     0.124 S 
ATOM     60  O   UNL A   1      33.899  36.451  28.046  1.00  0.00    -0.237 OA
ATOM     61  O   UNL A   1      32.454  34.447  28.073  1.00  0.00    -0.237 OA
ATOM     62  O   UNL A   1      32.426  36.013  29.978  1.00  0.00    -0.744 OA
ENDBRANCH  58  59
ENDBRANCH  26  51
BRANCH  38  63
ATOM     63  C   UNL A   1      39.527  34.003  37.147  1.00  0.00     0.058 A 
ATOM     64  C   UNL A   1      40.207  35.223  37.284  1.00  0.00     0.135 A 
ATOM     65  C   UNL A   1      38.668  33.602  38.180  1.00  0.00     0.135 A 
ATOM     66  F   UNL A   1      41.041  35.644  36.320  1.00  0.00    -0.206 F 
ATOM     67  C   UNL A   1      40.074  35.999  38.427  1.00  0.00     0.059 A 
ATOM     68  C   UNL A   1      38.506  34.373  39.327  1.00  0.00     0.059 A 
ATOM     69  F   UNL A   1      37.990  32.447  38.086  1.00  0.00    -0.206 F 
ATOM     70  C   UNL A   1      39.233  35.558  39.450  1.00  0.00     0.060 A 
BRANCH  70  71
ATOM     71  S   UNL A   1      39.106  36.556  40.948  1.00  0.00     0.124 S 
ATOM     72  O   UNL A   1      40.509  36.738  41.304  1.00  0.00    -0.237 OA
ATOM     73  O   UNL A   1      38.412  37.748  40.469  1.00  0.00    -0.237 OA
ATOM     74  O   UNL A   1      38.332  35.711  41.852  1.00  0.00    -0.744 OA
ENDBRANCH  70  71
ENDBRANCH  38  63
ENDBRANCH  12  13
ENDBRANCH   5   7
ENDBRANCH   4   5
ENDBRANCH   3   4
ENDBRANCH   2   3
ENDBRANCH   1   2
BRANCH   1  75
ATOM     75  C   UNL A   1      37.867  22.873  25.711  1.00  0.00     0.202 C 
BRANCH  75  76
ATOM     76  C   UNL A   1      36.460  22.270  25.723  1.00  0.00     0.261 C 
BRANCH  76  77
ATOM     77  O   UNL A   1      36.104  21.777  24.417  1.00  0.00    -0.460 OA
BRANCH  77  78
ATOM     78  C   UNL A   1      35.796  22.734  23.504  1.00  0.00     0.338 C 
ATOM     79  O   UNL A   1      36.512  23.211  22.644  1.00  0.00    -0.246 OA
BRANCH  78  80
ATOM     80  C   UNL A   1      34.339  22.961  23.546  1.00  0.00     0.062 A 
ATOM     81  C   UNL A   1      33.432  21.927  23.780  1.00  0.00     0.019 A 
ATOM     82  C   UNL A   1      33.893  24.254  23.232  1.00  0.00     0.045 A 
ATOM     83  C   UNL A   1      32.066  22.197  23.691  1.00  0.00     0.042 A 
ATOM     84  C   UNL A   1      32.540  24.515  23.078  1.00  0.00     0.085 A 
ATOM     85  C   UNL A   1      31.636  23.474  23.320  1.00  0.00     0.147 A 
ATOM     86  F   UNL A   1      30.323  23.688  23.144  1.00  0.00    -0.205 F 
BRANCH  84  87
ATOM     87  N   UNL A   1      32.071  25.702  22.414  1.00  0.00    -0.277 N 
ATOM     88  H   UNL A   1      31.733  25.631  21.493  1.00  0.00     0.180 HD
BRANCH  87  89
ATOM     89  S   UNL A   1      32.080  27.212  23.168  1.00  0.00     0.264 S 
ATOM     90  O   UNL A   1      32.043  26.917  24.587  1.00  0.00    -0.201 OA
ATOM     91  O   UNL A   1      33.152  27.998  22.611  1.00  0.00    -0.201 OA
BRANCH  89  92
ATOM     92  C   UNL A   1      30.615  28.093  22.907  1.00  0.00     0.118 A 
ATOM     93  C   UNL A   1      30.575  29.337  22.185  1.00  0.00     0.056 A 
ATOM     94  C   UNL A   1      29.351  27.715  23.300  1.00  0.00     0.115 A 
ATOM     95  C   UNL A   1      29.292  29.813  22.082  1.00  0.00     0.096 A 
ATOM     96  S   UNL A   1      28.151  28.838  22.855  1.00  0.00    -0.110 S 
ATOM     97  Cl  UNL A   1      28.837  26.331  24.187  1.00  0.00    -0.071 Cl
ATOM     98  Cl  UNL A   1      28.788  31.242  21.276  1.00  0.00    -0.072 Cl
ENDBRANCH  89  92
ENDBRANCH  87  89
ENDBRANCH  84  87
ENDBRANCH  78  80
ENDBRANCH  77  78
ENDBRANCH  76  77
ENDBRANCH  75  76
ENDBRANCH   1  75
TORSDOF 20
ENDMDL
