MODEL 1
REMARK VINA RESULT:     -10.2      0.000      0.000
REMARK SMILES O=C(C[C@@H]1C[N@@H+](CCSc2ccccc2F)CCO1)OCCOCCOC(=O)c1ccc(-c2c3nc(c(-c4c(F)cc(S(=O)(=O)[O-])cc4F)c4ccc([nH]4)c(-c4c(F)cc(S(=O)(=O)[O-])cc4F)c4nc(c(-c5c(F)cc(S(=O)(=O)[O-])cc5F)c5ccc2[nH]5)C=C4)C=C3)cc1
REMARK SMILES IDX 22 1 21 2 20 3 2 4 1 5 3 6 4 7 5 8 19 9 6 10 18 11 17 12
REMARK SMILES IDX 7 14 8 15 9 16 10 17 11 18 15 19 12 20 14 21 16 22 13 23
REMARK SMILES IDX 23 24 24 25 25 26 26 27 27 28 28 29 29 30 30 31 94 32 31 33
REMARK SMILES IDX 93 34 32 35 33 36 34 37 87 38 35 39 92 40 86 41 88 42 36 43
REMARK SMILES IDX 91 44 85 45 84 46 37 48 71 49 50 50 70 51 51 52 54 53 69 54
REMARK SMILES IDX 89 55 52 56 53 57 68 59 90 60 55 61 38 62 39 63 48 64 40 65
REMARK SMILES IDX 41 66 47 67 49 68 42 69 43 70 44 71 45 72 46 73 72 74 73 75
REMARK SMILES IDX 82 76 74 77 75 78 81 79 83 80 76 81 77 82 78 83 79 84 80 85
REMARK SMILES IDX 56 86 57 87 66 88 58 89 59 90 65 91 67 92 60 93 61 94 62 95
REMARK SMILES IDX 63 96 64 97
REMARK H PARENT 6 13 88 47 54 58
REMARK Flexibility Score: inf
ROOT
ATOM      1  C   UNL A   1      40.478  20.767  26.410  1.00  0.00     0.202 C 
ENDROOT
BRANCH   1   2
ATOM      2  C   UNL A   1      39.424  21.888  26.298  1.00  0.00     0.261 C 
BRANCH   2   3
ATOM      3  O   UNL A   1      38.214  21.554  25.610  1.00  0.00    -0.463 OA
BRANCH   3   4
ATOM      4  C   UNL A   1      37.161  22.387  25.462  1.00  0.00     0.308 C 
ATOM      5  O   UNL A   1      37.337  23.520  25.016  1.00  0.00    -0.252 OA
BRANCH   4   6
ATOM      6  C   UNL A   1      35.853  22.061  26.114  1.00  0.00     0.160 C 
BRANCH   6   7
ATOM      7  C   UNL A   1      34.543  22.309  25.413  1.00  0.00     0.184 C 
ATOM      8  C   UNL A   1      33.323  22.636  26.348  1.00  0.00     0.295 C 
ATOM      9  O   UNL A   1      34.394  21.098  24.654  1.00  0.00    -0.366 OA
ATOM     10  N   UNL A   1      31.985  22.348  25.776  1.00  0.00    -0.330 N 
ATOM     11  C   UNL A   1      33.142  21.132  24.012  1.00  0.00     0.222 C 
ATOM     12  C   UNL A   1      32.110  21.061  25.129  1.00  0.00     0.291 C 
ATOM     13  H   UNL A   1      31.344  22.385  26.568  1.00  0.00     0.348 HD
BRANCH  10  14
ATOM     14  C   UNL A   1      31.298  23.335  24.907  1.00  0.00     0.273 C 
BRANCH  14  15
ATOM     15  C   UNL A   1      30.477  24.617  25.438  1.00  0.00     0.136 C 
BRANCH  15  16
ATOM     16  S   UNL A   1      30.205  26.316  24.595  1.00  0.00    -0.117 SA
BRANCH  16  17
ATOM     17  C   UNL A   1      31.245  27.568  25.399  1.00  0.00     0.043 A 
ATOM     18  C   UNL A   1      31.434  27.418  26.788  1.00  0.00     0.018 A 
ATOM     19  C   UNL A   1      31.739  28.738  24.806  1.00  0.00     0.136 A 
ATOM     20  C   UNL A   1      31.832  28.504  27.584  1.00  0.00     0.001 A 
ATOM     21  C   UNL A   1      32.213  29.804  25.598  1.00  0.00     0.040 A 
ATOM     22  F   UNL A   1      31.624  28.944  23.486  1.00  0.00    -0.206 F 
ATOM     23  C   UNL A   1      32.181  29.713  26.991  1.00  0.00     0.003 A 
ENDBRANCH  16  17
ENDBRANCH  15  16
ENDBRANCH  14  15
ENDBRANCH  10  14
ENDBRANCH   6   7
ENDBRANCH   4   6
ENDBRANCH   3   4
ENDBRANCH   2   3
ENDBRANCH   1   2
BRANCH   1  24
ATOM     24  O   UNL A   1      41.733  20.914  25.762  1.00  0.00    -0.374 OA
BRANCH  24  25
ATOM     25  C   UNL A   1      42.687  21.844  26.270  1.00  0.00     0.202 C 
BRANCH  25  26
ATOM     26  C   UNL A   1      42.851  23.218  25.612  1.00  0.00     0.261 C 
BRANCH  26  27
ATOM     27  O   UNL A   1      41.910  24.186  26.096  1.00  0.00    -0.460 OA
BRANCH  27  28
ATOM     28  C   UNL A   1      42.195  25.474  25.800  1.00  0.00     0.338 C 
ATOM     29  O   UNL A   1      42.538  25.927  24.710  1.00  0.00    -0.246 OA
BRANCH  28  30
ATOM     30  C   UNL A   1      41.793  26.321  26.930  1.00  0.00     0.060 A 
ATOM     31  C   UNL A   1      42.292  27.632  26.998  1.00  0.00     0.016 A 
ATOM     32  C   UNL A   1      40.939  25.829  27.915  1.00  0.00     0.016 A 
ATOM     33  C   UNL A   1      41.948  28.454  28.065  1.00  0.00     0.010 A 
ATOM     34  C   UNL A   1      40.621  26.642  29.001  1.00  0.00     0.010 A 
ATOM     35  C   UNL A   1      41.142  27.945  29.089  1.00  0.00    -0.014 A 
BRANCH  35  36
ATOM     36  C   UNL A   1      40.952  28.708  30.340  1.00  0.00     0.031 A 
ATOM     37  C   UNL A   1      39.841  29.715  30.391  1.00  0.00     0.074 A 
ATOM     38  C   UNL A   1      41.787  28.532  31.379  1.00  0.00     0.049 A 
ATOM     39  N   UNL A   1      39.593  30.621  31.296  1.00  0.00    -0.248 NA
ATOM     40  C   UNL A   1      38.888  29.708  29.265  1.00  0.00     0.031 C 
ATOM     41  C   UNL A   1      42.865  27.547  31.437  1.00  0.00     0.029 A 
ATOM     42  N   UNL A   1      41.876  29.203  32.572  1.00  0.00    -0.354 N 
ATOM     43  C   UNL A   1      38.473  31.306  30.842  1.00  0.00     0.074 A 
ATOM     44  C   UNL A   1      38.090  30.718  29.579  1.00  0.00     0.031 C 
ATOM     45  C   UNL A   1      43.537  27.705  32.590  1.00  0.00     0.029 A 
ATOM     46  C   UNL A   1      42.965  28.832  33.326  1.00  0.00     0.049 A 
ATOM     47  H   UNL A   1      41.226  29.883  32.861  1.00  0.00     0.167 HD
ATOM     48  C   UNL A   1      37.831  32.337  31.435  1.00  0.00     0.037 A 
ATOM     49  C   UNL A   1      43.470  29.377  34.451  1.00  0.00     0.037 A 
ATOM     50  C   UNL A   1      38.224  32.894  32.701  1.00  0.00     0.049 A 
ATOM     51  C   UNL A   1      42.774  30.568  35.058  1.00  0.00     0.074 A 
ATOM     52  C   UNL A   1      37.615  33.911  33.412  1.00  0.00     0.029 A 
ATOM     53  N   UNL A   1      39.330  32.492  33.436  1.00  0.00    -0.354 N 
ATOM     54  N   UNL A   1      41.694  31.189  34.642  1.00  0.00    -0.248 NA
ATOM     55  C   UNL A   1      43.360  31.142  36.277  1.00  0.00     0.031 C 
ATOM     56  C   UNL A   1      38.387  34.167  34.547  1.00  0.00     0.029 A 
ATOM     57  C   UNL A   1      39.441  33.265  34.576  1.00  0.00     0.049 A 
ATOM     58  H   UNL A   1      39.942  31.764  33.183  1.00  0.00     0.167 HD
ATOM     59  C   UNL A   1      41.464  32.210  35.557  1.00  0.00     0.074 A 
ATOM     60  C   UNL A   1      42.507  32.118  36.557  1.00  0.00     0.031 C 
ATOM     61  C   UNL A   1      40.480  33.142  35.568  1.00  0.00     0.037 A 
BRANCH  48  62
ATOM     62  C   UNL A   1      36.651  32.948  30.740  1.00  0.00     0.058 A 
ATOM     63  C   UNL A   1      36.848  33.843  29.674  1.00  0.00     0.135 A 
ATOM     64  C   UNL A   1      35.342  32.759  31.206  1.00  0.00     0.135 A 
ATOM     65  F   UNL A   1      38.080  34.047  29.181  1.00  0.00    -0.206 F 
ATOM     66  C   UNL A   1      35.793  34.564  29.127  1.00  0.00     0.059 A 
ATOM     67  C   UNL A   1      34.266  33.452  30.657  1.00  0.00     0.059 A 
ATOM     68  F   UNL A   1      35.098  31.893  32.202  1.00  0.00    -0.206 F 
ATOM     69  C   UNL A   1      34.507  34.373  29.636  1.00  0.00     0.060 A 
BRANCH  69  70
ATOM     70  S   UNL A   1      33.158  35.353  28.946  1.00  0.00     0.124 S 
ATOM     71  O   UNL A   1      32.433  35.754  30.146  1.00  0.00    -0.237 OA
ATOM     72  O   UNL A   1      33.878  36.415  28.251  1.00  0.00    -0.237 OA
ATOM     73  O   UNL A   1      32.462  34.407  28.078  1.00  0.00    -0.744 OA
ENDBRANCH  69  70
ENDBRANCH  48  62
BRANCH  49  74
ATOM     74  C   UNL A   1      44.721  28.832  35.045  1.00  0.00     0.058 A 
ATOM     75  C   UNL A   1      45.982  29.296  34.634  1.00  0.00     0.135 A 
ATOM     76  C   UNL A   1      44.686  27.831  36.026  1.00  0.00     0.135 A 
ATOM     77  F   UNL A   1      46.076  30.250  33.693  1.00  0.00    -0.206 F 
ATOM     78  C   UNL A   1      47.160  28.774  35.156  1.00  0.00     0.059 A 
ATOM     79  C   UNL A   1      45.851  27.312  36.587  1.00  0.00     0.059 A 
ATOM     80  F   UNL A   1      43.506  27.363  36.462  1.00  0.00    -0.206 F 
ATOM     81  C   UNL A   1      47.084  27.782  36.134  1.00  0.00     0.060 A 
BRANCH  81  82
ATOM     82  S   UNL A   1      48.625  27.124  36.808  1.00  0.00     0.124 S 
ATOM     83  O   UNL A   1      48.130  26.260  37.876  1.00  0.00    -0.237 OA
ATOM     84  O   UNL A   1      49.196  26.443  35.651  1.00  0.00    -0.237 OA
ATOM     85  O   UNL A   1      49.339  28.319  37.247  1.00  0.00    -0.744 OA
ENDBRANCH  81  82
ENDBRANCH  49  74
BRANCH  61  86
ATOM     86  C   UNL A   1      40.451  34.133  36.698  1.00  0.00     0.058 A 
ATOM     87  C   UNL A   1      39.566  33.952  37.774  1.00  0.00     0.135 A 
ATOM     88  C   UNL A   1      41.183  35.327  36.640  1.00  0.00     0.135 A 
ATOM     89  F   UNL A   1      38.837  32.828  37.870  1.00  0.00    -0.206 F 
ATOM     90  C   UNL A   1      39.377  34.942  38.730  1.00  0.00     0.059 A 
ATOM     91  C   UNL A   1      41.030  36.320  37.602  1.00  0.00     0.059 A 
ATOM     92  F   UNL A   1      42.050  35.540  35.636  1.00  0.00    -0.206 F 
ATOM     93  C   UNL A   1      40.106  36.128  38.629  1.00  0.00     0.060 A 
BRANCH  93  94
ATOM     94  S   UNL A   1      39.812  37.419  39.855  1.00  0.00     0.124 S 
ATOM     95  O   UNL A   1      41.028  38.217  39.747  1.00  0.00    -0.237 OA
ATOM     96  O   UNL A   1      38.594  38.047  39.353  1.00  0.00    -0.237 OA
ATOM     97  O   UNL A   1      39.658  36.675  41.102  1.00  0.00    -0.744 OA
ENDBRANCH  93  94
ENDBRANCH  61  86
ENDBRANCH  35  36
ENDBRANCH  28  30
ENDBRANCH  27  28
ENDBRANCH  26  27
ENDBRANCH  25  26
ENDBRANCH  24  25
ENDBRANCH   1  24
TORSDOF 22
ENDMDL
MODEL 2
REMARK VINA RESULT:     -10.2      5.908     12.098
REMARK SMILES O=C(C[C@@H]1C[N@@H+](CCSc2ccccc2F)CCO1)OCCOCCOC(=O)c1ccc(-c2c3nc(c(-c4c(F)cc(S(=O)(=O)[O-])cc4F)c4ccc([nH]4)c(-c4c(F)cc(S(=O)(=O)[O-])cc4F)c4nc(c(-c5c(F)cc(S(=O)(=O)[O-])cc5F)c5ccc2[nH]5)C=C4)C=C3)cc1
REMARK SMILES IDX 22 1 21 2 20 3 2 4 1 5 3 6 4 7 5 8 19 9 6 10 18 11 17 12
REMARK SMILES IDX 7 14 8 15 9 16 10 17 11 18 15 19 12 20 14 21 16 22 13 23
REMARK SMILES IDX 23 24 24 25 25 26 26 27 27 28 28 29 29 30 30 31 94 32 31 33
REMARK SMILES IDX 93 34 32 35 33 36 34 37 87 38 35 39 92 40 86 41 88 42 36 43
REMARK SMILES IDX 91 44 85 45 84 46 37 48 71 49 50 50 70 51 51 52 54 53 69 54
REMARK SMILES IDX 89 55 52 56 53 57 68 59 90 60 55 61 38 62 39 63 48 64 40 65
REMARK SMILES IDX 41 66 47 67 49 68 42 69 43 70 44 71 45 72 46 73 72 74 73 75
REMARK SMILES IDX 82 76 74 77 75 78 81 79 83 80 76 81 77 82 78 83 79 84 80 85
REMARK SMILES IDX 56 86 57 87 66 88 58 89 59 90 65 91 67 92 60 93 61 94 62 95
REMARK SMILES IDX 63 96 64 97
REMARK H PARENT 6 13 88 47 54 58
REMARK Flexibility Score: inf
ROOT
ATOM      1  C   UNL A   1      34.426  34.686  29.531  1.00  0.00     0.202 C 
ENDROOT
BRANCH   1   2
ATOM      2  C   UNL A   1      33.902  34.082  28.212  1.00  0.00     0.261 C 
BRANCH   2   3
ATOM      3  O   UNL A   1      34.759  33.139  27.561  1.00  0.00    -0.463 OA
BRANCH   3   4
ATOM      4  C   UNL A   1      34.616  31.798  27.629  1.00  0.00     0.308 C 
ATOM      5  O   UNL A   1      35.608  31.085  27.780  1.00  0.00    -0.252 OA
BRANCH   4   6
ATOM      6  C   UNL A   1      33.324  31.162  27.217  1.00  0.00     0.160 C 
BRANCH   6   7
ATOM      7  C   UNL A   1      33.197  29.668  27.068  1.00  0.00     0.184 C 
ATOM      8  C   UNL A   1      33.434  29.107  25.619  1.00  0.00     0.295 C 
ATOM      9  O   UNL A   1      31.872  29.444  27.577  1.00  0.00    -0.366 OA
ATOM     10  N   UNL A   1      32.804  27.796  25.332  1.00  0.00    -0.330 N 
ATOM     11  C   UNL A   1      31.559  28.082  27.404  1.00  0.00     0.222 C 
ATOM     12  C   UNL A   1      31.477  27.871  25.899  1.00  0.00     0.291 C 
ATOM     13  H   UNL A   1      32.847  27.696  24.318  1.00  0.00     0.348 HD
BRANCH  10  14
ATOM     14  C   UNL A   1      33.484  26.527  25.692  1.00  0.00     0.273 C 
BRANCH  14  15
ATOM     15  C   UNL A   1      33.693  25.277  24.697  1.00  0.00     0.136 C 
BRANCH  15  16
ATOM     16  S   UNL A   1      35.049  23.922  24.718  1.00  0.00    -0.117 SA
BRANCH  16  17
ATOM     17  C   UNL A   1      34.280  22.289  24.523  1.00  0.00     0.043 A 
ATOM     18  C   UNL A   1      33.379  22.153  23.447  1.00  0.00     0.018 A 
ATOM     19  C   UNL A   1      34.377  21.217  25.421  1.00  0.00     0.136 A 
ATOM     20  C   UNL A   1      32.420  21.128  23.435  1.00  0.00     0.001 A 
ATOM     21  C   UNL A   1      33.464  20.145  25.365  1.00  0.00     0.040 A 
ATOM     22  F   UNL A   1      35.231  21.257  26.453  1.00  0.00    -0.206 F 
ATOM     23  C   UNL A   1      32.435  20.146  24.420  1.00  0.00     0.003 A 
ENDBRANCH  16  17
ENDBRANCH  15  16
ENDBRANCH  14  15
ENDBRANCH  10  14
ENDBRANCH   6   7
ENDBRANCH   4   6
ENDBRANCH   3   4
ENDBRANCH   2   3
ENDBRANCH   1   2
BRANCH   1  24
ATOM     24  O   UNL A   1      34.009  34.135  30.771  1.00  0.00    -0.374 OA
BRANCH  24  25
ATOM     25  C   UNL A   1      34.938  33.404  31.568  1.00  0.00     0.202 C 
BRANCH  25  26
ATOM     26  C   UNL A   1      35.355  31.988  31.161  1.00  0.00     0.261 C 
BRANCH  26  27
ATOM     27  O   UNL A   1      36.751  31.733  31.373  1.00  0.00    -0.460 OA
BRANCH  27  28
ATOM     28  C   UNL A   1      37.058  30.485  31.794  1.00  0.00     0.338 C 
ATOM     29  O   UNL A   1      36.373  29.751  32.502  1.00  0.00    -0.246 OA
BRANCH  28  30
ATOM     30  C   UNL A   1      38.246  30.018  31.069  1.00  0.00     0.060 A 
ATOM     31  C   UNL A   1      39.264  29.374  31.791  1.00  0.00     0.016 A 
ATOM     32  C   UNL A   1      38.361  30.218  29.694  1.00  0.00     0.016 A 
ATOM     33  C   UNL A   1      40.412  28.938  31.138  1.00  0.00     0.010 A 
ATOM     34  C   UNL A   1      39.525  29.810  29.047  1.00  0.00     0.010 A 
ATOM     35  C   UNL A   1      40.560  29.191  29.770  1.00  0.00    -0.014 A 
BRANCH  35  36
ATOM     36  C   UNL A   1      41.856  28.952  29.103  1.00  0.00     0.031 A 
ATOM     37  C   UNL A   1      42.124  27.583  28.551  1.00  0.00     0.074 A 
ATOM     38  C   UNL A   1      42.781  29.926  29.040  1.00  0.00     0.049 A 
ATOM     39  N   UNL A   1      43.239  27.085  28.090  1.00  0.00    -0.248 NA
ATOM     40  C   UNL A   1      40.986  26.645  28.523  1.00  0.00     0.031 C 
ATOM     41  C   UNL A   1      42.594  31.298  29.510  1.00  0.00     0.029 A 
ATOM     42  N   UNL A   1      44.075  29.897  28.587  1.00  0.00    -0.354 N 
ATOM     43  C   UNL A   1      42.945  25.773  27.740  1.00  0.00     0.074 A 
ATOM     44  C   UNL A   1      41.551  25.546  28.044  1.00  0.00     0.031 C 
ATOM     45  C   UNL A   1      43.747  31.970  29.358  1.00  0.00     0.029 A 
ATOM     46  C   UNL A   1      44.763  31.063  28.827  1.00  0.00     0.049 A 
ATOM     47  H   UNL A   1      44.473  29.119  28.134  1.00  0.00     0.167 HD
ATOM     48  C   UNL A   1      43.777  24.846  27.215  1.00  0.00     0.037 A 
ATOM     49  C   UNL A   1      46.074  31.344  28.683  1.00  0.00     0.037 A 
ATOM     50  C   UNL A   1      45.158  25.102  26.908  1.00  0.00     0.049 A 
ATOM     51  C   UNL A   1      46.994  30.273  28.157  1.00  0.00     0.074 A 
ATOM     52  C   UNL A   1      46.077  24.246  26.331  1.00  0.00     0.029 A 
ATOM     53  N   UNL A   1      45.819  26.295  27.162  1.00  0.00    -0.354 N 
ATOM     54  N   UNL A   1      46.703  29.045  27.795  1.00  0.00    -0.248 NA
ATOM     55  C   UNL A   1      48.418  30.612  28.026  1.00  0.00     0.031 C 
ATOM     56  C   UNL A   1      47.311  24.899  26.293  1.00  0.00     0.029 A 
ATOM     57  C   UNL A   1      47.145  26.184  26.787  1.00  0.00     0.049 A 
ATOM     58  H   UNL A   1      45.406  27.099  27.551  1.00  0.00     0.167 HD
ATOM     59  C   UNL A   1      47.901  28.475  27.376  1.00  0.00     0.074 A 
ATOM     60  C   UNL A   1      48.919  29.495  27.517  1.00  0.00     0.031 C 
ATOM     61  C   UNL A   1      48.137  27.221  26.920  1.00  0.00     0.037 A 
BRANCH  48  62
ATOM     62  C   UNL A   1      43.245  23.470  26.944  1.00  0.00     0.058 A 
ATOM     63  C   UNL A   1      43.059  22.566  28.004  1.00  0.00     0.135 A 
ATOM     64  C   UNL A   1      43.047  23.001  25.637  1.00  0.00     0.135 A 
ATOM     65  F   UNL A   1      43.220  22.971  29.274  1.00  0.00    -0.206 F 
ATOM     66  C   UNL A   1      42.742  21.233  27.773  1.00  0.00     0.059 A 
ATOM     67  C   UNL A   1      42.707  21.675  25.384  1.00  0.00     0.059 A 
ATOM     68  F   UNL A   1      43.184  23.832  24.593  1.00  0.00    -0.206 F 
ATOM     69  C   UNL A   1      42.583  20.793  26.458  1.00  0.00     0.060 A 
BRANCH  69  70
ATOM     70  S   UNL A   1      42.219  19.047  26.176  1.00  0.00     0.124 S 
ATOM     71  O   UNL A   1      42.554  18.458  27.468  1.00  0.00    -0.237 OA
ATOM     72  O   UNL A   1      40.800  19.084  25.841  1.00  0.00    -0.237 OA
ATOM     73  O   UNL A   1      43.107  18.690  25.073  1.00  0.00    -0.744 OA
ENDBRANCH  69  70
ENDBRANCH  48  62
BRANCH  49  74
ATOM     74  C   UNL A   1      46.597  32.677  29.088  1.00  0.00     0.058 A 
ATOM     75  C   UNL A   1      46.636  33.749  28.180  1.00  0.00     0.135 A 
ATOM     76  C   UNL A   1      47.078  32.908  30.385  1.00  0.00     0.135 A 
ATOM     77  F   UNL A   1      46.194  33.583  26.923  1.00  0.00    -0.206 F 
ATOM     78  C   UNL A   1      47.152  34.990  28.535  1.00  0.00     0.059 A 
ATOM     79  C   UNL A   1      47.572  34.151  30.774  1.00  0.00     0.059 A 
ATOM     80  F   UNL A   1      47.051  31.921  31.294  1.00  0.00    -0.206 F 
ATOM     81  C   UNL A   1      47.617  35.182  29.836  1.00  0.00     0.060 A 
BRANCH  81  82
ATOM     82  S   UNL A   1      48.273  36.805  30.280  1.00  0.00     0.124 S 
ATOM     83  O   UNL A   1      49.337  36.443  31.211  1.00  0.00    -0.237 OA
ATOM     84  O   UNL A   1      48.707  37.322  28.986  1.00  0.00    -0.237 OA
ATOM     85  O   UNL A   1      47.124  37.483  30.872  1.00  0.00    -0.744 OA
ENDBRANCH  81  82
ENDBRANCH  49  74
BRANCH  61  86
ATOM     86  C   UNL A   1      49.540  26.866  26.512  1.00  0.00     0.058 A 
ATOM     87  C   UNL A   1      49.940  26.996  25.172  1.00  0.00     0.135 A 
ATOM     88  C   UNL A   1      50.429  26.259  27.410  1.00  0.00     0.135 A 
ATOM     89  F   UNL A   1      49.121  27.563  24.272  1.00  0.00    -0.206 F 
ATOM     90  C   UNL A   1      51.159  26.496  24.728  1.00  0.00     0.059 A 
ATOM     91  C   UNL A   1      51.666  25.778  26.993  1.00  0.00     0.059 A 
ATOM     92  F   UNL A   1      50.095  26.123  28.704  1.00  0.00    -0.206 F 
ATOM     93  C   UNL A   1      52.010  25.878  25.645  1.00  0.00     0.060 A 
BRANCH  93  94
ATOM     94  S   UNL A   1      53.567  25.196  25.040  1.00  0.00     0.124 S 
ATOM     95  O   UNL A   1      54.541  25.867  25.895  1.00  0.00    -0.237 OA
ATOM     96  O   UNL A   1      53.389  23.767  25.280  1.00  0.00    -0.237 OA
ATOM     97  O   UNL A   1      53.588  25.591  23.634  1.00  0.00    -0.744 OA
ENDBRANCH  93  94
ENDBRANCH  61  86
ENDBRANCH  35  36
ENDBRANCH  28  30
ENDBRANCH  27  28
ENDBRANCH  26  27
ENDBRANCH  25  26
ENDBRANCH  24  25
ENDBRANCH   1  24
TORSDOF 22
ENDMDL
MODEL 3
REMARK VINA RESULT:     -10.2      1.831      8.524
REMARK SMILES O=C(C[C@@H]1C[N@@H+](CCSc2ccccc2F)CCO1)OCCOCCOC(=O)c1ccc(-c2c3nc(c(-c4c(F)cc(S(=O)(=O)[O-])cc4F)c4ccc([nH]4)c(-c4c(F)cc(S(=O)(=O)[O-])cc4F)c4nc(c(-c5c(F)cc(S(=O)(=O)[O-])cc5F)c5ccc2[nH]5)C=C4)C=C3)cc1
REMARK SMILES IDX 22 1 21 2 20 3 2 4 1 5 3 6 4 7 5 8 19 9 6 10 18 11 17 12
REMARK SMILES IDX 7 14 8 15 9 16 10 17 11 18 15 19 12 20 14 21 16 22 13 23
REMARK SMILES IDX 23 24 24 25 25 26 26 27 27 28 28 29 29 30 30 31 94 32 31 33
REMARK SMILES IDX 93 34 32 35 33 36 34 37 87 38 35 39 92 40 86 41 88 42 36 43
REMARK SMILES IDX 91 44 85 45 84 46 37 48 71 49 50 50 70 51 51 52 54 53 69 54
REMARK SMILES IDX 89 55 52 56 53 57 68 59 90 60 55 61 38 62 39 63 48 64 40 65
REMARK SMILES IDX 41 66 47 67 49 68 42 69 43 70 44 71 45 72 46 73 72 74 73 75
REMARK SMILES IDX 82 76 74 77 75 78 81 79 83 80 76 81 77 82 78 83 79 84 80 85
REMARK SMILES IDX 56 86 57 87 66 88 58 89 59 90 65 91 67 92 60 93 61 94 62 95
REMARK SMILES IDX 63 96 64 97
REMARK H PARENT 6 13 88 47 54 58
REMARK Flexibility Score: inf
ROOT
ATOM      1  C   UNL A   1      35.000  21.783  26.117  1.00  0.00     0.202 C 
ENDROOT
BRANCH   1   2
ATOM      2  C   UNL A   1      33.794  20.959  26.612  1.00  0.00     0.261 C 
BRANCH   2   3
ATOM      3  O   UNL A   1      32.599  21.049  25.830  1.00  0.00    -0.463 OA
BRANCH   3   4
ATOM      4  C   UNL A   1      32.375  20.363  24.689  1.00  0.00     0.308 C 
ATOM      5  O   UNL A   1      32.091  19.167  24.741  1.00  0.00    -0.252 OA
BRANCH   4   6
ATOM      6  C   UNL A   1      32.769  20.956  23.371  1.00  0.00     0.160 C 
BRANCH   6   7
ATOM      7  C   UNL A   1      32.474  22.395  23.037  1.00  0.00     0.184 C 
ATOM      8  C   UNL A   1      33.692  23.382  23.148  1.00  0.00     0.295 C 
ATOM      9  O   UNL A   1      31.399  22.682  23.947  1.00  0.00    -0.366 OA
ATOM     10  N   UNL A   1      33.341  24.807  23.363  1.00  0.00    -0.330 N 
ATOM     11  C   UNL A   1      31.075  24.047  23.828  1.00  0.00     0.222 C 
ATOM     12  C   UNL A   1      32.289  24.801  24.354  1.00  0.00     0.291 C 
ATOM     13  H   UNL A   1      34.212  25.255  23.646  1.00  0.00     0.348 HD
BRANCH  10  14
ATOM     14  C   UNL A   1      33.014  25.693  22.220  1.00  0.00     0.273 C 
BRANCH  14  15
ATOM     15  C   UNL A   1      33.364  27.265  22.141  1.00  0.00     0.136 C 
BRANCH  15  16
ATOM     16  S   UNL A   1      32.376  28.763  22.814  1.00  0.00    -0.117 SA
BRANCH  16  17
ATOM     17  C   UNL A   1      32.695  28.954  24.591  1.00  0.00     0.043 A 
ATOM     18  C   UNL A   1      33.735  28.163  25.122  1.00  0.00     0.018 A 
ATOM     19  C   UNL A   1      31.914  29.683  25.498  1.00  0.00     0.136 A 
ATOM     20  C   UNL A   1      33.803  27.890  26.497  1.00  0.00     0.001 A 
ATOM     21  C   UNL A   1      32.033  29.470  26.886  1.00  0.00     0.040 A 
ATOM     22  F   UNL A   1      30.925  30.480  25.070  1.00  0.00    -0.206 F 
ATOM     23  C   UNL A   1      32.922  28.511  27.377  1.00  0.00     0.003 A 
ENDBRANCH  16  17
ENDBRANCH  15  16
ENDBRANCH  14  15
ENDBRANCH  10  14
ENDBRANCH   6   7
ENDBRANCH   4   6
ENDBRANCH   3   4
ENDBRANCH   2   3
ENDBRANCH   1   2
BRANCH   1  24
ATOM     24  O   UNL A   1      36.217  21.125  25.796  1.00  0.00    -0.374 OA
BRANCH  24  25
ATOM     25  C   UNL A   1      37.008  21.594  24.706  1.00  0.00     0.202 C 
BRANCH  25  26
ATOM     26  C   UNL A   1      38.072  22.672  24.934  1.00  0.00     0.261 C 
BRANCH  26  27
ATOM     27  O   UNL A   1      38.674  22.598  26.234  1.00  0.00    -0.460 OA
BRANCH  27  28
ATOM     28  C   UNL A   1      39.979  22.950  26.292  1.00  0.00     0.338 C 
ATOM     29  O   UNL A   1      40.914  22.437  25.682  1.00  0.00    -0.246 OA
BRANCH  28  30
ATOM     30  C   UNL A   1      40.096  24.221  27.019  1.00  0.00     0.060 A 
ATOM     31  C   UNL A   1      41.114  25.115  26.648  1.00  0.00     0.016 A 
ATOM     32  C   UNL A   1      39.219  24.526  28.058  1.00  0.00     0.016 A 
ATOM     33  C   UNL A   1      41.265  26.318  27.329  1.00  0.00     0.010 A 
ATOM     34  C   UNL A   1      39.392  25.717  28.760  1.00  0.00     0.010 A 
ATOM     35  C   UNL A   1      40.428  26.602  28.413  1.00  0.00    -0.014 A 
BRANCH  35  36
ATOM     36  C   UNL A   1      40.712  27.752  29.295  1.00  0.00     0.031 A 
ATOM     37  C   UNL A   1      41.882  27.652  30.229  1.00  0.00     0.074 A 
ATOM     38  C   UNL A   1      39.911  28.832  29.287  1.00  0.00     0.049 A 
ATOM     39  N   UNL A   1      42.219  28.442  31.212  1.00  0.00    -0.248 NA
ATOM     40  C   UNL A   1      42.786  26.504  30.039  1.00  0.00     0.031 C 
ATOM     41  C   UNL A   1      38.780  29.037  28.384  1.00  0.00     0.029 A 
ATOM     42  N   UNL A   1      39.909  29.945  30.089  1.00  0.00    -0.354 N 
ATOM     43  C   UNL A   1      43.358  27.877  31.771  1.00  0.00     0.074 A 
ATOM     44  C   UNL A   1      43.655  26.675  31.025  1.00  0.00     0.031 C 
ATOM     45  C   UNL A   1      38.165  30.186  28.710  1.00  0.00     0.029 A 
ATOM     46  C   UNL A   1      38.832  30.771  29.872  1.00  0.00     0.049 A 
ATOM     47  H   UNL A   1      40.609  30.134  30.754  1.00  0.00     0.167 HD
ATOM     48  C   UNL A   1      44.083  28.328  32.818  1.00  0.00     0.037 A 
ATOM     49  C   UNL A   1      38.406  31.845  30.568  1.00  0.00     0.037 A 
ATOM     50  C   UNL A   1      43.774  29.536  33.535  1.00  0.00     0.049 A 
ATOM     51  C   UNL A   1      39.195  32.290  31.772  1.00  0.00     0.074 A 
ATOM     52  C   UNL A   1      44.471  30.108  34.583  1.00  0.00     0.029 A 
ATOM     53  N   UNL A   1      42.678  30.348  33.286  1.00  0.00    -0.354 N 
ATOM     54  N   UNL A   1      40.292  31.771  32.274  1.00  0.00    -0.248 NA
ATOM     55  C   UNL A   1      38.693  33.457  32.512  1.00  0.00     0.031 C 
ATOM     56  C   UNL A   1      43.762  31.233  35.010  1.00  0.00     0.029 A 
ATOM     57  C   UNL A   1      42.659  31.398  34.185  1.00  0.00     0.049 A 
ATOM     58  H   UNL A   1      42.014  30.200  32.575  1.00  0.00     0.167 HD
ATOM     59  C   UNL A   1      40.618  32.559  33.374  1.00  0.00     0.074 A 
ATOM     60  C   UNL A   1      39.613  33.597  33.458  1.00  0.00     0.031 C 
ATOM     61  C   UNL A   1      41.655  32.431  34.237  1.00  0.00     0.037 A 
BRANCH  48  62
ATOM     62  C   UNL A   1      45.268  27.530  33.274  1.00  0.00     0.058 A 
ATOM     63  C   UNL A   1      46.549  27.826  32.776  1.00  0.00     0.135 A 
ATOM     64  C   UNL A   1      45.125  26.400  34.092  1.00  0.00     0.135 A 
ATOM     65  F   UNL A   1      46.741  28.906  32.003  1.00  0.00    -0.206 F 
ATOM     66  C   UNL A   1      47.636  27.000  33.034  1.00  0.00     0.059 A 
ATOM     67  C   UNL A   1      46.206  25.571  34.383  1.00  0.00     0.059 A 
ATOM     68  F   UNL A   1      43.929  26.091  34.615  1.00  0.00    -0.206 F 
ATOM     69  C   UNL A   1      47.451  25.866  33.826  1.00  0.00     0.060 A 
BRANCH  69  70
ATOM     70  S   UNL A   1      48.864  24.779  34.111  1.00  0.00     0.124 S 
ATOM     71  O   UNL A   1      48.225  23.597  34.678  1.00  0.00    -0.237 OA
ATOM     72  O   UNL A   1      49.406  24.627  32.764  1.00  0.00    -0.237 OA
ATOM     73  O   UNL A   1      49.701  25.544  35.031  1.00  0.00    -0.744 OA
ENDBRANCH  69  70
ENDBRANCH  48  62
BRANCH  49  74
ATOM     74  C   UNL A   1      37.150  32.537  30.171  1.00  0.00     0.058 A 
ATOM     75  C   UNL A   1      37.159  33.569  29.217  1.00  0.00     0.135 A 
ATOM     76  C   UNL A   1      35.916  32.192  30.742  1.00  0.00     0.135 A 
ATOM     77  F   UNL A   1      38.313  33.945  28.643  1.00  0.00    -0.206 F 
ATOM     78  C   UNL A   1      35.998  34.247  28.861  1.00  0.00     0.059 A 
ATOM     79  C   UNL A   1      34.735  32.835  30.380  1.00  0.00     0.059 A 
ATOM     80  F   UNL A   1      35.851  31.204  31.648  1.00  0.00    -0.206 F 
ATOM     81  C   UNL A   1      34.790  33.871  29.447  1.00  0.00     0.060 A 
BRANCH  81  82
ATOM     82  S   UNL A   1      33.292  34.756  28.963  1.00  0.00     0.124 S 
ATOM     83  O   UNL A   1      33.849  35.971  28.376  1.00  0.00    -0.237 OA
ATOM     84  O   UNL A   1      32.674  33.821  28.029  1.00  0.00    -0.237 OA
ATOM     85  O   UNL A   1      32.584  34.938  30.227  1.00  0.00    -0.744 OA
ENDBRANCH  81  82
ENDBRANCH  49  74
BRANCH  61  86
ATOM     86  C   UNL A   1      41.788  33.442  35.342  1.00  0.00     0.058 A 
ATOM     87  C   UNL A   1      41.193  33.205  36.592  1.00  0.00     0.135 A 
ATOM     88  C   UNL A   1      42.369  34.698  35.115  1.00  0.00     0.135 A 
ATOM     89  F   UNL A   1      40.616  32.021  36.854  1.00  0.00    -0.206 F 
ATOM     90  C   UNL A   1      41.130  34.197  37.564  1.00  0.00     0.059 A 
ATOM     91  C   UNL A   1      42.343  35.695  36.085  1.00  0.00     0.059 A 
ATOM     92  F   UNL A   1      42.960  34.967  33.940  1.00  0.00    -0.206 F 
ATOM     93  C   UNL A   1      41.699  35.442  37.296  1.00  0.00     0.060 A 
BRANCH  93  94
ATOM     94  S   UNL A   1      41.568  36.730  38.554  1.00  0.00     0.124 S 
ATOM     95  O   UNL A   1      40.229  37.254  38.309  1.00  0.00    -0.237 OA
ATOM     96  O   UNL A   1      41.735  35.969  39.789  1.00  0.00    -0.237 OA
ATOM     97  O   UNL A   1      42.666  37.636  38.230  1.00  0.00    -0.744 OA
ENDBRANCH  93  94
ENDBRANCH  61  86
ENDBRANCH  35  36
ENDBRANCH  28  30
ENDBRANCH  27  28
ENDBRANCH  26  27
ENDBRANCH  25  26
ENDBRANCH  24  25
ENDBRANCH   1  24
TORSDOF 22
ENDMDL
