MODEL 1
REMARK VINA RESULT:     -11.5      0.000      0.000
REMARK SMILES Cc1nc(S[C@@H](C(=O)OCCOCCOC(=O)c2ccc(-c3c4nc(c(-c5c(F)cc(S(=O)(=O)[O-])cc5F)c5ccc([nH]5)c(-c5c(F)cc(S(=O)(=O)[O-])cc5F)c5nc(c(-c6c(F)cc(S(=O)(=O)[O-])cc6F)c6ccc3[nH]6)C=C5)C=C4)cc2)c2ccccc2)nc2ccccc12
REMARK SMILES IDX 13 1 12 2 11 3 10 4 9 5 7 6 8 7 6 8 5 9 4 10 1 11 2 12 3 13
REMARK SMILES IDX 96 14 91 15 95 16 90 17 92 18 94 19 93 20 84 21 85 22 89 23
REMARK SMILES IDX 86 24 88 25 87 26 14 27 15 28 16 29 17 30 18 31 19 32 83 33
REMARK SMILES IDX 20 34 82 35 21 36 22 37 23 38 76 39 24 40 81 41 75 42 77 43
REMARK SMILES IDX 25 44 80 45 74 46 73 47 26 49 60 50 39 51 59 52 40 53 43 54
REMARK SMILES IDX 58 55 78 56 41 57 42 58 57 60 79 61 44 62 27 63 28 64 37 65
REMARK SMILES IDX 29 66 30 67 36 68 38 69 31 70 32 71 33 72 34 73 35 74 61 75
REMARK SMILES IDX 62 76 71 77 63 78 64 79 70 80 72 81 65 82 66 83 67 84 68 85
REMARK SMILES IDX 69 86 45 87 46 88 55 89 47 90 48 91 54 92 56 93 49 94 50 95
REMARK SMILES IDX 51 96 52 97 53 98
REMARK H PARENT 77 48 43 59
REMARK Flexibility Score: inf
ROOT
ATOM      1  C   UNL A   1      34.001  31.018  27.398  1.00  0.00     0.202 C 
ENDROOT
BRANCH   1   2
ATOM      2  O   UNL A   1      32.848  30.196  27.474  1.00  0.00    -0.374 OA
BRANCH   2   3
ATOM      3  C   UNL A   1      32.894  28.912  26.864  1.00  0.00     0.202 C 
BRANCH   3   4
ATOM      4  C   UNL A   1      31.800  27.875  27.169  1.00  0.00     0.261 C 
BRANCH   4   5
ATOM      5  O   UNL A   1      32.024  26.526  26.693  1.00  0.00    -0.462 OA
BRANCH   5   6
ATOM      6  C   UNL A   1      30.982  26.001  25.983  1.00  0.00     0.324 C 
ATOM      7  O   UNL A   1      30.122  25.297  26.516  1.00  0.00    -0.251 OA
BRANCH   6   8
ATOM      8  C   UNL A   1      31.018  26.212  24.460  1.00  0.00     0.194 C 
BRANCH   8   9
ATOM      9  S   UNL A   1      32.570  25.907  23.560  1.00  0.00    -0.066 SA
BRANCH   9  10
ATOM     10  C   UNL A   1      33.252  24.353  24.054  1.00  0.00     0.189 A 
ATOM     11  C   UNL A   1      32.153  20.996  24.976  1.00  0.00     0.067 C 
ATOM     12  C   UNL A   1      33.080  22.143  24.687  1.00  0.00     0.050 A 
ATOM     13  N   UNL A   1      32.473  23.302  24.320  1.00  0.00    -0.227 NA
ATOM     14  C   UNL A   1      34.470  21.991  24.719  1.00  0.00     0.022 A 
ATOM     15  C   UNL A   1      35.190  23.152  24.420  1.00  0.00     0.075 A 
ATOM     16  C   UNL A   1      35.156  20.783  25.002  1.00  0.00     0.012 A 
ATOM     17  N   UNL A   1      34.594  24.312  24.109  1.00  0.00    -0.222 NA
ATOM     18  C   UNL A   1      36.580  23.081  24.438  1.00  0.00     0.029 A 
ATOM     19  C   UNL A   1      36.547  20.737  24.999  1.00  0.00     0.001 A 
ATOM     20  C   UNL A   1      37.262  21.893  24.723  1.00  0.00     0.002 A 
ENDBRANCH   9  10
ENDBRANCH   8   9
BRANCH   8  21
ATOM     21  C   UNL A   1      30.063  27.330  24.014  1.00  0.00    -0.023 A 
ATOM     22  C   UNL A   1      28.696  27.170  23.772  1.00  0.00     0.005 A 
ATOM     23  C   UNL A   1      30.630  28.567  23.638  1.00  0.00     0.005 A 
ATOM     24  C   UNL A   1      27.939  28.150  23.123  1.00  0.00     0.000 A 
ATOM     25  C   UNL A   1      29.875  29.557  23.002  1.00  0.00     0.000 A 
ATOM     26  C   UNL A   1      28.531  29.339  22.726  1.00  0.00     0.000 A 
ENDBRANCH   8  21
ENDBRANCH   6   8
ENDBRANCH   5   6
ENDBRANCH   4   5
ENDBRANCH   3   4
ENDBRANCH   2   3
ENDBRANCH   1   2
BRANCH   1  27
ATOM     27  C   UNL A   1      34.997  31.026  28.562  1.00  0.00     0.261 C 
BRANCH  27  28
ATOM     28  O   UNL A   1      35.850  29.903  28.648  1.00  0.00    -0.460 OA
BRANCH  28  29
ATOM     29  C   UNL A   1      36.496  29.771  29.821  1.00  0.00     0.338 C 
ATOM     30  O   UNL A   1      36.048  29.777  30.951  1.00  0.00    -0.246 OA
BRANCH  29  31
ATOM     31  C   UNL A   1      37.889  29.545  29.453  1.00  0.00     0.060 A 
ATOM     32  C   UNL A   1      38.842  29.365  30.458  1.00  0.00     0.016 A 
ATOM     33  C   UNL A   1      38.232  29.579  28.102  1.00  0.00     0.016 A 
ATOM     34  C   UNL A   1      40.171  29.193  30.098  1.00  0.00     0.010 A 
ATOM     35  C   UNL A   1      39.560  29.389  27.744  1.00  0.00     0.010 A 
ATOM     36  C   UNL A   1      40.527  29.177  28.740  1.00  0.00    -0.014 A 
BRANCH  36  37
ATOM     37  C   UNL A   1      41.899  28.805  28.348  1.00  0.00     0.031 A 
ATOM     38  C   UNL A   1      42.985  29.829  28.294  1.00  0.00     0.074 A 
ATOM     39  C   UNL A   1      42.118  27.521  28.008  1.00  0.00     0.049 A 
ATOM     40  N   UNL A   1      44.238  29.672  27.961  1.00  0.00    -0.248 NA
ATOM     41  C   UNL A   1      42.619  31.210  28.644  1.00  0.00     0.031 C 
ATOM     42  C   UNL A   1      41.096  26.468  28.008  1.00  0.00     0.029 A 
ATOM     43  N   UNL A   1      43.256  26.881  27.602  1.00  0.00    -0.354 N 
ATOM     44  C   UNL A   1      44.818  30.928  28.072  1.00  0.00     0.074 A 
ATOM     45  C   UNL A   1      43.768  31.847  28.456  1.00  0.00     0.031 C 
ATOM     46  C   UNL A   1      41.663  25.307  27.651  1.00  0.00     0.029 A 
ATOM     47  C   UNL A   1      43.072  25.541  27.357  1.00  0.00     0.049 A 
ATOM     48  H   UNL A   1      44.122  27.335  27.497  1.00  0.00     0.167 HD
ATOM     49  C   UNL A   1      46.115  31.266  27.885  1.00  0.00     0.037 A 
ATOM     50  C   UNL A   1      43.944  24.609  26.937  1.00  0.00     0.037 A 
ATOM     51  C   UNL A   1      47.134  30.326  27.495  1.00  0.00     0.049 A 
ATOM     52  C   UNL A   1      45.367  25.023  26.693  1.00  0.00     0.074 A 
ATOM     53  C   UNL A   1      48.485  30.550  27.306  1.00  0.00     0.029 A 
ATOM     54  N   UNL A   1      46.910  28.982  27.225  1.00  0.00    -0.354 N 
ATOM     55  N   UNL A   1      45.917  26.204  26.856  1.00  0.00    -0.248 NA
ATOM     56  C   UNL A   1      46.287  23.989  26.203  1.00  0.00     0.031 C 
ATOM     57  C   UNL A   1      49.069  29.355  26.875  1.00  0.00     0.029 A 
ATOM     58  C   UNL A   1      48.093  28.371  26.842  1.00  0.00     0.049 A 
ATOM     59  H   UNL A   1      46.039  28.529  27.295  1.00  0.00     0.167 HD
ATOM     60  C   UNL A   1      47.251  26.053  26.501  1.00  0.00     0.074 A 
ATOM     61  C   UNL A   1      47.428  24.662  26.132  1.00  0.00     0.031 C 
ATOM     62  C   UNL A   1      48.238  26.982  26.475  1.00  0.00     0.037 A 
BRANCH  49  63
ATOM     63  C   UNL A   1      46.507  32.701  28.104  1.00  0.00     0.058 A 
ATOM     64  C   UNL A   1      46.966  33.150  29.352  1.00  0.00     0.135 A 
ATOM     65  C   UNL A   1      46.480  33.624  27.046  1.00  0.00     0.135 A 
ATOM     66  F   UNL A   1      46.998  32.315  30.402  1.00  0.00    -0.206 F 
ATOM     67  C   UNL A   1      47.368  34.468  29.549  1.00  0.00     0.059 A 
ATOM     68  C   UNL A   1      46.902  34.941  27.214  1.00  0.00     0.059 A 
ATOM     69  F   UNL A   1      46.047  33.249  25.833  1.00  0.00    -0.206 F 
ATOM     70  C   UNL A   1      47.336  35.356  28.472  1.00  0.00     0.060 A 
BRANCH  70  71
ATOM     71  S   UNL A   1      47.876  37.056  28.746  1.00  0.00     0.124 S 
ATOM     72  O   UNL A   1      47.606  37.221  30.171  1.00  0.00    -0.237 OA
ATOM     73  O   UNL A   1      49.285  36.997  28.371  1.00  0.00    -0.237 OA
ATOM     74  O   UNL A   1      47.023  37.833  27.853  1.00  0.00    -0.744 OA
ENDBRANCH  70  71
ENDBRANCH  49  63
BRANCH  50  75
ATOM     75  C   UNL A   1      43.493  23.206  26.756  1.00  0.00     0.058 A 
ATOM     76  C   UNL A   1      43.335  22.664  25.473  1.00  0.00     0.135 A 
ATOM     77  C   UNL A   1      43.271  22.360  27.855  1.00  0.00     0.135 A 
ATOM     78  F   UNL A   1      43.539  23.432  24.391  1.00  0.00    -0.206 F 
ATOM     79  C   UNL A   1      42.967  21.337  25.283  1.00  0.00     0.059 A 
ATOM     80  C   UNL A   1      42.926  21.022  27.691  1.00  0.00     0.059 A 
ATOM     81  F   UNL A   1      43.429  22.825  29.104  1.00  0.00    -0.206 F 
ATOM     82  C   UNL A   1      42.771  20.521  26.399  1.00  0.00     0.060 A 
BRANCH  82  83
ATOM     83  S   UNL A   1      42.350  18.785  26.135  1.00  0.00     0.124 S 
ATOM     84  O   UNL A   1      42.623  18.214  27.449  1.00  0.00    -0.237 OA
ATOM     85  O   UNL A   1      40.944  18.869  25.754  1.00  0.00    -0.237 OA
ATOM     86  O   UNL A   1      43.259  18.377  25.068  1.00  0.00    -0.744 OA
ENDBRANCH  82  83
ENDBRANCH  50  75
BRANCH  62  87
ATOM     87  C   UNL A   1      49.598  26.531  26.028  1.00  0.00     0.058 A 
ATOM     88  C   UNL A   1      50.073  26.822  24.741  1.00  0.00     0.135 A 
ATOM     89  C   UNL A   1      50.469  25.891  26.924  1.00  0.00     0.135 A 
ATOM     90  F   UNL A   1      49.275  27.423  23.844  1.00  0.00    -0.206 F 
ATOM     91  C   UNL A   1      51.367  26.494  24.356  1.00  0.00     0.059 A 
ATOM     92  C   UNL A   1      51.776  25.577  26.569  1.00  0.00     0.059 A 
ATOM     93  F   UNL A   1      50.062  25.596  28.169  1.00  0.00    -0.206 F 
ATOM     94  C   UNL A   1      52.216  25.883  25.282  1.00  0.00     0.060 A 
BRANCH  94  95
ATOM     95  S   UNL A   1      53.917  25.535  24.788  1.00  0.00     0.124 S 
ATOM     96  O   UNL A   1      53.939  24.076  24.813  1.00  0.00    -0.237 OA
ATOM     97  O   UNL A   1      53.985  26.147  23.464  1.00  0.00    -0.237 OA
ATOM     98  O   UNL A   1      54.713  26.193  25.819  1.00  0.00    -0.744 OA
ENDBRANCH  94  95
ENDBRANCH  62  87
ENDBRANCH  36  37
ENDBRANCH  29  31
ENDBRANCH  28  29
ENDBRANCH  27  28
ENDBRANCH   1  27
TORSDOF 20
ENDMDL
MODEL 2
REMARK VINA RESULT:     -11.3      1.128      3.949
REMARK SMILES Cc1nc(S[C@@H](C(=O)OCCOCCOC(=O)c2ccc(-c3c4nc(c(-c5c(F)cc(S(=O)(=O)[O-])cc5F)c5ccc([nH]5)c(-c5c(F)cc(S(=O)(=O)[O-])cc5F)c5nc(c(-c6c(F)cc(S(=O)(=O)[O-])cc6F)c6ccc3[nH]6)C=C5)C=C4)cc2)c2ccccc2)nc2ccccc12
REMARK SMILES IDX 13 1 12 2 11 3 10 4 9 5 7 6 8 7 6 8 5 9 4 10 1 11 2 12 3 13
REMARK SMILES IDX 96 14 91 15 95 16 90 17 92 18 94 19 93 20 84 21 85 22 89 23
REMARK SMILES IDX 86 24 88 25 87 26 14 27 15 28 16 29 17 30 18 31 19 32 83 33
REMARK SMILES IDX 20 34 82 35 21 36 22 37 23 38 76 39 24 40 81 41 75 42 77 43
REMARK SMILES IDX 25 44 80 45 74 46 73 47 26 49 60 50 39 51 59 52 40 53 43 54
REMARK SMILES IDX 58 55 78 56 41 57 42 58 57 60 79 61 44 62 27 63 28 64 37 65
REMARK SMILES IDX 29 66 30 67 36 68 38 69 31 70 32 71 33 72 34 73 35 74 61 75
REMARK SMILES IDX 62 76 71 77 63 78 64 79 70 80 72 81 65 82 66 83 67 84 68 85
REMARK SMILES IDX 69 86 45 87 46 88 55 89 47 90 48 91 54 92 56 93 49 94 50 95
REMARK SMILES IDX 51 96 52 97 53 98
REMARK H PARENT 77 48 43 59
REMARK Flexibility Score: inf
ROOT
ATOM      1  C   UNL A   1      33.823  30.076  26.783  1.00  0.00     0.202 C 
ENDROOT
BRANCH   1   2
ATOM      2  O   UNL A   1      32.520  29.669  27.169  1.00  0.00    -0.374 OA
BRANCH   2   3
ATOM      3  C   UNL A   1      32.330  28.324  27.591  1.00  0.00     0.202 C 
BRANCH   3   4
ATOM      4  C   UNL A   1      31.352  27.410  26.833  1.00  0.00     0.261 C 
BRANCH   4   5
ATOM      5  O   UNL A   1      31.389  26.000  27.156  1.00  0.00    -0.462 OA
BRANCH   5   6
ATOM      6  C   UNL A   1      31.387  25.175  26.067  1.00  0.00     0.324 C 
ATOM      7  O   UNL A   1      30.603  24.229  25.971  1.00  0.00    -0.251 OA
BRANCH   6   8
ATOM      8  C   UNL A   1      32.508  25.397  25.037  1.00  0.00     0.194 C 
BRANCH   8   9
ATOM      9  S   UNL A   1      32.067  25.662  23.292  1.00  0.00    -0.066 SA
BRANCH   9  10
ATOM     10  C   UNL A   1      30.637  26.697  23.187  1.00  0.00     0.189 A 
ATOM     11  C   UNL A   1      27.111  26.677  24.133  1.00  0.00     0.067 C 
ATOM     12  C   UNL A   1      28.412  27.168  23.562  1.00  0.00     0.050 A 
ATOM     13  N   UNL A   1      29.458  26.309  23.680  1.00  0.00    -0.227 NA
ATOM     14  C   UNL A   1      28.541  28.453  23.027  1.00  0.00     0.022 A 
ATOM     15  C   UNL A   1      29.817  28.757  22.544  1.00  0.00     0.075 A 
ATOM     16  C   UNL A   1      27.509  29.423  22.966  1.00  0.00     0.012 A 
ATOM     17  N   UNL A   1      30.841  27.892  22.609  1.00  0.00    -0.222 NA
ATOM     18  C   UNL A   1      30.023  30.017  21.988  1.00  0.00     0.029 A 
ATOM     19  C   UNL A   1      27.745  30.680  22.417  1.00  0.00     0.001 A 
ATOM     20  C   UNL A   1      29.007  30.976  21.920  1.00  0.00     0.002 A 
ENDBRANCH   9  10
ENDBRANCH   8   9
BRANCH   8  21
ATOM     21  C   UNL A   1      33.789  24.636  25.411  1.00  0.00    -0.023 A 
ATOM     22  C   UNL A   1      34.964  24.620  24.654  1.00  0.00     0.005 A 
ATOM     23  C   UNL A   1      33.726  23.736  26.497  1.00  0.00     0.005 A 
ATOM     24  C   UNL A   1      35.995  23.711  24.906  1.00  0.00     0.000 A 
ATOM     25  C   UNL A   1      34.760  22.834  26.764  1.00  0.00     0.000 A 
ATOM     26  C   UNL A   1      35.888  22.808  25.954  1.00  0.00     0.000 A 
ENDBRANCH   8  21
ENDBRANCH   6   8
ENDBRANCH   5   6
ENDBRANCH   4   5
ENDBRANCH   3   4
ENDBRANCH   2   3
ENDBRANCH   1   2
BRANCH   1  27
ATOM     27  C   UNL A   1      34.820  30.523  27.855  1.00  0.00     0.261 C 
BRANCH  27  28
ATOM     28  O   UNL A   1      35.731  29.538  28.297  1.00  0.00    -0.460 OA
BRANCH  28  29
ATOM     29  C   UNL A   1      36.353  29.819  29.457  1.00  0.00     0.338 C 
ATOM     30  O   UNL A   1      35.874  30.139  30.528  1.00  0.00    -0.246 OA
BRANCH  29  31
ATOM     31  C   UNL A   1      37.767  29.593  29.184  1.00  0.00     0.060 A 
ATOM     32  C   UNL A   1      38.656  29.446  30.252  1.00  0.00     0.016 A 
ATOM     33  C   UNL A   1      38.195  29.593  27.857  1.00  0.00     0.016 A 
ATOM     34  C   UNL A   1      40.005  29.273  29.981  1.00  0.00     0.010 A 
ATOM     35  C   UNL A   1      39.543  29.404  27.589  1.00  0.00     0.010 A 
ATOM     36  C   UNL A   1      40.447  29.224  28.649  1.00  0.00    -0.014 A 
BRANCH  36  37
ATOM     37  C   UNL A   1      41.843  28.851  28.354  1.00  0.00     0.031 A 
ATOM     38  C   UNL A   1      42.933  29.871  28.395  1.00  0.00     0.074 A 
ATOM     39  C   UNL A   1      42.081  27.570  28.014  1.00  0.00     0.049 A 
ATOM     40  N   UNL A   1      44.207  29.712  28.154  1.00  0.00    -0.248 NA
ATOM     41  C   UNL A   1      42.548  31.249  28.736  1.00  0.00     0.031 C 
ATOM     42  C   UNL A   1      41.059  26.522  27.924  1.00  0.00     0.029 A 
ATOM     43  N   UNL A   1      43.244  26.931  27.685  1.00  0.00    -0.354 N 
ATOM     44  C   UNL A   1      44.782  30.964  28.325  1.00  0.00     0.074 A 
ATOM     45  C   UNL A   1      43.709  31.883  28.642  1.00  0.00     0.031 C 
ATOM     46  C   UNL A   1      41.646  25.364  27.594  1.00  0.00     0.029 A 
ATOM     47  C   UNL A   1      43.073  25.596  27.408  1.00  0.00     0.049 A 
ATOM     48  H   UNL A   1      44.117  27.383  27.650  1.00  0.00     0.167 HD
ATOM     49  C   UNL A   1      46.090  31.299  28.239  1.00  0.00     0.037 A 
ATOM     50  C   UNL A   1      43.972  24.665  27.041  1.00  0.00     0.037 A 
ATOM     51  C   UNL A   1      47.132  30.359  27.912  1.00  0.00     0.049 A 
ATOM     52  C   UNL A   1      45.410  25.076  26.908  1.00  0.00     0.074 A 
ATOM     53  C   UNL A   1      48.494  30.580  27.827  1.00  0.00     0.029 A 
ATOM     54  N   UNL A   1      46.924  29.019  27.608  1.00  0.00    -0.354 N 
ATOM     55  N   UNL A   1      45.950  26.251  27.128  1.00  0.00    -0.248 NA
ATOM     56  C   UNL A   1      46.359  24.044  26.474  1.00  0.00     0.031 C 
ATOM     57  C   UNL A   1      49.104  29.388  27.424  1.00  0.00     0.029 A 
ATOM     58  C   UNL A   1      48.129  28.409  27.305  1.00  0.00     0.049 A 
ATOM     59  H   UNL A   1      46.048  28.570  27.607  1.00  0.00     0.167 HD
ATOM     60  C   UNL A   1      47.306  26.099  26.871  1.00  0.00     0.074 A 
ATOM     61  C   UNL A   1      47.505  24.713  26.497  1.00  0.00     0.031 C 
ATOM     62  C   UNL A   1      48.296  27.024  26.931  1.00  0.00     0.037 A 
BRANCH  49  63
ATOM     63  C   UNL A   1      46.470  32.728  28.506  1.00  0.00     0.058 A 
ATOM     64  C   UNL A   1      46.521  33.676  27.471  1.00  0.00     0.135 A 
ATOM     65  C   UNL A   1      46.731  33.172  29.812  1.00  0.00     0.135 A 
ATOM     66  F   UNL A   1      46.297  33.304  26.201  1.00  0.00    -0.206 F 
ATOM     67  C   UNL A   1      46.833  35.009  27.719  1.00  0.00     0.059 A 
ATOM     68  C   UNL A   1      47.020  34.506  30.087  1.00  0.00     0.059 A 
ATOM     69  F   UNL A   1      46.699  32.308  30.838  1.00  0.00    -0.206 F 
ATOM     70  C   UNL A   1      47.078  35.416  29.032  1.00  0.00     0.060 A 
BRANCH  70  71
ATOM     71  S   UNL A   1      47.466  37.153  29.333  1.00  0.00     0.124 S 
ATOM     72  O   UNL A   1      46.609  37.817  28.356  1.00  0.00    -0.237 OA
ATOM     73  O   UNL A   1      47.080  37.318  30.730  1.00  0.00    -0.237 OA
ATOM     74  O   UNL A   1      48.898  37.234  29.066  1.00  0.00    -0.744 OA
ENDBRANCH  70  71
ENDBRANCH  49  63
BRANCH  50  75
ATOM     75  C   UNL A   1      43.530  23.266  26.808  1.00  0.00     0.058 A 
ATOM     76  C   UNL A   1      43.522  22.724  25.515  1.00  0.00     0.135 A 
ATOM     77  C   UNL A   1      43.167  22.426  27.873  1.00  0.00     0.135 A 
ATOM     78  F   UNL A   1      43.863  23.487  24.465  1.00  0.00    -0.206 F 
ATOM     79  C   UNL A   1      43.165  21.401  25.283  1.00  0.00     0.059 A 
ATOM     80  C   UNL A   1      42.830  21.091  27.669  1.00  0.00     0.059 A 
ATOM     81  F   UNL A   1      43.179  22.891  29.131  1.00  0.00    -0.206 F 
ATOM     82  C   UNL A   1      42.827  20.589  26.369  1.00  0.00     0.060 A 
BRANCH  82  83
ATOM     83  S   UNL A   1      42.421  18.857  26.057  1.00  0.00     0.124 S 
ATOM     84  O   UNL A   1      41.000  18.941  25.742  1.00  0.00    -0.237 OA
ATOM     85  O   UNL A   1      43.304  18.535  24.942  1.00  0.00    -0.237 OA
ATOM     86  O   UNL A   1      42.750  18.202  27.319  1.00  0.00    -0.744 OA
ENDBRANCH  82  83
ENDBRANCH  50  75
BRANCH  62  87
ATOM     87  C   UNL A   1      49.684  26.573  26.580  1.00  0.00     0.058 A 
ATOM     88  C   UNL A   1      50.528  26.002  27.545  1.00  0.00     0.135 A 
ATOM     89  C   UNL A   1      50.137  26.621  25.252  1.00  0.00     0.135 A 
ATOM     90  F   UNL A   1      50.145  25.943  28.830  1.00  0.00    -0.206 F 
ATOM     91  C   UNL A   1      51.775  25.492  27.204  1.00  0.00     0.059 A 
ATOM     92  C   UNL A   1      51.369  26.093  24.885  1.00  0.00     0.059 A 
ATOM     93  F   UNL A   1      49.364  27.153  24.293  1.00  0.00    -0.206 F 
ATOM     94  C   UNL A   1      52.181  25.530  25.869  1.00  0.00     0.060 A 
BRANCH  94  95
ATOM     95  S   UNL A   1      53.771  24.793  25.434  1.00  0.00     0.124 S 
ATOM     96  O   UNL A   1      54.207  25.657  24.341  1.00  0.00    -0.237 OA
ATOM     97  O   UNL A   1      54.521  24.920  26.680  1.00  0.00    -0.237 OA
ATOM     98  O   UNL A   1      53.422  23.428  25.054  1.00  0.00    -0.744 OA
ENDBRANCH  94  95
ENDBRANCH  62  87
ENDBRANCH  36  37
ENDBRANCH  29  31
ENDBRANCH  28  29
ENDBRANCH  27  28
ENDBRANCH   1  27
TORSDOF 20
ENDMDL
MODEL 3
REMARK VINA RESULT:     -11.2      0.985      1.892
REMARK SMILES Cc1nc(S[C@@H](C(=O)OCCOCCOC(=O)c2ccc(-c3c4nc(c(-c5c(F)cc(S(=O)(=O)[O-])cc5F)c5ccc([nH]5)c(-c5c(F)cc(S(=O)(=O)[O-])cc5F)c5nc(c(-c6c(F)cc(S(=O)(=O)[O-])cc6F)c6ccc3[nH]6)C=C5)C=C4)cc2)c2ccccc2)nc2ccccc12
REMARK SMILES IDX 13 1 12 2 11 3 10 4 9 5 7 6 8 7 6 8 5 9 4 10 1 11 2 12 3 13
REMARK SMILES IDX 96 14 91 15 95 16 90 17 92 18 94 19 93 20 84 21 85 22 89 23
REMARK SMILES IDX 86 24 88 25 87 26 14 27 15 28 16 29 17 30 18 31 19 32 83 33
REMARK SMILES IDX 20 34 82 35 21 36 22 37 23 38 76 39 24 40 81 41 75 42 77 43
REMARK SMILES IDX 25 44 80 45 74 46 73 47 26 49 60 50 39 51 59 52 40 53 43 54
REMARK SMILES IDX 58 55 78 56 41 57 42 58 57 60 79 61 44 62 27 63 28 64 37 65
REMARK SMILES IDX 29 66 30 67 36 68 38 69 31 70 32 71 33 72 34 73 35 74 61 75
REMARK SMILES IDX 62 76 71 77 63 78 64 79 70 80 72 81 65 82 66 83 67 84 68 85
REMARK SMILES IDX 69 86 45 87 46 88 55 89 47 90 48 91 54 92 56 93 49 94 50 95
REMARK SMILES IDX 51 96 52 97 53 98
REMARK H PARENT 77 48 43 59
REMARK Flexibility Score: inf
ROOT
ATOM      1  C   UNL A   1      34.532  31.638  27.927  1.00  0.00     0.202 C 
ENDROOT
BRANCH   1   2
ATOM      2  O   UNL A   1      33.362  30.907  27.600  1.00  0.00    -0.374 OA
BRANCH   2   3
ATOM      3  C   UNL A   1      33.504  29.547  27.208  1.00  0.00     0.202 C 
BRANCH   3   4
ATOM      4  C   UNL A   1      32.276  28.749  26.736  1.00  0.00     0.261 C 
BRANCH   4   5
ATOM      5  O   UNL A   1      32.353  28.145  25.424  1.00  0.00    -0.462 OA
BRANCH   5   6
ATOM      6  C   UNL A   1      31.322  27.296  25.135  1.00  0.00     0.324 C 
ATOM      7  O   UNL A   1      30.790  26.602  26.004  1.00  0.00    -0.251 OA
BRANCH   6   8
ATOM      8  C   UNL A   1      30.957  27.142  23.649  1.00  0.00     0.194 C 
BRANCH   8   9
ATOM      9  S   UNL A   1      32.205  26.494  22.494  1.00  0.00    -0.066 SA
BRANCH   9  10
ATOM     10  C   UNL A   1      32.953  25.043  23.174  1.00  0.00     0.189 A 
ATOM     11  C   UNL A   1      35.773  24.095  25.291  1.00  0.00     0.067 C 
ATOM     12  C   UNL A   1      34.547  23.952  24.432  1.00  0.00     0.050 A 
ATOM     13  N   UNL A   1      34.040  25.115  23.945  1.00  0.00    -0.227 NA
ATOM     14  C   UNL A   1      33.935  22.713  24.225  1.00  0.00     0.022 A 
ATOM     15  C   UNL A   1      32.802  22.751  23.408  1.00  0.00     0.075 A 
ATOM     16  C   UNL A   1      34.365  21.483  24.786  1.00  0.00     0.012 A 
ATOM     17  N   UNL A   1      32.328  23.890  22.881  1.00  0.00    -0.222 NA
ATOM     18  C   UNL A   1      32.140  21.553  23.149  1.00  0.00     0.029 A 
ATOM     19  C   UNL A   1      33.677  20.302  24.522  1.00  0.00     0.001 A 
ATOM     20  C   UNL A   1      32.563  20.336  23.695  1.00  0.00     0.002 A 
ENDBRANCH   9  10
ENDBRANCH   8   9
BRANCH   8  21
ATOM     21  C   UNL A   1      29.951  28.210  23.192  1.00  0.00    -0.023 A 
ATOM     22  C   UNL A   1      28.565  28.130  23.358  1.00  0.00     0.005 A 
ATOM     23  C   UNL A   1      30.431  29.262  22.382  1.00  0.00     0.005 A 
ATOM     24  C   UNL A   1      27.689  28.996  22.698  1.00  0.00     0.000 A 
ATOM     25  C   UNL A   1      29.560  30.141  21.730  1.00  0.00     0.000 A 
ATOM     26  C   UNL A   1      28.187  29.995  21.873  1.00  0.00     0.000 A 
ENDBRANCH   8  21
ENDBRANCH   6   8
ENDBRANCH   5   6
ENDBRANCH   4   5
ENDBRANCH   3   4
ENDBRANCH   2   3
ENDBRANCH   1   2
BRANCH   1  27
ATOM     27  C   UNL A   1      34.894  31.860  29.399  1.00  0.00     0.261 C 
BRANCH  27  28
ATOM     28  O   UNL A   1      36.258  31.695  29.728  1.00  0.00    -0.460 OA
BRANCH  28  29
ATOM     29  C   UNL A   1      36.557  30.531  30.335  1.00  0.00     0.338 C 
ATOM     30  O   UNL A   1      35.847  29.809  31.006  1.00  0.00    -0.246 OA
BRANCH  29  31
ATOM     31  C   UNL A   1      37.941  30.263  29.959  1.00  0.00     0.060 A 
ATOM     32  C   UNL A   1      38.927  30.247  30.948  1.00  0.00     0.016 A 
ATOM     33  C   UNL A   1      38.241  30.093  28.608  1.00  0.00     0.016 A 
ATOM     34  C   UNL A   1      40.246  30.034  30.574  1.00  0.00     0.010 A 
ATOM     35  C   UNL A   1      39.559  29.863  28.240  1.00  0.00     0.010 A 
ATOM     36  C   UNL A   1      40.560  29.813  29.223  1.00  0.00    -0.014 A 
BRANCH  36  37
ATOM     37  C   UNL A   1      41.924  29.398  28.848  1.00  0.00     0.031 A 
ATOM     38  C   UNL A   1      43.053  30.376  28.858  1.00  0.00     0.074 A 
ATOM     39  C   UNL A   1      42.096  28.119  28.463  1.00  0.00     0.049 A 
ATOM     40  N   UNL A   1      44.306  30.177  28.547  1.00  0.00    -0.248 NA
ATOM     41  C   UNL A   1      42.738  31.757  29.254  1.00  0.00     0.031 C 
ATOM     42  C   UNL A   1      41.031  27.112  28.400  1.00  0.00     0.029 A 
ATOM     43  N   UNL A   1      43.215  27.447  28.058  1.00  0.00    -0.354 N 
ATOM     44  C   UNL A   1      44.935  31.402  28.719  1.00  0.00     0.074 A 
ATOM     45  C   UNL A   1      43.916  32.351  29.116  1.00  0.00     0.031 C 
ATOM     46  C   UNL A   1      41.557  25.943  28.010  1.00  0.00     0.029 A 
ATOM     47  C   UNL A   1      42.981  26.127  27.756  1.00  0.00     0.049 A 
ATOM     48  H   UNL A   1      44.102  27.868  27.989  1.00  0.00     0.167 HD
ATOM     49  C   UNL A   1      46.249  31.692  28.574  1.00  0.00     0.037 A 
ATOM     50  C   UNL A   1      43.823  25.175  27.319  1.00  0.00     0.037 A 
ATOM     51  C   UNL A   1      47.237  30.724  28.170  1.00  0.00     0.049 A 
ATOM     52  C   UNL A   1      45.267  25.536  27.123  1.00  0.00     0.074 A 
ATOM     53  C   UNL A   1      48.600  30.897  28.020  1.00  0.00     0.029 A 
ATOM     54  N   UNL A   1      46.963  29.401  27.843  1.00  0.00    -0.354 N 
ATOM     55  N   UNL A   1      45.862  26.685  27.344  1.00  0.00    -0.248 NA
ATOM     56  C   UNL A   1      46.153  24.483  26.614  1.00  0.00     0.031 C 
ATOM     57  C   UNL A   1      49.143  29.695  27.556  1.00  0.00     0.029 A 
ATOM     58  C   UNL A   1      48.127  28.756  27.463  1.00  0.00     0.049 A 
ATOM     59  H   UNL A   1      46.072  28.984  27.876  1.00  0.00     0.167 HD
ATOM     60  C   UNL A   1      47.197  26.491  27.013  1.00  0.00     0.074 A 
ATOM     61  C   UNL A   1      47.324  25.109  26.594  1.00  0.00     0.031 C 
ATOM     62  C   UNL A   1      48.222  27.377  27.045  1.00  0.00     0.037 A 
BRANCH  49  63
ATOM     63  C   UNL A   1      46.697  33.098  28.858  1.00  0.00     0.058 A 
ATOM     64  C   UNL A   1      46.728  34.073  27.847  1.00  0.00     0.135 A 
ATOM     65  C   UNL A   1      47.043  33.495  30.160  1.00  0.00     0.135 A 
ATOM     66  F   UNL A   1      46.422  33.745  26.582  1.00  0.00    -0.206 F 
ATOM     67  C   UNL A   1      47.102  35.386  28.113  1.00  0.00     0.059 A 
ATOM     68  C   UNL A   1      47.396  34.810  30.453  1.00  0.00     0.059 A 
ATOM     69  F   UNL A   1      47.034  32.604  31.162  1.00  0.00    -0.206 F 
ATOM     70  C   UNL A   1      47.431  35.747  29.421  1.00  0.00     0.060 A 
BRANCH  70  71
ATOM     71  S   UNL A   1      47.901  37.459  29.746  1.00  0.00     0.124 S 
ATOM     72  O   UNL A   1      46.658  38.004  30.285  1.00  0.00    -0.237 OA
ATOM     73  O   UNL A   1      48.992  37.305  30.702  1.00  0.00    -0.237 OA
ATOM     74  O   UNL A   1      48.287  37.963  28.432  1.00  0.00    -0.744 OA
ENDBRANCH  70  71
ENDBRANCH  49  63
BRANCH  50  75
ATOM     75  C   UNL A   1      43.317  23.800  27.073  1.00  0.00     0.058 A 
ATOM     76  C   UNL A   1      43.098  23.340  25.768  1.00  0.00     0.135 A 
ATOM     77  C   UNL A   1      43.103  22.899  28.129  1.00  0.00     0.135 A 
ATOM     78  F   UNL A   1      43.291  24.164  24.725  1.00  0.00    -0.206 F 
ATOM     79  C   UNL A   1      42.677  22.040  25.515  1.00  0.00     0.059 A 
ATOM     80  C   UNL A   1      42.707  21.585  27.901  1.00  0.00     0.059 A 
ATOM     81  F   UNL A   1      43.319  23.284  29.397  1.00  0.00    -0.206 F 
ATOM     82  C   UNL A   1      42.491  21.167  26.588  1.00  0.00     0.060 A 
BRANCH  82  83
ATOM     83  S   UNL A   1      42.001  19.464  26.239  1.00  0.00     0.124 S 
ATOM     84  O   UNL A   1      42.467  18.773  27.436  1.00  0.00    -0.237 OA
ATOM     85  O   UNL A   1      40.554  19.588  26.096  1.00  0.00    -0.237 OA
ATOM     86  O   UNL A   1      42.722  19.151  25.009  1.00  0.00    -0.744 OA
ENDBRANCH  82  83
ENDBRANCH  50  75
BRANCH  62  87
ATOM     87  C   UNL A   1      49.573  26.885  26.611  1.00  0.00     0.058 A 
ATOM     88  C   UNL A   1      50.387  26.140  27.478  1.00  0.00     0.135 A 
ATOM     89  C   UNL A   1      50.012  27.074  25.291  1.00  0.00     0.135 A 
ATOM     90  F   UNL A   1      50.017  25.942  28.753  1.00  0.00    -0.206 F 
ATOM     91  C   UNL A   1      51.593  25.598  27.050  1.00  0.00     0.059 A 
ATOM     92  C   UNL A   1      51.202  26.518  24.834  1.00  0.00     0.059 A 
ATOM     93  F   UNL A   1      49.265  27.774  24.424  1.00  0.00    -0.206 F 
ATOM     94  C   UNL A   1      51.985  25.782  25.722  1.00  0.00     0.060 A 
BRANCH  94  95
ATOM     95  S   UNL A   1      53.517  25.005  25.164  1.00  0.00     0.124 S 
ATOM     96  O   UNL A   1      54.472  25.489  26.156  1.00  0.00    -0.237 OA
ATOM     97  O   UNL A   1      53.188  23.585  25.241  1.00  0.00    -0.237 OA
ATOM     98  O   UNL A   1      53.693  25.530  23.814  1.00  0.00    -0.744 OA
ENDBRANCH  94  95
ENDBRANCH  62  87
ENDBRANCH  36  37
ENDBRANCH  29  31
ENDBRANCH  28  29
ENDBRANCH  27  28
ENDBRANCH   1  27
TORSDOF 20
ENDMDL
