MODEL 1
REMARK VINA RESULT:     -13.9      0.000      0.000
REMARK SMILES CC(=O)Nc1cnc(N2CC=C(c3ccccc3C)CC2)c(C(=O)OCCOCCOC(=O)c2ccc(-c3c4nc(c(-c5c(F)cc(S(=O)(=O)[O-])cc5F)c5ccc([nH]5)c(-c5c(F)cc(S(=O)(=O)[O-])cc5F)c5nc(c(-c6c(F)cc(S(=O)(=O)[O-])cc6F)c6ccc3[nH]6)C=C5)C=C4)cc2)c1
REMARK SMILES IDX 29 1 28 2 27 3 26 4 25 5 23 6 24 7 22 8 5 9 6 10 100 11 7 12
REMARK SMILES IDX 8 13 4 14 1 15 2 16 3 17 9 19 10 20 21 21 11 22 20 23 12 24
REMARK SMILES IDX 13 25 14 26 18 27 15 28 17 29 19 30 16 31 30 32 31 33 32 34
REMARK SMILES IDX 33 35 34 36 35 37 99 38 36 39 98 40 37 41 38 42 39 43 92 44
REMARK SMILES IDX 40 45 97 46 91 47 93 48 41 49 96 50 90 51 89 52 42 54 76 55
REMARK SMILES IDX 55 56 75 57 56 58 59 59 74 60 94 61 57 62 58 63 73 65 95 66
REMARK SMILES IDX 60 67 43 68 44 69 53 70 45 71 46 72 52 73 54 74 47 75 48 76
REMARK SMILES IDX 49 77 50 78 51 79 77 80 78 81 87 82 79 83 80 84 86 85 88 86
REMARK SMILES IDX 81 87 82 88 83 89 84 90 85 91 61 92 62 93 71 94 63 95 64 96
REMARK SMILES IDX 70 97 72 98 65 99 66 100 67 101 68 102 69 103
REMARK H PARENT 4 18 93 53 59 64
REMARK Flexibility Score: inf
ROOT
ATOM      1  C   UNL A   1      33.466  31.246  27.598  1.00  0.00     0.202 C 
ENDROOT
BRANCH   1   2
ATOM      2  O   UNL A   1      32.945  29.831  27.458  1.00  0.00    -0.374 OA
BRANCH   2   3
ATOM      3  C   UNL A   1      33.668  28.676  26.998  1.00  0.00     0.202 C 
BRANCH   3   4
ATOM      4  C   UNL A   1      33.687  28.048  25.612  1.00  0.00     0.261 C 
BRANCH   4   5
ATOM      5  O   UNL A   1      33.087  26.786  25.760  1.00  0.00    -0.460 OA
BRANCH   5   6
ATOM      6  C   UNL A   1      31.745  26.889  25.871  1.00  0.00     0.342 C 
ATOM      7  O   UNL A   1      31.052  26.689  26.821  1.00  0.00    -0.246 OA
BRANCH   6   8
ATOM      8  C   UNL A   1      31.350  27.502  24.617  1.00  0.00     0.104 A 
ATOM      9  C   UNL A   1      30.423  29.406  23.510  1.00  0.00     0.060 A 
ATOM     10  C   UNL A   1      30.452  28.617  22.364  1.00  0.00     0.139 A 
ATOM     11  C   UNL A   1      30.843  28.803  24.672  1.00  0.00     0.047 A 
ATOM     12  N   UNL A   1      30.881  27.325  22.310  1.00  0.00    -0.236 NA
ATOM     13  C   UNL A   1      31.329  26.743  23.447  1.00  0.00     0.143 A 
BRANCH   9  14
ATOM     14  N   UNL A   1      29.948  30.726  23.455  1.00  0.00    -0.325 N 
ATOM     15  C   UNL A   1      27.486  30.280  23.418  1.00  0.00     0.114 C 
ATOM     16  C   UNL A   1      28.673  31.206  23.316  1.00  0.00     0.221 C 
ATOM     17  O   UNL A   1      28.512  32.421  23.177  1.00  0.00    -0.275 OA
ATOM     18  H   UNL A   1      30.644  31.418  23.527  1.00  0.00     0.169 HD
ENDBRANCH   9  14
BRANCH  13  19
ATOM     19  N   UNL A   1      31.519  25.365  23.398  1.00  0.00    -0.352 N 
ATOM     20  C   UNL A   1      30.363  24.473  23.505  1.00  0.00     0.146 C 
ATOM     21  C   UNL A   1      32.504  24.953  22.400  1.00  0.00     0.123 C 
ATOM     22  C   UNL A   1      30.845  23.050  23.595  1.00  0.00    -0.002 C 
ATOM     23  C   UNL A   1      33.106  23.598  22.685  1.00  0.00     0.057 C 
ATOM     24  C   UNL A   1      32.081  22.646  23.240  1.00  0.00    -0.041 C 
BRANCH  24  25
ATOM     25  C   UNL A   1      32.497  21.252  23.439  1.00  0.00    -0.020 A 
ATOM     26  C   UNL A   1      32.038  20.265  22.550  1.00  0.00     0.008 A 
ATOM     27  C   UNL A   1      33.326  20.888  24.519  1.00  0.00    -0.044 A 
ATOM     28  C   UNL A   1      32.388  18.929  22.736  1.00  0.00     0.001 A 
ATOM     29  C   UNL A   1      33.684  19.544  24.678  1.00  0.00     0.004 A 
ATOM     30  C   UNL A   1      33.870  21.894  25.499  1.00  0.00     0.045 C 
ATOM     31  C   UNL A   1      33.208  18.570  23.802  1.00  0.00     0.000 A 
ENDBRANCH  24  25
ENDBRANCH  13  19
ENDBRANCH   6   8
ENDBRANCH   5   6
ENDBRANCH   4   5
ENDBRANCH   3   4
ENDBRANCH   2   3
ENDBRANCH   1   2
BRANCH   1  32
ATOM     32  C   UNL A   1      35.040  32.217  28.075  1.00  0.00     0.261 C 
BRANCH  32  33
ATOM     33  O   UNL A   1      36.769  31.766  28.399  1.00  0.00    -0.460 OA
BRANCH  33  34
ATOM     34  C   UNL A   1      37.998  30.870  28.821  1.00  0.00     0.338 C 
ATOM     35  O   UNL A   1      38.730  31.444  29.649  1.00  0.00    -0.246 OA
BRANCH  34  36
ATOM     36  C   UNL A   1      38.772  29.339  28.237  1.00  0.00     0.060 A 
ATOM     37  C   UNL A   1      38.944  28.260  29.142  1.00  0.00     0.016 A 
ATOM     38  C   UNL A   1      39.683  29.104  27.179  1.00  0.00     0.016 A 
ATOM     39  C   UNL A   1      40.262  27.549  29.303  1.00  0.00     0.010 A 
ATOM     40  C   UNL A   1      41.032  28.503  27.372  1.00  0.00     0.010 A 
ATOM     41  C   UNL A   1      41.421  27.920  28.578  1.00  0.00    -0.014 A 
BRANCH  41  42
ATOM     42  C   UNL A   1      42.868  28.093  29.202  1.00  0.00     0.031 A 
ATOM     43  C   UNL A   1      44.048  27.444  28.594  1.00  0.00     0.074 A 
ATOM     44  C   UNL A   1      43.336  28.941  30.196  1.00  0.00     0.049 A 
ATOM     45  N   UNL A   1      44.833  26.616  29.202  1.00  0.00    -0.248 NA
ATOM     46  C   UNL A   1      44.536  27.875  27.289  1.00  0.00     0.031 C 
ATOM     47  C   UNL A   1      44.633  29.099  30.895  1.00  0.00     0.029 A 
ATOM     48  N   UNL A   1      42.678  29.951  30.851  1.00  0.00    -0.354 N 
ATOM     49  C   UNL A   1      46.033  26.630  28.505  1.00  0.00     0.074 A 
ATOM     50  C   UNL A   1      45.728  27.266  27.236  1.00  0.00     0.031 C 
ATOM     51  C   UNL A   1      44.475  29.780  32.064  1.00  0.00     0.029 A 
ATOM     52  C   UNL A   1      43.076  30.112  32.178  1.00  0.00     0.049 A 
ATOM     53  H   UNL A   1      41.989  30.510  30.424  1.00  0.00     0.167 HD
ATOM     54  C   UNL A   1      47.241  26.430  29.124  1.00  0.00     0.037 A 
ATOM     55  C   UNL A   1      42.120  29.803  33.103  1.00  0.00     0.037 A 
ATOM     56  C   UNL A   1      47.133  26.648  30.586  1.00  0.00     0.049 A 
ATOM     57  C   UNL A   1      42.500  28.369  33.596  1.00  0.00     0.074 A 
ATOM     58  C   UNL A   1      47.695  27.559  31.473  1.00  0.00     0.029 A 
ATOM     59  N   UNL A   1      46.105  26.050  31.304  1.00  0.00    -0.354 N 
ATOM     60  N   UNL A   1      43.594  27.783  33.170  1.00  0.00    -0.248 NA
ATOM     61  C   UNL A   1      41.844  27.500  34.575  1.00  0.00     0.031 C 
ATOM     62  C   UNL A   1      46.993  27.479  32.720  1.00  0.00     0.029 A 
ATOM     63  C   UNL A   1      45.998  26.523  32.599  1.00  0.00     0.049 A 
ATOM     64  H   UNL A   1      45.512  25.360  30.928  1.00  0.00     0.167 HD
ATOM     65  C   UNL A   1      43.849  26.594  33.761  1.00  0.00     0.074 A 
ATOM     66  C   UNL A   1      42.673  26.425  34.607  1.00  0.00     0.031 C 
ATOM     67  C   UNL A   1      45.014  25.910  33.500  1.00  0.00     0.037 A 
BRANCH  54  68
ATOM     68  C   UNL A   1      48.589  26.283  28.396  1.00  0.00     0.058 A 
ATOM     69  C   UNL A   1      48.855  25.192  27.533  1.00  0.00     0.135 A 
ATOM     70  C   UNL A   1      49.618  27.257  28.401  1.00  0.00     0.135 A 
ATOM     71  F   UNL A   1      47.939  24.240  27.307  1.00  0.00    -0.206 F 
ATOM     72  C   UNL A   1      50.050  25.041  26.815  1.00  0.00     0.059 A 
ATOM     73  C   UNL A   1      50.841  27.107  27.728  1.00  0.00     0.059 A 
ATOM     74  F   UNL A   1      49.455  28.444  29.001  1.00  0.00    -0.206 F 
ATOM     75  C   UNL A   1      51.049  25.995  26.928  1.00  0.00     0.060 A 
BRANCH  75  76
ATOM     76  S   UNL A   1      52.568  25.801  25.968  1.00  0.00     0.124 S 
ATOM     77  O   UNL A   1      52.633  24.355  25.781  1.00  0.00    -0.237 OA
ATOM     78  O   UNL A   1      52.277  26.583  24.771  1.00  0.00    -0.237 OA
ATOM     79  O   UNL A   1      53.599  26.359  26.839  1.00  0.00    -0.744 OA
ENDBRANCH  75  76
ENDBRANCH  54  68
BRANCH  55  80
ATOM     80  C   UNL A   1      40.781  30.425  32.540  1.00  0.00     0.058 A 
ATOM     81  C   UNL A   1      39.558  29.810  32.851  1.00  0.00     0.135 A 
ATOM     82  C   UNL A   1      40.635  31.766  32.749  1.00  0.00     0.135 A 
ATOM     83  F   UNL A   1      39.372  28.526  32.498  1.00  0.00    -0.206 F 
ATOM     84  C   UNL A   1      38.468  30.448  33.633  1.00  0.00     0.059 A 
ATOM     85  C   UNL A   1      39.675  32.241  33.777  1.00  0.00     0.059 A 
ATOM     86  F   UNL A   1      41.676  32.526  32.389  1.00  0.00    -0.206 F 
ATOM     87  C   UNL A   1      38.549  31.704  34.325  1.00  0.00     0.060 A 
BRANCH  87  88
ATOM     88  S   UNL A   1      37.236  33.090  35.597  1.00  0.00     0.124 S 
ATOM     89  O   UNL A   1      35.946  33.305  34.951  1.00  0.00    -0.237 OA
ATOM     90  O   UNL A   1      36.996  32.519  36.919  1.00  0.00    -0.237 OA
ATOM     91  O   UNL A   1      38.033  34.308  35.718  1.00  0.00    -0.744 OA
ENDBRANCH  87  88
ENDBRANCH  55  80
BRANCH  67  92
ATOM     92  C   UNL A   1      45.370  24.556  34.059  1.00  0.00     0.058 A 
ATOM     93  C   UNL A   1      46.260  24.375  35.121  1.00  0.00     0.135 A 
ATOM     94  C   UNL A   1      44.854  23.362  33.488  1.00  0.00     0.135 A 
ATOM     95  F   UNL A   1      46.975  25.400  35.606  1.00  0.00    -0.206 F 
ATOM     96  C   UNL A   1      46.471  23.122  35.699  1.00  0.00     0.059 A 
ATOM     97  C   UNL A   1      45.090  22.102  34.011  1.00  0.00     0.059 A 
ATOM     98  F   UNL A   1      44.075  23.349  32.401  1.00  0.00    -0.206 F 
ATOM     99  C   UNL A   1      45.851  21.999  35.156  1.00  0.00     0.060 A 
BRANCH  99 100
ATOM    100  S   UNL A   1      46.046  20.401  35.948  1.00  0.00     0.124 S 
ATOM    101  O   UNL A   1      47.438  20.078  35.651  1.00  0.00    -0.237 OA
ATOM    102  O   UNL A   1      45.756  20.734  37.339  1.00  0.00    -0.237 OA
ATOM    103  O   UNL A   1      45.056  19.562  35.283  1.00  0.00    -0.744 OA
ENDBRANCH  99 100
ENDBRANCH  67  92
ENDBRANCH  41  42
ENDBRANCH  34  36
ENDBRANCH  33  34
ENDBRANCH  32  33
ENDBRANCH   1  32
TORSDOF 20
ENDMDL
MODEL 2
REMARK VINA RESULT:     -13.7      4.165     10.346
REMARK SMILES CC(=O)Nc1cnc(N2CC=C(c3ccccc3C)CC2)c(C(=O)OCCOCCOC(=O)c2ccc(-c3c4nc(c(-c5c(F)cc(S(=O)(=O)[O-])cc5F)c5ccc([nH]5)c(-c5c(F)cc(S(=O)(=O)[O-])cc5F)c5nc(c(-c6c(F)cc(S(=O)(=O)[O-])cc6F)c6ccc3[nH]6)C=C5)C=C4)cc2)c1
REMARK SMILES IDX 29 1 28 2 27 3 26 4 25 5 23 6 24 7 22 8 5 9 6 10 100 11 7 12
REMARK SMILES IDX 8 13 4 14 1 15 2 16 3 17 9 19 10 20 21 21 11 22 20 23 12 24
REMARK SMILES IDX 13 25 14 26 18 27 15 28 17 29 19 30 16 31 30 32 31 33 32 34
REMARK SMILES IDX 33 35 34 36 35 37 99 38 36 39 98 40 37 41 38 42 39 43 92 44
REMARK SMILES IDX 40 45 97 46 91 47 93 48 41 49 96 50 90 51 89 52 42 54 76 55
REMARK SMILES IDX 55 56 75 57 56 58 59 59 74 60 94 61 57 62 58 63 73 65 95 66
REMARK SMILES IDX 60 67 43 68 44 69 53 70 45 71 46 72 52 73 54 74 47 75 48 76
REMARK SMILES IDX 49 77 50 78 51 79 77 80 78 81 87 82 79 83 80 84 86 85 88 86
REMARK SMILES IDX 81 87 82 88 83 89 84 90 85 91 61 92 62 93 71 94 63 95 64 96
REMARK SMILES IDX 70 97 72 98 65 99 66 100 67 101 68 102 69 103
REMARK H PARENT 4 18 93 53 59 64
REMARK Flexibility Score: inf
ROOT
ATOM      1  C   UNL A   1      31.757  28.856  27.123  1.00  0.00     0.202 C 
ENDROOT
BRANCH   1   2
ATOM      2  O   UNL A   1      32.044  27.370  27.098  1.00  0.00    -0.374 OA
BRANCH   2   3
ATOM      3  C   UNL A   1      32.987  26.677  26.261  1.00  0.00     0.202 C 
BRANCH   3   4
ATOM      4  C   UNL A   1      33.965  27.247  25.245  1.00  0.00     0.261 C 
BRANCH   4   5
ATOM      5  O   UNL A   1      33.289  28.312  24.624  1.00  0.00    -0.460 OA
BRANCH   5   6
ATOM      6  C   UNL A   1      33.034  28.043  23.326  1.00  0.00     0.342 C 
ATOM      7  O   UNL A   1      33.763  27.598  22.492  1.00  0.00    -0.246 OA
BRANCH   6   8
ATOM      8  C   UNL A   1      31.598  28.226  23.222  1.00  0.00     0.104 A 
ATOM      9  C   UNL A   1      29.754  29.745  23.255  1.00  0.00     0.060 A 
ATOM     10  C   UNL A   1      28.957  28.605  23.206  1.00  0.00     0.139 A 
ATOM     11  C   UNL A   1      31.112  29.532  23.311  1.00  0.00     0.047 A 
ATOM     12  N   UNL A   1      29.417  27.323  23.187  1.00  0.00    -0.236 NA
ATOM     13  C   UNL A   1      30.754  27.115  23.205  1.00  0.00     0.143 A 
BRANCH   9  14
ATOM     14  N   UNL A   1      29.172  31.022  23.283  1.00  0.00    -0.325 N 
ATOM     15  C   UNL A   1      28.218  31.094  20.971  1.00  0.00     0.114 C 
ATOM     16  C   UNL A   1      28.556  31.739  22.292  1.00  0.00     0.221 C 
ATOM     17  O   UNL A   1      28.219  32.902  22.528  1.00  0.00    -0.275 OA
ATOM     18  H   UNL A   1      29.213  31.475  24.156  1.00  0.00     0.169 HD
ENDBRANCH   9  14
BRANCH  13  19
ATOM     19  N   UNL A   1      31.170  25.807  23.434  1.00  0.00    -0.352 N 
ATOM     20  C   UNL A   1      30.401  24.954  24.344  1.00  0.00     0.146 C 
ATOM     21  C   UNL A   1      31.633  25.128  22.226  1.00  0.00     0.123 C 
ATOM     22  C   UNL A   1      31.142  23.660  24.551  1.00  0.00    -0.002 C 
ATOM     23  C   UNL A   1      32.553  23.967  22.513  1.00  0.00     0.057 C 
ATOM     24  C   UNL A   1      32.120  23.211  23.740  1.00  0.00    -0.041 C 
BRANCH  24  25
ATOM     25  C   UNL A   1      32.849  21.977  24.062  1.00  0.00    -0.020 A 
ATOM     26  C   UNL A   1      32.288  20.738  23.712  1.00  0.00     0.008 A 
ATOM     27  C   UNL A   1      34.086  22.019  24.736  1.00  0.00    -0.044 A 
ATOM     28  C   UNL A   1      32.941  19.550  24.037  1.00  0.00     0.001 A 
ATOM     29  C   UNL A   1      34.737  20.816  25.036  1.00  0.00     0.004 A 
ATOM     30  C   UNL A   1      34.755  23.311  25.124  1.00  0.00     0.045 C 
ATOM     31  C   UNL A   1      34.163  19.591  24.701  1.00  0.00     0.000 A 
ENDBRANCH  24  25
ENDBRANCH  13  19
ENDBRANCH   6   8
ENDBRANCH   5   6
ENDBRANCH   4   5
ENDBRANCH   3   4
ENDBRANCH   2   3
ENDBRANCH   1   2
BRANCH   1  32
ATOM     32  C   UNL A   1      32.642  30.548  27.101  1.00  0.00     0.261 C 
BRANCH  32  33
ATOM     33  O   UNL A   1      34.282  31.138  27.611  1.00  0.00    -0.460 OA
BRANCH  33  34
ATOM     34  C   UNL A   1      35.799  31.067  28.043  1.00  0.00     0.338 C 
ATOM     35  O   UNL A   1      36.352  32.181  27.981  1.00  0.00    -0.246 OA
BRANCH  34  36
ATOM     36  C   UNL A   1      37.018  29.765  28.357  1.00  0.00     0.060 A 
ATOM     37  C   UNL A   1      37.085  29.173  29.645  1.00  0.00     0.016 A 
ATOM     38  C   UNL A   1      38.264  29.491  27.742  1.00  0.00     0.016 A 
ATOM     39  C   UNL A   1      38.383  29.023  30.393  1.00  0.00     0.010 A 
ATOM     40  C   UNL A   1      39.557  29.459  28.480  1.00  0.00     0.010 A 
ATOM     41  C   UNL A   1      39.619  29.478  29.873  1.00  0.00    -0.014 A 
BRANCH  41  42
ATOM     42  C   UNL A   1      40.698  30.307  30.686  1.00  0.00     0.031 A 
ATOM     43  C   UNL A   1      40.295  31.312  31.691  1.00  0.00     0.074 A 
ATOM     44  C   UNL A   1      42.074  30.158  30.787  1.00  0.00     0.049 A 
ATOM     45  N   UNL A   1      40.628  32.561  31.664  1.00  0.00    -0.248 NA
ATOM     46  C   UNL A   1      39.649  30.897  32.931  1.00  0.00     0.031 C 
ATOM     47  C   UNL A   1      43.154  30.936  31.440  1.00  0.00     0.029 A 
ATOM     48  N   UNL A   1      42.876  29.169  30.277  1.00  0.00    -0.354 N 
ATOM     49  C   UNL A   1      40.496  33.030  32.963  1.00  0.00     0.074 A 
ATOM     50  C   UNL A   1      39.709  32.024  33.653  1.00  0.00     0.031 C 
ATOM     51  C   UNL A   1      44.368  30.618  30.912  1.00  0.00     0.029 A 
ATOM     52  C   UNL A   1      44.145  29.612  29.904  1.00  0.00     0.049 A 
ATOM     53  H   UNL A   1      42.584  28.233  30.185  1.00  0.00     0.167 HD
ATOM     54  C   UNL A   1      41.301  34.020  33.469  1.00  0.00     0.037 A 
ATOM     55  C   UNL A   1      44.392  29.571  28.560  1.00  0.00     0.037 A 
ATOM     56  C   UNL A   1      42.531  34.174  32.655  1.00  0.00     0.049 A 
ATOM     57  C   UNL A   1      44.187  31.044  28.079  1.00  0.00     0.074 A 
ATOM     58  C   UNL A   1      43.887  33.999  32.908  1.00  0.00     0.029 A 
ATOM     59  N   UNL A   1      42.443  34.267  31.273  1.00  0.00    -0.354 N 
ATOM     60  N   UNL A   1      43.931  32.000  28.941  1.00  0.00    -0.248 NA
ATOM     61  C   UNL A   1      44.298  31.626  26.740  1.00  0.00     0.031 C 
ATOM     62  C   UNL A   1      44.591  34.003  31.660  1.00  0.00     0.029 A 
ATOM     63  C   UNL A   1      43.670  34.176  30.641  1.00  0.00     0.049 A 
ATOM     64  H   UNL A   1      41.593  34.385  30.791  1.00  0.00     0.167 HD
ATOM     65  C   UNL A   1      43.885  33.236  28.394  1.00  0.00     0.074 A 
ATOM     66  C   UNL A   1      44.065  32.942  26.977  1.00  0.00     0.031 C 
ATOM     67  C   UNL A   1      43.734  34.353  29.185  1.00  0.00     0.037 A 
BRANCH  54  68
ATOM     68  C   UNL A   1      41.114  34.691  34.842  1.00  0.00     0.058 A 
ATOM     69  C   UNL A   1      39.912  35.351  35.191  1.00  0.00     0.135 A 
ATOM     70  C   UNL A   1      42.038  34.603  35.913  1.00  0.00     0.135 A 
ATOM     71  F   UNL A   1      38.877  35.416  34.342  1.00  0.00    -0.206 F 
ATOM     72  C   UNL A   1      39.681  35.936  36.445  1.00  0.00     0.059 A 
ATOM     73  C   UNL A   1      41.850  35.219  37.161  1.00  0.00     0.059 A 
ATOM     74  F   UNL A   1      43.140  33.846  35.826  1.00  0.00    -0.206 F 
ATOM     75  C   UNL A   1      40.662  35.882  37.423  1.00  0.00     0.060 A 
BRANCH  75  76
ATOM     76  S   UNL A   1      40.332  36.609  39.044  1.00  0.00     0.124 S 
ATOM     77  O   UNL A   1      40.010  35.435  39.850  1.00  0.00    -0.237 OA
ATOM     78  O   UNL A   1      41.600  37.262  39.352  1.00  0.00    -0.237 OA
ATOM     79  O   UNL A   1      39.212  37.513  38.795  1.00  0.00    -0.744 OA
ENDBRANCH  75  76
ENDBRANCH  54  68
BRANCH  55  80
ATOM     80  C   UNL A   1      43.799  28.190  28.071  1.00  0.00     0.058 A 
ATOM     81  C   UNL A   1      43.421  28.046  26.727  1.00  0.00     0.135 A 
ATOM     82  C   UNL A   1      44.536  27.093  28.415  1.00  0.00     0.135 A 
ATOM     83  F   UNL A   1      42.492  28.877  26.225  1.00  0.00    -0.206 F 
ATOM     84  C   UNL A   1      44.043  27.092  25.774  1.00  0.00     0.059 A 
ATOM     85  C   UNL A   1      45.330  26.396  27.372  1.00  0.00     0.059 A 
ATOM     86  F   UNL A   1      44.884  27.008  29.704  1.00  0.00    -0.206 F 
ATOM     87  C   UNL A   1      45.216  26.298  26.018  1.00  0.00     0.060 A 
BRANCH  87  88
ATOM     88  S   UNL A   1      46.520  24.733  24.964  1.00  0.00     0.124 S 
ATOM     89  O   UNL A   1      45.697  23.848  24.147  1.00  0.00    -0.237 OA
ATOM     90  O   UNL A   1      47.507  25.369  24.096  1.00  0.00    -0.237 OA
ATOM     91  O   UNL A   1      47.194  24.046  26.063  1.00  0.00    -0.744 OA
ENDBRANCH  87  88
ENDBRANCH  55  80
BRANCH  67  92
ATOM     92  C   UNL A   1      43.614  35.767  28.676  1.00  0.00     0.058 A 
ATOM     93  C   UNL A   1      42.465  36.263  28.054  1.00  0.00     0.135 A 
ATOM     94  C   UNL A   1      44.705  36.674  28.749  1.00  0.00     0.135 A 
ATOM     95  F   UNL A   1      41.448  35.451  27.733  1.00  0.00    -0.206 F 
ATOM     96  C   UNL A   1      42.338  37.609  27.709  1.00  0.00     0.059 A 
ATOM     97  C   UNL A   1      44.621  38.001  28.365  1.00  0.00     0.059 A 
ATOM     98  F   UNL A   1      45.910  36.331  29.217  1.00  0.00    -0.206 F 
ATOM     99  C   UNL A   1      43.412  38.475  27.904  1.00  0.00     0.060 A 
BRANCH  99 100
ATOM    100  S   UNL A   1      43.225  40.224  27.547  1.00  0.00     0.124 S 
ATOM    101  O   UNL A   1      41.945  40.531  28.177  1.00  0.00    -0.237 OA
ATOM    102  O   UNL A   1      44.405  40.778  28.204  1.00  0.00    -0.237 OA
ATOM    103  O   UNL A   1      43.232  40.282  26.089  1.00  0.00    -0.744 OA
ENDBRANCH  99 100
ENDBRANCH  67  92
ENDBRANCH  41  42
ENDBRANCH  34  36
ENDBRANCH  33  34
ENDBRANCH  32  33
ENDBRANCH   1  32
TORSDOF 20
ENDMDL
MODEL 3
REMARK VINA RESULT:     -13.7      4.623     11.606
REMARK SMILES CC(=O)Nc1cnc(N2CC=C(c3ccccc3C)CC2)c(C(=O)OCCOCCOC(=O)c2ccc(-c3c4nc(c(-c5c(F)cc(S(=O)(=O)[O-])cc5F)c5ccc([nH]5)c(-c5c(F)cc(S(=O)(=O)[O-])cc5F)c5nc(c(-c6c(F)cc(S(=O)(=O)[O-])cc6F)c6ccc3[nH]6)C=C5)C=C4)cc2)c1
REMARK SMILES IDX 29 1 28 2 27 3 26 4 25 5 23 6 24 7 22 8 5 9 6 10 100 11 7 12
REMARK SMILES IDX 8 13 4 14 1 15 2 16 3 17 9 19 10 20 21 21 11 22 20 23 12 24
REMARK SMILES IDX 13 25 14 26 18 27 15 28 17 29 19 30 16 31 30 32 31 33 32 34
REMARK SMILES IDX 33 35 34 36 35 37 99 38 36 39 98 40 37 41 38 42 39 43 92 44
REMARK SMILES IDX 40 45 97 46 91 47 93 48 41 49 96 50 90 51 89 52 42 54 76 55
REMARK SMILES IDX 55 56 75 57 56 58 59 59 74 60 94 61 57 62 58 63 73 65 95 66
REMARK SMILES IDX 60 67 43 68 44 69 53 70 45 71 46 72 52 73 54 74 47 75 48 76
REMARK SMILES IDX 49 77 50 78 51 79 77 80 78 81 87 82 79 83 80 84 86 85 88 86
REMARK SMILES IDX 81 87 82 88 83 89 84 90 85 91 61 92 62 93 71 94 63 95 64 96
REMARK SMILES IDX 70 97 72 98 65 99 66 100 67 101 68 102 69 103
REMARK H PARENT 4 18 93 53 59 64
REMARK Flexibility Score: inf
ROOT
ATOM      1  C   UNL A   1      39.676  21.168  26.099  1.00  0.00     0.202 C 
ENDROOT
BRANCH   1   2
ATOM      2  O   UNL A   1      38.371  21.660  25.510  1.00  0.00    -0.374 OA
BRANCH   2   3
ATOM      3  C   UNL A   1      37.804  22.977  25.625  1.00  0.00     0.202 C 
BRANCH   3   4
ATOM      4  C   UNL A   1      36.487  23.504  25.074  1.00  0.00     0.261 C 
BRANCH   4   5
ATOM      5  O   UNL A   1      35.740  22.366  24.725  1.00  0.00    -0.460 OA
BRANCH   5   6
ATOM      6  C   UNL A   1      34.840  22.054  25.683  1.00  0.00     0.342 C 
ATOM      7  O   UNL A   1      34.587  22.634  26.694  1.00  0.00    -0.246 OA
BRANCH   6   8
ATOM      8  C   UNL A   1      34.096  20.953  25.099  1.00  0.00     0.104 A 
ATOM      9  C   UNL A   1      34.074  18.648  24.468  1.00  0.00     0.060 A 
ATOM     10  C   UNL A   1      32.843  18.934  23.885  1.00  0.00     0.139 A 
ATOM     11  C   UNL A   1      34.731  19.709  25.048  1.00  0.00     0.047 A 
ATOM     12  N   UNL A   1      32.245  20.158  23.870  1.00  0.00    -0.236 NA
ATOM     13  C   UNL A   1      32.874  21.193  24.472  1.00  0.00     0.143 A 
BRANCH   9  14
ATOM     14  N   UNL A   1      34.605  17.350  24.416  1.00  0.00    -0.325 N 
ATOM     15  C   UNL A   1      32.915  16.155  25.824  1.00  0.00     0.114 C 
ATOM     16  C   UNL A   1      34.216  16.205  25.059  1.00  0.00     0.221 C 
ATOM     17  O   UNL A   1      34.914  15.195  24.942  1.00  0.00    -0.275 OA
ATOM     18  H   UNL A   1      35.382  17.245  23.820  1.00  0.00     0.169 HD
ENDBRANCH   9  14
BRANCH  13  19
ATOM     19  N   UNL A   1      32.354  22.459  24.218  1.00  0.00    -0.352 N 
ATOM     20  C   UNL A   1      32.242  22.930  22.836  1.00  0.00     0.146 C 
ATOM     21  C   UNL A   1      31.206  22.791  25.059  1.00  0.00     0.123 C 
ATOM     22  C   UNL A   1      31.816  24.374  22.840  1.00  0.00    -0.002 C 
ATOM     23  C   UNL A   1      30.976  24.277  25.190  1.00  0.00     0.057 C 
ATOM     24  C   UNL A   1      31.256  24.994  23.897  1.00  0.00    -0.041 C 
BRANCH  24  25
ATOM     25  C   UNL A   1      30.946  26.428  23.843  1.00  0.00    -0.020 A 
ATOM     26  C   UNL A   1      29.682  26.841  23.391  1.00  0.00     0.008 A 
ATOM     27  C   UNL A   1      31.905  27.393  24.213  1.00  0.00    -0.044 A 
ATOM     28  C   UNL A   1      29.373  28.197  23.296  1.00  0.00     0.001 A 
ATOM     29  C   UNL A   1      31.570  28.750  24.130  1.00  0.00     0.004 A 
ATOM     30  C   UNL A   1      33.272  27.023  24.725  1.00  0.00     0.045 C 
ATOM     31  C   UNL A   1      30.319  29.149  23.663  1.00  0.00     0.000 A 
ENDBRANCH  24  25
ENDBRANCH  13  19
ENDBRANCH   6   8
ENDBRANCH   5   6
ENDBRANCH   4   5
ENDBRANCH   3   4
ENDBRANCH   2   3
ENDBRANCH   1   2
BRANCH   1  32
ATOM     32  C   UNL A   1      41.336  21.808  26.794  1.00  0.00     0.261 C 
BRANCH  32  33
ATOM     33  O   UNL A   1      42.006  23.448  27.191  1.00  0.00    -0.460 OA
BRANCH  33  34
ATOM     34  C   UNL A   1      42.011  24.992  27.522  1.00  0.00     0.338 C 
ATOM     35  O   UNL A   1      43.154  25.407  27.788  1.00  0.00    -0.246 OA
BRANCH  34  36
ATOM     36  C   UNL A   1      40.771  26.266  27.871  1.00  0.00     0.060 A 
ATOM     37  C   UNL A   1      40.840  27.507  27.188  1.00  0.00     0.016 A 
ATOM     38  C   UNL A   1      39.983  26.504  29.023  1.00  0.00     0.016 A 
ATOM     39  C   UNL A   1      40.776  28.827  27.911  1.00  0.00     0.010 A 
ATOM     40  C   UNL A   1      40.016  27.778  29.794  1.00  0.00     0.010 A 
ATOM     41  C   UNL A   1      40.661  28.919  29.319  1.00  0.00    -0.014 A 
BRANCH  41  42
ATOM     42  C   UNL A   1      41.516  29.884  30.240  1.00  0.00     0.031 A 
ATOM     43  C   UNL A   1      40.872  30.753  31.247  1.00  0.00     0.074 A 
ATOM     44  C   UNL A   1      42.886  29.975  30.440  1.00  0.00     0.049 A 
ATOM     45  N   UNL A   1      40.977  32.041  31.290  1.00  0.00    -0.248 NA
ATOM     46  C   UNL A   1      40.227  30.171  32.418  1.00  0.00     0.031 C 
ATOM     47  C   UNL A   1      43.762  30.897  31.201  1.00  0.00     0.029 A 
ATOM     48  N   UNL A   1      43.885  29.168  29.958  1.00  0.00    -0.354 N 
ATOM     49  C   UNL A   1      40.675  32.415  32.592  1.00  0.00     0.074 A 
ATOM     50  C   UNL A   1      40.035  31.254  33.183  1.00  0.00     0.031 C 
ATOM     51  C   UNL A   1      45.047  30.824  30.756  1.00  0.00     0.029 A 
ATOM     52  C   UNL A   1      45.077  29.845  29.698  1.00  0.00     0.049 A 
ATOM     53  H   UNL A   1      43.772  28.201  29.810  1.00  0.00     0.167 HD
ATOM     54  C   UNL A   1      41.254  33.506  33.192  1.00  0.00     0.037 A 
ATOM     55  C   UNL A   1      45.418  29.913  28.376  1.00  0.00     0.037 A 
ATOM     56  C   UNL A   1      42.489  33.912  32.481  1.00  0.00     0.049 A 
ATOM     57  C   UNL A   1      44.987  31.349  27.934  1.00  0.00     0.074 A 
ATOM     58  C   UNL A   1      43.834  33.967  32.830  1.00  0.00     0.029 A 
ATOM     59  N   UNL A   1      42.480  34.056  31.100  1.00  0.00    -0.354 N 
ATOM     60  N   UNL A   1      44.506  32.202  28.808  1.00  0.00    -0.248 NA
ATOM     61  C   UNL A   1      45.083  32.006  26.629  1.00  0.00     0.031 C 
ATOM     62  C   UNL A   1      44.609  34.155  31.639  1.00  0.00     0.029 A 
ATOM     63  C   UNL A   1      43.744  34.213  30.560  1.00  0.00     0.049 A 
ATOM     64  H   UNL A   1      41.658  34.046  30.559  1.00  0.00     0.167 HD
ATOM     65  C   UNL A   1      44.277  33.436  28.304  1.00  0.00     0.074 A 
ATOM     66  C   UNL A   1      44.603  33.248  26.895  1.00  0.00     0.031 C 
ATOM     67  C   UNL A   1      43.875  34.469  29.121  1.00  0.00     0.037 A 
BRANCH  54  68
ATOM     68  C   UNL A   1      40.856  34.065  34.570  1.00  0.00     0.058 A 
ATOM     69  C   UNL A   1      41.681  33.898  35.708  1.00  0.00     0.135 A 
ATOM     70  C   UNL A   1      39.733  34.895  34.808  1.00  0.00     0.135 A 
ATOM     71  F   UNL A   1      42.851  33.249  35.636  1.00  0.00    -0.206 F 
ATOM     72  C   UNL A   1      41.381  34.429  36.972  1.00  0.00     0.059 A 
ATOM     73  C   UNL A   1      39.387  35.400  36.072  1.00  0.00     0.059 A 
ATOM     74  F   UNL A   1      38.954  35.324  33.805  1.00  0.00    -0.206 F 
ATOM     75  C   UNL A   1      40.222  35.167  37.153  1.00  0.00     0.060 A 
BRANCH  75  76
ATOM     76  S   UNL A   1      39.870  35.873  38.778  1.00  0.00     0.124 S 
ATOM     77  O   UNL A   1      38.858  34.959  39.300  1.00  0.00    -0.237 OA
ATOM     78  O   UNL A   1      41.175  35.814  39.429  1.00  0.00    -0.237 OA
ATOM     79  O   UNL A   1      39.388  37.218  38.472  1.00  0.00    -0.744 OA
ENDBRANCH  75  76
ENDBRANCH  54  68
BRANCH  55  80
ATOM     80  C   UNL A   1      45.117  28.475  27.794  1.00  0.00     0.058 A 
ATOM     81  C   UNL A   1      44.609  28.358  26.491  1.00  0.00     0.135 A 
ATOM     82  C   UNL A   1      46.135  27.575  27.926  1.00  0.00     0.135 A 
ATOM     83  F   UNL A   1      43.448  28.966  26.193  1.00  0.00    -0.206 F 
ATOM     84  C   UNL A   1      45.311  27.679  25.371  1.00  0.00     0.059 A 
ATOM     85  C   UNL A   1      46.928  27.197  26.729  1.00  0.00     0.059 A 
ATOM     86  F   UNL A   1      46.662  27.469  29.151  1.00  0.00    -0.206 F 
ATOM     87  C   UNL A   1      46.662  27.191  25.393  1.00  0.00     0.060 A 
BRANCH  87  88
ATOM     88  S   UNL A   1      48.153  26.107  24.029  1.00  0.00     0.124 S 
ATOM     89  O   UNL A   1      48.318  26.833  22.773  1.00  0.00    -0.237 OA
ATOM     90  O   UNL A   1      49.462  25.995  24.666  1.00  0.00    -0.237 OA
ATOM     91  O   UNL A   1      47.567  24.781  23.857  1.00  0.00    -0.744 OA
ENDBRANCH  87  88
ENDBRANCH  55  80
BRANCH  67  92
ATOM     92  C   UNL A   1      43.540  35.863  28.655  1.00  0.00     0.058 A 
ATOM     93  C   UNL A   1      44.400  36.953  28.818  1.00  0.00     0.135 A 
ATOM     94  C   UNL A   1      42.282  36.164  28.066  1.00  0.00     0.135 A 
ATOM     95  F   UNL A   1      45.520  36.847  29.547  1.00  0.00    -0.206 F 
ATOM     96  C   UNL A   1      44.116  38.202  28.264  1.00  0.00     0.059 A 
ATOM     97  C   UNL A   1      41.957  37.408  27.555  1.00  0.00     0.059 A 
ATOM     98  F   UNL A   1      41.304  35.261  27.933  1.00  0.00    -0.206 F 
ATOM     99  C   UNL A   1      42.907  38.406  27.604  1.00  0.00     0.060 A 
BRANCH  99 100
ATOM    100  S   UNL A   1      42.576  39.982  26.811  1.00  0.00     0.124 S 
ATOM    101  O   UNL A   1      43.640  40.055  25.815  1.00  0.00    -0.237 OA
ATOM    102  O   UNL A   1      41.231  39.762  26.288  1.00  0.00    -0.237 OA
ATOM    103  O   UNL A   1      42.676  40.945  27.902  1.00  0.00    -0.744 OA
ENDBRANCH  99 100
ENDBRANCH  67  92
ENDBRANCH  41  42
ENDBRANCH  34  36
ENDBRANCH  33  34
ENDBRANCH  32  33
ENDBRANCH   1  32
TORSDOF 20
ENDMDL
