MODEL 1
REMARK VINA RESULT:     -12.1      0.000      0.000
REMARK SMILES Cc1cccc(-c2cc(C(=O)OCCOCCOC(=O)c3ccc(-c4c5nc(c(-c6c(F)cc(S(=O)(=O)[O-])cc6F)c6ccc([nH]6)c(-c6c(F)cc(S(=O)(=O)[O-])cc6F)c6nc(c(-c7c(F)cc(S(=O)(=O)[O-])cc7F)c7ccc4[nH]7)C=C6)C=C5)cc3)ccn2)c1
REMARK SMILES IDX 16 1 15 2 14 3 13 4 12 5 10 6 11 7 9 8 7 9 8 10 89 11 88 12
REMARK SMILES IDX 87 13 6 14 1 15 2 16 3 17 90 18 4 19 5 20 17 21 18 22 19 23
REMARK SMILES IDX 20 24 21 25 22 26 86 27 23 28 85 29 24 30 25 31 26 32 79 33
REMARK SMILES IDX 27 34 84 35 78 36 80 37 28 38 83 39 77 40 76 41 29 43 63 44
REMARK SMILES IDX 42 45 62 46 43 47 46 48 61 49 81 50 44 51 45 52 60 54 82 55
REMARK SMILES IDX 47 56 30 57 31 58 40 59 32 60 33 61 39 62 41 63 34 64 35 65
REMARK SMILES IDX 36 66 37 67 38 68 64 69 65 70 74 71 66 72 67 73 73 74 75 75
REMARK SMILES IDX 68 76 69 77 70 78 71 79 72 80 48 81 49 82 58 83 50 84 51 85
REMARK SMILES IDX 57 86 59 87 52 88 53 89 54 90 55 91 56 92
REMARK H PARENT 80 42 46 53
REMARK Flexibility Score: inf
ROOT
ATOM      1  C   UNL A   1      33.504  28.539  24.466  1.00  0.00     0.202 C 
ENDROOT
BRANCH   1   2
ATOM      2  O   UNL A   1      32.433  29.197  23.841  1.00  0.00    -0.374 OA
BRANCH   2   3
ATOM      3  C   UNL A   1      31.214  29.241  24.561  1.00  0.00     0.202 C 
BRANCH   3   4
ATOM      4  C   UNL A   1      30.155  29.103  23.518  1.00  0.00     0.261 C 
BRANCH   4   5
ATOM      5  O   UNL A   1      30.016  27.737  23.057  1.00  0.00    -0.460 OA
BRANCH   5   6
ATOM      6  C   UNL A   1      30.265  26.594  23.750  1.00  0.00     0.338 C 
ATOM      7  O   UNL A   1      29.797  26.176  24.781  1.00  0.00    -0.246 OA
BRANCH   6   8
ATOM      8  C   UNL A   1      31.192  25.826  22.889  1.00  0.00     0.063 A 
ATOM      9  C   UNL A   1      32.830  24.087  22.728  1.00  0.00     0.071 A 
ATOM     10  C   UNL A   1      31.778  24.676  23.398  1.00  0.00     0.044 A 
ATOM     11  N   UNL A   1      33.299  24.574  21.558  1.00  0.00    -0.256 NA
ATOM     12  C   UNL A   1      32.649  25.652  21.037  1.00  0.00     0.112 A 
ATOM     13  C   UNL A   1      31.597  26.310  21.655  1.00  0.00     0.036 A 
BRANCH   9  14
ATOM     14  C   UNL A   1      33.476  22.940  23.368  1.00  0.00     0.000 A 
ATOM     15  C   UNL A   1      32.472  19.348  24.183  1.00  0.00     0.044 C 
ATOM     16  C   UNL A   1      33.251  20.629  24.159  1.00  0.00    -0.050 A 
ATOM     17  C   UNL A   1      34.411  20.790  24.919  1.00  0.00     0.003 A 
ATOM     18  C   UNL A   1      32.811  21.696  23.376  1.00  0.00     0.013 A 
ATOM     19  C   UNL A   1      35.099  22.008  24.910  1.00  0.00     0.001 A 
ATOM     20  C   UNL A   1      34.633  23.079  24.142  1.00  0.00     0.010 A 
ENDBRANCH   9  14
ENDBRANCH   6   8
ENDBRANCH   5   6
ENDBRANCH   4   5
ENDBRANCH   3   4
ENDBRANCH   2   3
ENDBRANCH   1   2
BRANCH   1  21
ATOM     21  C   UNL A   1      33.079  27.945  25.806  1.00  0.00     0.261 C 
BRANCH  21  22
ATOM     22  O   UNL A   1      34.082  28.185  26.821  1.00  0.00    -0.460 OA
BRANCH  22  23
ATOM     23  C   UNL A   1      34.030  29.405  27.439  1.00  0.00     0.338 C 
ATOM     24  O   UNL A   1      33.021  30.086  27.506  1.00  0.00    -0.246 OA
BRANCH  23  25
ATOM     25  C   UNL A   1      35.367  29.774  27.993  1.00  0.00     0.060 A 
ATOM     26  C   UNL A   1      36.451  30.094  27.152  1.00  0.00     0.016 A 
ATOM     27  C   UNL A   1      35.588  29.556  29.347  1.00  0.00     0.016 A 
ATOM     28  C   UNL A   1      37.772  30.036  27.639  1.00  0.00     0.010 A 
ATOM     29  C   UNL A   1      36.880  29.369  29.780  1.00  0.00     0.010 A 
ATOM     30  C   UNL A   1      37.987  29.588  28.937  1.00  0.00    -0.014 A 
BRANCH  30  31
ATOM     31  C   UNL A   1      39.266  29.285  29.595  1.00  0.00     0.031 A 
ATOM     32  C   UNL A   1      39.939  28.036  29.158  1.00  0.00     0.074 A 
ATOM     33  C   UNL A   1      39.986  30.263  30.202  1.00  0.00     0.049 A 
ATOM     34  N   UNL A   1      41.123  27.686  29.506  1.00  0.00    -0.248 NA
ATOM     35  C   UNL A   1      39.318  27.055  28.268  1.00  0.00     0.031 C 
ATOM     36  C   UNL A   1      41.442  30.423  30.241  1.00  0.00     0.029 A 
ATOM     37  N   UNL A   1      39.547  31.374  30.924  1.00  0.00    -0.354 N 
ATOM     38  C   UNL A   1      41.545  26.679  28.667  1.00  0.00     0.074 A 
ATOM     39  C   UNL A   1      40.352  26.259  27.982  1.00  0.00     0.031 C 
ATOM     40  C   UNL A   1      41.777  31.364  31.141  1.00  0.00     0.029 A 
ATOM     41  C   UNL A   1      40.555  31.758  31.819  1.00  0.00     0.049 A 
ATOM     42  H   UNL A   1      38.672  31.814  30.822  1.00  0.00     0.167 HD
ATOM     43  C   UNL A   1      42.888  26.442  28.605  1.00  0.00     0.037 A 
ATOM     44  C   UNL A   1      40.313  31.759  33.158  1.00  0.00     0.037 A 
ATOM     45  C   UNL A   1      43.562  27.193  29.681  1.00  0.00     0.049 A 
ATOM     46  C   UNL A   1      41.158  30.676  33.766  1.00  0.00     0.074 A 
ATOM     47  C   UNL A   1      44.339  28.340  29.708  1.00  0.00     0.029 A 
ATOM     48  N   UNL A   1      43.168  26.963  31.001  1.00  0.00    -0.354 N 
ATOM     49  N   UNL A   1      41.576  29.646  33.078  1.00  0.00    -0.248 NA
ATOM     50  C   UNL A   1      41.744  30.735  35.100  1.00  0.00     0.031 C 
ATOM     51  C   UNL A   1      44.322  28.844  31.044  1.00  0.00     0.029 A 
ATOM     52  C   UNL A   1      43.556  27.996  31.833  1.00  0.00     0.049 A 
ATOM     53  H   UNL A   1      42.676  26.164  31.301  1.00  0.00     0.167 HD
ATOM     54  C   UNL A   1      42.533  28.988  33.783  1.00  0.00     0.074 A 
ATOM     55  C   UNL A   1      42.570  29.674  35.065  1.00  0.00     0.031 C 
ATOM     56  C   UNL A   1      43.260  27.956  33.264  1.00  0.00     0.037 A 
BRANCH  43  57
ATOM     57  C   UNL A   1      43.633  25.690  27.506  1.00  0.00     0.058 A 
ATOM     58  C   UNL A   1      43.643  24.274  27.499  1.00  0.00     0.135 A 
ATOM     59  C   UNL A   1      44.404  26.267  26.472  1.00  0.00     0.135 A 
ATOM     60  F   UNL A   1      42.964  23.565  28.411  1.00  0.00    -0.206 F 
ATOM     61  C   UNL A   1      44.363  23.512  26.569  1.00  0.00     0.059 A 
ATOM     62  C   UNL A   1      45.125  25.526  25.529  1.00  0.00     0.059 A 
ATOM     63  F   UNL A   1      44.516  27.584  26.306  1.00  0.00    -0.206 F 
ATOM     64  C   UNL A   1      45.103  24.145  25.584  1.00  0.00     0.060 A 
BRANCH  64  65
ATOM     65  S   UNL A   1      46.014  23.156  24.385  1.00  0.00     0.124 S 
ATOM     66  O   UNL A   1      47.035  24.095  23.928  1.00  0.00    -0.237 OA
ATOM     67  O   UNL A   1      46.489  22.045  25.202  1.00  0.00    -0.237 OA
ATOM     68  O   UNL A   1      45.003  22.807  23.390  1.00  0.00    -0.744 OA
ENDBRANCH  64  65
ENDBRANCH  43  57
BRANCH  44  69
ATOM     69  C   UNL A   1      38.911  32.203  33.462  1.00  0.00     0.058 A 
ATOM     70  C   UNL A   1      38.605  33.553  33.164  1.00  0.00     0.135 A 
ATOM     71  C   UNL A   1      37.834  31.300  33.456  1.00  0.00     0.135 A 
ATOM     72  F   UNL A   1      39.587  34.471  33.145  1.00  0.00    -0.206 F 
ATOM     73  C   UNL A   1      37.342  33.954  32.716  1.00  0.00     0.059 A 
ATOM     74  C   UNL A   1      36.565  31.679  32.990  1.00  0.00     0.059 A 
ATOM     75  F   UNL A   1      38.042  30.004  33.728  1.00  0.00    -0.206 F 
ATOM     76  C   UNL A   1      36.343  32.994  32.569  1.00  0.00     0.060 A 
BRANCH  76  77
ATOM     77  S   UNL A   1      34.866  33.407  31.584  1.00  0.00     0.124 S 
ATOM     78  O   UNL A   1      33.801  32.785  32.358  1.00  0.00    -0.237 OA
ATOM     79  O   UNL A   1      34.871  34.868  31.584  1.00  0.00    -0.237 OA
ATOM     80  O   UNL A   1      35.159  32.801  30.290  1.00  0.00    -0.744 OA
ENDBRANCH  76  77
ENDBRANCH  44  69
BRANCH  56  81
ATOM     81  C   UNL A   1      43.824  26.858  34.121  1.00  0.00     0.058 A 
ATOM     82  C   UNL A   1      43.015  25.945  34.821  1.00  0.00     0.135 A 
ATOM     83  C   UNL A   1      45.210  26.577  34.124  1.00  0.00     0.135 A 
ATOM     84  F   UNL A   1      41.676  26.001  34.774  1.00  0.00    -0.206 F 
ATOM     85  C   UNL A   1      43.547  24.904  35.570  1.00  0.00     0.059 A 
ATOM     86  C   UNL A   1      45.755  25.494  34.800  1.00  0.00     0.059 A 
ATOM     87  F   UNL A   1      46.090  27.332  33.451  1.00  0.00    -0.206 F 
ATOM     88  C   UNL A   1      44.919  24.692  35.562  1.00  0.00     0.060 A 
BRANCH  88  89
ATOM     89  S   UNL A   1      45.595  23.354  36.545  1.00  0.00     0.124 S 
ATOM     90  O   UNL A   1      44.963  22.197  35.919  1.00  0.00    -0.237 OA
ATOM     91  O   UNL A   1      47.032  23.488  36.317  1.00  0.00    -0.237 OA
ATOM     92  O   UNL A   1      45.149  23.668  37.897  1.00  0.00    -0.744 OA
ENDBRANCH  88  89
ENDBRANCH  56  81
ENDBRANCH  30  31
ENDBRANCH  23  25
ENDBRANCH  22  23
ENDBRANCH  21  22
ENDBRANCH   1  21
TORSDOF 18
ENDMDL
MODEL 2
REMARK VINA RESULT:     -12.0      1.253      2.126
REMARK SMILES Cc1cccc(-c2cc(C(=O)OCCOCCOC(=O)c3ccc(-c4c5nc(c(-c6c(F)cc(S(=O)(=O)[O-])cc6F)c6ccc([nH]6)c(-c6c(F)cc(S(=O)(=O)[O-])cc6F)c6nc(c(-c7c(F)cc(S(=O)(=O)[O-])cc7F)c7ccc4[nH]7)C=C6)C=C5)cc3)ccn2)c1
REMARK SMILES IDX 16 1 15 2 14 3 13 4 12 5 10 6 11 7 9 8 7 9 8 10 89 11 88 12
REMARK SMILES IDX 87 13 6 14 1 15 2 16 3 17 90 18 4 19 5 20 17 21 18 22 19 23
REMARK SMILES IDX 20 24 21 25 22 26 86 27 23 28 85 29 24 30 25 31 26 32 79 33
REMARK SMILES IDX 27 34 84 35 78 36 80 37 28 38 83 39 77 40 76 41 29 43 63 44
REMARK SMILES IDX 42 45 62 46 43 47 46 48 61 49 81 50 44 51 45 52 60 54 82 55
REMARK SMILES IDX 47 56 30 57 31 58 40 59 32 60 33 61 39 62 41 63 34 64 35 65
REMARK SMILES IDX 36 66 37 67 38 68 64 69 65 70 74 71 66 72 67 73 73 74 75 75
REMARK SMILES IDX 68 76 69 77 70 78 71 79 72 80 48 81 49 82 58 83 50 84 51 85
REMARK SMILES IDX 57 86 59 87 52 88 53 89 54 90 55 91 56 92
REMARK H PARENT 80 42 46 53
REMARK Flexibility Score: inf
ROOT
ATOM      1  C   UNL A   1      31.840  30.046  25.370  1.00  0.00     0.202 C 
ENDROOT
BRANCH   1   2
ATOM      2  O   UNL A   1      30.958  28.994  25.080  1.00  0.00    -0.374 OA
BRANCH   2   3
ATOM      3  C   UNL A   1      31.544  27.787  24.625  1.00  0.00     0.202 C 
BRANCH   3   4
ATOM      4  C   UNL A   1      31.089  26.754  25.602  1.00  0.00     0.261 C 
BRANCH   4   5
ATOM      5  O   UNL A   1      31.824  25.514  25.468  1.00  0.00    -0.460 OA
BRANCH   5   6
ATOM      6  C   UNL A   1      31.837  24.456  26.323  1.00  0.00     0.338 C 
ATOM      7  O   UNL A   1      31.079  24.146  27.210  1.00  0.00    -0.246 OA
BRANCH   6   8
ATOM      8  C   UNL A   1      32.961  23.611  25.861  1.00  0.00     0.063 A 
ATOM      9  C   UNL A   1      33.683  21.492  25.013  1.00  0.00     0.071 A 
ATOM     10  C   UNL A   1      32.677  22.414  25.222  1.00  0.00     0.044 A 
ATOM     11  N   UNL A   1      34.961  21.728  25.382  1.00  0.00    -0.256 NA
ATOM     12  C   UNL A   1      35.227  22.946  25.928  1.00  0.00     0.112 A 
ATOM     13  C   UNL A   1      34.273  23.918  26.186  1.00  0.00     0.036 A 
BRANCH   9  14
ATOM     14  C   UNL A   1      33.302  20.204  24.430  1.00  0.00     0.000 A 
ATOM     15  C   UNL A   1      34.722  16.660  24.479  1.00  0.00     0.044 C 
ATOM     16  C   UNL A   1      33.878  17.842  24.105  1.00  0.00    -0.050 A 
ATOM     17  C   UNL A   1      32.943  17.771  23.071  1.00  0.00     0.003 A 
ATOM     18  C   UNL A   1      34.029  19.050  24.787  1.00  0.00     0.013 A 
ATOM     19  C   UNL A   1      32.195  18.897  22.714  1.00  0.00     0.001 A 
ATOM     20  C   UNL A   1      32.375  20.109  23.387  1.00  0.00     0.010 A 
ENDBRANCH   9  14
ENDBRANCH   6   8
ENDBRANCH   5   6
ENDBRANCH   4   5
ENDBRANCH   3   4
ENDBRANCH   2   3
ENDBRANCH   1   2
BRANCH   1  21
ATOM     21  C   UNL A   1      31.938  30.282  26.875  1.00  0.00     0.261 C 
BRANCH  21  22
ATOM     22  O   UNL A   1      33.310  30.506  27.276  1.00  0.00    -0.460 OA
BRANCH  22  23
ATOM     23  C   UNL A   1      34.040  29.386  27.566  1.00  0.00     0.338 C 
ATOM     24  O   UNL A   1      33.619  28.250  27.429  1.00  0.00    -0.246 OA
BRANCH  23  25
ATOM     25  C   UNL A   1      35.395  29.755  28.077  1.00  0.00     0.060 A 
ATOM     26  C   UNL A   1      36.460  30.042  27.200  1.00  0.00     0.016 A 
ATOM     27  C   UNL A   1      35.648  29.568  29.429  1.00  0.00     0.016 A 
ATOM     28  C   UNL A   1      37.793  29.982  27.655  1.00  0.00     0.010 A 
ATOM     29  C   UNL A   1      36.949  29.378  29.833  1.00  0.00     0.010 A 
ATOM     30  C   UNL A   1      38.036  29.565  28.958  1.00  0.00    -0.014 A 
BRANCH  30  31
ATOM     31  C   UNL A   1      39.329  29.265  29.591  1.00  0.00     0.031 A 
ATOM     32  C   UNL A   1      39.956  27.976  29.203  1.00  0.00     0.074 A 
ATOM     33  C   UNL A   1      40.092  30.255  30.119  1.00  0.00     0.049 A 
ATOM     34  N   UNL A   1      41.141  27.614  29.532  1.00  0.00    -0.248 NA
ATOM     35  C   UNL A   1      39.280  26.964  28.389  1.00  0.00     0.031 C 
ATOM     36  C   UNL A   1      41.552  30.378  30.102  1.00  0.00     0.029 A 
ATOM     37  N   UNL A   1      39.705  31.415  30.791  1.00  0.00    -0.354 N 
ATOM     38  C   UNL A   1      41.509  26.552  28.738  1.00  0.00     0.074 A 
ATOM     39  C   UNL A   1      40.284  26.126  28.116  1.00  0.00     0.031 C 
ATOM     40  C   UNL A   1      41.940  31.358  30.937  1.00  0.00     0.029 A 
ATOM     41  C   UNL A   1      40.752  31.821  31.631  1.00  0.00     0.049 A 
ATOM     42  H   UNL A   1      38.839  31.873  30.692  1.00  0.00     0.167 HD
ATOM     43  C   UNL A   1      42.843  26.276  28.646  1.00  0.00     0.037 A 
ATOM     44  C   UNL A   1      40.554  31.903  32.974  1.00  0.00     0.037 A 
ATOM     45  C   UNL A   1      43.572  27.067  29.656  1.00  0.00     0.049 A 
ATOM     46  C   UNL A   1      41.392  30.833  33.614  1.00  0.00     0.074 A 
ATOM     47  C   UNL A   1      44.377  28.193  29.595  1.00  0.00     0.029 A 
ATOM     48  N   UNL A   1      43.216  26.921  30.999  1.00  0.00    -0.354 N 
ATOM     49  N   UNL A   1      41.761  29.756  32.972  1.00  0.00    -0.248 NA
ATOM     50  C   UNL A   1      42.024  30.950  34.924  1.00  0.00     0.031 C 
ATOM     51  C   UNL A   1      44.417  28.770  30.900  1.00  0.00     0.029 A 
ATOM     52  C   UNL A   1      43.657  27.987  31.760  1.00  0.00     0.049 A 
ATOM     53  H   UNL A   1      42.715  26.153  31.359  1.00  0.00     0.167 HD
ATOM     54  C   UNL A   1      42.725  29.112  33.683  1.00  0.00     0.074 A 
ATOM     55  C   UNL A   1      42.822  29.866  34.922  1.00  0.00     0.031 C 
ATOM     56  C   UNL A   1      43.408  28.035  33.199  1.00  0.00     0.037 A 
BRANCH  43  57
ATOM     57  C   UNL A   1      43.533  25.445  27.568  1.00  0.00     0.058 A 
ATOM     58  C   UNL A   1      43.370  24.039  27.546  1.00  0.00     0.135 A 
ATOM     59  C   UNL A   1      44.408  25.930  26.570  1.00  0.00     0.135 A 
ATOM     60  F   UNL A   1      42.575  23.413  28.424  1.00  0.00    -0.206 F 
ATOM     61  C   UNL A   1      44.026  23.199  26.636  1.00  0.00     0.059 A 
ATOM     62  C   UNL A   1      45.068  25.112  25.646  1.00  0.00     0.059 A 
ATOM     63  F   UNL A   1      44.686  27.224  26.423  1.00  0.00    -0.206 F 
ATOM     64  C   UNL A   1      44.876  23.743  25.686  1.00  0.00     0.060 A 
BRANCH  64  65
ATOM     65  S   UNL A   1      45.704  22.658  24.512  1.00  0.00     0.124 S 
ATOM     66  O   UNL A   1      44.590  22.184  23.695  1.00  0.00    -0.237 OA
ATOM     67  O   UNL A   1      46.634  23.569  23.854  1.00  0.00    -0.237 OA
ATOM     68  O   UNL A   1      46.325  21.644  25.361  1.00  0.00    -0.744 OA
ENDBRANCH  64  65
ENDBRANCH  43  57
BRANCH  44  69
ATOM     69  C   UNL A   1      39.175  32.400  33.298  1.00  0.00     0.058 A 
ATOM     70  C   UNL A   1      38.893  33.739  32.935  1.00  0.00     0.135 A 
ATOM     71  C   UNL A   1      38.076  31.527  33.376  1.00  0.00     0.135 A 
ATOM     72  F   UNL A   1      39.896  34.628  32.834  1.00  0.00    -0.206 F 
ATOM     73  C   UNL A   1      37.626  34.149  32.506  1.00  0.00     0.059 A 
ATOM     74  C   UNL A   1      36.802  31.914  32.930  1.00  0.00     0.059 A 
ATOM     75  F   UNL A   1      38.261  30.242  33.713  1.00  0.00    -0.206 F 
ATOM     76  C   UNL A   1      36.599  33.209  32.443  1.00  0.00     0.060 A 
BRANCH  76  77
ATOM     77  S   UNL A   1      35.101  33.607  31.485  1.00  0.00     0.124 S 
ATOM     78  O   UNL A   1      34.292  32.411  31.674  1.00  0.00    -0.237 OA
ATOM     79  O   UNL A   1      34.602  34.812  32.144  1.00  0.00    -0.237 OA
ATOM     80  O   UNL A   1      35.624  33.824  30.141  1.00  0.00    -0.744 OA
ENDBRANCH  76  77
ENDBRANCH  44  69
BRANCH  56  81
ATOM     81  C   UNL A   1      43.973  26.971  34.098  1.00  0.00     0.058 A 
ATOM     82  C   UNL A   1      45.343  26.876  34.400  1.00  0.00     0.135 A 
ATOM     83  C   UNL A   1      43.122  26.113  34.834  1.00  0.00     0.135 A 
ATOM     84  F   UNL A   1      46.243  27.731  33.892  1.00  0.00    -0.206 F 
ATOM     85  C   UNL A   1      45.847  25.920  35.270  1.00  0.00     0.059 A 
ATOM     86  C   UNL A   1      43.599  25.206  35.770  1.00  0.00     0.059 A 
ATOM     87  F   UNL A   1      41.790  26.138  34.688  1.00  0.00    -0.206 F 
ATOM     88  C   UNL A   1      44.968  25.082  35.944  1.00  0.00     0.060 A 
BRANCH  88  89
ATOM     89  S   UNL A   1      45.632  23.842  37.055  1.00  0.00     0.124 S 
ATOM     90  O   UNL A   1      45.182  22.613  36.408  1.00  0.00    -0.237 OA
ATOM     91  O   UNL A   1      47.069  24.097  36.994  1.00  0.00    -0.237 OA
ATOM     92  O   UNL A   1      45.000  24.156  38.331  1.00  0.00    -0.744 OA
ENDBRANCH  88  89
ENDBRANCH  56  81
ENDBRANCH  30  31
ENDBRANCH  23  25
ENDBRANCH  22  23
ENDBRANCH  21  22
ENDBRANCH   1  21
TORSDOF 18
ENDMDL
MODEL 3
REMARK VINA RESULT:     -11.8      3.717     10.050
REMARK SMILES Cc1cccc(-c2cc(C(=O)OCCOCCOC(=O)c3ccc(-c4c5nc(c(-c6c(F)cc(S(=O)(=O)[O-])cc6F)c6ccc([nH]6)c(-c6c(F)cc(S(=O)(=O)[O-])cc6F)c6nc(c(-c7c(F)cc(S(=O)(=O)[O-])cc7F)c7ccc4[nH]7)C=C6)C=C5)cc3)ccn2)c1
REMARK SMILES IDX 16 1 15 2 14 3 13 4 12 5 10 6 11 7 9 8 7 9 8 10 89 11 88 12
REMARK SMILES IDX 87 13 6 14 1 15 2 16 3 17 90 18 4 19 5 20 17 21 18 22 19 23
REMARK SMILES IDX 20 24 21 25 22 26 86 27 23 28 85 29 24 30 25 31 26 32 79 33
REMARK SMILES IDX 27 34 84 35 78 36 80 37 28 38 83 39 77 40 76 41 29 43 63 44
REMARK SMILES IDX 42 45 62 46 43 47 46 48 61 49 81 50 44 51 45 52 60 54 82 55
REMARK SMILES IDX 47 56 30 57 31 58 40 59 32 60 33 61 39 62 41 63 34 64 35 65
REMARK SMILES IDX 36 66 37 67 38 68 64 69 65 70 74 71 66 72 67 73 73 74 75 75
REMARK SMILES IDX 68 76 69 77 70 78 71 79 72 80 48 81 49 82 58 83 50 84 51 85
REMARK SMILES IDX 57 86 59 87 52 88 53 89 54 90 55 91 56 92
REMARK H PARENT 80 42 46 53
REMARK Flexibility Score: inf
ROOT
ATOM      1  C   UNL A   1      36.262  20.614  25.143  1.00  0.00     0.202 C 
ENDROOT
BRANCH   1   2
ATOM      2  O   UNL A   1      35.075  21.362  25.170  1.00  0.00    -0.374 OA
BRANCH   2   3
ATOM      3  C   UNL A   1      33.883  20.666  24.855  1.00  0.00     0.202 C 
BRANCH   3   4
ATOM      4  C   UNL A   1      32.829  21.328  25.679  1.00  0.00     0.261 C 
BRANCH   4   5
ATOM      5  O   UNL A   1      33.257  22.617  26.181  1.00  0.00    -0.460 OA
BRANCH   5   6
ATOM      6  C   UNL A   1      32.480  23.685  26.505  1.00  0.00     0.338 C 
ATOM      7  O   UNL A   1      31.559  23.788  27.280  1.00  0.00    -0.246 OA
BRANCH   6   8
ATOM      8  C   UNL A   1      33.084  24.826  25.781  1.00  0.00     0.063 A 
ATOM      9  C   UNL A   1      33.513  27.180  25.713  1.00  0.00     0.071 A 
ATOM     10  C   UNL A   1      33.198  26.045  26.432  1.00  0.00     0.044 A 
ATOM     11  N   UNL A   1      33.753  27.145  24.384  1.00  0.00    -0.256 NA
ATOM     12  C   UNL A   1      33.721  25.921  23.787  1.00  0.00     0.112 A 
ATOM     13  C   UNL A   1      33.397  24.739  24.434  1.00  0.00     0.036 A 
BRANCH   9  14
ATOM     14  C   UNL A   1      33.512  28.453  26.436  1.00  0.00     0.000 A 
ATOM     15  C   UNL A   1      31.334  31.589  26.439  1.00  0.00     0.044 C 
ATOM     16  C   UNL A   1      32.477  30.659  26.717  1.00  0.00    -0.050 A 
ATOM     17  C   UNL A   1      33.603  31.082  27.427  1.00  0.00     0.003 A 
ATOM     18  C   UNL A   1      32.436  29.345  26.251  1.00  0.00     0.013 A 
ATOM     19  C   UNL A   1      34.673  30.208  27.641  1.00  0.00     0.001 A 
ATOM     20  C   UNL A   1      34.631  28.901  27.146  1.00  0.00     0.010 A 
ENDBRANCH   9  14
ENDBRANCH   6   8
ENDBRANCH   5   6
ENDBRANCH   4   5
ENDBRANCH   3   4
ENDBRANCH   2   3
ENDBRANCH   1   2
BRANCH   1  21
ATOM     21  C   UNL A   1      37.401  21.409  24.510  1.00  0.00     0.261 C 
BRANCH  21  22
ATOM     22  O   UNL A   1      38.142  22.142  25.514  1.00  0.00    -0.460 OA
BRANCH  22  23
ATOM     23  C   UNL A   1      37.883  23.483  25.591  1.00  0.00     0.338 C 
ATOM     24  O   UNL A   1      36.956  24.026  25.015  1.00  0.00    -0.246 OA
BRANCH  23  25
ATOM     25  C   UNL A   1      38.892  24.168  26.454  1.00  0.00     0.060 A 
ATOM     26  C   UNL A   1      38.722  24.268  27.849  1.00  0.00     0.016 A 
ATOM     27  C   UNL A   1      39.876  24.919  25.825  1.00  0.00     0.016 A 
ATOM     28  C   UNL A   1      39.431  25.238  28.585  1.00  0.00     0.010 A 
ATOM     29  C   UNL A   1      40.461  25.950  26.522  1.00  0.00     0.010 A 
ATOM     30  C   UNL A   1      40.240  26.137  27.900  1.00  0.00    -0.014 A 
BRANCH  30  31
ATOM     31  C   UNL A   1      40.930  27.324  28.427  1.00  0.00     0.031 A 
ATOM     32  C   UNL A   1      40.074  28.508  28.687  1.00  0.00     0.074 A 
ATOM     33  C   UNL A   1      42.134  27.213  29.043  1.00  0.00     0.049 A 
ATOM     34  N   UNL A   1      40.467  29.575  29.281  1.00  0.00    -0.248 NA
ATOM     35  C   UNL A   1      38.668  28.589  28.291  1.00  0.00     0.031 C 
ATOM     36  C   UNL A   1      42.631  27.961  30.201  1.00  0.00     0.029 A 
ATOM     37  N   UNL A   1      43.203  26.360  28.763  1.00  0.00    -0.354 N 
ATOM     38  C   UNL A   1      39.358  30.303  29.649  1.00  0.00     0.074 A 
ATOM     39  C   UNL A   1      38.273  29.697  28.924  1.00  0.00     0.031 C 
ATOM     40  C   UNL A   1      43.949  27.745  30.358  1.00  0.00     0.029 A 
ATOM     41  C   UNL A   1      44.387  26.951  29.224  1.00  0.00     0.049 A 
ATOM     42  H   UNL A   1      43.135  25.486  28.314  1.00  0.00     0.167 HD
ATOM     43  C   UNL A   1      39.527  31.249  30.619  1.00  0.00     0.037 A 
ATOM     44  C   UNL A   1      45.391  27.235  28.350  1.00  0.00     0.037 A 
ATOM     45  C   UNL A   1      40.969  31.429  30.873  1.00  0.00     0.049 A 
ATOM     46  C   UNL A   1      45.502  28.732  28.270  1.00  0.00     0.074 A 
ATOM     47  C   UNL A   1      41.819  31.041  31.896  1.00  0.00     0.029 A 
ATOM     48  N   UNL A   1      41.792  31.791  29.804  1.00  0.00    -0.354 N 
ATOM     49  N   UNL A   1      44.499  29.523  28.548  1.00  0.00    -0.248 NA
ATOM     50  C   UNL A   1      46.749  29.458  28.057  1.00  0.00     0.031 C 
ATOM     51  C   UNL A   1      43.154  31.083  31.390  1.00  0.00     0.029 A 
ATOM     52  C   UNL A   1      43.120  31.516  30.071  1.00  0.00     0.049 A 
ATOM     53  H   UNL A   1      41.467  32.192  28.965  1.00  0.00     0.167 HD
ATOM     54  C   UNL A   1      44.950  30.800  28.666  1.00  0.00     0.074 A 
ATOM     55  C   UNL A   1      46.355  30.721  28.300  1.00  0.00     0.031 C 
ATOM     56  C   UNL A   1      44.161  31.828  29.093  1.00  0.00     0.037 A 
BRANCH  43  57
ATOM     57  C   UNL A   1      38.434  31.894  31.466  1.00  0.00     0.058 A 
ATOM     58  C   UNL A   1      38.203  33.288  31.380  1.00  0.00     0.135 A 
ATOM     59  C   UNL A   1      37.621  31.243  32.421  1.00  0.00     0.135 A 
ATOM     60  F   UNL A   1      38.888  34.059  30.525  1.00  0.00    -0.206 F 
ATOM     61  C   UNL A   1      37.270  33.967  32.175  1.00  0.00     0.059 A 
ATOM     62  C   UNL A   1      36.679  31.899  33.221  1.00  0.00     0.059 A 
ATOM     63  F   UNL A   1      37.684  29.932  32.647  1.00  0.00    -0.206 F 
ATOM     64  C   UNL A   1      36.509  33.265  33.096  1.00  0.00     0.060 A 
BRANCH  64  65
ATOM     65  S   UNL A   1      35.304  34.145  34.105  1.00  0.00     0.124 S 
ATOM     66  O   UNL A   1      35.486  35.525  33.664  1.00  0.00    -0.237 OA
ATOM     67  O   UNL A   1      34.052  33.509  33.711  1.00  0.00    -0.237 OA
ATOM     68  O   UNL A   1      35.736  33.870  35.474  1.00  0.00    -0.744 OA
ENDBRANCH  64  65
ENDBRANCH  43  57
BRANCH  44  69
ATOM     69  C   UNL A   1      45.512  26.180  27.290  1.00  0.00     0.058 A 
ATOM     70  C   UNL A   1      46.022  24.927  27.711  1.00  0.00     0.135 A 
ATOM     71  C   UNL A   1      44.674  26.168  26.162  1.00  0.00     0.135 A 
ATOM     72  F   UNL A   1      46.824  24.862  28.787  1.00  0.00    -0.206 F 
ATOM     73  C   UNL A   1      45.590  23.718  27.157  1.00  0.00     0.059 A 
ATOM     74  C   UNL A   1      44.214  24.964  25.606  1.00  0.00     0.059 A 
ATOM     75  F   UNL A   1      44.151  27.314  25.701  1.00  0.00    -0.206 F 
ATOM     76  C   UNL A   1      44.632  23.744  26.146  1.00  0.00     0.060 A 
BRANCH  76  77
ATOM     77  S   UNL A   1      43.746  22.205  25.734  1.00  0.00     0.124 S 
ATOM     78  O   UNL A   1      43.075  22.563  24.492  1.00  0.00    -0.237 OA
ATOM     79  O   UNL A   1      44.828  21.230  25.604  1.00  0.00    -0.237 OA
ATOM     80  O   UNL A   1      42.888  22.004  26.895  1.00  0.00    -0.744 OA
ENDBRANCH  76  77
ENDBRANCH  44  69
BRANCH  56  81
ATOM     81  C   UNL A   1      44.390  33.250  28.663  1.00  0.00     0.058 A 
ATOM     82  C   UNL A   1      44.238  33.678  27.332  1.00  0.00     0.135 A 
ATOM     83  C   UNL A   1      44.597  34.274  29.617  1.00  0.00     0.135 A 
ATOM     84  F   UNL A   1      43.885  32.835  26.351  1.00  0.00    -0.206 F 
ATOM     85  C   UNL A   1      44.404  35.004  26.955  1.00  0.00     0.059 A 
ATOM     86  C   UNL A   1      44.685  35.615  29.271  1.00  0.00     0.059 A 
ATOM     87  F   UNL A   1      44.702  34.014  30.928  1.00  0.00    -0.206 F 
ATOM     88  C   UNL A   1      44.637  35.964  27.930  1.00  0.00     0.060 A 
BRANCH  88  89
ATOM     89  S   UNL A   1      44.864  37.671  27.429  1.00  0.00     0.124 S 
ATOM     90  O   UNL A   1      45.254  38.286  28.693  1.00  0.00    -0.237 OA
ATOM     91  O   UNL A   1      45.919  37.569  26.425  1.00  0.00    -0.237 OA
ATOM     92  O   UNL A   1      43.553  38.051  26.916  1.00  0.00    -0.744 OA
ENDBRANCH  88  89
ENDBRANCH  56  81
ENDBRANCH  30  31
ENDBRANCH  23  25
ENDBRANCH  22  23
ENDBRANCH  21  22
ENDBRANCH   1  21
TORSDOF 18
ENDMDL
