MODEL 1
REMARK VINA RESULT:     -10.1      0.000      0.000
REMARK SMILES CC(C)CN(C1CCCC1)S(=O)(=O)c1[nH]ncc1C(=O)OCCOCCOC(=O)c1ccc(-c2c3nc(c(-c4c(F)cc(S(=O)(=O)[O-])cc4F)c4ccc([nH]4)c(-c4c(F)cc(S(=O)(=O)[O-])cc4F)c4nc(c(-c5c(F)cc(S(=O)(=O)[O-])cc5F)c5ccc2[nH]5)C=C4)C=C3)cc1
REMARK SMILES IDX 23 1 22 2 21 3 19 4 20 5 18 6 14 7 15 8 16 9 17 11 11 12
REMARK SMILES IDX 12 13 13 14 5 15 4 16 2 17 1 18 3 19 6 20 7 21 10 22 8 23
REMARK SMILES IDX 9 24 24 25 25 26 26 27 27 28 28 29 29 30 30 31 31 32 95 33
REMARK SMILES IDX 32 34 94 35 33 36 34 37 35 38 88 39 36 40 93 41 87 42 89 43
REMARK SMILES IDX 37 44 92 45 86 46 85 47 38 49 72 50 51 51 71 52 52 53 55 54
REMARK SMILES IDX 70 55 90 56 53 57 54 58 69 60 91 61 56 62 39 63 40 64 49 65
REMARK SMILES IDX 41 66 42 67 48 68 50 69 43 70 44 71 45 72 46 73 47 74 73 75
REMARK SMILES IDX 74 76 83 77 75 78 76 79 82 80 84 81 77 82 78 83 79 84 80 85
REMARK SMILES IDX 81 86 57 87 58 88 67 89 59 90 60 91 66 92 68 93 61 94 62 95
REMARK SMILES IDX 63 96 64 97 65 98
REMARK H PARENT 15 10 89 48 55 59
REMARK Flexibility Score: inf
ROOT
ATOM      1  C   UNL A   1      38.002  22.457  25.775  1.00  0.00     0.202 C 
ENDROOT
BRANCH   1   2
ATOM      2  C   UNL A   1      36.837  21.575  25.313  1.00  0.00     0.261 C 
BRANCH   2   3
ATOM      3  O   UNL A   1      35.699  22.420  25.083  1.00  0.00    -0.460 OA
BRANCH   3   4
ATOM      4  C   UNL A   1      34.729  22.464  26.028  1.00  0.00     0.342 C 
ATOM      5  O   UNL A   1      34.771  23.132  27.054  1.00  0.00    -0.246 OA
BRANCH   4   6
ATOM      6  C   UNL A   1      33.532  21.766  25.599  1.00  0.00     0.118 A 
ATOM      7  C   UNL A   1      32.227  22.245  25.537  1.00  0.00     0.180 A 
ATOM      8  N   UNL A   1      31.454  21.130  25.397  1.00  0.00    -0.265 N 
ATOM      9  N   UNL A   1      32.153  20.015  25.112  1.00  0.00    -0.182 NA
ATOM     10  H   UNL A   1      30.475  21.140  25.495  1.00  0.00     0.191 HD
ATOM     11  C   UNL A   1      33.422  20.403  25.257  1.00  0.00     0.152 A 
BRANCH   7  12
ATOM     12  S   UNL A   1      31.518  23.820  25.817  1.00  0.00     0.261 S 
ATOM     13  O   UNL A   1      31.427  23.930  27.254  1.00  0.00    -0.205 OA
ATOM     14  O   UNL A   1      30.361  23.734  24.958  1.00  0.00    -0.205 OA
BRANCH  12  15
ATOM     15  N   UNL A   1      32.493  25.158  25.276  1.00  0.00    -0.193 NA
BRANCH  15  16
ATOM     16  C   UNL A   1      31.917  25.683  23.935  1.00  0.00     0.106 C 
BRANCH  16  17
ATOM     17  C   UNL A   1      32.865  25.682  22.721  1.00  0.00    -0.002 C 
ATOM     18  C   UNL A   1      33.614  27.005  22.524  1.00  0.00     0.009 C 
ATOM     19  C   UNL A   1      33.930  24.587  22.920  1.00  0.00     0.009 C 
ENDBRANCH  16  17
ENDBRANCH  15  16
BRANCH  15  20
ATOM     20  C   UNL A   1      32.548  26.343  26.243  1.00  0.00     0.073 C 
ATOM     21  C   UNL A   1      33.810  27.192  26.124  1.00  0.00     0.020 C 
ATOM     22  C   UNL A   1      31.479  27.406  25.917  1.00  0.00     0.020 C 
ATOM     23  C   UNL A   1      33.459  28.515  26.787  1.00  0.00     0.002 C 
ATOM     24  C   UNL A   1      31.981  28.719  26.509  1.00  0.00     0.002 C 
ENDBRANCH  15  20
ENDBRANCH  12  15
ENDBRANCH   7  12
ENDBRANCH   4   6
ENDBRANCH   3   4
ENDBRANCH   2   3
ENDBRANCH   1   2
BRANCH   1  25
ATOM     25  O   UNL A   1      39.255  21.764  25.713  1.00  0.00    -0.374 OA
BRANCH  25  26
ATOM     26  C   UNL A   1      39.157  20.366  25.426  1.00  0.00     0.202 C 
BRANCH  26  27
ATOM     27  C   UNL A   1      40.189  19.514  26.169  1.00  0.00     0.261 C 
BRANCH  27  28
ATOM     28  O   UNL A   1      41.359  19.309  25.361  1.00  0.00    -0.460 OA
BRANCH  28  29
ATOM     29  C   UNL A   1      42.539  19.408  26.018  1.00  0.00     0.338 C 
ATOM     30  O   UNL A   1      43.363  18.524  26.184  1.00  0.00    -0.246 OA
BRANCH  29  31
ATOM     31  C   UNL A   1      42.777  20.814  26.411  1.00  0.00     0.060 A 
ATOM     32  C   UNL A   1      43.023  21.738  25.390  1.00  0.00     0.016 A 
ATOM     33  C   UNL A   1      42.788  21.227  27.747  1.00  0.00     0.016 A 
ATOM     34  C   UNL A   1      43.317  23.064  25.703  1.00  0.00     0.010 A 
ATOM     35  C   UNL A   1      43.071  22.563  28.058  1.00  0.00     0.010 A 
ATOM     36  C   UNL A   1      43.366  23.484  27.040  1.00  0.00    -0.014 A 
BRANCH  36  37
ATOM     37  C   UNL A   1      43.839  24.857  27.352  1.00  0.00     0.031 A 
ATOM     38  C   UNL A   1      45.286  25.209  27.127  1.00  0.00     0.074 A 
ATOM     39  C   UNL A   1      42.974  25.800  27.772  1.00  0.00     0.049 A 
ATOM     40  N   UNL A   1      45.880  26.371  27.230  1.00  0.00    -0.248 NA
ATOM     41  C   UNL A   1      46.183  24.107  26.745  1.00  0.00     0.031 C 
ATOM     42  C   UNL A   1      41.555  25.583  28.050  1.00  0.00     0.029 A 
ATOM     43  N   UNL A   1      43.165  27.136  28.023  1.00  0.00    -0.354 N 
ATOM     44  C   UNL A   1      47.215  26.142  26.920  1.00  0.00     0.074 A 
ATOM     45  C   UNL A   1      47.355  24.723  26.675  1.00  0.00     0.031 C 
ATOM     46  C   UNL A   1      40.997  26.752  28.412  1.00  0.00     0.029 A 
ATOM     47  C   UNL A   1      42.019  27.796  28.398  1.00  0.00     0.049 A 
ATOM     48  H   UNL A   1      44.040  27.580  27.943  1.00  0.00     0.167 HD
ATOM     49  C   UNL A   1      48.231  27.033  26.821  1.00  0.00     0.037 A 
ATOM     50  C   UNL A   1      41.815  29.097  28.682  1.00  0.00     0.037 A 
ATOM     51  C   UNL A   1      48.094  28.447  27.051  1.00  0.00     0.049 A 
ATOM     52  C   UNL A   1      42.957  30.072  28.557  1.00  0.00     0.074 A 
ATOM     53  C   UNL A   1      49.058  29.436  26.946  1.00  0.00     0.029 A 
ATOM     54  N   UNL A   1      46.918  29.077  27.430  1.00  0.00    -0.354 N 
ATOM     55  N   UNL A   1      44.202  29.846  28.211  1.00  0.00    -0.248 NA
ATOM     56  C   UNL A   1      42.659  31.483  28.845  1.00  0.00     0.031 C 
ATOM     57  C   UNL A   1      48.472  30.659  27.292  1.00  0.00     0.029 A 
ATOM     58  C   UNL A   1      47.134  30.436  27.576  1.00  0.00     0.049 A 
ATOM     59  H   UNL A   1      46.057  28.622  27.575  1.00  0.00     0.167 HD
ATOM     60  C   UNL A   1      44.830  31.087  28.220  1.00  0.00     0.074 A 
ATOM     61  C   UNL A   1      43.824  32.062  28.589  1.00  0.00     0.031 C 
ATOM     62  C   UNL A   1      46.123  31.394  27.948  1.00  0.00     0.037 A 
BRANCH  49  63
ATOM     63  C   UNL A   1      49.583  26.495  26.449  1.00  0.00     0.058 A 
ATOM     64  C   UNL A   1      50.021  26.470  25.114  1.00  0.00     0.135 A 
ATOM     65  C   UNL A   1      50.456  26.008  27.434  1.00  0.00     0.135 A 
ATOM     66  F   UNL A   1      49.217  26.905  24.131  1.00  0.00    -0.206 F 
ATOM     67  C   UNL A   1      51.265  25.954  24.766  1.00  0.00     0.059 A 
ATOM     68  C   UNL A   1      51.715  25.510  27.112  1.00  0.00     0.059 A 
ATOM     69  F   UNL A   1      50.086  26.007  28.725  1.00  0.00    -0.206 F 
ATOM     70  C   UNL A   1      52.104  25.472  25.773  1.00  0.00     0.060 A 
BRANCH  70  71
ATOM     71  S   UNL A   1      53.714  24.800  25.309  1.00  0.00     0.124 S 
ATOM     72  O   UNL A   1      54.050  25.623  24.153  1.00  0.00    -0.237 OA
ATOM     73  O   UNL A   1      54.511  25.037  26.508  1.00  0.00    -0.237 OA
ATOM     74  O   UNL A   1      53.425  23.399  25.020  1.00  0.00    -0.744 OA
ENDBRANCH  70  71
ENDBRANCH  49  63
BRANCH  50  75
ATOM     75  C   UNL A   1      40.463  29.567  29.085  1.00  0.00     0.058 A 
ATOM     76  C   UNL A   1      39.427  29.685  28.145  1.00  0.00     0.135 A 
ATOM     77  C   UNL A   1      40.183  29.909  30.415  1.00  0.00     0.135 A 
ATOM     78  F   UNL A   1      39.651  29.378  26.858  1.00  0.00    -0.206 F 
ATOM     79  C   UNL A   1      38.164  30.143  28.507  1.00  0.00     0.059 A 
ATOM     80  C   UNL A   1      38.923  30.350  30.806  1.00  0.00     0.059 A 
ATOM     81  F   UNL A   1      41.138  29.802  31.353  1.00  0.00    -0.206 F 
ATOM     82  C   UNL A   1      37.922  30.474  29.842  1.00  0.00     0.060 A 
BRANCH  82  83
ATOM     83  S   UNL A   1      36.268  31.020  30.318  1.00  0.00     0.124 S 
ATOM     84  O   UNL A   1      36.519  32.400  30.720  1.00  0.00    -0.237 OA
ATOM     85  O   UNL A   1      35.515  30.843  29.080  1.00  0.00    -0.237 OA
ATOM     86  O   UNL A   1      35.910  30.102  31.395  1.00  0.00    -0.744 OA
ENDBRANCH  82  83
ENDBRANCH  50  75
BRANCH  62  87
ATOM     87  C   UNL A   1      46.512  32.844  28.019  1.00  0.00     0.058 A 
ATOM     88  C   UNL A   1      47.069  33.400  29.181  1.00  0.00     0.135 A 
ATOM     89  C   UNL A   1      46.333  33.686  26.910  1.00  0.00     0.135 A 
ATOM     90  F   UNL A   1      47.258  32.638  30.270  1.00  0.00    -0.206 F 
ATOM     91  C   UNL A   1      47.397  34.750  29.256  1.00  0.00     0.059 A 
ATOM     92  C   UNL A   1      46.677  35.034  26.954  1.00  0.00     0.059 A 
ATOM     93  F   UNL A   1      45.818  33.201  25.769  1.00  0.00    -0.206 F 
ATOM     94  C   UNL A   1      47.188  35.561  28.140  1.00  0.00     0.060 A 
BRANCH  94  95
ATOM     95  S   UNL A   1      47.608  37.314  28.245  1.00  0.00     0.124 S 
ATOM     96  O   UNL A   1      48.130  37.409  29.604  1.00  0.00    -0.237 OA
ATOM     97  O   UNL A   1      48.589  37.471  27.177  1.00  0.00    -0.237 OA
ATOM     98  O   UNL A   1      46.329  37.981  28.015  1.00  0.00    -0.744 OA
ENDBRANCH  94  95
ENDBRANCH  62  87
ENDBRANCH  36  37
ENDBRANCH  29  31
ENDBRANCH  28  29
ENDBRANCH  27  28
ENDBRANCH  26  27
ENDBRANCH  25  26
ENDBRANCH   1  25
TORSDOF 22
ENDMDL
MODEL 2
REMARK VINA RESULT:     -10.1      3.073      8.237
REMARK SMILES CC(C)CN(C1CCCC1)S(=O)(=O)c1[nH]ncc1C(=O)OCCOCCOC(=O)c1ccc(-c2c3nc(c(-c4c(F)cc(S(=O)(=O)[O-])cc4F)c4ccc([nH]4)c(-c4c(F)cc(S(=O)(=O)[O-])cc4F)c4nc(c(-c5c(F)cc(S(=O)(=O)[O-])cc5F)c5ccc2[nH]5)C=C4)C=C3)cc1
REMARK SMILES IDX 23 1 22 2 21 3 19 4 20 5 18 6 14 7 15 8 16 9 17 11 11 12
REMARK SMILES IDX 12 13 13 14 5 15 4 16 2 17 1 18 3 19 6 20 7 21 10 22 8 23
REMARK SMILES IDX 9 24 24 25 25 26 26 27 27 28 28 29 29 30 30 31 31 32 95 33
REMARK SMILES IDX 32 34 94 35 33 36 34 37 35 38 88 39 36 40 93 41 87 42 89 43
REMARK SMILES IDX 37 44 92 45 86 46 85 47 38 49 72 50 51 51 71 52 52 53 55 54
REMARK SMILES IDX 70 55 90 56 53 57 54 58 69 60 91 61 56 62 39 63 40 64 49 65
REMARK SMILES IDX 41 66 42 67 48 68 50 69 43 70 44 71 45 72 46 73 47 74 73 75
REMARK SMILES IDX 74 76 83 77 75 78 76 79 82 80 84 81 77 82 78 83 79 84 80 85
REMARK SMILES IDX 81 86 57 87 58 88 67 89 59 90 60 91 66 92 68 93 61 94 62 95
REMARK SMILES IDX 63 96 64 97 65 98
REMARK H PARENT 15 10 89 48 55 59
REMARK Flexibility Score: inf
ROOT
ATOM      1  C   UNL A   1      30.917  29.413  24.048  1.00  0.00     0.202 C 
ENDROOT
BRANCH   1   2
ATOM      2  C   UNL A   1      32.056  28.636  23.383  1.00  0.00     0.261 C 
BRANCH   2   3
ATOM      3  O   UNL A   1      31.684  27.249  23.335  1.00  0.00    -0.460 OA
BRANCH   3   4
ATOM      4  C   UNL A   1      32.667  26.317  23.384  1.00  0.00     0.342 C 
ATOM      5  O   UNL A   1      33.369  26.081  24.359  1.00  0.00    -0.246 OA
BRANCH   4   6
ATOM      6  C   UNL A   1      32.675  25.485  22.196  1.00  0.00     0.118 A 
ATOM      7  C   UNL A   1      32.567  24.101  22.109  1.00  0.00     0.180 A 
ATOM      8  N   UNL A   1      32.959  23.801  20.837  1.00  0.00    -0.265 N 
ATOM      9  N   UNL A   1      33.064  24.875  20.032  1.00  0.00    -0.182 NA
ATOM     10  H   UNL A   1      33.148  22.884  20.536  1.00  0.00     0.191 HD
ATOM     11  C   UNL A   1      32.910  25.904  20.870  1.00  0.00     0.152 A 
BRANCH   7  12
ATOM     12  S   UNL A   1      32.277  22.848  23.296  1.00  0.00     0.261 S 
ATOM     13  O   UNL A   1      32.440  21.611  22.568  1.00  0.00    -0.205 OA
ATOM     14  O   UNL A   1      31.009  23.288  23.826  1.00  0.00    -0.205 OA
BRANCH  12  15
ATOM     15  N   UNL A   1      33.426  22.811  24.603  1.00  0.00    -0.193 NA
BRANCH  15  16
ATOM     16  C   UNL A   1      32.882  21.879  25.718  1.00  0.00     0.106 C 
BRANCH  16  17
ATOM     17  C   UNL A   1      32.673  22.504  27.110  1.00  0.00    -0.002 C 
ATOM     18  C   UNL A   1      33.925  22.470  27.993  1.00  0.00     0.009 C 
ATOM     19  C   UNL A   1      32.283  23.984  26.938  1.00  0.00     0.009 C 
ENDBRANCH  16  17
ENDBRANCH  15  16
BRANCH  15  20
ATOM     20  C   UNL A   1      34.817  22.300  24.220  1.00  0.00     0.073 C 
ATOM     21  C   UNL A   1      35.967  23.143  24.763  1.00  0.00     0.020 C 
ATOM     22  C   UNL A   1      35.140  20.946  24.886  1.00  0.00     0.020 C 
ATOM     23  C   UNL A   1      37.188  22.239  24.688  1.00  0.00     0.002 C 
ATOM     24  C   UNL A   1      36.660  20.836  24.926  1.00  0.00     0.002 C 
ENDBRANCH  15  20
ENDBRANCH  12  15
ENDBRANCH   7  12
ENDBRANCH   4   6
ENDBRANCH   3   4
ENDBRANCH   2   3
ENDBRANCH   1   2
BRANCH   1  25
ATOM     25  O   UNL A   1      31.274  29.867  25.361  1.00  0.00    -0.374 OA
BRANCH  25  26
ATOM     26  C   UNL A   1      32.663  29.750  25.681  1.00  0.00     0.202 C 
BRANCH  26  27
ATOM     27  C   UNL A   1      32.966  29.939  27.170  1.00  0.00     0.261 C 
BRANCH  27  28
ATOM     28  O   UNL A   1      34.312  29.536  27.472  1.00  0.00    -0.460 OA
BRANCH  28  29
ATOM     29  C   UNL A   1      35.042  30.441  28.166  1.00  0.00     0.338 C 
ATOM     30  O   UNL A   1      34.633  31.456  28.705  1.00  0.00    -0.246 OA
BRANCH  29  31
ATOM     31  C   UNL A   1      36.432  29.957  28.312  1.00  0.00     0.060 A 
ATOM     32  C   UNL A   1      36.804  29.423  29.550  1.00  0.00     0.016 A 
ATOM     33  C   UNL A   1      37.368  30.043  27.276  1.00  0.00     0.016 A 
ATOM     34  C   UNL A   1      38.118  29.009  29.766  1.00  0.00     0.010 A 
ATOM     35  C   UNL A   1      38.683  29.615  27.492  1.00  0.00     0.010 A 
ATOM     36  C   UNL A   1      39.075  29.122  28.748  1.00  0.00    -0.014 A 
BRANCH  36  37
ATOM     37  C   UNL A   1      40.498  28.828  29.054  1.00  0.00     0.031 A 
ATOM     38  C   UNL A   1      41.071  27.485  28.689  1.00  0.00     0.074 A 
ATOM     39  C   UNL A   1      41.290  29.774  29.596  1.00  0.00     0.049 A 
ATOM     40  N   UNL A   1      42.308  27.064  28.768  1.00  0.00    -0.248 NA
ATOM     41  C   UNL A   1      40.126  26.480  28.177  1.00  0.00     0.031 C 
ATOM     42  C   UNL A   1      40.854  31.105  30.016  1.00  0.00     0.029 A 
ATOM     43  N   UNL A   1      42.635  29.759  29.871  1.00  0.00    -0.354 N 
ATOM     44  C   UNL A   1      42.291  25.752  28.310  1.00  0.00     0.074 A 
ATOM     45  C   UNL A   1      40.914  25.429  28.004  1.00  0.00     0.031 C 
ATOM     46  C   UNL A   1      41.917  31.788  30.475  1.00  0.00     0.029 A 
ATOM     47  C   UNL A   1      43.106  30.943  30.387  1.00  0.00     0.049 A 
ATOM     48  H   UNL A   1      43.209  28.975  29.713  1.00  0.00     0.167 HD
ATOM     49  C   UNL A   1      43.329  24.898  28.135  1.00  0.00     0.037 A 
ATOM     50  C   UNL A   1      44.355  31.307  30.735  1.00  0.00     0.037 A 
ATOM     51  C   UNL A   1      44.701  25.220  28.425  1.00  0.00     0.049 A 
ATOM     52  C   UNL A   1      45.495  30.345  30.523  1.00  0.00     0.074 A 
ATOM     53  C   UNL A   1      45.827  24.432  28.252  1.00  0.00     0.029 A 
ATOM     54  N   UNL A   1      45.136  26.428  28.949  1.00  0.00    -0.354 N 
ATOM     55  N   UNL A   1      45.468  29.126  30.039  1.00  0.00    -0.248 NA
ATOM     56  C   UNL A   1      46.839  30.818  30.889  1.00  0.00     0.031 C 
ATOM     57  C   UNL A   1      46.940  25.154  28.700  1.00  0.00     0.029 A 
ATOM     58  C   UNL A   1      46.511  26.404  29.117  1.00  0.00     0.049 A 
ATOM     59  H   UNL A   1      44.553  27.190  29.169  1.00  0.00     0.167 HD
ATOM     60  C   UNL A   1      46.790  28.694  30.024  1.00  0.00     0.074 A 
ATOM     61  C   UNL A   1      47.593  29.789  30.530  1.00  0.00     0.031 C 
ATOM     62  C   UNL A   1      47.296  27.500  29.626  1.00  0.00     0.037 A 
BRANCH  49  63
ATOM     63  C   UNL A   1      43.010  23.530  27.603  1.00  0.00     0.058 A 
ATOM     64  C   UNL A   1      42.540  22.507  28.443  1.00  0.00     0.135 A 
ATOM     65  C   UNL A   1      43.164  23.239  26.238  1.00  0.00     0.135 A 
ATOM     66  F   UNL A   1      42.394  22.728  29.759  1.00  0.00    -0.206 F 
ATOM     67  C   UNL A   1      42.262  21.235  27.954  1.00  0.00     0.059 A 
ATOM     68  C   UNL A   1      42.869  21.980  25.723  1.00  0.00     0.059 A 
ATOM     69  F   UNL A   1      43.613  24.180  25.393  1.00  0.00    -0.206 F 
ATOM     70  C   UNL A   1      42.435  20.980  26.592  1.00  0.00     0.060 A 
BRANCH  70  71
ATOM     71  S   UNL A   1      42.076  19.323  25.970  1.00  0.00     0.124 S 
ATOM     72  O   UNL A   1      40.631  19.390  25.784  1.00  0.00    -0.237 OA
ATOM     73  O   UNL A   1      42.870  19.268  24.747  1.00  0.00    -0.237 OA
ATOM     74  O   UNL A   1      42.532  18.451  27.048  1.00  0.00    -0.744 OA
ENDBRANCH  70  71
ENDBRANCH  49  63
BRANCH  50  75
ATOM     75  C   UNL A   1      44.605  32.662  31.295  1.00  0.00     0.058 A 
ATOM     76  C   UNL A   1      44.566  32.893  32.678  1.00  0.00     0.135 A 
ATOM     77  C   UNL A   1      44.885  33.750  30.456  1.00  0.00     0.135 A 
ATOM     78  F   UNL A   1      44.292  31.884  33.520  1.00  0.00    -0.206 F 
ATOM     79  C   UNL A   1      44.778  34.161  33.211  1.00  0.00     0.059 A 
ATOM     80  C   UNL A   1      45.121  35.023  30.966  1.00  0.00     0.059 A 
ATOM     81  F   UNL A   1      44.945  33.577  29.126  1.00  0.00    -0.206 F 
ATOM     82  C   UNL A   1      45.055  35.220  32.345  1.00  0.00     0.060 A 
BRANCH  82  83
ATOM     83  S   UNL A   1      45.378  36.854  33.043  1.00  0.00     0.124 S 
ATOM     84  O   UNL A   1      45.232  36.598  34.472  1.00  0.00    -0.237 OA
ATOM     85  O   UNL A   1      46.735  37.127  32.578  1.00  0.00    -0.237 OA
ATOM     86  O   UNL A   1      44.341  37.686  32.440  1.00  0.00    -0.744 OA
ENDBRANCH  82  83
ENDBRANCH  50  75
BRANCH  62  87
ATOM     87  C   UNL A   1      48.787  27.327  29.706  1.00  0.00     0.058 A 
ATOM     88  C   UNL A   1      49.408  26.816  30.855  1.00  0.00     0.135 A 
ATOM     89  C   UNL A   1      49.604  27.670  28.616  1.00  0.00     0.135 A 
ATOM     90  F   UNL A   1      48.673  26.475  31.925  1.00  0.00    -0.206 F 
ATOM     91  C   UNL A   1      50.792  26.688  30.938  1.00  0.00     0.059 A 
ATOM     92  C   UNL A   1      50.986  27.528  28.668  1.00  0.00     0.059 A 
ATOM     93  F   UNL A   1      49.058  28.150  27.487  1.00  0.00    -0.206 F 
ATOM     94  C   UNL A   1      51.573  27.056  29.842  1.00  0.00     0.060 A 
BRANCH  94  95
ATOM     95  S   UNL A   1      53.368  26.897  29.959  1.00  0.00     0.124 S 
ATOM     96  O   UNL A   1      53.709  26.446  28.614  1.00  0.00    -0.237 OA
ATOM     97  O   UNL A   1      53.785  28.254  30.297  1.00  0.00    -0.237 OA
ATOM     98  O   UNL A   1      53.551  25.910  31.020  1.00  0.00    -0.744 OA
ENDBRANCH  94  95
ENDBRANCH  62  87
ENDBRANCH  36  37
ENDBRANCH  29  31
ENDBRANCH  28  29
ENDBRANCH  27  28
ENDBRANCH  26  27
ENDBRANCH  25  26
ENDBRANCH   1  25
TORSDOF 22
ENDMDL
MODEL 3
REMARK VINA RESULT:     -10.0      5.861      8.267
REMARK SMILES CC(C)CN(C1CCCC1)S(=O)(=O)c1[nH]ncc1C(=O)OCCOCCOC(=O)c1ccc(-c2c3nc(c(-c4c(F)cc(S(=O)(=O)[O-])cc4F)c4ccc([nH]4)c(-c4c(F)cc(S(=O)(=O)[O-])cc4F)c4nc(c(-c5c(F)cc(S(=O)(=O)[O-])cc5F)c5ccc2[nH]5)C=C4)C=C3)cc1
REMARK SMILES IDX 23 1 22 2 21 3 19 4 20 5 18 6 14 7 15 8 16 9 17 11 11 12
REMARK SMILES IDX 12 13 13 14 5 15 4 16 2 17 1 18 3 19 6 20 7 21 10 22 8 23
REMARK SMILES IDX 9 24 24 25 25 26 26 27 27 28 28 29 29 30 30 31 31 32 95 33
REMARK SMILES IDX 32 34 94 35 33 36 34 37 35 38 88 39 36 40 93 41 87 42 89 43
REMARK SMILES IDX 37 44 92 45 86 46 85 47 38 49 72 50 51 51 71 52 52 53 55 54
REMARK SMILES IDX 70 55 90 56 53 57 54 58 69 60 91 61 56 62 39 63 40 64 49 65
REMARK SMILES IDX 41 66 42 67 48 68 50 69 43 70 44 71 45 72 46 73 47 74 73 75
REMARK SMILES IDX 74 76 83 77 75 78 76 79 82 80 84 81 77 82 78 83 79 84 80 85
REMARK SMILES IDX 81 86 57 87 58 88 67 89 59 90 60 91 66 92 68 93 61 94 62 95
REMARK SMILES IDX 63 96 64 97 65 98
REMARK H PARENT 15 10 89 48 55 59
REMARK Flexibility Score: inf
ROOT
ATOM      1  C   UNL A   1      39.372  21.996  26.305  1.00  0.00     0.202 C 
ENDROOT
BRANCH   1   2
ATOM      2  C   UNL A   1      38.145  21.538  25.511  1.00  0.00     0.261 C 
BRANCH   2   3
ATOM      3  O   UNL A   1      37.064  22.440  25.796  1.00  0.00    -0.460 OA
BRANCH   3   4
ATOM      4  C   UNL A   1      35.797  22.019  25.568  1.00  0.00     0.342 C 
ATOM      5  O   UNL A   1      35.191  21.199  26.246  1.00  0.00    -0.246 OA
BRANCH   4   6
ATOM      6  C   UNL A   1      35.155  22.795  24.524  1.00  0.00     0.118 A 
ATOM      7  C   UNL A   1      33.962  23.508  24.587  1.00  0.00     0.180 A 
ATOM      8  N   UNL A   1      33.644  23.769  23.286  1.00  0.00    -0.265 N 
ATOM      9  N   UNL A   1      34.642  23.512  22.420  1.00  0.00    -0.182 NA
ATOM     10  H   UNL A   1      32.766  24.113  23.007  1.00  0.00     0.191 HD
ATOM     11  C   UNL A   1      35.555  22.898  23.177  1.00  0.00     0.152 A 
BRANCH   7  12
ATOM     12  S   UNL A   1      32.845  23.857  25.888  1.00  0.00     0.261 S 
ATOM     13  O   UNL A   1      33.661  23.853  27.081  1.00  0.00    -0.205 OA
ATOM     14  O   UNL A   1      31.830  22.866  25.626  1.00  0.00    -0.205 OA
BRANCH  12  15
ATOM     15  N   UNL A   1      32.101  25.429  25.800  1.00  0.00    -0.193 NA
BRANCH  15  16
ATOM     16  C   UNL A   1      33.205  26.490  25.555  1.00  0.00     0.106 C 
BRANCH  16  17
ATOM     17  C   UNL A   1      33.355  27.599  26.612  1.00  0.00    -0.002 C 
ATOM     18  C   UNL A   1      33.778  28.952  26.029  1.00  0.00     0.009 C 
ATOM     19  C   UNL A   1      31.995  27.814  27.305  1.00  0.00     0.009 C 
ENDBRANCH  16  17
ENDBRANCH  15  16
BRANCH  15  20
ATOM     20  C   UNL A   1      31.064  25.585  24.684  1.00  0.00     0.073 C 
ATOM     21  C   UNL A   1      29.688  26.036  25.165  1.00  0.00     0.020 C 
ATOM     22  C   UNL A   1      31.409  26.749  23.732  1.00  0.00     0.020 C 
ATOM     23  C   UNL A   1      28.993  26.573  23.923  1.00  0.00     0.002 C 
ATOM     24  C   UNL A   1      30.100  27.173  23.075  1.00  0.00     0.002 C 
ENDBRANCH  15  20
ENDBRANCH  12  15
ENDBRANCH   7  12
ENDBRANCH   4   6
ENDBRANCH   3   4
ENDBRANCH   2   3
ENDBRANCH   1   2
BRANCH   1  25
ATOM     25  O   UNL A   1      40.593  21.509  25.731  1.00  0.00    -0.374 OA
BRANCH  25  26
ATOM     26  C   UNL A   1      41.773  21.812  26.480  1.00  0.00     0.202 C 
BRANCH  26  27
ATOM     27  C   UNL A   1      42.600  22.953  25.884  1.00  0.00     0.261 C 
BRANCH  27  28
ATOM     28  O   UNL A   1      41.911  24.207  26.017  1.00  0.00    -0.460 OA
BRANCH  28  29
ATOM     29  C   UNL A   1      42.708  25.289  26.182  1.00  0.00     0.338 C 
ATOM     30  O   UNL A   1      43.674  25.598  25.504  1.00  0.00    -0.246 OA
BRANCH  29  31
ATOM     31  C   UNL A   1      42.161  26.157  27.246  1.00  0.00     0.060 A 
ATOM     32  C   UNL A   1      42.797  27.382  27.473  1.00  0.00     0.016 A 
ATOM     33  C   UNL A   1      41.067  25.781  28.031  1.00  0.00     0.016 A 
ATOM     34  C   UNL A   1      42.365  28.214  28.505  1.00  0.00     0.010 A 
ATOM     35  C   UNL A   1      40.627  26.624  29.059  1.00  0.00     0.010 A 
ATOM     36  C   UNL A   1      41.292  27.833  29.322  1.00  0.00    -0.014 A 
BRANCH  36  37
ATOM     37  C   UNL A   1      40.958  28.657  30.511  1.00  0.00     0.031 A 
ATOM     38  C   UNL A   1      41.785  28.519  31.762  1.00  0.00     0.074 A 
ATOM     39  C   UNL A   1      39.966  29.566  30.457  1.00  0.00     0.049 A 
ATOM     40  N   UNL A   1      41.733  29.216  32.869  1.00  0.00    -0.248 NA
ATOM     41  C   UNL A   1      42.797  27.451  31.771  1.00  0.00     0.031 C 
ATOM     42  C   UNL A   1      39.077  29.782  29.316  1.00  0.00     0.029 A 
ATOM     43  N   UNL A   1      39.551  30.489  31.385  1.00  0.00    -0.354 N 
ATOM     44  C   UNL A   1      42.707  28.677  33.701  1.00  0.00     0.074 A 
ATOM     45  C   UNL A   1      43.299  27.563  32.993  1.00  0.00     0.031 C 
ATOM     46  C   UNL A   1      38.235  30.791  29.603  1.00  0.00     0.029 A 
ATOM     47  C   UNL A   1      38.520  31.287  30.948  1.00  0.00     0.049 A 
ATOM     48  H   UNL A   1      39.953  30.572  32.280  1.00  0.00     0.167 HD
ATOM     49  C   UNL A   1      43.094  29.085  34.934  1.00  0.00     0.037 A 
ATOM     50  C   UNL A   1      37.890  32.310  31.557  1.00  0.00     0.037 A 
ATOM     51  C   UNL A   1      42.518  30.201  35.637  1.00  0.00     0.049 A 
ATOM     52  C   UNL A   1      38.343  32.753  32.923  1.00  0.00     0.074 A 
ATOM     53  C   UNL A   1      42.863  30.711  36.877  1.00  0.00     0.029 A 
ATOM     54  N   UNL A   1      41.476  30.982  35.161  1.00  0.00    -0.354 N 
ATOM     55  N   UNL A   1      39.302  32.264  33.674  1.00  0.00    -0.248 NA
ATOM     56  C   UNL A   1      37.639  33.899  33.517  1.00  0.00     0.031 C 
ATOM     57  C   UNL A   1      42.008  31.782  37.164  1.00  0.00     0.029 A 
ATOM     58  C   UNL A   1      41.156  31.961  36.087  1.00  0.00     0.049 A 
ATOM     59  H   UNL A   1      41.029  30.857  34.293  1.00  0.00     0.167 HD
ATOM     60  C   UNL A   1      39.328  33.055  34.819  1.00  0.00     0.074 A 
ATOM     61  C   UNL A   1      38.302  34.064  34.653  1.00  0.00     0.031 C 
ATOM     62  C   UNL A   1      40.129  32.956  35.909  1.00  0.00     0.037 A 
BRANCH  49  63
ATOM     63  C   UNL A   1      44.197  28.312  35.598  1.00  0.00     0.058 A 
ATOM     64  C   UNL A   1      45.543  28.689  35.461  1.00  0.00     0.135 A 
ATOM     65  C   UNL A   1      43.909  27.189  36.389  1.00  0.00     0.135 A 
ATOM     66  F   UNL A   1      45.876  29.744  34.700  1.00  0.00    -0.206 F 
ATOM     67  C   UNL A   1      46.567  27.963  36.061  1.00  0.00     0.059 A 
ATOM     68  C   UNL A   1      44.915  26.461  37.018  1.00  0.00     0.059 A 
ATOM     69  F   UNL A   1      42.639  26.784  36.550  1.00  0.00    -0.206 F 
ATOM     70  C   UNL A   1      46.243  26.846  36.834  1.00  0.00     0.060 A 
BRANCH  70  71
ATOM     71  S   UNL A   1      47.580  25.907  37.602  1.00  0.00     0.124 S 
ATOM     72  O   UNL A   1      46.864  24.735  38.096  1.00  0.00    -0.237 OA
ATOM     73  O   UNL A   1      48.484  25.672  36.482  1.00  0.00    -0.237 OA
ATOM     74  O   UNL A   1      48.083  26.814  38.629  1.00  0.00    -0.744 OA
ENDBRANCH  70  71
ENDBRANCH  49  63
BRANCH  50  75
ATOM     75  C   UNL A   1      36.777  33.014  30.866  1.00  0.00     0.058 A 
ATOM     76  C   UNL A   1      35.444  32.821  31.258  1.00  0.00     0.135 A 
ATOM     77  C   UNL A   1      37.027  33.888  29.799  1.00  0.00     0.135 A 
ATOM     78  F   UNL A   1      35.156  31.985  32.268  1.00  0.00    -0.206 F 
ATOM     79  C   UNL A   1      34.393  33.458  30.605  1.00  0.00     0.059 A 
ATOM     80  C   UNL A   1      35.995  34.554  29.144  1.00  0.00     0.059 A 
ATOM     81  F   UNL A   1      38.286  34.115  29.395  1.00  0.00    -0.206 F 
ATOM     82  C   UNL A   1      34.680  34.323  29.548  1.00  0.00     0.060 A 
BRANCH  82  83
ATOM     83  S   UNL A   1      33.318  35.187  28.736  1.00  0.00     0.124 S 
ATOM     84  O   UNL A   1      34.023  36.254  28.034  1.00  0.00    -0.237 OA
ATOM     85  O   UNL A   1      32.744  34.140  27.895  1.00  0.00    -0.237 OA
ATOM     86  O   UNL A   1      32.478  35.611  29.853  1.00  0.00    -0.744 OA
ENDBRANCH  82  83
ENDBRANCH  50  75
BRANCH  62  87
ATOM     87  C   UNL A   1      39.938  33.979  36.994  1.00  0.00     0.058 A 
ATOM     88  C   UNL A   1      39.089  33.743  38.086  1.00  0.00     0.135 A 
ATOM     89  C   UNL A   1      40.618  35.207  36.945  1.00  0.00     0.135 A 
ATOM     90  F   UNL A   1      38.414  32.587  38.179  1.00  0.00    -0.206 F 
ATOM     91  C   UNL A   1      38.887  34.705  39.072  1.00  0.00     0.059 A 
ATOM     92  C   UNL A   1      40.451  36.173  37.932  1.00  0.00     0.059 A 
ATOM     93  F   UNL A   1      41.453  35.477  35.929  1.00  0.00    -0.206 F 
ATOM     94  C   UNL A   1      39.566  35.921  38.980  1.00  0.00     0.060 A 
BRANCH  94  95
ATOM     95  S   UNL A   1      39.295  37.169  40.257  1.00  0.00     0.124 S 
ATOM     96  O   UNL A   1      38.577  38.197  39.512  1.00  0.00    -0.237 OA
ATOM     97  O   UNL A   1      38.511  36.441  41.250  1.00  0.00    -0.237 OA
ATOM     98  O   UNL A   1      40.649  37.523  40.675  1.00  0.00    -0.744 OA
ENDBRANCH  94  95
ENDBRANCH  62  87
ENDBRANCH  36  37
ENDBRANCH  29  31
ENDBRANCH  28  29
ENDBRANCH  27  28
ENDBRANCH  26  27
ENDBRANCH  25  26
ENDBRANCH   1  25
TORSDOF 22
ENDMDL
