MODEL 1
REMARK VINA RESULT:     -11.0      0.000      0.000
REMARK SMILES Cc1ccc(O)c(C(=O)[C@@H]2[C@@H](C(=O)OCCOCCOC(=O)c3ccc(-c4c5nc(c(-c6c(F)cc(S(=O)(=O)[O-])cc6F)c6ccc([nH]6)c(-c6c(F)cc(S(=O)(=O)[O-])cc6F)c6nc(c(-c7c(F)cc(S(=O)(=O)[O-])cc7F)c7ccc4[nH]7)C=C6)C=C5)cc3)[C@H]3C=C[C@@H]2C3)c1
REMARK SMILES IDX 17 1 16 2 15 3 14 4 12 5 13 6 11 7 10 8 92 9 89 10 91 11
REMARK SMILES IDX 93 12 90 13 8 14 9 15 7 16 1 17 2 18 3 19 94 20 4 21 5 22
REMARK SMILES IDX 6 23 18 25 19 26 20 27 21 28 22 29 23 30 24 31 88 32 25 33
REMARK SMILES IDX 87 34 26 35 27 36 28 37 81 38 29 39 86 40 80 41 82 42 30 43
REMARK SMILES IDX 85 44 79 45 78 46 31 48 65 49 44 50 64 51 45 52 48 53 63 54
REMARK SMILES IDX 83 55 46 56 47 57 62 59 84 60 49 61 32 62 33 63 42 64 34 65
REMARK SMILES IDX 35 66 41 67 43 68 36 69 37 70 38 71 39 72 40 73 66 74 67 75
REMARK SMILES IDX 76 76 68 77 69 78 75 79 77 80 70 81 71 82 72 83 73 84 74 85
REMARK SMILES IDX 50 86 51 87 60 88 52 89 53 90 59 91 61 92 54 93 55 94 56 95
REMARK SMILES IDX 57 96 58 97
REMARK H PARENT 6 24 82 47 48 58
REMARK Flexibility Score: inf
ROOT
ATOM      1  O   UNL A   1      31.372  29.246  25.734  1.00  0.00    -0.374 OA
ENDROOT
BRANCH   1   2
ATOM      2  C   UNL A   1      31.917  28.007  26.190  1.00  0.00     0.202 C 
BRANCH   2   3
ATOM      3  C   UNL A   1      33.148  27.484  25.448  1.00  0.00     0.261 C 
BRANCH   3   4
ATOM      4  O   UNL A   1      33.809  26.460  26.206  1.00  0.00    -0.463 OA
BRANCH   4   5
ATOM      5  C   UNL A   1      33.567  25.189  25.814  1.00  0.00     0.310 C 
ATOM      6  O   UNL A   1      32.675  24.471  26.253  1.00  0.00    -0.252 OA
BRANCH   5   7
ATOM      7  C   UNL A   1      34.506  24.699  24.737  1.00  0.00     0.117 C 
ATOM      8  C   UNL A   1      33.831  23.654  23.830  1.00  0.00     0.083 C 
ATOM      9  C   UNL A   1      34.948  22.590  23.635  1.00  0.00     0.024 C 
ATOM     10  C   UNL A   1      35.840  24.004  25.134  1.00  0.00     0.027 C 
ATOM     11  C   UNL A   1      35.064  21.848  24.959  1.00  0.00    -0.027 C 
ATOM     12  C   UNL A   1      36.257  23.370  23.797  1.00  0.00     0.017 C 
ATOM     13  C   UNL A   1      35.596  22.700  25.851  1.00  0.00    -0.027 C 
BRANCH   8  14
ATOM     14  C   UNL A   1      33.100  24.237  22.618  1.00  0.00     0.171 C 
ATOM     15  O   UNL A   1      33.362  23.786  21.494  1.00  0.00    -0.294 OA
BRANCH  14  16
ATOM     16  C   UNL A   1      32.091  25.340  22.659  1.00  0.00     0.060 A 
ATOM     17  C   UNL A   1      28.762  26.193  24.301  1.00  0.00     0.044 C 
ATOM     18  C   UNL A   1      29.999  26.326  23.463  1.00  0.00    -0.050 A 
ATOM     19  C   UNL A   1      30.323  27.530  22.842  1.00  0.00     0.007 A 
ATOM     20  C   UNL A   1      30.856  25.228  23.299  1.00  0.00     0.019 A 
ATOM     21  C   UNL A   1      31.492  27.632  22.090  1.00  0.00     0.047 A 
ATOM     22  C   UNL A   1      32.369  26.550  22.007  1.00  0.00     0.126 A 
BRANCH  22  23
ATOM     23  O   UNL A   1      33.490  26.753  21.243  1.00  0.00    -0.507 OA
ATOM     24  H   UNL A   1      33.465  27.355  20.526  1.00  0.00     0.293 HD
ENDBRANCH  22  23
ENDBRANCH  14  16
ENDBRANCH   8  14
ENDBRANCH   5   7
ENDBRANCH   4   5
ENDBRANCH   3   4
ENDBRANCH   2   3
ENDBRANCH   1   2
BRANCH   1  25
ATOM     25  C   UNL A   1      32.150  30.426  25.927  1.00  0.00     0.202 C 
BRANCH  25  26
ATOM     26  C   UNL A   1      32.809  30.614  27.299  1.00  0.00     0.261 C 
BRANCH  26  27
ATOM     27  O   UNL A   1      34.196  30.977  27.189  1.00  0.00    -0.460 OA
BRANCH  27  28
ATOM     28  C   UNL A   1      34.815  31.236  28.365  1.00  0.00     0.338 C 
ATOM     29  O   UNL A   1      34.367  31.885  29.303  1.00  0.00    -0.246 OA
BRANCH  28  30
ATOM     30  C   UNL A   1      36.063  30.454  28.464  1.00  0.00     0.060 A 
ATOM     31  C   UNL A   1      36.420  29.952  29.724  1.00  0.00     0.016 A 
ATOM     32  C   UNL A   1      36.905  30.275  27.365  1.00  0.00     0.016 A 
ATOM     33  C   UNL A   1      37.651  29.326  29.906  1.00  0.00     0.010 A 
ATOM     34  C   UNL A   1      38.143  29.653  27.552  1.00  0.00     0.010 A 
ATOM     35  C   UNL A   1      38.540  29.217  28.830  1.00  0.00    -0.014 A 
BRANCH  35  36
ATOM     36  C   UNL A   1      39.955  28.836  29.067  1.00  0.00     0.031 A 
ATOM     37  C   UNL A   1      40.895  29.883  29.603  1.00  0.00     0.074 A 
ATOM     38  C   UNL A   1      40.401  27.594  28.807  1.00  0.00     0.049 A 
ATOM     39  N   UNL A   1      42.192  29.836  29.754  1.00  0.00    -0.248 NA
ATOM     40  C   UNL A   1      40.286  31.159  30.016  1.00  0.00     0.031 C 
ATOM     41  C   UNL A   1      39.577  26.479  28.347  1.00  0.00     0.029 A 
ATOM     42  N   UNL A   1      41.669  27.072  28.877  1.00  0.00    -0.354 N 
ATOM     43  C   UNL A   1      42.558  31.080  30.257  1.00  0.00     0.074 A 
ATOM     44  C   UNL A   1      41.349  31.867  30.366  1.00  0.00     0.031 C 
ATOM     45  C   UNL A   1      40.367  25.408  28.151  1.00  0.00     0.029 A 
ATOM     46  C   UNL A   1      41.755  25.775  28.428  1.00  0.00     0.049 A 
ATOM     47  H   UNL A   1      42.442  27.577  29.218  1.00  0.00     0.167 HD
ATOM     48  C   UNL A   1      43.791  31.523  30.597  1.00  0.00     0.037 A 
ATOM     49  C   UNL A   1      42.833  24.993  28.227  1.00  0.00     0.037 A 
ATOM     50  C   UNL A   1      44.986  30.729  30.494  1.00  0.00     0.049 A 
ATOM     51  C   UNL A   1      44.207  25.531  28.542  1.00  0.00     0.074 A 
ATOM     52  C   UNL A   1      46.283  31.082  30.821  1.00  0.00     0.029 A 
ATOM     53  N   UNL A   1      45.032  29.425  30.024  1.00  0.00    -0.354 N 
ATOM     54  N   UNL A   1      44.544  26.708  29.012  1.00  0.00    -0.248 NA
ATOM     55  C   UNL A   1      45.349  24.636  28.298  1.00  0.00     0.031 C 
ATOM     56  C   UNL A   1      47.121  30.010  30.501  1.00  0.00     0.029 A 
ATOM     57  C   UNL A   1      46.337  28.966  30.034  1.00  0.00     0.049 A 
ATOM     58  H   UNL A   1      44.251  28.903  29.728  1.00  0.00     0.167 HD
ATOM     59  C   UNL A   1      45.927  26.680  29.161  1.00  0.00     0.074 A 
ATOM     60  C   UNL A   1      46.368  25.371  28.724  1.00  0.00     0.031 C 
ATOM     61  C   UNL A   1      46.756  27.647  29.627  1.00  0.00     0.037 A 
BRANCH  48  62
ATOM     62  C   UNL A   1      43.916  32.942  31.080  1.00  0.00     0.058 A 
ATOM     63  C   UNL A   1      43.866  33.271  32.444  1.00  0.00     0.135 A 
ATOM     64  C   UNL A   1      44.124  33.986  30.163  1.00  0.00     0.135 A 
ATOM     65  F   UNL A   1      43.650  32.315  33.362  1.00  0.00    -0.206 F 
ATOM     66  C   UNL A   1      43.992  34.586  32.880  1.00  0.00     0.059 A 
ATOM     67  C   UNL A   1      44.282  35.305  30.579  1.00  0.00     0.059 A 
ATOM     68  F   UNL A   1      44.177  33.729  28.847  1.00  0.00    -0.206 F 
ATOM     69  C   UNL A   1      44.200  35.596  31.939  1.00  0.00     0.060 A 
BRANCH  69  70
ATOM     70  S   UNL A   1      44.365  37.297  32.521  1.00  0.00     0.124 S 
ATOM     71  O   UNL A   1      44.212  38.045  31.276  1.00  0.00    -0.237 OA
ATOM     72  O   UNL A   1      43.259  37.411  33.467  1.00  0.00    -0.237 OA
ATOM     73  O   UNL A   1      45.698  37.328  33.111  1.00  0.00    -0.744 OA
ENDBRANCH  69  70
ENDBRANCH  48  62
BRANCH  49  74
ATOM     74  C   UNL A   1      42.663  23.619  27.680  1.00  0.00     0.058 A 
ATOM     75  C   UNL A   1      42.519  22.512  28.528  1.00  0.00     0.135 A 
ATOM     76  C   UNL A   1      42.642  23.387  26.294  1.00  0.00     0.135 A 
ATOM     77  F   UNL A   1      42.545  22.681  29.858  1.00  0.00    -0.206 F 
ATOM     78  C   UNL A   1      42.372  21.223  28.026  1.00  0.00     0.059 A 
ATOM     79  C   UNL A   1      42.470  22.110  25.768  1.00  0.00     0.059 A 
ATOM     80  F   UNL A   1      42.768  24.412  25.437  1.00  0.00    -0.206 F 
ATOM     81  C   UNL A   1      42.346  21.033  26.643  1.00  0.00     0.060 A 
BRANCH  81  82
ATOM     82  S   UNL A   1      42.111  19.360  26.005  1.00  0.00     0.124 S 
ATOM     83  O   UNL A   1      42.946  19.382  24.810  1.00  0.00    -0.237 OA
ATOM     84  O   UNL A   1      42.598  18.540  27.111  1.00  0.00    -0.237 OA
ATOM     85  O   UNL A   1      40.672  19.290  25.769  1.00  0.00    -0.744 OA
ENDBRANCH  81  82
ENDBRANCH  49  74
BRANCH  61  86
ATOM     86  C   UNL A   1      48.220  27.323  29.764  1.00  0.00     0.058 A 
ATOM     87  C   UNL A   1      49.131  27.543  28.722  1.00  0.00     0.135 A 
ATOM     88  C   UNL A   1      48.727  26.890  31.001  1.00  0.00     0.135 A 
ATOM     89  F   UNL A   1      48.698  27.950  27.518  1.00  0.00    -0.206 F 
ATOM     90  C   UNL A   1      50.497  27.344  28.900  1.00  0.00     0.059 A 
ATOM     91  C   UNL A   1      50.091  26.711  31.209  1.00  0.00     0.059 A 
ATOM     92  F   UNL A   1      47.898  26.674  32.033  1.00  0.00    -0.206 F 
ATOM     93  C   UNL A   1      50.969  26.939  30.151  1.00  0.00     0.060 A 
BRANCH  93  94
ATOM     94  S   UNL A   1      52.750  26.763  30.391  1.00  0.00     0.124 S 
ATOM     95  O   UNL A   1      53.212  26.543  29.024  1.00  0.00    -0.237 OA
ATOM     96  O   UNL A   1      53.112  28.047  30.983  1.00  0.00    -0.237 OA
ATOM     97  O   UNL A   1      52.863  25.614  31.284  1.00  0.00    -0.744 OA
ENDBRANCH  93  94
ENDBRANCH  61  86
ENDBRANCH  35  36
ENDBRANCH  28  30
ENDBRANCH  27  28
ENDBRANCH  26  27
ENDBRANCH  25  26
ENDBRANCH   1  25
TORSDOF 20
ENDMDL
MODEL 2
REMARK VINA RESULT:     -10.5      3.329      9.332
REMARK SMILES Cc1ccc(O)c(C(=O)[C@@H]2[C@@H](C(=O)OCCOCCOC(=O)c3ccc(-c4c5nc(c(-c6c(F)cc(S(=O)(=O)[O-])cc6F)c6ccc([nH]6)c(-c6c(F)cc(S(=O)(=O)[O-])cc6F)c6nc(c(-c7c(F)cc(S(=O)(=O)[O-])cc7F)c7ccc4[nH]7)C=C6)C=C5)cc3)[C@H]3C=C[C@@H]2C3)c1
REMARK SMILES IDX 17 1 16 2 15 3 14 4 12 5 13 6 11 7 10 8 92 9 89 10 91 11
REMARK SMILES IDX 93 12 90 13 8 14 9 15 7 16 1 17 2 18 3 19 94 20 4 21 5 22
REMARK SMILES IDX 6 23 18 25 19 26 20 27 21 28 22 29 23 30 24 31 88 32 25 33
REMARK SMILES IDX 87 34 26 35 27 36 28 37 81 38 29 39 86 40 80 41 82 42 30 43
REMARK SMILES IDX 85 44 79 45 78 46 31 48 65 49 44 50 64 51 45 52 48 53 63 54
REMARK SMILES IDX 83 55 46 56 47 57 62 59 84 60 49 61 32 62 33 63 42 64 34 65
REMARK SMILES IDX 35 66 41 67 43 68 36 69 37 70 38 71 39 72 40 73 66 74 67 75
REMARK SMILES IDX 76 76 68 77 69 78 75 79 77 80 70 81 71 82 72 83 73 84 74 85
REMARK SMILES IDX 50 86 51 87 60 88 52 89 53 90 59 91 61 92 54 93 55 94 56 95
REMARK SMILES IDX 57 96 58 97
REMARK H PARENT 6 24 82 47 48 58
REMARK Flexibility Score: inf
ROOT
ATOM      1  O   UNL A   1      35.714  20.883  25.750  1.00  0.00    -0.374 OA
ENDROOT
BRANCH   1   2
ATOM      2  C   UNL A   1      35.362  21.832  26.757  1.00  0.00     0.202 C 
BRANCH   2   3
ATOM      3  C   UNL A   1      34.041  21.598  27.491  1.00  0.00     0.261 C 
BRANCH   3   4
ATOM      4  O   UNL A   1      32.922  21.803  26.615  1.00  0.00    -0.463 OA
BRANCH   4   5
ATOM      5  C   UNL A   1      32.360  23.032  26.658  1.00  0.00     0.310 C 
ATOM      6  O   UNL A   1      31.839  23.537  27.647  1.00  0.00    -0.252 OA
BRANCH   5   7
ATOM      7  C   UNL A   1      32.434  23.777  25.345  1.00  0.00     0.117 C 
ATOM      8  C   UNL A   1      31.042  23.938  24.707  1.00  0.00     0.083 C 
ATOM      9  C   UNL A   1      31.314  23.652  23.203  1.00  0.00     0.024 C 
ATOM     10  C   UNL A   1      33.286  23.201  24.178  1.00  0.00     0.027 C 
ATOM     11  C   UNL A   1      31.554  22.152  23.092  1.00  0.00    -0.027 C 
ATOM     12  C   UNL A   1      32.781  24.043  22.995  1.00  0.00     0.017 C 
ATOM     13  C   UNL A   1      32.733  21.890  23.679  1.00  0.00    -0.027 C 
BRANCH   8  14
ATOM     14  C   UNL A   1      30.289  25.202  25.128  1.00  0.00     0.171 C 
ATOM     15  O   UNL A   1      29.642  25.182  26.185  1.00  0.00    -0.294 OA
BRANCH  14  16
ATOM     16  C   UNL A   1      30.242  26.483  24.358  1.00  0.00     0.060 A 
ATOM     17  C   UNL A   1      32.588  29.127  22.939  1.00  0.00     0.044 C 
ATOM     18  C   UNL A   1      31.322  28.394  23.276  1.00  0.00    -0.050 A 
ATOM     19  C   UNL A   1      30.098  28.791  22.742  1.00  0.00     0.007 A 
ATOM     20  C   UNL A   1      31.360  27.288  24.134  1.00  0.00     0.019 A 
ATOM     21  C   UNL A   1      28.942  28.077  23.052  1.00  0.00     0.047 A 
ATOM     22  C   UNL A   1      29.016  26.931  23.845  1.00  0.00     0.126 A 
BRANCH  22  23
ATOM     23  O   UNL A   1      27.823  26.301  24.091  1.00  0.00    -0.507 OA
ATOM     24  H   UNL A   1      27.167  26.726  24.607  1.00  0.00     0.293 HD
ENDBRANCH  22  23
ENDBRANCH  14  16
ENDBRANCH   8  14
ENDBRANCH   5   7
ENDBRANCH   4   5
ENDBRANCH   3   4
ENDBRANCH   2   3
ENDBRANCH   1   2
BRANCH   1  25
ATOM     25  C   UNL A   1      36.743  21.240  24.830  1.00  0.00     0.202 C 
BRANCH  25  26
ATOM     26  C   UNL A   1      38.167  21.367  25.384  1.00  0.00     0.261 C 
BRANCH  26  27
ATOM     27  O   UNL A   1      38.583  22.739  25.502  1.00  0.00    -0.460 OA
BRANCH  27  28
ATOM     28  C   UNL A   1      39.730  22.932  26.196  1.00  0.00     0.338 C 
ATOM     29  O   UNL A   1      40.727  22.220  26.176  1.00  0.00    -0.246 OA
BRANCH  28  30
ATOM     30  C   UNL A   1      39.708  24.252  26.854  1.00  0.00     0.060 A 
ATOM     31  C   UNL A   1      40.471  25.280  26.280  1.00  0.00     0.016 A 
ATOM     32  C   UNL A   1      39.016  24.465  28.048  1.00  0.00     0.016 A 
ATOM     33  C   UNL A   1      40.599  26.506  26.931  1.00  0.00     0.010 A 
ATOM     34  C   UNL A   1      39.152  25.693  28.702  1.00  0.00     0.010 A 
ATOM     35  C   UNL A   1      39.978  26.701  28.170  1.00  0.00    -0.014 A 
BRANCH  35  36
ATOM     36  C   UNL A   1      40.344  27.867  29.012  1.00  0.00     0.031 A 
ATOM     37  C   UNL A   1      41.627  27.804  29.799  1.00  0.00     0.074 A 
ATOM     38  C   UNL A   1      39.557  28.955  29.085  1.00  0.00     0.049 A 
ATOM     39  N   UNL A   1      42.085  28.624  30.707  1.00  0.00    -0.248 NA
ATOM     40  C   UNL A   1      42.504  26.652  29.528  1.00  0.00     0.031 C 
ATOM     41  C   UNL A   1      38.327  29.162  28.325  1.00  0.00     0.029 A 
ATOM     42  N   UNL A   1      39.672  30.085  29.856  1.00  0.00    -0.354 N 
ATOM     43  C   UNL A   1      43.292  28.078  31.132  1.00  0.00     0.074 A 
ATOM     44  C   UNL A   1      43.483  26.847  30.399  1.00  0.00     0.031 C 
ATOM     45  C   UNL A   1      37.785  30.338  28.686  1.00  0.00     0.029 A 
ATOM     46  C   UNL A   1      38.605  30.944  29.734  1.00  0.00     0.049 A 
ATOM     47  H   UNL A   1      40.445  30.264  30.439  1.00  0.00     0.167 HD
ATOM     48  C   UNL A   1      44.160  28.563  32.051  1.00  0.00     0.037 A 
ATOM     49  C   UNL A   1      38.309  32.068  30.418  1.00  0.00     0.037 A 
ATOM     50  C   UNL A   1      43.965  29.794  32.769  1.00  0.00     0.049 A 
ATOM     51  C   UNL A   1      39.252  32.552  31.491  1.00  0.00     0.074 A 
ATOM     52  C   UNL A   1      44.789  30.378  33.714  1.00  0.00     0.029 A 
ATOM     53  N   UNL A   1      42.867  30.630  32.624  1.00  0.00    -0.354 N 
ATOM     54  N   UNL A   1      40.387  32.028  31.890  1.00  0.00    -0.248 NA
ATOM     55  C   UNL A   1      38.876  33.779  32.210  1.00  0.00     0.031 C 
ATOM     56  C   UNL A   1      44.166  31.539  34.179  1.00  0.00     0.029 A 
ATOM     57  C   UNL A   1      42.982  31.713  33.477  1.00  0.00     0.049 A 
ATOM     58  H   UNL A   1      42.116  30.474  32.006  1.00  0.00     0.167 HD
ATOM     59  C   UNL A   1      40.880  32.882  32.871  1.00  0.00     0.074 A 
ATOM     60  C   UNL A   1      39.917  33.954  33.013  1.00  0.00     0.031 C 
ATOM     61  C   UNL A   1      42.030  32.791  33.583  1.00  0.00     0.037 A 
BRANCH  48  62
ATOM     62  C   UNL A   1      45.383  27.743  32.358  1.00  0.00     0.058 A 
ATOM     63  C   UNL A   1      45.358  26.687  33.283  1.00  0.00     0.135 A 
ATOM     64  C   UNL A   1      46.592  27.998  31.689  1.00  0.00     0.135 A 
ATOM     65  F   UNL A   1      44.234  26.413  33.965  1.00  0.00    -0.206 F 
ATOM     66  C   UNL A   1      46.493  25.931  33.553  1.00  0.00     0.059 A 
ATOM     67  C   UNL A   1      47.732  27.235  31.921  1.00  0.00     0.059 A 
ATOM     68  F   UNL A   1      46.673  28.997  30.797  1.00  0.00    -0.206 F 
ATOM     69  C   UNL A   1      47.676  26.212  32.866  1.00  0.00     0.060 A 
BRANCH  69  70
ATOM     70  S   UNL A   1      49.140  25.219  33.225  1.00  0.00     0.124 S 
ATOM     71  O   UNL A   1      49.926  26.144  34.036  1.00  0.00    -0.237 OA
ATOM     72  O   UNL A   1      48.575  24.077  33.937  1.00  0.00    -0.237 OA
ATOM     73  O   UNL A   1      49.684  24.924  31.904  1.00  0.00    -0.744 OA
ENDBRANCH  69  70
ENDBRANCH  48  62
BRANCH  49  74
ATOM     74  C   UNL A   1      37.049  32.805  30.125  1.00  0.00     0.058 A 
ATOM     75  C   UNL A   1      36.976  33.726  29.071  1.00  0.00     0.135 A 
ATOM     76  C   UNL A   1      35.893  32.602  30.896  1.00  0.00     0.135 A 
ATOM     77  F   UNL A   1      38.057  33.964  28.313  1.00  0.00    -0.206 F 
ATOM     78  C   UNL A   1      35.808  34.430  28.797  1.00  0.00     0.059 A 
ATOM     79  C   UNL A   1      34.705  33.274  30.626  1.00  0.00     0.059 A 
ATOM     80  F   UNL A   1      35.906  31.726  31.913  1.00  0.00    -0.206 F 
ATOM     81  C   UNL A   1      34.675  34.194  29.579  1.00  0.00     0.060 A 
BRANCH  81  82
ATOM     82  S   UNL A   1      33.153  35.082  29.186  1.00  0.00     0.124 S 
ATOM     83  O   UNL A   1      33.671  36.362  28.719  1.00  0.00    -0.237 OA
ATOM     84  O   UNL A   1      32.554  34.225  28.167  1.00  0.00    -0.237 OA
ATOM     85  O   UNL A   1      32.445  35.114  30.462  1.00  0.00    -0.744 OA
ENDBRANCH  81  82
ENDBRANCH  49  74
BRANCH  61  86
ATOM     86  C   UNL A   1      42.367  33.907  34.536  1.00  0.00     0.058 A 
ATOM     87  C   UNL A   1      42.062  33.837  35.902  1.00  0.00     0.135 A 
ATOM     88  C   UNL A   1      43.105  35.014  34.083  1.00  0.00     0.135 A 
ATOM     89  F   UNL A   1      41.352  32.805  36.385  1.00  0.00    -0.206 F 
ATOM     90  C   UNL A   1      42.478  34.826  36.789  1.00  0.00     0.059 A 
ATOM     91  C   UNL A   1      43.555  36.000  34.956  1.00  0.00     0.059 A 
ATOM     92  F   UNL A   1      43.431  35.124  32.786  1.00  0.00    -0.206 F 
ATOM     93  C   UNL A   1      43.234  35.898  36.309  1.00  0.00     0.060 A 
BRANCH  93  94
ATOM     94  S   UNL A   1      43.836  37.130  37.482  1.00  0.00     0.124 S 
ATOM     95  O   UNL A   1      42.639  37.393  38.275  1.00  0.00    -0.237 OA
ATOM     96  O   UNL A   1      44.905  36.411  38.168  1.00  0.00    -0.237 OA
ATOM     97  O   UNL A   1      44.276  38.230  36.628  1.00  0.00    -0.744 OA
ENDBRANCH  93  94
ENDBRANCH  61  86
ENDBRANCH  35  36
ENDBRANCH  28  30
ENDBRANCH  27  28
ENDBRANCH  26  27
ENDBRANCH  25  26
ENDBRANCH   1  25
TORSDOF 20
ENDMDL
MODEL 3
REMARK VINA RESULT:     -10.4      3.288      9.442
REMARK SMILES Cc1ccc(O)c(C(=O)[C@@H]2[C@@H](C(=O)OCCOCCOC(=O)c3ccc(-c4c5nc(c(-c6c(F)cc(S(=O)(=O)[O-])cc6F)c6ccc([nH]6)c(-c6c(F)cc(S(=O)(=O)[O-])cc6F)c6nc(c(-c7c(F)cc(S(=O)(=O)[O-])cc7F)c7ccc4[nH]7)C=C6)C=C5)cc3)[C@H]3C=C[C@@H]2C3)c1
REMARK SMILES IDX 17 1 16 2 15 3 14 4 12 5 13 6 11 7 10 8 92 9 89 10 91 11
REMARK SMILES IDX 93 12 90 13 8 14 9 15 7 16 1 17 2 18 3 19 94 20 4 21 5 22
REMARK SMILES IDX 6 23 18 25 19 26 20 27 21 28 22 29 23 30 24 31 88 32 25 33
REMARK SMILES IDX 87 34 26 35 27 36 28 37 81 38 29 39 86 40 80 41 82 42 30 43
REMARK SMILES IDX 85 44 79 45 78 46 31 48 65 49 44 50 64 51 45 52 48 53 63 54
REMARK SMILES IDX 83 55 46 56 47 57 62 59 84 60 49 61 32 62 33 63 42 64 34 65
REMARK SMILES IDX 35 66 41 67 43 68 36 69 37 70 38 71 39 72 40 73 66 74 67 75
REMARK SMILES IDX 76 76 68 77 69 78 75 79 77 80 70 81 71 82 72 83 73 84 74 85
REMARK SMILES IDX 50 86 51 87 60 88 52 89 53 90 59 91 61 92 54 93 55 94 56 95
REMARK SMILES IDX 57 96 58 97
REMARK H PARENT 6 24 82 47 48 58
REMARK Flexibility Score: inf
ROOT
ATOM      1  O   UNL A   1      36.289  23.099  23.862  1.00  0.00    -0.374 OA
ENDROOT
BRANCH   1   2
ATOM      2  C   UNL A   1      34.962  23.588  24.055  1.00  0.00     0.202 C 
BRANCH   2   3
ATOM      3  C   UNL A   1      34.150  23.886  22.794  1.00  0.00     0.261 C 
BRANCH   3   4
ATOM      4  O   UNL A   1      34.091  25.298  22.541  1.00  0.00    -0.463 OA
BRANCH   4   5
ATOM      5  C   UNL A   1      32.945  25.914  22.910  1.00  0.00     0.310 C 
ATOM      6  O   UNL A   1      31.910  25.935  22.252  1.00  0.00    -0.252 OA
BRANCH   5   7
ATOM      7  C   UNL A   1      33.030  26.593  24.258  1.00  0.00     0.117 C 
ATOM      8  C   UNL A   1      31.632  26.867  24.842  1.00  0.00     0.083 C 
ATOM      9  C   UNL A   1      31.777  28.297  25.434  1.00  0.00     0.024 C 
ATOM     10  C   UNL A   1      33.735  27.974  24.382  1.00  0.00     0.027 C 
ATOM     11  C   UNL A   1      31.826  29.246  24.245  1.00  0.00    -0.027 C 
ATOM     12  C   UNL A   1      33.265  28.425  25.775  1.00  0.00     0.017 C 
ATOM     13  C   UNL A   1      32.998  29.046  23.619  1.00  0.00    -0.027 C 
BRANCH   8  14
ATOM     14  C   UNL A   1      31.064  25.731  25.697  1.00  0.00     0.171 C 
ATOM     15  O   UNL A   1      30.129  25.982  26.470  1.00  0.00    -0.294 OA
BRANCH  14  16
ATOM     16  C   UNL A   1      31.556  24.318  25.704  1.00  0.00     0.060 A 
ATOM     17  C   UNL A   1      33.676  21.973  27.826  1.00  0.00     0.044 C 
ATOM     18  C   UNL A   1      32.802  22.469  26.712  1.00  0.00    -0.050 A 
ATOM     19  C   UNL A   1      32.291  21.596  25.755  1.00  0.00     0.007 A 
ATOM     20  C   UNL A   1      32.483  23.831  26.626  1.00  0.00     0.019 A 
ATOM     21  C   UNL A   1      31.461  22.081  24.745  1.00  0.00     0.047 A 
ATOM     22  C   UNL A   1      31.092  23.426  24.726  1.00  0.00     0.126 A 
BRANCH  22  23
ATOM     23  O   UNL A   1      30.273  23.802  23.692  1.00  0.00    -0.507 OA
ATOM     24  H   UNL A   1      29.899  23.151  23.131  1.00  0.00     0.293 HD
ENDBRANCH  22  23
ENDBRANCH  14  16
ENDBRANCH   8  14
ENDBRANCH   5   7
ENDBRANCH   4   5
ENDBRANCH   3   4
ENDBRANCH   2   3
ENDBRANCH   1   2
BRANCH   1  25
ATOM     25  C   UNL A   1      37.196  23.186  24.959  1.00  0.00     0.202 C 
BRANCH  25  26
ATOM     26  C   UNL A   1      38.130  21.993  25.194  1.00  0.00     0.261 C 
BRANCH  26  27
ATOM     27  O   UNL A   1      38.854  22.105  26.431  1.00  0.00    -0.460 OA
BRANCH  27  28
ATOM     28  C   UNL A   1      40.074  22.682  26.330  1.00  0.00     0.338 C 
ATOM     29  O   UNL A   1      41.034  22.264  25.694  1.00  0.00    -0.246 OA
BRANCH  28  30
ATOM     30  C   UNL A   1      40.052  24.024  26.944  1.00  0.00     0.060 A 
ATOM     31  C   UNL A   1      41.002  24.958  26.506  1.00  0.00     0.016 A 
ATOM     32  C   UNL A   1      39.169  24.343  27.978  1.00  0.00     0.016 A 
ATOM     33  C   UNL A   1      41.118  26.192  27.142  1.00  0.00     0.010 A 
ATOM     34  C   UNL A   1      39.292  25.579  28.619  1.00  0.00     0.010 A 
ATOM     35  C   UNL A   1      40.295  26.489  28.235  1.00  0.00    -0.014 A 
BRANCH  35  36
ATOM     36  C   UNL A   1      40.602  27.650  29.107  1.00  0.00     0.031 A 
ATOM     37  C   UNL A   1      41.845  27.596  29.956  1.00  0.00     0.074 A 
ATOM     38  C   UNL A   1      39.797  28.727  29.151  1.00  0.00     0.049 A 
ATOM     39  N   UNL A   1      42.246  28.412  30.894  1.00  0.00    -0.248 NA
ATOM     40  C   UNL A   1      42.750  26.459  29.717  1.00  0.00     0.031 C 
ATOM     41  C   UNL A   1      38.604  28.925  28.333  1.00  0.00     0.029 A 
ATOM     42  N   UNL A   1      39.858  29.850  29.939  1.00  0.00    -0.354 N 
ATOM     43  C   UNL A   1      43.437  27.877  31.373  1.00  0.00     0.074 A 
ATOM     44  C   UNL A   1      43.682  26.657  30.637  1.00  0.00     0.031 C 
ATOM     45  C   UNL A   1      38.028  30.091  28.679  1.00  0.00     0.029 A 
ATOM     46  C   UNL A   1      38.787  30.696  29.773  1.00  0.00     0.049 A 
ATOM     47  H   UNL A   1      40.598  30.033  30.562  1.00  0.00     0.167 HD
ATOM     48  C   UNL A   1      44.251  28.363  32.340  1.00  0.00     0.037 A 
ATOM     49  C   UNL A   1      38.441  31.807  30.453  1.00  0.00     0.037 A 
ATOM     50  C   UNL A   1      44.004  29.584  33.060  1.00  0.00     0.049 A 
ATOM     51  C   UNL A   1      39.322  32.292  31.577  1.00  0.00     0.074 A 
ATOM     52  C   UNL A   1      44.772  30.167  34.051  1.00  0.00     0.029 A 
ATOM     53  N   UNL A   1      42.903  30.406  32.869  1.00  0.00    -0.354 N 
ATOM     54  N   UNL A   1      40.443  31.779  32.026  1.00  0.00    -0.248 NA
ATOM     55  C   UNL A   1      38.894  33.506  32.289  1.00  0.00     0.031 C 
ATOM     56  C   UNL A   1      44.109  31.315  34.497  1.00  0.00     0.029 A 
ATOM     57  C   UNL A   1      42.960  31.481  33.738  1.00  0.00     0.049 A 
ATOM     58  H   UNL A   1      42.186  30.247  32.213  1.00  0.00     0.167 HD
ATOM     59  C   UNL A   1      40.875  32.628  33.040  1.00  0.00     0.074 A 
ATOM     60  C   UNL A   1      39.891  33.686  33.145  1.00  0.00     0.031 C 
ATOM     61  C   UNL A   1      41.989  32.545  33.808  1.00  0.00     0.037 A 
BRANCH  48  62
ATOM     62  C   UNL A   1      45.469  27.557  32.699  1.00  0.00     0.058 A 
ATOM     63  C   UNL A   1      45.411  26.486  33.605  1.00  0.00     0.135 A 
ATOM     64  C   UNL A   1      46.707  27.839  32.099  1.00  0.00     0.135 A 
ATOM     65  F   UNL A   1      44.257  26.184  34.221  1.00  0.00    -0.206 F 
ATOM     66  C   UNL A   1      46.542  25.742  33.923  1.00  0.00     0.059 A 
ATOM     67  C   UNL A   1      47.845  27.090  32.380  1.00  0.00     0.059 A 
ATOM     68  F   UNL A   1      46.821  28.854  31.228  1.00  0.00    -0.206 F 
ATOM     69  C   UNL A   1      47.755  26.051  33.305  1.00  0.00     0.060 A 
BRANCH  69  70
ATOM     70  S   UNL A   1      49.213  25.073  33.726  1.00  0.00     0.124 S 
ATOM     71  O   UNL A   1      50.027  26.057  34.434  1.00  0.00    -0.237 OA
ATOM     72  O   UNL A   1      48.648  24.010  34.551  1.00  0.00    -0.237 OA
ATOM     73  O   UNL A   1      49.727  24.651  32.428  1.00  0.00    -0.744 OA
ENDBRANCH  69  70
ENDBRANCH  48  62
BRANCH  49  74
ATOM     74  C   UNL A   1      37.188  32.531  30.105  1.00  0.00     0.058 A 
ATOM     75  C   UNL A   1      37.185  33.563  29.157  1.00  0.00     0.135 A 
ATOM     76  C   UNL A   1      35.966  32.203  30.716  1.00  0.00     0.135 A 
ATOM     77  F   UNL A   1      38.329  33.922  28.555  1.00  0.00    -0.206 F 
ATOM     78  C   UNL A   1      36.021  34.255  28.834  1.00  0.00     0.059 A 
ATOM     79  C   UNL A   1      34.784  32.862  30.391  1.00  0.00     0.059 A 
ATOM     80  F   UNL A   1      35.911  31.217  31.626  1.00  0.00    -0.206 F 
ATOM     81  C   UNL A   1      34.824  33.894  29.455  1.00  0.00     0.060 A 
BRANCH  81  82
ATOM     82  S   UNL A   1      33.313  34.770  28.996  1.00  0.00     0.124 S 
ATOM     83  O   UNL A   1      32.749  33.875  27.993  1.00  0.00    -0.237 OA
ATOM     84  O   UNL A   1      32.600  34.835  30.269  1.00  0.00    -0.237 OA
ATOM     85  O   UNL A   1      33.807  36.049  28.496  1.00  0.00    -0.744 OA
ENDBRANCH  81  82
ENDBRANCH  49  74
BRANCH  61  86
ATOM     86  C   UNL A   1      42.262  33.655  34.788  1.00  0.00     0.058 A 
ATOM     87  C   UNL A   1      41.882  33.569  36.134  1.00  0.00     0.135 A 
ATOM     88  C   UNL A   1      43.016  34.771  34.387  1.00  0.00     0.135 A 
ATOM     89  F   UNL A   1      41.155  32.526  36.567  1.00  0.00    -0.206 F 
ATOM     90  C   UNL A   1      42.239  34.553  37.052  1.00  0.00     0.059 A 
ATOM     91  C   UNL A   1      43.407  35.753  35.293  1.00  0.00     0.059 A 
ATOM     92  F   UNL A   1      43.413  34.896  33.111  1.00  0.00    -0.206 F 
ATOM     93  C   UNL A   1      43.012  35.635  36.624  1.00  0.00     0.060 A 
BRANCH  93  94
ATOM     94  S   UNL A   1      43.536  36.861  37.841  1.00  0.00     0.124 S 
ATOM     95  O   UNL A   1      44.355  37.754  37.027  1.00  0.00    -0.237 OA
ATOM     96  O   UNL A   1      42.263  37.410  38.299  1.00  0.00    -0.237 OA
ATOM     97  O   UNL A   1      44.264  36.072  38.830  1.00  0.00    -0.744 OA
ENDBRANCH  93  94
ENDBRANCH  61  86
ENDBRANCH  35  36
ENDBRANCH  28  30
ENDBRANCH  27  28
ENDBRANCH  26  27
ENDBRANCH  25  26
ENDBRANCH   1  25
TORSDOF 20
ENDMDL
