MODEL 1
REMARK VINA RESULT:     -10.8      0.000      0.000
REMARK SMILES O=C(Cn1c(=O)n(Cc2cccnc2)c(=O)c2sccc21)OCCOCCOC(=O)c1ccc(-c2c3nc(c(-c4c(F)cc(S(=O)(=O)[O-])cc4F)c4ccc([nH]4)c(-c4c(F)cc(S(=O)(=O)[O-])cc4F)c4nc(c(-c5c(F)cc(S(=O)(=O)[O-])cc5F)c5ccc2[nH]5)C=C4)C=C3)cc1
REMARK SMILES IDX 25 1 24 2 23 3 22 4 2 5 1 6 3 7 4 8 5 9 21 10 6 11 7 12
REMARK SMILES IDX 17 13 20 14 15 15 18 16 19 17 16 18 8 19 9 20 10 21 14 22
REMARK SMILES IDX 11 23 13 24 12 25 26 26 27 27 28 28 29 29 30 30 31 31 32 32
REMARK SMILES IDX 96 33 33 34 95 35 34 36 35 37 36 38 89 39 37 40 94 41 88 42
REMARK SMILES IDX 90 43 38 44 93 45 87 46 86 47 39 49 73 50 52 51 72 52 53 53
REMARK SMILES IDX 56 54 71 55 91 56 54 57 55 58 70 60 92 61 57 62 40 63 41 64
REMARK SMILES IDX 50 65 42 66 43 67 49 68 51 69 44 70 45 71 46 72 47 73 48 74
REMARK SMILES IDX 74 75 75 76 84 77 76 78 77 79 83 80 85 81 78 82 79 83 80 84
REMARK SMILES IDX 81 85 82 86 58 87 59 88 68 89 60 90 61 91 67 92 69 93 62 94
REMARK SMILES IDX 63 95 64 96 65 97 66 98
REMARK H PARENT 90 48 56 59
REMARK Flexibility Score: inf
ROOT
ATOM      1  O   UNL A   1      33.032  32.131  27.271  1.00  0.00    -0.374 OA
ENDROOT
BRANCH   1   2
ATOM      2  C   UNL A   1      31.952  31.234  26.996  1.00  0.00     0.202 C 
BRANCH   2   3
ATOM      3  C   UNL A   1      32.333  29.927  26.316  1.00  0.00     0.261 C 
BRANCH   3   4
ATOM      4  O   UNL A   1      32.260  28.816  27.214  1.00  0.00    -0.462 OA
BRANCH   4   5
ATOM      5  C   UNL A   1      32.406  27.553  26.736  1.00  0.00     0.326 C 
ATOM      6  O   UNL A   1      31.535  26.720  26.972  1.00  0.00    -0.250 OA
BRANCH   5   7
ATOM      7  C   UNL A   1      33.705  27.200  26.000  1.00  0.00     0.250 C 
BRANCH   7   8
ATOM      8  N   UNL A   1      33.559  26.391  24.803  1.00  0.00    -0.281 N 
ATOM      9  C   UNL A   1      34.267  25.191  24.773  1.00  0.00     0.332 A 
ATOM     10  C   UNL A   1      32.764  26.777  23.716  1.00  0.00     0.070 A 
ATOM     11  O   UNL A   1      34.991  24.847  25.711  1.00  0.00    -0.247 OA
ATOM     12  N   UNL A   1      34.157  24.420  23.615  1.00  0.00    -0.254 N 
ATOM     13  C   UNL A   1      32.605  25.926  22.661  1.00  0.00     0.116 A 
ATOM     14  C   UNL A   1      32.099  28.010  23.441  1.00  0.00     0.039 A 
ATOM     15  C   UNL A   1      33.373  24.732  22.501  1.00  0.00     0.274 A 
ATOM     16  S   UNL A   1      31.400  26.414  21.570  1.00  0.00    -0.136 S 
ATOM     17  C   UNL A   1      31.217  27.906  22.384  1.00  0.00     0.068 A 
ATOM     18  O   UNL A   1      33.381  24.060  21.471  1.00  0.00    -0.268 OA
BRANCH  12  19
ATOM     19  C   UNL A   1      34.891  23.170  23.580  1.00  0.00     0.168 C 
BRANCH  19  20
ATOM     20  C   UNL A   1      34.059  22.059  24.165  1.00  0.00    -0.010 A 
ATOM     21  C   UNL A   1      33.003  21.487  23.451  1.00  0.00     0.009 A 
ATOM     22  C   UNL A   1      34.379  21.499  25.399  1.00  0.00     0.116 A 
ATOM     23  C   UNL A   1      32.325  20.398  23.989  1.00  0.00     0.020 A 
ATOM     24  N   UNL A   1      33.742  20.440  25.941  1.00  0.00    -0.264 NA
ATOM     25  C   UNL A   1      32.735  19.910  25.219  1.00  0.00     0.111 A 
ENDBRANCH  19  20
ENDBRANCH  12  19
ENDBRANCH   7   8
ENDBRANCH   5   7
ENDBRANCH   4   5
ENDBRANCH   3   4
ENDBRANCH   2   3
ENDBRANCH   1   2
BRANCH   1  26
ATOM     26  C   UNL A   1      34.066  31.631  28.135  1.00  0.00     0.202 C 
BRANCH  26  27
ATOM     27  C   UNL A   1      34.473  32.608  29.235  1.00  0.00     0.261 C 
BRANCH  27  28
ATOM     28  O   UNL A   1      34.673  31.893  30.437  1.00  0.00    -0.460 OA
BRANCH  28  29
ATOM     29  C   UNL A   1      35.952  31.913  30.905  1.00  0.00     0.338 C 
ATOM     30  O   UNL A   1      36.377  32.422  31.903  1.00  0.00    -0.246 OA
BRANCH  29  31
ATOM     31  C   UNL A   1      36.737  31.154  29.914  1.00  0.00     0.060 A 
ATOM     32  C   UNL A   1      36.659  29.771  30.002  1.00  0.00     0.016 A 
ATOM     33  C   UNL A   1      37.730  31.818  29.170  1.00  0.00     0.016 A 
ATOM     34  C   UNL A   1      37.797  29.076  29.692  1.00  0.00     0.010 A 
ATOM     35  C   UNL A   1      38.866  31.133  28.876  1.00  0.00     0.010 A 
ATOM     36  C   UNL A   1      38.917  29.811  29.291  1.00  0.00    -0.014 A 
BRANCH  36  37
ATOM     37  C   UNL A   1      40.209  29.197  29.397  1.00  0.00     0.031 A 
ATOM     38  C   UNL A   1      40.634  29.042  30.789  1.00  0.00     0.074 A 
ATOM     39  C   UNL A   1      40.854  28.733  28.313  1.00  0.00     0.049 A 
ATOM     40  N   UNL A   1      41.387  29.847  31.458  1.00  0.00    -0.248 NA
ATOM     41  C   UNL A   1      39.922  28.048  31.607  1.00  0.00     0.031 C 
ATOM     42  C   UNL A   1      40.363  28.556  26.943  1.00  0.00     0.029 A 
ATOM     43  N   UNL A   1      42.110  28.234  28.254  1.00  0.00    -0.354 N 
ATOM     44  C   UNL A   1      41.447  29.288  32.722  1.00  0.00     0.074 A 
ATOM     45  C   UNL A   1      40.317  28.403  32.829  1.00  0.00     0.031 C 
ATOM     46  C   UNL A   1      41.243  27.792  26.252  1.00  0.00     0.029 A 
ATOM     47  C   UNL A   1      42.406  27.542  27.087  1.00  0.00     0.049 A 
ATOM     48  H   UNL A   1      42.763  28.352  28.980  1.00  0.00     0.167 HD
ATOM     49  C   UNL A   1      42.589  29.331  33.456  1.00  0.00     0.037 A 
ATOM     50  C   UNL A   1      43.498  26.752  26.921  1.00  0.00     0.037 A 
ATOM     51  C   UNL A   1      43.542  30.257  32.895  1.00  0.00     0.049 A 
ATOM     52  C   UNL A   1      44.487  27.173  27.961  1.00  0.00     0.074 A 
ATOM     53  C   UNL A   1      43.533  31.615  32.642  1.00  0.00     0.029 A 
ATOM     54  N   UNL A   1      44.548  29.731  32.118  1.00  0.00    -0.354 N 
ATOM     55  N   UNL A   1      45.064  28.346  27.982  1.00  0.00    -0.248 NA
ATOM     56  C   UNL A   1      44.459  26.480  29.244  1.00  0.00     0.031 C 
ATOM     57  C   UNL A   1      44.230  31.772  31.409  1.00  0.00     0.029 A 
ATOM     58  C   UNL A   1      44.678  30.515  30.997  1.00  0.00     0.049 A 
ATOM     59  H   UNL A   1      45.083  28.931  32.328  1.00  0.00     0.167 HD
ATOM     60  C   UNL A   1      45.107  28.712  29.323  1.00  0.00     0.074 A 
ATOM     61  C   UNL A   1      44.788  27.489  30.057  1.00  0.00     0.031 C 
ATOM     62  C   UNL A   1      45.106  30.026  29.701  1.00  0.00     0.037 A 
BRANCH  49  63
ATOM     63  C   UNL A   1      42.968  28.266  34.443  1.00  0.00     0.058 A 
ATOM     64  C   UNL A   1      43.106  28.605  35.798  1.00  0.00     0.135 A 
ATOM     65  C   UNL A   1      43.418  26.975  34.080  1.00  0.00     0.135 A 
ATOM     66  F   UNL A   1      42.738  29.819  36.238  1.00  0.00    -0.206 F 
ATOM     67  C   UNL A   1      43.683  27.735  36.722  1.00  0.00     0.059 A 
ATOM     68  C   UNL A   1      43.927  26.067  34.994  1.00  0.00     0.059 A 
ATOM     69  F   UNL A   1      43.482  26.566  32.806  1.00  0.00    -0.206 F 
ATOM     70  C   UNL A   1      44.093  26.469  36.307  1.00  0.00     0.060 A 
BRANCH  70  71
ATOM     71  S   UNL A   1      44.918  25.378  37.473  1.00  0.00     0.124 S 
ATOM     72  O   UNL A   1      44.498  24.069  36.988  1.00  0.00    -0.237 OA
ATOM     73  O   UNL A   1      46.321  25.721  37.264  1.00  0.00    -0.237 OA
ATOM     74  O   UNL A   1      44.364  25.782  38.761  1.00  0.00    -0.744 OA
ENDBRANCH  70  71
ENDBRANCH  49  63
BRANCH  50  75
ATOM     75  C   UNL A   1      43.563  25.429  26.242  1.00  0.00     0.058 A 
ATOM     76  C   UNL A   1      44.545  25.165  25.270  1.00  0.00     0.135 A 
ATOM     77  C   UNL A   1      42.861  24.306  26.729  1.00  0.00     0.135 A 
ATOM     78  F   UNL A   1      45.275  26.170  24.761  1.00  0.00    -0.206 F 
ATOM     79  C   UNL A   1      44.857  23.866  24.854  1.00  0.00     0.059 A 
ATOM     80  C   UNL A   1      43.146  23.004  26.322  1.00  0.00     0.059 A 
ATOM     81  F   UNL A   1      41.936  24.428  27.693  1.00  0.00    -0.206 F 
ATOM     82  C   UNL A   1      44.167  22.787  25.406  1.00  0.00     0.060 A 
BRANCH  82  83
ATOM     83  S   UNL A   1      44.691  21.101  25.015  1.00  0.00     0.124 S 
ATOM     84  O   UNL A   1      43.714  20.303  25.747  1.00  0.00    -0.237 OA
ATOM     85  O   UNL A   1      44.575  21.076  23.560  1.00  0.00    -0.237 OA
ATOM     86  O   UNL A   1      46.056  21.042  25.529  1.00  0.00    -0.744 OA
ENDBRANCH  82  83
ENDBRANCH  50  75
BRANCH  62  87
ATOM     87  C   UNL A   1      45.352  31.070  28.637  1.00  0.00     0.058 A 
ATOM     88  C   UNL A   1      44.363  31.560  27.763  1.00  0.00     0.135 A 
ATOM     89  C   UNL A   1      46.594  31.719  28.622  1.00  0.00     0.135 A 
ATOM     90  F   UNL A   1      43.119  31.063  27.784  1.00  0.00    -0.206 F 
ATOM     91  C   UNL A   1      44.611  32.625  26.893  1.00  0.00     0.059 A 
ATOM     92  C   UNL A   1      46.854  32.802  27.786  1.00  0.00     0.059 A 
ATOM     93  F   UNL A   1      47.560  31.340  29.475  1.00  0.00    -0.206 F 
ATOM     94  C   UNL A   1      45.861  33.245  26.917  1.00  0.00     0.060 A 
BRANCH  94  95
ATOM     95  S   UNL A   1      46.151  34.678  25.856  1.00  0.00     0.124 S 
ATOM     96  O   UNL A   1      45.029  34.608  24.927  1.00  0.00    -0.237 OA
ATOM     97  O   UNL A   1      46.118  35.787  26.807  1.00  0.00    -0.237 OA
ATOM     98  O   UNL A   1      47.464  34.411  25.271  1.00  0.00    -0.744 OA
ENDBRANCH  94  95
ENDBRANCH  62  87
ENDBRANCH  36  37
ENDBRANCH  29  31
ENDBRANCH  28  29
ENDBRANCH  27  28
ENDBRANCH  26  27
ENDBRANCH   1  26
TORSDOF 20
ENDMDL
MODEL 2
REMARK VINA RESULT:     -10.7      4.563     12.140
REMARK SMILES O=C(Cn1c(=O)n(Cc2cccnc2)c(=O)c2sccc21)OCCOCCOC(=O)c1ccc(-c2c3nc(c(-c4c(F)cc(S(=O)(=O)[O-])cc4F)c4ccc([nH]4)c(-c4c(F)cc(S(=O)(=O)[O-])cc4F)c4nc(c(-c5c(F)cc(S(=O)(=O)[O-])cc5F)c5ccc2[nH]5)C=C4)C=C3)cc1
REMARK SMILES IDX 25 1 24 2 23 3 22 4 2 5 1 6 3 7 4 8 5 9 21 10 6 11 7 12
REMARK SMILES IDX 17 13 20 14 15 15 18 16 19 17 16 18 8 19 9 20 10 21 14 22
REMARK SMILES IDX 11 23 13 24 12 25 26 26 27 27 28 28 29 29 30 30 31 31 32 32
REMARK SMILES IDX 96 33 33 34 95 35 34 36 35 37 36 38 89 39 37 40 94 41 88 42
REMARK SMILES IDX 90 43 38 44 93 45 87 46 86 47 39 49 73 50 52 51 72 52 53 53
REMARK SMILES IDX 56 54 71 55 91 56 54 57 55 58 70 60 92 61 57 62 40 63 41 64
REMARK SMILES IDX 50 65 42 66 43 67 49 68 51 69 44 70 45 71 46 72 47 73 48 74
REMARK SMILES IDX 74 75 75 76 84 77 76 78 77 79 83 80 85 81 78 82 79 83 80 84
REMARK SMILES IDX 81 85 82 86 58 87 59 88 68 89 60 90 61 91 67 92 69 93 62 94
REMARK SMILES IDX 63 95 64 96 65 97 66 98
REMARK H PARENT 90 48 56 59
REMARK Flexibility Score: inf
ROOT
ATOM      1  O   UNL A   1      42.747  22.032  25.566  1.00  0.00    -0.374 OA
ENDROOT
BRANCH   1   2
ATOM      2  C   UNL A   1      44.027  22.288  26.152  1.00  0.00     0.202 C 
BRANCH   2   3
ATOM      3  C   UNL A   1      44.484  23.739  26.141  1.00  0.00     0.261 C 
BRANCH   3   4
ATOM      4  O   UNL A   1      45.893  23.853  25.925  1.00  0.00    -0.462 OA
BRANCH   4   5
ATOM      5  C   UNL A   1      46.357  24.596  24.886  1.00  0.00     0.326 C 
ATOM      6  O   UNL A   1      46.915  24.031  23.949  1.00  0.00    -0.250 OA
BRANCH   5   7
ATOM      7  C   UNL A   1      46.247  26.123  24.979  1.00  0.00     0.250 C 
BRANCH   7   8
ATOM      8  N   UNL A   1      47.448  26.825  25.394  1.00  0.00    -0.281 N 
ATOM      9  C   UNL A   1      47.513  27.210  26.732  1.00  0.00     0.332 A 
ATOM     10  C   UNL A   1      48.498  27.122  24.515  1.00  0.00     0.070 A 
ATOM     11  O   UNL A   1      46.587  26.979  27.514  1.00  0.00    -0.247 OA
ATOM     12  N   UNL A   1      48.651  27.911  27.135  1.00  0.00    -0.254 N 
ATOM     13  C   UNL A   1      49.635  27.706  24.995  1.00  0.00     0.116 A 
ATOM     14  C   UNL A   1      48.589  26.991  23.097  1.00  0.00     0.039 A 
ATOM     15  C   UNL A   1      49.741  28.228  26.321  1.00  0.00     0.274 A 
ATOM     16  S   UNL A   1      50.908  27.739  23.873  1.00  0.00    -0.136 S 
ATOM     17  C   UNL A   1      49.880  27.160  22.636  1.00  0.00     0.068 A 
ATOM     18  O   UNL A   1      50.680  28.924  26.705  1.00  0.00    -0.268 OA
BRANCH  12  19
ATOM     19  C   UNL A   1      48.722  28.313  28.526  1.00  0.00     0.168 C 
BRANCH  19  20
ATOM     20  C   UNL A   1      49.174  27.158  29.380  1.00  0.00    -0.010 A 
ATOM     21  C   UNL A   1      50.463  26.632  29.272  1.00  0.00     0.009 A 
ATOM     22  C   UNL A   1      48.350  26.642  30.377  1.00  0.00     0.116 A 
ATOM     23  C   UNL A   1      50.870  25.632  30.148  1.00  0.00     0.020 A 
ATOM     24  N   UNL A   1      48.721  25.676  31.245  1.00  0.00    -0.264 NA
ATOM     25  C   UNL A   1      49.975  25.199  31.114  1.00  0.00     0.111 A 
ENDBRANCH  19  20
ENDBRANCH  12  19
ENDBRANCH   7   8
ENDBRANCH   5   7
ENDBRANCH   4   5
ENDBRANCH   3   4
ENDBRANCH   2   3
ENDBRANCH   1   2
BRANCH   1  26
ATOM     26  C   UNL A   1      41.969  20.989  26.175  1.00  0.00     0.202 C 
BRANCH  26  27
ATOM     27  C   UNL A   1      40.480  21.312  26.276  1.00  0.00     0.261 C 
BRANCH  27  28
ATOM     28  O   UNL A   1      40.279  22.241  27.320  1.00  0.00    -0.460 OA
BRANCH  28  29
ATOM     29  C   UNL A   1      39.596  23.363  26.959  1.00  0.00     0.338 C 
ATOM     30  O   UNL A   1      38.443  23.473  26.651  1.00  0.00    -0.246 OA
BRANCH  29  31
ATOM     31  C   UNL A   1      40.584  24.455  27.029  1.00  0.00     0.060 A 
ATOM     32  C   UNL A   1      41.456  24.421  28.109  1.00  0.00     0.016 A 
ATOM     33  C   UNL A   1      40.405  25.598  26.226  1.00  0.00     0.016 A 
ATOM     34  C   UNL A   1      41.831  25.632  28.627  1.00  0.00     0.010 A 
ATOM     35  C   UNL A   1      40.762  26.800  26.747  1.00  0.00     0.010 A 
ATOM     36  C   UNL A   1      41.330  26.784  28.013  1.00  0.00    -0.014 A 
BRANCH  36  37
ATOM     37  C   UNL A   1      41.317  28.006  28.763  1.00  0.00     0.031 A 
ATOM     38  C   UNL A   1      42.394  28.911  28.363  1.00  0.00     0.074 A 
ATOM     39  C   UNL A   1      40.333  28.279  29.638  1.00  0.00     0.049 A 
ATOM     40  N   UNL A   1      43.550  29.029  28.923  1.00  0.00    -0.248 NA
ATOM     41  C   UNL A   1      42.291  29.542  27.037  1.00  0.00     0.031 C 
ATOM     42  C   UNL A   1      39.061  27.583  29.855  1.00  0.00     0.029 A 
ATOM     43  N   UNL A   1      40.252  29.333  30.482  1.00  0.00    -0.354 N 
ATOM     44  C   UNL A   1      44.212  29.965  28.149  1.00  0.00     0.074 A 
ATOM     45  C   UNL A   1      43.533  29.997  26.881  1.00  0.00     0.031 C 
ATOM     46  C   UNL A   1      38.254  28.363  30.614  1.00  0.00     0.029 A 
ATOM     47  C   UNL A   1      38.997  29.538  31.038  1.00  0.00     0.049 A 
ATOM     48  H   UNL A   1      41.024  29.910  30.687  1.00  0.00     0.167 HD
ATOM     49  C   UNL A   1      45.046  30.878  28.712  1.00  0.00     0.037 A 
ATOM     50  C   UNL A   1      38.626  30.665  31.698  1.00  0.00     0.037 A 
ATOM     51  C   UNL A   1      45.359  30.536  30.078  1.00  0.00     0.049 A 
ATOM     52  C   UNL A   1      39.890  31.339  32.126  1.00  0.00     0.074 A 
ATOM     53  C   UNL A   1      45.967  29.455  30.686  1.00  0.00     0.029 A 
ATOM     54  N   UNL A   1      44.653  31.182  31.066  1.00  0.00    -0.354 N 
ATOM     55  N   UNL A   1      40.724  30.836  32.999  1.00  0.00    -0.248 NA
ATOM     56  C   UNL A   1      40.470  32.329  31.225  1.00  0.00     0.031 C 
ATOM     57  C   UNL A   1      45.248  29.254  31.900  1.00  0.00     0.029 A 
ATOM     58  C   UNL A   1      44.274  30.250  32.002  1.00  0.00     0.049 A 
ATOM     59  H   UNL A   1      44.452  32.146  31.098  1.00  0.00     0.167 HD
ATOM     60  C   UNL A   1      41.992  31.128  32.509  1.00  0.00     0.074 A 
ATOM     61  C   UNL A   1      41.769  32.114  31.453  1.00  0.00     0.031 C 
ATOM     62  C   UNL A   1      43.066  30.334  32.799  1.00  0.00     0.037 A 
BRANCH  49  63
ATOM     63  C   UNL A   1      45.259  32.251  28.144  1.00  0.00     0.058 A 
ATOM     64  C   UNL A   1      46.547  32.631  27.735  1.00  0.00     0.135 A 
ATOM     65  C   UNL A   1      44.295  33.285  28.190  1.00  0.00     0.135 A 
ATOM     66  F   UNL A   1      47.541  31.729  27.687  1.00  0.00    -0.206 F 
ATOM     67  C   UNL A   1      46.864  33.952  27.427  1.00  0.00     0.059 A 
ATOM     68  C   UNL A   1      44.569  34.591  27.819  1.00  0.00     0.059 A 
ATOM     69  F   UNL A   1      43.068  33.103  28.695  1.00  0.00    -0.206 F 
ATOM     70  C   UNL A   1      45.866  34.925  27.476  1.00  0.00     0.060 A 
BRANCH  70  71
ATOM     71  S   UNL A   1      46.289  36.645  27.167  1.00  0.00     0.124 S 
ATOM     72  O   UNL A   1      46.975  36.546  25.884  1.00  0.00    -0.237 OA
ATOM     73  O   UNL A   1      44.974  37.278  27.146  1.00  0.00    -0.237 OA
ATOM     74  O   UNL A   1      47.130  36.994  28.308  1.00  0.00    -0.744 OA
ENDBRANCH  70  71
ENDBRANCH  49  63
BRANCH  50  75
ATOM     75  C   UNL A   1      37.326  31.384  31.603  1.00  0.00     0.058 A 
ATOM     76  C   UNL A   1      36.551  31.625  32.753  1.00  0.00     0.135 A 
ATOM     77  C   UNL A   1      36.954  32.101  30.447  1.00  0.00     0.135 A 
ATOM     78  F   UNL A   1      36.841  31.000  33.904  1.00  0.00    -0.206 F 
ATOM     79  C   UNL A   1      35.513  32.565  32.772  1.00  0.00     0.059 A 
ATOM     80  C   UNL A   1      35.917  33.033  30.439  1.00  0.00     0.059 A 
ATOM     81  F   UNL A   1      37.650  31.989  29.306  1.00  0.00    -0.206 F 
ATOM     82  C   UNL A   1      35.221  33.284  31.613  1.00  0.00     0.060 A 
BRANCH  82  83
ATOM     83  S   UNL A   1      34.012  34.627  31.680  1.00  0.00     0.124 S 
ATOM     84  O   UNL A   1      33.538  34.677  30.302  1.00  0.00    -0.237 OA
ATOM     85  O   UNL A   1      33.058  34.129  32.667  1.00  0.00    -0.237 OA
ATOM     86  O   UNL A   1      34.806  35.775  32.110  1.00  0.00    -0.744 OA
ENDBRANCH  82  83
ENDBRANCH  50  75
BRANCH  62  87
ATOM     87  C   UNL A   1      42.911  29.302  33.892  1.00  0.00     0.058 A 
ATOM     88  C   UNL A   1      42.968  29.591  35.269  1.00  0.00     0.135 A 
ATOM     89  C   UNL A   1      42.520  28.006  33.529  1.00  0.00     0.135 A 
ATOM     90  F   UNL A   1      43.236  30.831  35.701  1.00  0.00    -0.206 F 
ATOM     91  C   UNL A   1      42.681  28.625  36.237  1.00  0.00     0.059 A 
ATOM     92  C   UNL A   1      42.197  27.037  34.475  1.00  0.00     0.059 A 
ATOM     93  F   UNL A   1      42.386  27.684  32.231  1.00  0.00    -0.206 F 
ATOM     94  C   UNL A   1      42.288  27.350  35.828  1.00  0.00     0.060 A 
BRANCH  94  95
ATOM     95  S   UNL A   1      41.830  26.129  37.079  1.00  0.00     0.124 S 
ATOM     96  O   UNL A   1      42.993  26.135  37.958  1.00  0.00    -0.237 OA
ATOM     97  O   UNL A   1      40.607  26.697  37.641  1.00  0.00    -0.237 OA
ATOM     98  O   UNL A   1      41.638  24.904  36.306  1.00  0.00    -0.744 OA
ENDBRANCH  94  95
ENDBRANCH  62  87
ENDBRANCH  36  37
ENDBRANCH  29  31
ENDBRANCH  28  29
ENDBRANCH  27  28
ENDBRANCH  26  27
ENDBRANCH   1  26
TORSDOF 20
ENDMDL
MODEL 3
REMARK VINA RESULT:     -10.6      3.863     10.546
REMARK SMILES O=C(Cn1c(=O)n(Cc2cccnc2)c(=O)c2sccc21)OCCOCCOC(=O)c1ccc(-c2c3nc(c(-c4c(F)cc(S(=O)(=O)[O-])cc4F)c4ccc([nH]4)c(-c4c(F)cc(S(=O)(=O)[O-])cc4F)c4nc(c(-c5c(F)cc(S(=O)(=O)[O-])cc5F)c5ccc2[nH]5)C=C4)C=C3)cc1
REMARK SMILES IDX 25 1 24 2 23 3 22 4 2 5 1 6 3 7 4 8 5 9 21 10 6 11 7 12
REMARK SMILES IDX 17 13 20 14 15 15 18 16 19 17 16 18 8 19 9 20 10 21 14 22
REMARK SMILES IDX 11 23 13 24 12 25 26 26 27 27 28 28 29 29 30 30 31 31 32 32
REMARK SMILES IDX 96 33 33 34 95 35 34 36 35 37 36 38 89 39 37 40 94 41 88 42
REMARK SMILES IDX 90 43 38 44 93 45 87 46 86 47 39 49 73 50 52 51 72 52 53 53
REMARK SMILES IDX 56 54 71 55 91 56 54 57 55 58 70 60 92 61 57 62 40 63 41 64
REMARK SMILES IDX 50 65 42 66 43 67 49 68 51 69 44 70 45 71 46 72 47 73 48 74
REMARK SMILES IDX 74 75 75 76 84 77 76 78 77 79 83 80 85 81 78 82 79 83 80 84
REMARK SMILES IDX 81 85 82 86 58 87 59 88 68 89 60 90 61 91 67 92 69 93 62 94
REMARK SMILES IDX 63 95 64 96 65 97 66 98
REMARK H PARENT 90 48 56 59
REMARK Flexibility Score: inf
ROOT
ATOM      1  O   UNL A   1      46.837  25.580  26.776  1.00  0.00    -0.374 OA
ENDROOT
BRANCH   1   2
ATOM      2  C   UNL A   1      47.049  25.024  25.474  1.00  0.00     0.202 C 
BRANCH   2   3
ATOM      3  C   UNL A   1      46.623  23.573  25.296  1.00  0.00     0.261 C 
BRANCH   3   4
ATOM      4  O   UNL A   1      45.684  23.421  24.228  1.00  0.00    -0.462 OA
BRANCH   4   5
ATOM      5  C   UNL A   1      44.434  22.958  24.492  1.00  0.00     0.326 C 
ATOM      6  O   UNL A   1      43.727  22.581  23.561  1.00  0.00    -0.250 OA
BRANCH   5   7
ATOM      7  C   UNL A   1      43.927  23.018  25.938  1.00  0.00     0.250 C 
BRANCH   7   8
ATOM      8  N   UNL A   1      42.799  23.899  26.183  1.00  0.00    -0.281 N 
ATOM      9  C   UNL A   1      41.638  23.303  26.670  1.00  0.00     0.332 A 
ATOM     10  C   UNL A   1      42.845  25.278  25.941  1.00  0.00     0.070 A 
ATOM     11  O   UNL A   1      41.572  22.086  26.866  1.00  0.00    -0.247 OA
ATOM     12  N   UNL A   1      40.538  24.136  26.882  1.00  0.00    -0.254 N 
ATOM     13  C   UNL A   1      41.775  26.058  26.277  1.00  0.00     0.116 A 
ATOM     14  C   UNL A   1      43.835  26.077  25.294  1.00  0.00     0.039 A 
ATOM     15  C   UNL A   1      40.515  25.518  26.678  1.00  0.00     0.274 A 
ATOM     16  S   UNL A   1      42.093  27.722  26.187  1.00  0.00    -0.136 S 
ATOM     17  C   UNL A   1      43.620  27.429  25.477  1.00  0.00     0.068 A 
ATOM     18  O   UNL A   1      39.493  26.192  26.797  1.00  0.00    -0.268 OA
BRANCH  12  19
ATOM     19  C   UNL A   1      39.329  23.519  27.389  1.00  0.00     0.168 C 
BRANCH  19  20
ATOM     20  C   UNL A   1      38.476  23.028  26.249  1.00  0.00    -0.010 A 
ATOM     21  C   UNL A   1      38.499  21.691  25.846  1.00  0.00     0.009 A 
ATOM     22  C   UNL A   1      37.560  23.871  25.626  1.00  0.00     0.116 A 
ATOM     23  C   UNL A   1      37.624  21.260  24.855  1.00  0.00     0.020 A 
ATOM     24  N   UNL A   1      36.695  23.479  24.667  1.00  0.00    -0.264 NA
ATOM     25  C   UNL A   1      36.743  22.179  24.310  1.00  0.00     0.111 A 
ENDBRANCH  19  20
ENDBRANCH  12  19
ENDBRANCH   7   8
ENDBRANCH   5   7
ENDBRANCH   4   5
ENDBRANCH   3   4
ENDBRANCH   2   3
ENDBRANCH   1   2
BRANCH   1  26
ATOM     26  C   UNL A   1      46.834  24.648  27.869  1.00  0.00     0.202 C 
BRANCH  26  27
ATOM     27  C   UNL A   1      45.524  24.626  28.653  1.00  0.00     0.261 C 
BRANCH  27  28
ATOM     28  O   UNL A   1      45.138  25.953  28.942  1.00  0.00    -0.460 OA
BRANCH  28  29
ATOM     29  C   UNL A   1      45.314  26.328  30.241  1.00  0.00     0.338 C 
ATOM     30  O   UNL A   1      46.325  26.355  30.883  1.00  0.00    -0.246 OA
BRANCH  29  31
ATOM     31  C   UNL A   1      43.972  26.710  30.716  1.00  0.00     0.060 A 
ATOM     32  C   UNL A   1      42.943  26.609  29.788  1.00  0.00     0.016 A 
ATOM     33  C   UNL A   1      43.848  27.429  31.920  1.00  0.00     0.016 A 
ATOM     34  C   UNL A   1      41.954  27.552  29.871  1.00  0.00     0.010 A 
ATOM     35  C   UNL A   1      42.875  28.375  31.995  1.00  0.00     0.010 A 
ATOM     36  C   UNL A   1      42.050  28.506  30.889  1.00  0.00    -0.014 A 
BRANCH  36  37
ATOM     37  C   UNL A   1      41.325  29.735  30.742  1.00  0.00     0.031 A 
ATOM     38  C   UNL A   1      42.211  30.874  30.501  1.00  0.00     0.074 A 
ATOM     39  C   UNL A   1      39.981  29.755  30.721  1.00  0.00     0.049 A 
ATOM     40  N   UNL A   1      42.667  31.696  31.384  1.00  0.00    -0.248 NA
ATOM     41  C   UNL A   1      42.890  30.939  29.197  1.00  0.00     0.031 C 
ATOM     42  C   UNL A   1      39.035  28.639  30.629  1.00  0.00     0.029 A 
ATOM     43  N   UNL A   1      39.175  30.841  30.697  1.00  0.00    -0.354 N 
ATOM     44  C   UNL A   1      43.488  32.547  30.667  1.00  0.00     0.074 A 
ATOM     45  C   UNL A   1      43.819  31.861  29.447  1.00  0.00     0.031 C 
ATOM     46  C   UNL A   1      37.803  29.125  30.342  1.00  0.00     0.029 A 
ATOM     47  C   UNL A   1      37.854  30.577  30.362  1.00  0.00     0.049 A 
ATOM     48  H   UNL A   1      39.499  31.748  30.902  1.00  0.00     0.167 HD
ATOM     49  C   UNL A   1      43.562  33.870  30.968  1.00  0.00     0.037 A 
ATOM     50  C   UNL A   1      36.943  31.528  30.031  1.00  0.00     0.037 A 
ATOM     51  C   UNL A   1      42.957  34.156  32.246  1.00  0.00     0.049 A 
ATOM     52  C   UNL A   1      37.463  32.820  30.576  1.00  0.00     0.074 A 
ATOM     53  C   UNL A   1      43.199  33.744  33.541  1.00  0.00     0.029 A 
ATOM     54  N   UNL A   1      41.673  34.650  32.237  1.00  0.00    -0.354 N 
ATOM     55  N   UNL A   1      37.592  33.072  31.852  1.00  0.00    -0.248 NA
ATOM     56  C   UNL A   1      38.298  33.637  29.703  1.00  0.00     0.031 C 
ATOM     57  C   UNL A   1      41.913  33.604  34.138  1.00  0.00     0.029 A 
ATOM     58  C   UNL A   1      40.952  33.988  33.200  1.00  0.00     0.049 A 
ATOM     59  H   UNL A   1      41.329  35.357  31.643  1.00  0.00     0.167 HD
ATOM     60  C   UNL A   1      38.788  33.771  31.971  1.00  0.00     0.074 A 
ATOM     61  C   UNL A   1      39.139  34.153  30.605  1.00  0.00     0.031 C 
ATOM     62  C   UNL A   1      39.529  33.720  33.119  1.00  0.00     0.037 A 
BRANCH  49  63
ATOM     63  C   UNL A   1      43.841  34.928  29.941  1.00  0.00     0.058 A 
ATOM     64  C   UNL A   1      44.900  35.825  30.150  1.00  0.00     0.135 A 
ATOM     65  C   UNL A   1      42.972  35.237  28.867  1.00  0.00     0.135 A 
ATOM     66  F   UNL A   1      45.761  35.638  31.163  1.00  0.00    -0.206 F 
ATOM     67  C   UNL A   1      45.065  36.968  29.370  1.00  0.00     0.059 A 
ATOM     68  C   UNL A   1      43.159  36.327  28.033  1.00  0.00     0.059 A 
ATOM     69  F   UNL A   1      41.842  34.556  28.636  1.00  0.00    -0.206 F 
ATOM     70  C   UNL A   1      44.185  37.210  28.316  1.00  0.00     0.060 A 
BRANCH  70  71
ATOM     71  S   UNL A   1      44.339  38.727  27.363  1.00  0.00     0.124 S 
ATOM     72  O   UNL A   1      44.913  39.631  28.353  1.00  0.00    -0.237 OA
ATOM     73  O   UNL A   1      45.225  38.313  26.280  1.00  0.00    -0.237 OA
ATOM     74  O   UNL A   1      42.964  39.016  26.966  1.00  0.00    -0.744 OA
ENDBRANCH  70  71
ENDBRANCH  49  63
BRANCH  50  75
ATOM     75  C   UNL A   1      35.923  31.467  28.949  1.00  0.00     0.058 A 
ATOM     76  C   UNL A   1      36.061  30.564  27.878  1.00  0.00     0.135 A 
ATOM     77  C   UNL A   1      34.656  32.074  29.083  1.00  0.00     0.135 A 
ATOM     78  F   UNL A   1      37.226  29.926  27.682  1.00  0.00    -0.206 F 
ATOM     79  C   UNL A   1      34.994  30.235  27.034  1.00  0.00     0.059 A 
ATOM     80  C   UNL A   1      33.582  31.771  28.248  1.00  0.00     0.059 A 
ATOM     81  F   UNL A   1      34.392  32.915  30.095  1.00  0.00    -0.206 F 
ATOM     82  C   UNL A   1      33.749  30.827  27.243  1.00  0.00     0.060 A 
BRANCH  82  83
ATOM     83  S   UNL A   1      32.325  30.269  26.279  1.00  0.00     0.124 S 
ATOM     84  O   UNL A   1      31.552  31.498  26.140  1.00  0.00    -0.237 OA
ATOM     85  O   UNL A   1      32.957  29.770  25.062  1.00  0.00    -0.237 OA
ATOM     86  O   UNL A   1      31.721  29.245  27.128  1.00  0.00    -0.744 OA
ENDBRANCH  82  83
ENDBRANCH  50  75
BRANCH  62  87
ATOM     87  C   UNL A   1      38.886  33.132  34.354  1.00  0.00     0.058 A 
ATOM     88  C   UNL A   1      38.878  31.760  34.667  1.00  0.00     0.135 A 
ATOM     89  C   UNL A   1      38.412  34.013  35.336  1.00  0.00     0.135 A 
ATOM     90  F   UNL A   1      39.404  30.859  33.825  1.00  0.00    -0.206 F 
ATOM     91  C   UNL A   1      38.391  31.286  35.888  1.00  0.00     0.059 A 
ATOM     92  C   UNL A   1      37.953  33.565  36.572  1.00  0.00     0.059 A 
ATOM     93  F   UNL A   1      38.450  35.339  35.124  1.00  0.00    -0.206 F 
ATOM     94  C   UNL A   1      37.937  32.199  36.839  1.00  0.00     0.060 A 
BRANCH  94  95
ATOM     95  S   UNL A   1      37.392  31.592  38.451  1.00  0.00     0.124 S 
ATOM     96  O   UNL A   1      36.146  32.323  38.652  1.00  0.00    -0.237 OA
ATOM     97  O   UNL A   1      37.254  30.157  38.218  1.00  0.00    -0.237 OA
ATOM     98  O   UNL A   1      38.486  31.966  39.345  1.00  0.00    -0.744 OA
ENDBRANCH  94  95
ENDBRANCH  62  87
ENDBRANCH  36  37
ENDBRANCH  29  31
ENDBRANCH  28  29
ENDBRANCH  27  28
ENDBRANCH  26  27
ENDBRANCH   1  26
TORSDOF 20
ENDMDL
