MODEL 1
REMARK VINA RESULT:     -11.6      0.000      0.000
REMARK SMILES CC1(C)[C@@](C)(C(=O)Nc2ccc(Cl)cc2Cl)CC[C@]1(C)C(=O)OCCOCCOC(=O)c1ccc(-c2c3nc(c(-c4c(F)cc(S(=O)(=O)[O-])cc4F)c4ccc([nH]4)c(-c4c(F)cc(S(=O)(=O)[O-])cc4F)c4nc(c(-c5c(F)cc(S(=O)(=O)[O-])cc5F)c5ccc2[nH]5)C=C4)C=C3)cc1
REMARK SMILES IDX 27 1 26 2 25 3 24 4 23 5 21 6 22 7 19 8 1 9 2 10 3 11 4 12
REMARK SMILES IDX 5 13 17 14 18 15 20 16 6 17 7 18 8 19 9 21 10 22 15 23 11 24
REMARK SMILES IDX 14 25 16 26 12 27 13 28 28 29 29 30 30 31 31 32 32 33 33 34
REMARK SMILES IDX 97 35 34 36 96 37 35 38 36 39 37 40 90 41 38 42 95 43 89 44
REMARK SMILES IDX 91 45 39 46 94 47 88 48 87 49 40 51 74 52 53 53 73 54 54 55
REMARK SMILES IDX 57 56 72 57 92 58 55 59 56 60 71 62 93 63 58 64 41 65 42 66
REMARK SMILES IDX 51 67 43 68 44 69 50 70 52 71 45 72 46 73 47 74 48 75 49 76
REMARK SMILES IDX 75 77 76 78 85 79 77 80 78 81 84 82 86 83 79 84 80 85 81 86
REMARK SMILES IDX 82 87 83 88 59 89 60 90 69 91 61 92 62 93 68 94 70 95 63 96
REMARK SMILES IDX 64 97 65 98 66 99 67 100
REMARK H PARENT 8 20 91 50 57 61
REMARK Flexibility Score: inf
ROOT
ATOM      1  C   UNL A   1      33.887  32.335  27.986  1.00  0.00     0.202 C 
ENDROOT
BRANCH   1   2
ATOM      2  O   UNL A   1      33.799  31.110  27.269  1.00  0.00    -0.374 OA
BRANCH   2   3
ATOM      3  C   UNL A   1      32.485  30.666  26.921  1.00  0.00     0.202 C 
BRANCH   3   4
ATOM      4  C   UNL A   1      32.332  29.941  25.577  1.00  0.00     0.261 C 
BRANCH   4   5
ATOM      5  O   UNL A   1      31.478  28.779  25.687  1.00  0.00    -0.463 OA
BRANCH   5   6
ATOM      6  C   UNL A   1      31.228  28.085  24.551  1.00  0.00     0.312 C 
ATOM      7  O   UNL A   1      30.976  28.619  23.475  1.00  0.00    -0.252 OA
BRANCH   6   8
ATOM      8  C   UNL A   1      31.231  26.546  24.751  1.00  0.00     0.071 C 
ATOM      9  C   UNL A   1      33.217  25.726  26.115  1.00  0.00     0.013 C 
ATOM     10  C   UNL A   1      32.642  25.773  24.671  1.00  0.00    -0.005 C 
ATOM     11  C   UNL A   1      33.688  26.492  23.807  1.00  0.00     0.013 C 
ATOM     12  C   UNL A   1      32.335  24.369  23.941  1.00  0.00     0.053 C 
ATOM     13  C   UNL A   1      33.257  23.828  22.799  1.00  0.00     0.022 C 
ATOM     14  C   UNL A   1      31.052  24.698  23.109  1.00  0.00     0.018 C 
ATOM     15  C   UNL A   1      30.375  25.943  23.627  1.00  0.00     0.020 C 
ATOM     16  C   UNL A   1      30.455  26.325  26.075  1.00  0.00     0.024 C 
BRANCH  12  17
ATOM     17  C   UNL A   1      32.074  23.192  24.911  1.00  0.00     0.230 C 
ATOM     18  O   UNL A   1      30.913  22.926  25.252  1.00  0.00    -0.274 OA
ATOM     19  N   UNL A   1      33.037  22.357  25.414  1.00  0.00    -0.324 N 
ATOM     20  H   UNL A   1      32.632  21.580  25.862  1.00  0.00     0.170 HD
BRANCH  19  21
ATOM     21  C   UNL A   1      34.454  22.295  25.468  1.00  0.00     0.060 A 
ATOM     22  C   UNL A   1      35.271  23.348  25.861  1.00  0.00     0.029 A 
ATOM     23  C   UNL A   1      35.105  21.089  25.148  1.00  0.00     0.066 A 
ATOM     24  C   UNL A   1      36.659  23.242  25.962  1.00  0.00     0.023 A 
ATOM     25  C   UNL A   1      36.502  20.966  25.219  1.00  0.00     0.043 A 
ATOM     26  Cl  UNL A   1      34.206  19.713  24.605  1.00  0.00    -0.082 Cl
ATOM     27  C   UNL A   1      37.273  22.047  25.637  1.00  0.00     0.042 A 
ATOM     28  Cl  UNL A   1      38.981  21.918  25.738  1.00  0.00    -0.084 Cl
ENDBRANCH  19  21
ENDBRANCH  12  17
ENDBRANCH   6   8
ENDBRANCH   5   6
ENDBRANCH   4   5
ENDBRANCH   3   4
ENDBRANCH   2   3
ENDBRANCH   1   2
BRANCH   1  29
ATOM     29  C   UNL A   1      34.822  32.342  29.216  1.00  0.00     0.261 C 
BRANCH  29  30
ATOM     30  O   UNL A   1      35.501  31.087  29.426  1.00  0.00    -0.460 OA
BRANCH  30  31
ATOM     31  C   UNL A   1      36.542  31.148  30.291  1.00  0.00     0.338 C 
ATOM     32  O   UNL A   1      36.522  31.611  31.425  1.00  0.00    -0.246 OA
BRANCH  31  33
ATOM     33  C   UNL A   1      37.705  30.391  29.780  1.00  0.00     0.060 A 
ATOM     34  C   UNL A   1      38.654  29.986  30.727  1.00  0.00     0.016 A 
ATOM     35  C   UNL A   1      37.925  30.152  28.421  1.00  0.00     0.016 A 
ATOM     36  C   UNL A   1      39.850  29.401  30.320  1.00  0.00     0.010 A 
ATOM     37  C   UNL A   1      39.134  29.564  28.012  1.00  0.00     0.010 A 
ATOM     38  C   UNL A   1      40.122  29.222  28.957  1.00  0.00    -0.014 A 
BRANCH  38  39
ATOM     39  C   UNL A   1      41.493  28.809  28.547  1.00  0.00     0.031 A 
ATOM     40  C   UNL A   1      42.602  29.832  28.534  1.00  0.00     0.074 A 
ATOM     41  C   UNL A   1      41.773  27.520  28.272  1.00  0.00     0.049 A 
ATOM     42  N   UNL A   1      43.868  29.678  28.241  1.00  0.00    -0.248 NA
ATOM     43  C   UNL A   1      42.236  31.208  28.905  1.00  0.00     0.031 C 
ATOM     44  C   UNL A   1      40.805  26.424  28.293  1.00  0.00     0.029 A 
ATOM     45  N   UNL A   1      42.957  26.914  27.926  1.00  0.00    -0.354 N 
ATOM     46  C   UNL A   1      44.449  30.934  28.387  1.00  0.00     0.074 A 
ATOM     47  C   UNL A   1      43.390  31.845  28.765  1.00  0.00     0.031 C 
ATOM     48  C   UNL A   1      41.432  25.280  27.970  1.00  0.00     0.029 A 
ATOM     49  C   UNL A   1      42.838  25.565  27.687  1.00  0.00     0.049 A 
ATOM     50  H   UNL A   1      43.809  27.399  27.857  1.00  0.00     0.167 HD
ATOM     51  C   UNL A   1      45.745  31.294  28.231  1.00  0.00     0.037 A 
ATOM     52  C   UNL A   1      43.751  24.665  27.266  1.00  0.00     0.037 A 
ATOM     53  C   UNL A   1      46.802  30.384  27.868  1.00  0.00     0.049 A 
ATOM     54  C   UNL A   1      45.175  25.103  27.034  1.00  0.00     0.074 A 
ATOM     55  C   UNL A   1      48.152  30.653  27.716  1.00  0.00     0.029 A 
ATOM     56  N   UNL A   1      46.632  29.036  27.591  1.00  0.00    -0.354 N 
ATOM     57  N   UNL A   1      45.711  26.288  27.206  1.00  0.00    -0.248 NA
ATOM     58  C   UNL A   1      46.119  24.083  26.555  1.00  0.00     0.031 C 
ATOM     59  C   UNL A   1      48.788  29.483  27.288  1.00  0.00     0.029 A 
ATOM     60  C   UNL A   1      47.847  28.469  27.235  1.00  0.00     0.049 A 
ATOM     61  H   UNL A   1      45.776  28.552  27.640  1.00  0.00     0.167 HD
ATOM     62  C   UNL A   1      47.058  26.149  26.880  1.00  0.00     0.074 A 
ATOM     63  C   UNL A   1      47.257  24.761  26.518  1.00  0.00     0.031 C 
ATOM     64  C   UNL A   1      48.039  27.085  26.880  1.00  0.00     0.037 A 
BRANCH  51  65
ATOM     65  C   UNL A   1      46.105  32.743  28.426  1.00  0.00     0.058 A 
ATOM     66  C   UNL A   1      46.049  33.671  27.374  1.00  0.00     0.135 A 
ATOM     67  C   UNL A   1      46.446  33.222  29.702  1.00  0.00     0.135 A 
ATOM     68  F   UNL A   1      45.745  33.266  26.130  1.00  0.00    -0.206 F 
ATOM     69  C   UNL A   1      46.332  35.018  27.576  1.00  0.00     0.059 A 
ATOM     70  C   UNL A   1      46.706  34.570  29.934  1.00  0.00     0.059 A 
ATOM     71  F   UNL A   1      46.516  32.378  30.743  1.00  0.00    -0.206 F 
ATOM     72  C   UNL A   1      46.656  35.459  28.862  1.00  0.00     0.060 A 
BRANCH  72  73
ATOM     73  S   UNL A   1      46.996  37.214  29.113  1.00  0.00     0.124 S 
ATOM     74  O   UNL A   1      47.784  37.530  27.927  1.00  0.00    -0.237 OA
ATOM     75  O   UNL A   1      45.654  37.787  29.152  1.00  0.00    -0.237 OA
ATOM     76  O   UNL A   1      47.725  37.244  30.377  1.00  0.00    -0.744 OA
ENDBRANCH  72  73
ENDBRANCH  51  65
BRANCH  52  77
ATOM     77  C   UNL A   1      43.343  23.256  27.003  1.00  0.00     0.058 A 
ATOM     78  C   UNL A   1      43.165  22.337  28.048  1.00  0.00     0.135 A 
ATOM     79  C   UNL A   1      43.144  22.797  25.691  1.00  0.00     0.135 A 
ATOM     80  F   UNL A   1      43.357  22.719  29.319  1.00  0.00    -0.206 F 
ATOM     81  C   UNL A   1      42.824  21.009  27.800  1.00  0.00     0.059 A 
ATOM     82  C   UNL A   1      42.773  21.485  25.421  1.00  0.00     0.059 A 
ATOM     83  F   UNL A   1      43.293  23.638  24.655  1.00  0.00    -0.206 F 
ATOM     84  C   UNL A   1      42.628  20.594  26.482  1.00  0.00     0.060 A 
BRANCH  84  85
ATOM     85  S   UNL A   1      42.149  18.881  26.173  1.00  0.00     0.124 S 
ATOM     86  O   UNL A   1      42.379  18.271  27.477  1.00  0.00    -0.237 OA
ATOM     87  O   UNL A   1      40.753  19.022  25.770  1.00  0.00    -0.237 OA
ATOM     88  O   UNL A   1      43.060  18.465  25.110  1.00  0.00    -0.744 OA
ENDBRANCH  84  85
ENDBRANCH  52  77
BRANCH  64  89
ATOM     89  C   UNL A   1      49.428  26.642  26.505  1.00  0.00     0.058 A 
ATOM     90  C   UNL A   1      50.282  26.019  27.429  1.00  0.00     0.135 A 
ATOM     91  C   UNL A   1      49.894  26.797  25.188  1.00  0.00     0.135 A 
ATOM     92  F   UNL A   1      49.892  25.850  28.701  1.00  0.00    -0.206 F 
ATOM     93  C   UNL A   1      51.556  25.590  27.069  1.00  0.00     0.059 A 
ATOM     94  C   UNL A   1      51.152  26.347  24.798  1.00  0.00     0.059 A 
ATOM     95  F   UNL A   1      49.117  27.375  24.259  1.00  0.00    -0.206 F 
ATOM     96  C   UNL A   1      51.982  25.756  25.749  1.00  0.00     0.060 A 
BRANCH  96  97
ATOM     97  S   UNL A   1      53.625  25.166  25.289  1.00  0.00     0.124 S 
ATOM     98  O   UNL A   1      53.741  25.654  23.920  1.00  0.00    -0.237 OA
ATOM     99  O   UNL A   1      54.480  25.826  26.272  1.00  0.00    -0.237 OA
ATOM    100  O   UNL A   1      53.520  23.718  25.432  1.00  0.00    -0.744 OA
ENDBRANCH  96  97
ENDBRANCH  64  89
ENDBRANCH  38  39
ENDBRANCH  31  33
ENDBRANCH  30  31
ENDBRANCH  29  30
ENDBRANCH   1  29
TORSDOF 19
ENDMDL
MODEL 2
REMARK VINA RESULT:     -11.3      6.331     11.877
REMARK SMILES CC1(C)[C@@](C)(C(=O)Nc2ccc(Cl)cc2Cl)CC[C@]1(C)C(=O)OCCOCCOC(=O)c1ccc(-c2c3nc(c(-c4c(F)cc(S(=O)(=O)[O-])cc4F)c4ccc([nH]4)c(-c4c(F)cc(S(=O)(=O)[O-])cc4F)c4nc(c(-c5c(F)cc(S(=O)(=O)[O-])cc5F)c5ccc2[nH]5)C=C4)C=C3)cc1
REMARK SMILES IDX 27 1 26 2 25 3 24 4 23 5 21 6 22 7 19 8 1 9 2 10 3 11 4 12
REMARK SMILES IDX 5 13 17 14 18 15 20 16 6 17 7 18 8 19 9 21 10 22 15 23 11 24
REMARK SMILES IDX 14 25 16 26 12 27 13 28 28 29 29 30 30 31 31 32 32 33 33 34
REMARK SMILES IDX 97 35 34 36 96 37 35 38 36 39 37 40 90 41 38 42 95 43 89 44
REMARK SMILES IDX 91 45 39 46 94 47 88 48 87 49 40 51 74 52 53 53 73 54 54 55
REMARK SMILES IDX 57 56 72 57 92 58 55 59 56 60 71 62 93 63 58 64 41 65 42 66
REMARK SMILES IDX 51 67 43 68 44 69 50 70 52 71 45 72 46 73 47 74 48 75 49 76
REMARK SMILES IDX 75 77 76 78 85 79 77 80 78 81 84 82 86 83 79 84 80 85 81 86
REMARK SMILES IDX 82 87 83 88 59 89 60 90 69 91 61 92 62 93 68 94 70 95 63 96
REMARK SMILES IDX 64 97 65 98 66 99 67 100
REMARK H PARENT 8 20 91 50 57 61
REMARK Flexibility Score: inf
ROOT
ATOM      1  C   UNL A   1      40.046  21.770  26.799  1.00  0.00     0.202 C 
ENDROOT
BRANCH   1   2
ATOM      2  O   UNL A   1      38.816  22.409  26.478  1.00  0.00    -0.374 OA
BRANCH   2   3
ATOM      3  C   UNL A   1      38.080  21.862  25.381  1.00  0.00     0.202 C 
BRANCH   3   4
ATOM      4  C   UNL A   1      37.046  22.780  24.715  1.00  0.00     0.261 C 
BRANCH   4   5
ATOM      5  O   UNL A   1      36.132  23.351  25.680  1.00  0.00    -0.463 OA
BRANCH   5   6
ATOM      6  C   UNL A   1      34.905  22.785  25.780  1.00  0.00     0.312 C 
ATOM      7  O   UNL A   1      34.727  21.610  26.085  1.00  0.00    -0.252 OA
BRANCH   6   8
ATOM      8  C   UNL A   1      33.746  23.751  25.416  1.00  0.00     0.071 C 
ATOM      9  C   UNL A   1      31.874  22.610  24.122  1.00  0.00     0.013 C 
ATOM     10  C   UNL A   1      33.062  23.601  23.965  1.00  0.00    -0.005 C 
ATOM     11  C   UNL A   1      33.996  23.000  22.904  1.00  0.00     0.013 C 
ATOM     12  C   UNL A   1      32.726  25.101  23.479  1.00  0.00     0.053 C 
ATOM     13  C   UNL A   1      33.057  25.578  22.026  1.00  0.00     0.022 C 
ATOM     14  C   UNL A   1      33.768  25.953  24.278  1.00  0.00     0.018 C 
ATOM     15  C   UNL A   1      34.318  25.176  25.449  1.00  0.00     0.020 C 
ATOM     16  C   UNL A   1      32.756  23.635  26.604  1.00  0.00     0.024 C 
BRANCH  12  17
ATOM     17  C   UNL A   1      31.283  25.562  23.792  1.00  0.00     0.230 C 
ATOM     18  O   UNL A   1      30.327  24.987  23.254  1.00  0.00    -0.274 OA
ATOM     19  N   UNL A   1      30.947  26.555  24.674  1.00  0.00    -0.324 N 
ATOM     20  H   UNL A   1      29.978  26.560  24.848  1.00  0.00     0.170 HD
BRANCH  19  21
ATOM     21  C   UNL A   1      31.601  27.577  25.410  1.00  0.00     0.060 A 
ATOM     22  C   UNL A   1      31.828  27.536  26.780  1.00  0.00     0.029 A 
ATOM     23  C   UNL A   1      32.102  28.704  24.731  1.00  0.00     0.066 A 
ATOM     24  C   UNL A   1      32.526  28.528  27.470  1.00  0.00     0.023 A 
ATOM     25  C   UNL A   1      32.787  29.726  25.408  1.00  0.00     0.043 A 
ATOM     26  Cl  UNL A   1      31.853  28.897  23.029  1.00  0.00    -0.082 Cl
ATOM     27  C   UNL A   1      33.003  29.626  26.779  1.00  0.00     0.042 A 
ATOM     28  Cl  UNL A   1      33.842  30.859  27.626  1.00  0.00    -0.084 Cl
ENDBRANCH  19  21
ENDBRANCH  12  17
ENDBRANCH   6   8
ENDBRANCH   5   6
ENDBRANCH   4   5
ENDBRANCH   3   4
ENDBRANCH   2   3
ENDBRANCH   1   2
BRANCH   1  29
ATOM     29  C   UNL A   1      41.319  22.391  26.181  1.00  0.00     0.261 C 
BRANCH  29  30
ATOM     30  O   UNL A   1      42.031  23.259  27.085  1.00  0.00    -0.460 OA
BRANCH  30  31
ATOM     31  C   UNL A   1      42.286  24.496  26.594  1.00  0.00     0.338 C 
ATOM     32  O   UNL A   1      42.756  24.762  25.494  1.00  0.00    -0.246 OA
BRANCH  31  33
ATOM     33  C   UNL A   1      41.736  25.545  27.480  1.00  0.00     0.060 A 
ATOM     34  C   UNL A   1      42.515  26.697  27.642  1.00  0.00     0.016 A 
ATOM     35  C   UNL A   1      40.550  25.392  28.202  1.00  0.00     0.016 A 
ATOM     36  C   UNL A   1      42.149  27.669  28.571  1.00  0.00     0.010 A 
ATOM     37  C   UNL A   1      40.184  26.373  29.140  1.00  0.00     0.010 A 
ATOM     38  C   UNL A   1      41.004  27.498  29.359  1.00  0.00    -0.014 A 
BRANCH  38  39
ATOM     39  C   UNL A   1      40.767  28.434  30.493  1.00  0.00     0.031 A 
ATOM     40  C   UNL A   1      41.611  28.320  31.738  1.00  0.00     0.074 A 
ATOM     41  C   UNL A   1      39.869  29.434  30.387  1.00  0.00     0.049 A 
ATOM     42  N   UNL A   1      41.591  29.050  32.824  1.00  0.00    -0.248 NA
ATOM     43  C   UNL A   1      42.614  27.242  31.759  1.00  0.00     0.031 C 
ATOM     44  C   UNL A   1      39.022  29.686  29.222  1.00  0.00     0.029 A 
ATOM     45  N   UNL A   1      39.526  30.428  31.272  1.00  0.00    -0.354 N 
ATOM     46  C   UNL A   1      42.571  28.520  33.658  1.00  0.00     0.074 A 
ATOM     47  C   UNL A   1      43.145  27.388  32.964  1.00  0.00     0.031 C 
ATOM     48  C   UNL A   1      38.253  30.762  29.465  1.00  0.00     0.029 A 
ATOM     49  C   UNL A   1      38.528  31.256  30.813  1.00  0.00     0.049 A 
ATOM     50  H   UNL A   1      39.954  30.537  32.151  1.00  0.00     0.167 HD
ATOM     51  C   UNL A   1      42.963  28.944  34.883  1.00  0.00     0.037 A 
ATOM     52  C   UNL A   1      37.892  32.281  31.418  1.00  0.00     0.037 A 
ATOM     53  C   UNL A   1      42.399  30.080  35.568  1.00  0.00     0.049 A 
ATOM     54  C   UNL A   1      38.301  32.692  32.810  1.00  0.00     0.074 A 
ATOM     55  C   UNL A   1      42.755  30.602  36.800  1.00  0.00     0.029 A 
ATOM     56  N   UNL A   1      41.361  30.864  35.089  1.00  0.00    -0.354 N 
ATOM     57  N   UNL A   1      39.249  32.199  33.571  1.00  0.00    -0.248 NA
ATOM     58  C   UNL A   1      37.556  33.801  33.425  1.00  0.00     0.031 C 
ATOM     59  C   UNL A   1      41.891  31.662  37.094  1.00  0.00     0.029 A 
ATOM     60  C   UNL A   1      41.040  31.843  36.017  1.00  0.00     0.049 A 
ATOM     61  H   UNL A   1      40.918  30.744  34.218  1.00  0.00     0.167 HD
ATOM     62  C   UNL A   1      39.230  32.953  34.741  1.00  0.00     0.074 A 
ATOM     63  C   UNL A   1      38.189  33.946  34.581  1.00  0.00     0.031 C 
ATOM     64  C   UNL A   1      40.004  32.832  35.849  1.00  0.00     0.037 A 
BRANCH  51  65
ATOM     65  C   UNL A   1      44.041  28.165  35.589  1.00  0.00     0.058 A 
ATOM     66  C   UNL A   1      45.402  28.473  35.437  1.00  0.00     0.135 A 
ATOM     67  C   UNL A   1      43.700  27.137  36.484  1.00  0.00     0.135 A 
ATOM     68  F   UNL A   1      45.786  29.435  34.583  1.00  0.00    -0.206 F 
ATOM     69  C   UNL A   1      46.387  27.781  36.136  1.00  0.00     0.059 A 
ATOM     70  C   UNL A   1      44.665  26.450  37.214  1.00  0.00     0.059 A 
ATOM     71  F   UNL A   1      42.413  26.799  36.666  1.00  0.00    -0.206 F 
ATOM     72  C   UNL A   1      46.008  26.774  37.025  1.00  0.00     0.060 A 
BRANCH  72  73
ATOM     73  S   UNL A   1      47.296  25.902  37.943  1.00  0.00     0.124 S 
ATOM     74  O   UNL A   1      48.079  25.316  36.860  1.00  0.00    -0.237 OA
ATOM     75  O   UNL A   1      47.942  26.987  38.675  1.00  0.00    -0.237 OA
ATOM     76  O   UNL A   1      46.550  24.953  38.762  1.00  0.00    -0.744 OA
ENDBRANCH  72  73
ENDBRANCH  51  65
BRANCH  52  77
ATOM     77  C   UNL A   1      36.773  32.978  30.723  1.00  0.00     0.058 A 
ATOM     78  C   UNL A   1      37.012  33.945  29.736  1.00  0.00     0.135 A 
ATOM     79  C   UNL A   1      35.437  32.700  31.053  1.00  0.00     0.135 A 
ATOM     80  F   UNL A   1      38.270  34.260  29.394  1.00  0.00    -0.206 F 
ATOM     81  C   UNL A   1      35.967  34.627  29.116  1.00  0.00     0.059 A 
ATOM     82  C   UNL A   1      34.377  33.345  30.426  1.00  0.00     0.059 A 
ATOM     83  F   UNL A   1      35.152  31.776  31.986  1.00  0.00    -0.206 F 
ATOM     84  C   UNL A   1      34.652  34.317  29.467  1.00  0.00     0.060 A 
BRANCH  84  85
ATOM     85  S   UNL A   1      33.304  35.178  28.630  1.00  0.00     0.124 S 
ATOM     86  O   UNL A   1      32.667  34.088  27.900  1.00  0.00    -0.237 OA
ATOM     87  O   UNL A   1      32.548  35.724  29.753  1.00  0.00    -0.237 OA
ATOM     88  O   UNL A   1      33.997  36.168  27.811  1.00  0.00    -0.744 OA
ENDBRANCH  84  85
ENDBRANCH  52  77
BRANCH  64  89
ATOM     89  C   UNL A   1      39.781  33.814  36.968  1.00  0.00     0.058 A 
ATOM     90  C   UNL A   1      38.955  33.514  38.063  1.00  0.00     0.135 A 
ATOM     91  C   UNL A   1      40.445  35.053  36.972  1.00  0.00     0.135 A 
ATOM     92  F   UNL A   1      38.292  32.348  38.110  1.00  0.00    -0.206 F 
ATOM     93  C   UNL A   1      38.774  34.416  39.107  1.00  0.00     0.059 A 
ATOM     94  C   UNL A   1      40.303  35.956  38.021  1.00  0.00     0.059 A 
ATOM     95  F   UNL A   1      41.257  35.388  35.958  1.00  0.00    -0.206 F 
ATOM     96  C   UNL A   1      39.455  35.635  39.079  1.00  0.00     0.060 A 
BRANCH  96  97
ATOM     97  S   UNL A   1      39.233  36.782  40.455  1.00  0.00     0.124 S 
ATOM     98  O   UNL A   1      38.422  35.989  41.372  1.00  0.00    -0.237 OA
ATOM     99  O   UNL A   1      40.609  37.031  40.878  1.00  0.00    -0.237 OA
ATOM    100  O   UNL A   1      38.557  37.921  39.844  1.00  0.00    -0.744 OA
ENDBRANCH  96  97
ENDBRANCH  64  89
ENDBRANCH  38  39
ENDBRANCH  31  33
ENDBRANCH  30  31
ENDBRANCH  29  30
ENDBRANCH   1  29
TORSDOF 19
ENDMDL
MODEL 3
REMARK VINA RESULT:     -11.3      0.550      8.019
REMARK SMILES CC1(C)[C@@](C)(C(=O)Nc2ccc(Cl)cc2Cl)CC[C@]1(C)C(=O)OCCOCCOC(=O)c1ccc(-c2c3nc(c(-c4c(F)cc(S(=O)(=O)[O-])cc4F)c4ccc([nH]4)c(-c4c(F)cc(S(=O)(=O)[O-])cc4F)c4nc(c(-c5c(F)cc(S(=O)(=O)[O-])cc5F)c5ccc2[nH]5)C=C4)C=C3)cc1
REMARK SMILES IDX 27 1 26 2 25 3 24 4 23 5 21 6 22 7 19 8 1 9 2 10 3 11 4 12
REMARK SMILES IDX 5 13 17 14 18 15 20 16 6 17 7 18 8 19 9 21 10 22 15 23 11 24
REMARK SMILES IDX 14 25 16 26 12 27 13 28 28 29 29 30 30 31 31 32 32 33 33 34
REMARK SMILES IDX 97 35 34 36 96 37 35 38 36 39 37 40 90 41 38 42 95 43 89 44
REMARK SMILES IDX 91 45 39 46 94 47 88 48 87 49 40 51 74 52 53 53 73 54 54 55
REMARK SMILES IDX 57 56 72 57 92 58 55 59 56 60 71 62 93 63 58 64 41 65 42 66
REMARK SMILES IDX 51 67 43 68 44 69 50 70 52 71 45 72 46 73 47 74 48 75 49 76
REMARK SMILES IDX 75 77 76 78 85 79 77 80 78 81 84 82 86 83 79 84 80 85 81 86
REMARK SMILES IDX 82 87 83 88 59 89 60 90 69 91 61 92 62 93 68 94 70 95 63 96
REMARK SMILES IDX 64 97 65 98 66 99 67 100
REMARK H PARENT 8 20 91 50 57 61
REMARK Flexibility Score: inf
ROOT
ATOM      1  C   UNL A   1      34.177  31.941  27.864  1.00  0.00     0.202 C 
ENDROOT
BRANCH   1   2
ATOM      2  O   UNL A   1      34.091  30.768  27.064  1.00  0.00    -0.374 OA
BRANCH   2   3
ATOM      3  C   UNL A   1      32.785  30.217  26.879  1.00  0.00     0.202 C 
BRANCH   3   4
ATOM      4  C   UNL A   1      32.440  29.712  25.471  1.00  0.00     0.261 C 
BRANCH   4   5
ATOM      5  O   UNL A   1      31.358  28.753  25.494  1.00  0.00    -0.463 OA
BRANCH   5   6
ATOM      6  C   UNL A   1      31.189  27.984  24.391  1.00  0.00     0.312 C 
ATOM      7  O   UNL A   1      30.977  28.444  23.273  1.00  0.00    -0.252 OA
BRANCH   6   8
ATOM      8  C   UNL A   1      31.229  26.461  24.685  1.00  0.00     0.071 C 
ATOM      9  C   UNL A   1      33.213  25.780  26.126  1.00  0.00     0.013 C 
ATOM     10  C   UNL A   1      32.662  25.723  24.674  1.00  0.00    -0.005 C 
ATOM     11  C   UNL A   1      33.703  26.417  23.783  1.00  0.00     0.013 C 
ATOM     12  C   UNL A   1      32.404  24.270  24.026  1.00  0.00     0.053 C 
ATOM     13  C   UNL A   1      33.360  23.686  22.933  1.00  0.00     0.022 C 
ATOM     14  C   UNL A   1      31.127  24.512  23.156  1.00  0.00     0.018 C 
ATOM     15  C   UNL A   1      30.408  25.767  23.586  1.00  0.00     0.020 C 
ATOM     16  C   UNL A   1      30.437  26.299  26.008  1.00  0.00     0.024 C 
BRANCH  12  17
ATOM     17  C   UNL A   1      32.159  23.147  25.063  1.00  0.00     0.230 C 
ATOM     18  O   UNL A   1      31.005  22.912  25.447  1.00  0.00    -0.274 OA
ATOM     19  N   UNL A   1      33.127  22.329  25.581  1.00  0.00    -0.324 N 
ATOM     20  H   UNL A   1      32.727  21.580  26.080  1.00  0.00     0.170 HD
BRANCH  19  21
ATOM     21  C   UNL A   1      34.544  22.253  25.601  1.00  0.00     0.060 A 
ATOM     22  C   UNL A   1      35.379  23.281  26.023  1.00  0.00     0.029 A 
ATOM     23  C   UNL A   1      35.177  21.058  25.211  1.00  0.00     0.066 A 
ATOM     24  C   UNL A   1      36.768  23.160  26.088  1.00  0.00     0.023 A 
ATOM     25  C   UNL A   1      36.574  20.922  25.246  1.00  0.00     0.043 A 
ATOM     26  Cl  UNL A   1      34.255  19.715  24.626  1.00  0.00    -0.082 Cl
ATOM     27  C   UNL A   1      37.363  21.976  25.694  1.00  0.00     0.042 A 
ATOM     28  Cl  UNL A   1      39.072  21.830  25.751  1.00  0.00    -0.084 Cl
ENDBRANCH  19  21
ENDBRANCH  12  17
ENDBRANCH   6   8
ENDBRANCH   5   6
ENDBRANCH   4   5
ENDBRANCH   3   4
ENDBRANCH   2   3
ENDBRANCH   1   2
BRANCH   1  29
ATOM     29  C   UNL A   1      35.036  31.834  29.144  1.00  0.00     0.261 C 
BRANCH  29  30
ATOM     30  O   UNL A   1      35.622  30.530  29.333  1.00  0.00    -0.460 OA
BRANCH  30  31
ATOM     31  C   UNL A   1      36.609  30.485  30.260  1.00  0.00     0.338 C 
ATOM     32  O   UNL A   1      36.506  30.758  31.450  1.00  0.00    -0.246 OA
BRANCH  31  33
ATOM     33  C   UNL A   1      37.831  29.860  29.708  1.00  0.00     0.060 A 
ATOM     34  C   UNL A   1      38.763  29.382  30.637  1.00  0.00     0.016 A 
ATOM     35  C   UNL A   1      38.115  29.813  28.341  1.00  0.00     0.016 A 
ATOM     36  C   UNL A   1      40.005  28.915  30.211  1.00  0.00     0.010 A 
ATOM     37  C   UNL A   1      39.369  29.344  27.914  1.00  0.00     0.010 A 
ATOM     38  C   UNL A   1      40.338  28.930  28.851  1.00  0.00    -0.014 A 
BRANCH  38  39
ATOM     39  C   UNL A   1      41.744  28.644  28.453  1.00  0.00     0.031 A 
ATOM     40  C   UNL A   1      42.121  27.251  28.014  1.00  0.00     0.074 A 
ATOM     41  C   UNL A   1      42.661  29.630  28.399  1.00  0.00     0.049 A 
ATOM     42  N   UNL A   1      43.276  26.796  27.600  1.00  0.00    -0.248 NA
ATOM     43  C   UNL A   1      41.053  26.238  28.041  1.00  0.00     0.031 C 
ATOM     44  C   UNL A   1      42.417  31.028  28.751  1.00  0.00     0.029 A 
ATOM     45  N   UNL A   1      43.982  29.606  28.020  1.00  0.00    -0.354 N 
ATOM     46  C   UNL A   1      43.078  25.447  27.321  1.00  0.00     0.074 A 
ATOM     47  C   UNL A   1      41.699  25.151  27.643  1.00  0.00     0.031 C 
ATOM     48  C   UNL A   1      43.551  31.728  28.576  1.00  0.00     0.029 A 
ATOM     49  C   UNL A   1      44.611  30.824  28.132  1.00  0.00     0.049 A 
ATOM     50  H   UNL A   1      44.435  28.794  27.699  1.00  0.00     0.167 HD
ATOM     51  C   UNL A   1      43.959  24.542  26.833  1.00  0.00     0.037 A 
ATOM     52  C   UNL A   1      45.899  31.169  27.922  1.00  0.00     0.037 A 
ATOM     53  C   UNL A   1      45.330  24.841  26.500  1.00  0.00     0.049 A 
ATOM     54  C   UNL A   1      46.878  30.127  27.443  1.00  0.00     0.074 A 
ATOM     55  C   UNL A   1      46.289  23.994  25.971  1.00  0.00     0.029 A 
ATOM     56  N   UNL A   1      45.939  26.075  26.670  1.00  0.00    -0.354 N 
ATOM     57  N   UNL A   1      46.665  28.865  27.157  1.00  0.00    -0.248 NA
ATOM     58  C   UNL A   1      48.271  30.557  27.254  1.00  0.00     0.031 C 
ATOM     59  C   UNL A   1      47.493  24.698  25.878  1.00  0.00     0.029 A 
ATOM     60  C   UNL A   1      47.270  26.001  26.289  1.00  0.00     0.049 A 
ATOM     61  H   UNL A   1      45.493  26.884  27.010  1.00  0.00     0.167 HD
ATOM     62  C   UNL A   1      47.890  28.358  26.731  1.00  0.00     0.074 A 
ATOM     63  C   UNL A   1      48.835  29.454  26.780  1.00  0.00     0.031 C 
ATOM     64  C   UNL A   1      48.205  27.099  26.337  1.00  0.00     0.037 A 
BRANCH  51  65
ATOM     65  C   UNL A   1      43.487  23.124  26.648  1.00  0.00     0.058 A 
ATOM     66  C   UNL A   1      43.308  22.561  25.375  1.00  0.00     0.135 A 
ATOM     67  C   UNL A   1      43.277  22.297  27.764  1.00  0.00     0.135 A 
ATOM     68  F   UNL A   1      43.480  23.309  24.273  1.00  0.00    -0.206 F 
ATOM     69  C   UNL A   1      42.923  21.233  25.214  1.00  0.00     0.059 A 
ATOM     70  C   UNL A   1      42.918  20.959  27.628  1.00  0.00     0.059 A 
ATOM     71  F   UNL A   1      43.432  22.785  29.005  1.00  0.00    -0.206 F 
ATOM     72  C   UNL A   1      42.734  20.439  26.348  1.00  0.00     0.060 A 
BRANCH  72  73
ATOM     73  S   UNL A   1      42.259  18.712  26.122  1.00  0.00     0.124 S 
ATOM     74  O   UNL A   1      40.853  18.843  25.754  1.00  0.00    -0.237 OA
ATOM     75  O   UNL A   1      43.155  18.280  25.054  1.00  0.00    -0.237 OA
ATOM     76  O   UNL A   1      42.512  18.114  27.430  1.00  0.00    -0.744 OA
ENDBRANCH  72  73
ENDBRANCH  51  65
BRANCH  52  77
ATOM     77  C   UNL A   1      46.351  32.562  28.195  1.00  0.00     0.058 A 
ATOM     78  C   UNL A   1      46.868  32.934  29.444  1.00  0.00     0.135 A 
ATOM     79  C   UNL A   1      46.253  33.557  27.208  1.00  0.00     0.135 A 
ATOM     80  F   UNL A   1      46.969  32.026  30.427  1.00  0.00    -0.206 F 
ATOM     81  C   UNL A   1      47.252  34.245  29.714  1.00  0.00     0.059 A 
ATOM     82  C   UNL A   1      46.658  34.866  27.443  1.00  0.00     0.059 A 
ATOM     83  F   UNL A   1      45.773  33.253  25.992  1.00  0.00    -0.206 F 
ATOM     84  C   UNL A   1      47.145  35.204  28.704  1.00  0.00     0.060 A 
BRANCH  84  85
ATOM     85  S   UNL A   1      47.681  36.893  29.050  1.00  0.00     0.124 S 
ATOM     86  O   UNL A   1      48.867  36.664  29.867  1.00  0.00    -0.237 OA
ATOM     87  O   UNL A   1      47.920  37.417  27.709  1.00  0.00    -0.237 OA
ATOM     88  O   UNL A   1      46.535  37.472  29.745  1.00  0.00    -0.744 OA
ENDBRANCH  84  85
ENDBRANCH  52  77
BRANCH  64  89
ATOM     89  C   UNL A   1      49.620  26.836  25.897  1.00  0.00     0.058 A 
ATOM     90  C   UNL A   1      50.032  27.035  24.570  1.00  0.00     0.135 A 
ATOM     91  C   UNL A   1      50.591  26.428  26.827  1.00  0.00     0.135 A 
ATOM     92  F   UNL A   1      49.147  27.419  23.637  1.00  0.00    -0.206 F 
ATOM     93  C   UNL A   1      51.349  26.815  24.175  1.00  0.00     0.059 A 
ATOM     94  C   UNL A   1      51.919  26.231  26.461  1.00  0.00     0.059 A 
ATOM     95  F   UNL A   1      50.257  26.233  28.112  1.00  0.00    -0.206 F 
ATOM     96  C   UNL A   1      52.287  26.415  25.129  1.00  0.00     0.060 A 
BRANCH  96  97
ATOM     97  S   UNL A   1      53.997  26.162  24.609  1.00  0.00     0.124 S 
ATOM     98  O   UNL A   1      54.248  24.802  25.073  1.00  0.00    -0.237 OA
ATOM     99  O   UNL A   1      53.911  26.333  23.161  1.00  0.00    -0.237 OA
ATOM    100  O   UNL A   1      54.727  27.211  25.314  1.00  0.00    -0.744 OA
ENDBRANCH  96  97
ENDBRANCH  64  89
ENDBRANCH  38  39
ENDBRANCH  31  33
ENDBRANCH  30  31
ENDBRANCH  29  30
ENDBRANCH   1  29
TORSDOF 19
ENDMDL
