MODEL 1
REMARK VINA RESULT:     -12.5      0.000      0.000
REMARK SMILES COc1ccccc1[C@@H]1C[N@@H+](Cc2cn3cc(C)ccc3n2)C[C@H]1C(=O)OCCOCCOC(=O)c1ccc(-c2c3nc(c(-c4c(F)cc(S(=O)(=O)[O-])cc4F)c4ccc([nH]4)c(-c4c(F)cc(S(=O)(=O)[O-])cc4F)c4nc(c(-c5c(F)cc(S(=O)(=O)[O-])cc5F)c5ccc2[nH]5)C=C4)C=C3)cc1
REMARK SMILES IDX 31 1 30 2 29 3 28 4 27 5 25 6 26 7 24 8 9 9 10 10 11 11
REMARK SMILES IDX 23 12 8 14 3 15 4 16 5 17 7 18 6 19 2 20 1 21 12 22 13 23
REMARK SMILES IDX 14 24 22 25 15 26 21 27 16 28 20 29 17 30 19 31 18 32 32 33
REMARK SMILES IDX 33 34 34 35 35 36 36 37 37 38 101 39 38 40 100 41 39 42
REMARK SMILES IDX 40 43 41 44 94 45 42 46 99 47 93 48 95 49 43 50 98 51 92 52
REMARK SMILES IDX 91 53 44 55 78 56 57 57 77 58 58 59 61 60 76 61 96 62 59 63
REMARK SMILES IDX 60 64 75 66 97 67 62 68 45 69 46 70 55 71 47 72 48 73 54 74
REMARK SMILES IDX 56 75 49 76 50 77 51 78 52 79 53 80 79 81 80 82 89 83 81 84
REMARK SMILES IDX 82 85 88 86 90 87 83 88 84 89 85 90 86 91 87 92 63 93 64 94
REMARK SMILES IDX 73 95 65 96 66 97 72 98 74 99 67 100 68 101 69 102 70 103
REMARK SMILES IDX 71 104
REMARK H PARENT 11 13 95 54 61 65
REMARK Flexibility Score: inf
ROOT
ATOM      1  C   UNL A   1      36.921  21.198  25.580  1.00  0.00     0.202 C 
ENDROOT
BRANCH   1   2
ATOM      2  O   UNL A   1      36.073  22.332  25.401  1.00  0.00    -0.374 OA
BRANCH   2   3
ATOM      3  C   UNL A   1      36.171  22.955  24.124  1.00  0.00     0.202 C 
BRANCH   3   4
ATOM      4  C   UNL A   1      35.015  23.908  23.807  1.00  0.00     0.261 C 
BRANCH   4   5
ATOM      5  O   UNL A   1      34.827  24.949  24.795  1.00  0.00    -0.463 OA
BRANCH   5   6
ATOM      6  C   UNL A   1      33.882  25.878  24.509  1.00  0.00     0.315 C 
ATOM      7  O   UNL A   1      34.058  26.813  23.730  1.00  0.00    -0.252 OA
BRANCH   6   8
ATOM      8  C   UNL A   1      32.606  25.785  25.329  1.00  0.00     0.167 C 
ATOM      9  C   UNL A   1      31.219  25.844  24.689  1.00  0.00     0.098 C 
ATOM     10  C   UNL A   1      30.333  25.089  25.698  1.00  0.00     0.272 C 
ATOM     11  N   UNL A   1      31.194  24.123  26.407  1.00  0.00    -0.329 N 
ATOM     12  C   UNL A   1      32.595  24.494  26.154  1.00  0.00     0.278 C 
ATOM     13  H   UNL A   1      30.977  24.199  27.400  1.00  0.00     0.348 HD
BRANCH   9  14
ATOM     14  C   UNL A   1      30.576  27.133  24.166  1.00  0.00     0.004 A 
ATOM     15  C   UNL A   1      31.033  28.457  24.192  1.00  0.00     0.122 A 
ATOM     16  C   UNL A   1      30.254  29.495  23.623  1.00  0.00     0.047 A 
ATOM     17  C   UNL A   1      28.980  29.274  23.109  1.00  0.00     0.004 A 
ATOM     18  C   UNL A   1      29.239  26.982  23.721  1.00  0.00     0.008 A 
ATOM     19  C   UNL A   1      28.447  28.009  23.201  1.00  0.00     0.001 A 
BRANCH  15  20
ATOM     20  O   UNL A   1      32.032  28.964  24.975  1.00  0.00    -0.496 OA
ATOM     21  C   UNL A   1      31.754  29.194  26.337  1.00  0.00     0.278 C 
ENDBRANCH  15  20
ENDBRANCH   9  14
BRANCH  11  22
ATOM     22  C   UNL A   1      30.908  22.682  26.171  1.00  0.00     0.321 C 
BRANCH  22  23
ATOM     23  C   UNL A   1      31.976  22.001  25.375  1.00  0.00     0.114 A 
ATOM     24  C   UNL A   1      32.958  21.135  25.834  1.00  0.00     0.122 A 
ATOM     25  N   UNL A   1      31.894  21.953  24.006  1.00  0.00    -0.228 NA
ATOM     26  N   UNL A   1      33.105  20.246  24.797  1.00  0.00    -0.306 N 
ATOM     27  C   UNL A   1      32.449  20.803  23.706  1.00  0.00     0.137 A 
ATOM     28  C   UNL A   1      33.529  18.923  24.855  1.00  0.00     0.096 A 
ATOM     29  C   UNL A   1      32.174  19.952  22.613  1.00  0.00     0.048 A 
ATOM     30  C   UNL A   1      33.156  18.093  23.866  1.00  0.00    -0.034 A 
ATOM     31  C   UNL A   1      32.432  18.641  22.731  1.00  0.00     0.009 A 
ATOM     32  C   UNL A   1      33.384  16.629  23.848  1.00  0.00     0.046 C 
ENDBRANCH  22  23
ENDBRANCH  11  22
ENDBRANCH   6   8
ENDBRANCH   5   6
ENDBRANCH   4   5
ENDBRANCH   3   4
ENDBRANCH   2   3
ENDBRANCH   1   2
BRANCH   1  33
ATOM     33  C   UNL A   1      38.410  21.515  25.407  1.00  0.00     0.261 C 
BRANCH  33  34
ATOM     34  O   UNL A   1      38.904  22.395  26.436  1.00  0.00    -0.460 OA
BRANCH  34  35
ATOM     35  C   UNL A   1      40.145  22.166  26.968  1.00  0.00     0.338 C 
ATOM     36  O   UNL A   1      40.550  21.150  27.459  1.00  0.00    -0.246 OA
BRANCH  35  37
ATOM     37  C   UNL A   1      40.768  23.517  27.098  1.00  0.00     0.060 A 
ATOM     38  C   UNL A   1      41.577  23.758  28.207  1.00  0.00     0.016 A 
ATOM     39  C   UNL A   1      40.278  24.588  26.369  1.00  0.00     0.016 A 
ATOM     40  C   UNL A   1      41.619  25.042  28.768  1.00  0.00     0.010 A 
ATOM     41  C   UNL A   1      40.283  25.850  26.958  1.00  0.00     0.010 A 
ATOM     42  C   UNL A   1      40.837  26.065  28.232  1.00  0.00    -0.014 A 
BRANCH  42  43
ATOM     43  C   UNL A   1      40.745  27.405  28.856  1.00  0.00     0.031 A 
ATOM     44  C   UNL A   1      41.725  28.351  28.273  1.00  0.00     0.074 A 
ATOM     45  C   UNL A   1      39.886  27.902  29.788  1.00  0.00     0.049 A 
ATOM     46  N   UNL A   1      42.948  28.468  28.670  1.00  0.00    -0.248 NA
ATOM     47  C   UNL A   1      41.428  29.066  27.022  1.00  0.00     0.031 C 
ATOM     48  C   UNL A   1      38.672  27.322  30.371  1.00  0.00     0.029 A 
ATOM     49  N   UNL A   1      39.889  29.155  30.355  1.00  0.00    -0.354 N 
ATOM     50  C   UNL A   1      43.483  29.475  27.889  1.00  0.00     0.074 A 
ATOM     51  C   UNL A   1      42.635  29.561  26.730  1.00  0.00     0.031 C 
ATOM     52  C   UNL A   1      37.934  28.294  30.973  1.00  0.00     0.029 A 
ATOM     53  C   UNL A   1      38.721  29.514  31.037  1.00  0.00     0.049 A 
ATOM     54  H   UNL A   1      40.663  29.759  30.288  1.00  0.00     0.167 HD
ATOM     55  C   UNL A   1      44.376  30.362  28.406  1.00  0.00     0.037 A 
ATOM     56  C   UNL A   1      38.449  30.697  31.661  1.00  0.00     0.037 A 
ATOM     57  C   UNL A   1      44.823  29.951  29.721  1.00  0.00     0.049 A 
ATOM     58  C   UNL A   1      39.761  31.285  32.030  1.00  0.00     0.074 A 
ATOM     59  C   UNL A   1      45.346  28.785  30.252  1.00  0.00     0.029 A 
ATOM     60  N   UNL A   1      44.363  30.666  30.804  1.00  0.00    -0.354 N 
ATOM     61  N   UNL A   1      40.560  30.767  32.920  1.00  0.00    -0.248 NA
ATOM     62  C   UNL A   1      40.377  32.212  31.098  1.00  0.00     0.031 C 
ATOM     63  C   UNL A   1      44.713  28.637  31.522  1.00  0.00     0.029 A 
ATOM     64  C   UNL A   1      43.918  29.762  31.737  1.00  0.00     0.049 A 
ATOM     65  H   UNL A   1      44.355  31.647  30.894  1.00  0.00     0.167 HD
ATOM     66  C   UNL A   1      41.821  30.910  32.370  1.00  0.00     0.074 A 
ATOM     67  C   UNL A   1      41.659  31.895  31.302  1.00  0.00     0.031 C 
ATOM     68  C   UNL A   1      42.812  30.009  32.635  1.00  0.00     0.037 A 
BRANCH  55  69
ATOM     69  C   UNL A   1      44.553  31.773  27.903  1.00  0.00     0.058 A 
ATOM     70  C   UNL A   1      45.770  32.128  27.290  1.00  0.00     0.135 A 
ATOM     71  C   UNL A   1      43.684  32.846  28.202  1.00  0.00     0.135 A 
ATOM     72  F   UNL A   1      46.682  31.191  26.988  1.00  0.00    -0.206 F 
ATOM     73  C   UNL A   1      46.117  33.455  27.039  1.00  0.00     0.059 A 
ATOM     74  C   UNL A   1      43.980  34.167  27.897  1.00  0.00     0.059 A 
ATOM     75  F   UNL A   1      42.551  32.686  28.895  1.00  0.00    -0.206 F 
ATOM     76  C   UNL A   1      45.216  34.467  27.352  1.00  0.00     0.060 A 
BRANCH  76  77
ATOM     77  S   UNL A   1      45.689  36.184  27.098  1.00  0.00     0.124 S 
ATOM     78  O   UNL A   1      44.392  36.848  27.149  1.00  0.00    -0.237 OA
ATOM     79  O   UNL A   1      46.578  36.421  28.231  1.00  0.00    -0.237 OA
ATOM     80  O   UNL A   1      46.339  36.161  25.792  1.00  0.00    -0.744 OA
ENDBRANCH  76  77
ENDBRANCH  55  69
BRANCH  56  81
ATOM     81  C   UNL A   1      37.194  31.500  31.794  1.00  0.00     0.058 A 
ATOM     82  C   UNL A   1      36.749  31.970  33.051  1.00  0.00     0.135 A 
ATOM     83  C   UNL A   1      36.605  32.111  30.672  1.00  0.00     0.135 A 
ATOM     84  F   UNL A   1      37.259  31.459  34.183  1.00  0.00    -0.206 F 
ATOM     85  C   UNL A   1      35.838  33.027  33.187  1.00  0.00     0.059 A 
ATOM     86  C   UNL A   1      35.690  33.166  30.783  1.00  0.00     0.059 A 
ATOM     87  F   UNL A   1      36.982  31.764  29.433  1.00  0.00    -0.206 F 
ATOM     88  C   UNL A   1      35.334  33.641  32.043  1.00  0.00     0.060 A 
BRANCH  88  89
ATOM     89  S   UNL A   1      34.324  35.140  32.208  1.00  0.00     0.124 S 
ATOM     90  O   UNL A   1      33.116  34.626  32.843  1.00  0.00    -0.237 OA
ATOM     91  O   UNL A   1      35.167  35.992  33.041  1.00  0.00    -0.237 OA
ATOM     92  O   UNL A   1      34.163  35.590  30.829  1.00  0.00    -0.744 OA
ENDBRANCH  88  89
ENDBRANCH  56  81
BRANCH  68  93
ATOM     93  C   UNL A   1      42.655  29.071  33.811  1.00  0.00     0.058 A 
ATOM     94  C   UNL A   1      42.971  29.371  35.149  1.00  0.00     0.135 A 
ATOM     95  C   UNL A   1      42.028  27.837  33.571  1.00  0.00     0.135 A 
ATOM     96  F   UNL A   1      43.472  30.566  35.495  1.00  0.00    -0.206 F 
ATOM     97  C   UNL A   1      42.723  28.466  36.186  1.00  0.00     0.059 A 
ATOM     98  C   UNL A   1      41.737  26.938  34.592  1.00  0.00     0.059 A 
ATOM     99  F   UNL A   1      41.651  27.504  32.325  1.00  0.00    -0.206 F 
ATOM    100  C   UNL A   1      42.103  27.250  35.898  1.00  0.00     0.060 A 
BRANCH 100 101
ATOM    101  S   UNL A   1      41.731  26.106  37.244  1.00  0.00     0.124 S 
ATOM    102  O   UNL A   1      41.720  24.819  36.557  1.00  0.00    -0.237 OA
ATOM    103  O   UNL A   1      42.844  26.325  38.162  1.00  0.00    -0.237 OA
ATOM    104  O   UNL A   1      40.433  26.564  37.731  1.00  0.00    -0.744 OA
ENDBRANCH 100 101
ENDBRANCH  68  93
ENDBRANCH  42  43
ENDBRANCH  35  37
ENDBRANCH  34  35
ENDBRANCH  33  34
ENDBRANCH   1  33
TORSDOF 21
ENDMDL
MODEL 2
REMARK VINA RESULT:     -12.3      3.660      9.187
REMARK SMILES COc1ccccc1[C@@H]1C[N@@H+](Cc2cn3cc(C)ccc3n2)C[C@H]1C(=O)OCCOCCOC(=O)c1ccc(-c2c3nc(c(-c4c(F)cc(S(=O)(=O)[O-])cc4F)c4ccc([nH]4)c(-c4c(F)cc(S(=O)(=O)[O-])cc4F)c4nc(c(-c5c(F)cc(S(=O)(=O)[O-])cc5F)c5ccc2[nH]5)C=C4)C=C3)cc1
REMARK SMILES IDX 31 1 30 2 29 3 28 4 27 5 25 6 26 7 24 8 9 9 10 10 11 11
REMARK SMILES IDX 23 12 8 14 3 15 4 16 5 17 7 18 6 19 2 20 1 21 12 22 13 23
REMARK SMILES IDX 14 24 22 25 15 26 21 27 16 28 20 29 17 30 19 31 18 32 32 33
REMARK SMILES IDX 33 34 34 35 35 36 36 37 37 38 101 39 38 40 100 41 39 42
REMARK SMILES IDX 40 43 41 44 94 45 42 46 99 47 93 48 95 49 43 50 98 51 92 52
REMARK SMILES IDX 91 53 44 55 78 56 57 57 77 58 58 59 61 60 76 61 96 62 59 63
REMARK SMILES IDX 60 64 75 66 97 67 62 68 45 69 46 70 55 71 47 72 48 73 54 74
REMARK SMILES IDX 56 75 49 76 50 77 51 78 52 79 53 80 79 81 80 82 89 83 81 84
REMARK SMILES IDX 82 85 88 86 90 87 83 88 84 89 85 90 86 91 87 92 63 93 64 94
REMARK SMILES IDX 73 95 65 96 66 97 72 98 74 99 67 100 68 101 69 102 70 103
REMARK SMILES IDX 71 104
REMARK H PARENT 11 13 95 54 61 65
REMARK Flexibility Score: inf
ROOT
ATOM      1  C   UNL A   1      34.105  22.779  25.021  1.00  0.00     0.202 C 
ENDROOT
BRANCH   1   2
ATOM      2  O   UNL A   1      33.885  23.701  26.089  1.00  0.00    -0.374 OA
BRANCH   2   3
ATOM      3  C   UNL A   1      32.534  24.120  26.248  1.00  0.00     0.202 C 
BRANCH   3   4
ATOM      4  C   UNL A   1      32.356  25.640  26.304  1.00  0.00     0.261 C 
BRANCH   4   5
ATOM      5  O   UNL A   1      33.524  26.381  25.879  1.00  0.00    -0.463 OA
BRANCH   5   6
ATOM      6  C   UNL A   1      33.415  27.039  24.699  1.00  0.00     0.315 C 
ATOM      7  O   UNL A   1      33.643  26.523  23.606  1.00  0.00    -0.252 OA
BRANCH   6   8
ATOM      8  C   UNL A   1      33.123  28.527  24.805  1.00  0.00     0.167 C 
ATOM      9  C   UNL A   1      31.753  29.062  25.219  1.00  0.00     0.098 C 
ATOM     10  C   UNL A   1      32.079  30.448  25.809  1.00  0.00     0.272 C 
ATOM     11  N   UNL A   1      33.460  30.394  26.328  1.00  0.00    -0.329 N 
ATOM     12  C   UNL A   1      34.106  29.195  25.771  1.00  0.00     0.278 C 
ATOM     13  H   UNL A   1      33.934  31.238  26.010  1.00  0.00     0.348 HD
BRANCH   9  14
ATOM     14  C   UNL A   1      30.527  29.071  24.300  1.00  0.00     0.004 A 
ATOM     15  C   UNL A   1      29.903  28.029  23.601  1.00  0.00     0.122 A 
ATOM     16  C   UNL A   1      28.754  28.283  22.812  1.00  0.00     0.047 A 
ATOM     17  C   UNL A   1      28.254  29.567  22.615  1.00  0.00     0.004 A 
ATOM     18  C   UNL A   1      30.037  30.363  23.988  1.00  0.00     0.008 A 
ATOM     19  C   UNL A   1      28.933  30.626  23.173  1.00  0.00     0.001 A 
BRANCH  15  20
ATOM     20  O   UNL A   1      30.430  26.798  23.322  1.00  0.00    -0.496 OA
ATOM     21  C   UNL A   1      29.806  25.667  23.885  1.00  0.00     0.278 C 
ENDBRANCH  15  20
ENDBRANCH   9  14
BRANCH  11  22
ATOM     22  C   UNL A   1      33.620  30.525  27.802  1.00  0.00     0.321 C 
BRANCH  22  23
ATOM     23  C   UNL A   1      34.213  31.837  28.207  1.00  0.00     0.114 A 
ATOM     24  C   UNL A   1      33.779  33.109  27.865  1.00  0.00     0.122 A 
ATOM     25  N   UNL A   1      35.117  31.898  29.238  1.00  0.00    -0.228 NA
ATOM     26  N   UNL A   1      34.050  33.848  28.991  1.00  0.00    -0.306 N 
ATOM     27  C   UNL A   1      34.881  33.067  29.784  1.00  0.00     0.137 A 
ATOM     28  C   UNL A   1      33.407  34.999  29.438  1.00  0.00     0.096 A 
ATOM     29  C   UNL A   1      35.044  33.458  31.131  1.00  0.00     0.048 A 
ATOM     30  C   UNL A   1      33.471  35.292  30.747  1.00  0.00    -0.034 A 
ATOM     31  C   UNL A   1      34.299  34.466  31.608  1.00  0.00     0.009 A 
ATOM     32  C   UNL A   1      32.720  36.381  31.415  1.00  0.00     0.046 C 
ENDBRANCH  22  23
ENDBRANCH  11  22
ENDBRANCH   6   8
ENDBRANCH   5   6
ENDBRANCH   4   5
ENDBRANCH   3   4
ENDBRANCH   2   3
ENDBRANCH   1   2
BRANCH   1  33
ATOM     33  C   UNL A   1      34.747  21.464  25.473  1.00  0.00     0.261 C 
BRANCH  33  34
ATOM     34  O   UNL A   1      36.064  21.660  26.024  1.00  0.00    -0.460 OA
BRANCH  34  35
ATOM     35  C   UNL A   1      37.138  21.080  25.404  1.00  0.00     0.338 C 
ATOM     36  O   UNL A   1      37.251  19.936  25.062  1.00  0.00    -0.246 OA
BRANCH  35  37
ATOM     37  C   UNL A   1      38.245  22.074  25.533  1.00  0.00     0.060 A 
ATOM     38  C   UNL A   1      39.518  21.597  25.844  1.00  0.00     0.016 A 
ATOM     39  C   UNL A   1      37.963  23.419  25.706  1.00  0.00     0.016 A 
ATOM     40  C   UNL A   1      40.381  22.380  26.623  1.00  0.00     0.010 A 
ATOM     41  C   UNL A   1      38.803  24.174  26.521  1.00  0.00     0.010 A 
ATOM     42  C   UNL A   1      39.957  23.620  27.102  1.00  0.00    -0.014 A 
BRANCH  42  43
ATOM     43  C   UNL A   1      40.775  24.434  28.031  1.00  0.00     0.031 A 
ATOM     44  C   UNL A   1      40.088  25.692  28.407  1.00  0.00     0.074 A 
ATOM     45  C   UNL A   1      41.972  24.183  28.626  1.00  0.00     0.049 A 
ATOM     46  N   UNL A   1      40.139  26.783  27.718  1.00  0.00    -0.248 NA
ATOM     47  C   UNL A   1      39.091  25.711  29.488  1.00  0.00     0.031 C 
ATOM     48  C   UNL A   1      42.779  22.958  28.666  1.00  0.00     0.029 A 
ATOM     49  N   UNL A   1      42.697  25.013  29.450  1.00  0.00    -0.354 N 
ATOM     50  C   UNL A   1      39.399  27.699  28.442  1.00  0.00     0.074 A 
ATOM     51  C   UNL A   1      38.550  26.919  29.303  1.00  0.00     0.031 C 
ATOM     52  C   UNL A   1      43.701  23.040  29.663  1.00  0.00     0.029 A 
ATOM     53  C   UNL A   1      43.723  24.400  30.176  1.00  0.00     0.049 A 
ATOM     54  H   UNL A   1      42.506  25.976  29.522  1.00  0.00     0.167 HD
ATOM     55  C   UNL A   1      39.772  29.006  28.506  1.00  0.00     0.037 A 
ATOM     56  C   UNL A   1      44.568  24.979  31.079  1.00  0.00     0.037 A 
ATOM     57  C   UNL A   1      40.833  29.297  27.564  1.00  0.00     0.049 A 
ATOM     58  C   UNL A   1      44.638  26.418  30.721  1.00  0.00     0.074 A 
ATOM     59  C   UNL A   1      41.017  29.086  26.207  1.00  0.00     0.029 A 
ATOM     60  N   UNL A   1      42.096  29.511  28.070  1.00  0.00    -0.354 N 
ATOM     61  N   UNL A   1      45.182  26.863  29.623  1.00  0.00    -0.248 NA
ATOM     62  C   UNL A   1      43.720  27.329  31.380  1.00  0.00     0.031 C 
ATOM     63  C   UNL A   1      42.376  28.675  26.076  1.00  0.00     0.029 A 
ATOM     64  C   UNL A   1      42.970  28.749  27.335  1.00  0.00     0.049 A 
ATOM     65  H   UNL A   1      42.329  30.103  28.821  1.00  0.00     0.167 HD
ATOM     66  C   UNL A   1      44.328  27.868  29.204  1.00  0.00     0.074 A 
ATOM     67  C   UNL A   1      43.507  28.180  30.373  1.00  0.00     0.031 C 
ATOM     68  C   UNL A   1      44.168  28.149  27.877  1.00  0.00     0.037 A 
BRANCH  55  69
ATOM     69  C   UNL A   1      39.455  29.920  29.664  1.00  0.00     0.058 A 
ATOM     70  C   UNL A   1      38.682  31.072  29.429  1.00  0.00     0.135 A 
ATOM     71  C   UNL A   1      40.067  29.843  30.936  1.00  0.00     0.135 A 
ATOM     72  F   UNL A   1      38.079  31.260  28.244  1.00  0.00    -0.206 F 
ATOM     73  C   UNL A   1      38.565  32.094  30.369  1.00  0.00     0.059 A 
ATOM     74  C   UNL A   1      39.906  30.817  31.911  1.00  0.00     0.059 A 
ATOM     75  F   UNL A   1      40.930  28.876  31.265  1.00  0.00    -0.206 F 
ATOM     76  C   UNL A   1      39.187  31.958  31.606  1.00  0.00     0.060 A 
BRANCH  76  77
ATOM     77  S   UNL A   1      39.102  33.306  32.794  1.00  0.00     0.124 S 
ATOM     78  O   UNL A   1      38.776  34.432  31.927  1.00  0.00    -0.237 OA
ATOM     79  O   UNL A   1      38.040  32.853  33.686  1.00  0.00    -0.237 OA
ATOM     80  O   UNL A   1      40.440  33.321  33.377  1.00  0.00    -0.744 OA
ENDBRANCH  76  77
ENDBRANCH  55  69
BRANCH  56  81
ATOM     81  C   UNL A   1      45.164  24.487  32.359  1.00  0.00     0.058 A 
ATOM     82  C   UNL A   1      46.316  25.089  32.916  1.00  0.00     0.135 A 
ATOM     83  C   UNL A   1      44.429  23.660  33.228  1.00  0.00     0.135 A 
ATOM     84  F   UNL A   1      47.079  25.905  32.171  1.00  0.00    -0.206 F 
ATOM     85  C   UNL A   1      46.672  24.944  34.265  1.00  0.00     0.059 A 
ATOM     86  C   UNL A   1      44.768  23.496  34.578  1.00  0.00     0.059 A 
ATOM     87  F   UNL A   1      43.300  23.069  32.811  1.00  0.00    -0.206 F 
ATOM     88  C   UNL A   1      45.873  24.166  35.098  1.00  0.00     0.060 A 
BRANCH  88  89
ATOM     89  S   UNL A   1      46.204  24.144  36.882  1.00  0.00     0.124 S 
ATOM     90  O   UNL A   1      45.378  23.029  37.332  1.00  0.00    -0.237 OA
ATOM     91  O   UNL A   1      47.646  23.925  36.928  1.00  0.00    -0.237 OA
ATOM     92  O   UNL A   1      45.766  25.465  37.323  1.00  0.00    -0.744 OA
ENDBRANCH  88  89
ENDBRANCH  56  81
BRANCH  68  93
ATOM     93  C   UNL A   1      45.188  27.628  26.890  1.00  0.00     0.058 A 
ATOM     94  C   UNL A   1      45.173  26.356  26.286  1.00  0.00     0.135 A 
ATOM     95  C   UNL A   1      46.169  28.528  26.442  1.00  0.00     0.135 A 
ATOM     96  F   UNL A   1      44.211  25.465  26.566  1.00  0.00    -0.206 F 
ATOM     97  C   UNL A   1      46.118  25.985  25.325  1.00  0.00     0.059 A 
ATOM     98  C   UNL A   1      47.096  28.193  25.459  1.00  0.00     0.059 A 
ATOM     99  F   UNL A   1      46.213  29.777  26.936  1.00  0.00    -0.206 F 
ATOM    100  C   UNL A   1      47.076  26.912  24.916  1.00  0.00     0.060 A 
BRANCH 100 101
ATOM    101  S   UNL A   1      48.262  26.451  23.634  1.00  0.00     0.124 S 
ATOM    102  O   UNL A   1      47.995  27.446  22.600  1.00  0.00    -0.237 OA
ATOM    103  O   UNL A   1      49.541  26.581  24.324  1.00  0.00    -0.237 OA
ATOM    104  O   UNL A   1      47.882  25.082  23.294  1.00  0.00    -0.744 OA
ENDBRANCH 100 101
ENDBRANCH  68  93
ENDBRANCH  42  43
ENDBRANCH  35  37
ENDBRANCH  34  35
ENDBRANCH  33  34
ENDBRANCH   1  33
TORSDOF 21
ENDMDL
MODEL 3
REMARK VINA RESULT:     -12.1      1.334      3.905
REMARK SMILES COc1ccccc1[C@@H]1C[N@@H+](Cc2cn3cc(C)ccc3n2)C[C@H]1C(=O)OCCOCCOC(=O)c1ccc(-c2c3nc(c(-c4c(F)cc(S(=O)(=O)[O-])cc4F)c4ccc([nH]4)c(-c4c(F)cc(S(=O)(=O)[O-])cc4F)c4nc(c(-c5c(F)cc(S(=O)(=O)[O-])cc5F)c5ccc2[nH]5)C=C4)C=C3)cc1
REMARK SMILES IDX 31 1 30 2 29 3 28 4 27 5 25 6 26 7 24 8 9 9 10 10 11 11
REMARK SMILES IDX 23 12 8 14 3 15 4 16 5 17 7 18 6 19 2 20 1 21 12 22 13 23
REMARK SMILES IDX 14 24 22 25 15 26 21 27 16 28 20 29 17 30 19 31 18 32 32 33
REMARK SMILES IDX 33 34 34 35 35 36 36 37 37 38 101 39 38 40 100 41 39 42
REMARK SMILES IDX 40 43 41 44 94 45 42 46 99 47 93 48 95 49 43 50 98 51 92 52
REMARK SMILES IDX 91 53 44 55 78 56 57 57 77 58 58 59 61 60 76 61 96 62 59 63
REMARK SMILES IDX 60 64 75 66 97 67 62 68 45 69 46 70 55 71 47 72 48 73 54 74
REMARK SMILES IDX 56 75 49 76 50 77 51 78 52 79 53 80 79 81 80 82 89 83 81 84
REMARK SMILES IDX 82 85 88 86 90 87 83 88 84 89 85 90 86 91 87 92 63 93 64 94
REMARK SMILES IDX 73 95 65 96 66 97 72 98 74 99 67 100 68 101 69 102 70 103
REMARK SMILES IDX 71 104
REMARK H PARENT 11 13 95 54 61 65
REMARK Flexibility Score: inf
ROOT
ATOM      1  C   UNL A   1      37.370  22.397  25.563  1.00  0.00     0.202 C 
ENDROOT
BRANCH   1   2
ATOM      2  O   UNL A   1      37.537  23.264  24.441  1.00  0.00    -0.374 OA
BRANCH   2   3
ATOM      3  C   UNL A   1      36.695  22.973  23.331  1.00  0.00     0.202 C 
BRANCH   3   4
ATOM      4  C   UNL A   1      35.199  23.059  23.644  1.00  0.00     0.261 C 
BRANCH   4   5
ATOM      5  O   UNL A   1      34.472  23.965  22.780  1.00  0.00    -0.463 OA
BRANCH   5   6
ATOM      6  C   UNL A   1      33.528  23.402  21.986  1.00  0.00     0.315 C 
ATOM      7  O   UNL A   1      33.673  23.215  20.780  1.00  0.00    -0.252 OA
BRANCH   6   8
ATOM      8  C   UNL A   1      32.190  23.134  22.654  1.00  0.00     0.167 C 
ATOM      9  C   UNL A   1      32.077  22.738  24.127  1.00  0.00     0.098 C 
ATOM     10  C   UNL A   1      30.659  23.203  24.510  1.00  0.00     0.272 C 
ATOM     11  N   UNL A   1      30.312  24.335  23.629  1.00  0.00    -0.329 N 
ATOM     12  C   UNL A   1      31.268  24.348  22.511  1.00  0.00     0.278 C 
ATOM     13  H   UNL A   1      29.365  24.172  23.289  1.00  0.00     0.348 HD
BRANCH   9  14
ATOM     14  C   UNL A   1      32.421  21.345  24.664  1.00  0.00     0.004 A 
ATOM     15  C   UNL A   1      32.995  20.952  25.880  1.00  0.00     0.122 A 
ATOM     16  C   UNL A   1      33.207  19.579  26.161  1.00  0.00     0.047 A 
ATOM     17  C   UNL A   1      32.955  18.579  25.227  1.00  0.00     0.004 A 
ATOM     18  C   UNL A   1      32.275  20.299  23.718  1.00  0.00     0.008 A 
ATOM     19  C   UNL A   1      32.527  18.949  23.973  1.00  0.00     0.001 A 
BRANCH  15  20
ATOM     20  O   UNL A   1      33.677  21.746  26.759  1.00  0.00    -0.496 OA
ATOM     21  C   UNL A   1      32.935  22.459  27.722  1.00  0.00     0.278 C 
ENDBRANCH  15  20
ENDBRANCH   9  14
BRANCH  11  22
ATOM     22  C   UNL A   1      30.146  25.660  24.286  1.00  0.00     0.321 C 
BRANCH  22  23
ATOM     23  C   UNL A   1      31.109  25.876  25.410  1.00  0.00     0.114 A 
ATOM     24  C   UNL A   1      32.495  25.840  25.361  1.00  0.00     0.122 A 
ATOM     25  N   UNL A   1      30.683  26.436  26.587  1.00  0.00    -0.228 NA
ATOM     26  N   UNL A   1      32.867  26.801  26.270  1.00  0.00    -0.306 N 
ATOM     27  C   UNL A   1      31.727  27.116  26.999  1.00  0.00     0.137 A 
ATOM     28  C   UNL A   1      34.034  27.558  26.289  1.00  0.00     0.096 A 
ATOM     29  C   UNL A   1      31.759  28.297  27.773  1.00  0.00     0.048 A 
ATOM     30  C   UNL A   1      34.013  28.740  26.928  1.00  0.00    -0.034 A 
ATOM     31  C   UNL A   1      32.818  29.113  27.665  1.00  0.00     0.009 A 
ATOM     32  C   UNL A   1      35.108  29.738  26.914  1.00  0.00     0.046 C 
ENDBRANCH  22  23
ENDBRANCH  11  22
ENDBRANCH   6   8
ENDBRANCH   5   6
ENDBRANCH   4   5
ENDBRANCH   3   4
ENDBRANCH   2   3
ENDBRANCH   1   2
BRANCH   1  33
ATOM     33  C   UNL A   1      38.539  21.427  25.764  1.00  0.00     0.261 C 
BRANCH  33  34
ATOM     34  O   UNL A   1      39.810  22.105  25.804  1.00  0.00    -0.460 OA
BRANCH  34  35
ATOM     35  C   UNL A   1      40.477  22.199  26.996  1.00  0.00     0.338 C 
ATOM     36  O   UNL A   1      40.443  21.427  27.913  1.00  0.00    -0.246 OA
BRANCH  35  37
ATOM     37  C   UNL A   1      40.993  23.600  27.043  1.00  0.00     0.060 A 
ATOM     38  C   UNL A   1      41.924  23.920  28.031  1.00  0.00     0.016 A 
ATOM     39  C   UNL A   1      40.317  24.619  26.392  1.00  0.00     0.016 A 
ATOM     40  C   UNL A   1      41.932  25.207  28.585  1.00  0.00     0.010 A 
ATOM     41  C   UNL A   1      40.295  25.881  26.980  1.00  0.00     0.010 A 
ATOM     42  C   UNL A   1      40.998  26.154  28.165  1.00  0.00    -0.014 A 
BRANCH  42  43
ATOM     43  C   UNL A   1      40.877  27.487  28.801  1.00  0.00     0.031 A 
ATOM     44  C   UNL A   1      41.857  28.450  28.246  1.00  0.00     0.074 A 
ATOM     45  C   UNL A   1      39.995  27.964  29.720  1.00  0.00     0.049 A 
ATOM     46  N   UNL A   1      43.071  28.578  28.668  1.00  0.00    -0.248 NA
ATOM     47  C   UNL A   1      41.576  29.174  26.997  1.00  0.00     0.031 C 
ATOM     48  C   UNL A   1      38.776  27.364  30.274  1.00  0.00     0.029 A 
ATOM     49  N   UNL A   1      39.972  29.212  30.300  1.00  0.00    -0.354 N 
ATOM     50  C   UNL A   1      43.609  29.599  27.908  1.00  0.00     0.074 A 
ATOM     51  C   UNL A   1      42.782  29.687  26.734  1.00  0.00     0.031 C 
ATOM     52  C   UNL A   1      38.015  28.321  30.871  1.00  0.00     0.029 A 
ATOM     53  C   UNL A   1      38.787  29.549  30.962  1.00  0.00     0.049 A 
ATOM     54  H   UNL A   1      40.740  29.825  30.254  1.00  0.00     0.167 HD
ATOM     55  C   UNL A   1      44.481  30.491  28.451  1.00  0.00     0.037 A 
ATOM     56  C   UNL A   1      38.488  30.723  31.593  1.00  0.00     0.037 A 
ATOM     57  C   UNL A   1      44.907  30.073  29.771  1.00  0.00     0.049 A 
ATOM     58  C   UNL A   1      39.785  31.323  31.994  1.00  0.00     0.074 A 
ATOM     59  C   UNL A   1      45.434  28.907  30.300  1.00  0.00     0.029 A 
ATOM     60  N   UNL A   1      44.417  30.771  30.851  1.00  0.00    -0.354 N 
ATOM     61  N   UNL A   1      40.573  30.805  32.894  1.00  0.00    -0.248 NA
ATOM     62  C   UNL A   1      40.409  32.266  31.082  1.00  0.00     0.031 C 
ATOM     63  C   UNL A   1      44.778  28.739  31.556  1.00  0.00     0.029 A 
ATOM     64  C   UNL A   1      43.966  29.852  31.766  1.00  0.00     0.049 A 
ATOM     65  H   UNL A   1      44.396  31.750  30.951  1.00  0.00     0.167 HD
ATOM     66  C   UNL A   1      41.843  30.969  32.369  1.00  0.00     0.074 A 
ATOM     67  C   UNL A   1      41.689  31.963  31.308  1.00  0.00     0.031 C 
ATOM     68  C   UNL A   1      42.839  30.077  32.645  1.00  0.00     0.037 A 
BRANCH  55  69
ATOM     69  C   UNL A   1      44.651  31.910  27.965  1.00  0.00     0.058 A 
ATOM     70  C   UNL A   1      45.896  32.303  27.439  1.00  0.00     0.135 A 
ATOM     71  C   UNL A   1      43.731  32.955  28.207  1.00  0.00     0.135 A 
ATOM     72  F   UNL A   1      46.854  31.394  27.198  1.00  0.00    -0.206 F 
ATOM     73  C   UNL A   1      46.220  33.640  27.216  1.00  0.00     0.059 A 
ATOM     74  C   UNL A   1      44.009  34.286  27.927  1.00  0.00     0.059 A 
ATOM     75  F   UNL A   1      42.558  32.759  28.819  1.00  0.00    -0.206 F 
ATOM     76  C   UNL A   1      45.270  34.624  27.469  1.00  0.00     0.060 A 
BRANCH  76  77
ATOM     77  S   UNL A   1      45.709  36.355  27.254  1.00  0.00     0.124 S 
ATOM     78  O   UNL A   1      46.380  36.322  25.960  1.00  0.00    -0.237 OA
ATOM     79  O   UNL A   1      44.401  37.002  27.284  1.00  0.00    -0.237 OA
ATOM     80  O   UNL A   1      46.564  36.628  28.405  1.00  0.00    -0.744 OA
ENDBRANCH  76  77
ENDBRANCH  55  69
BRANCH  56  81
ATOM     81  C   UNL A   1      37.221  31.509  31.709  1.00  0.00     0.058 A 
ATOM     82  C   UNL A   1      36.700  31.886  32.968  1.00  0.00     0.135 A 
ATOM     83  C   UNL A   1      36.694  32.197  30.601  1.00  0.00     0.135 A 
ATOM     84  F   UNL A   1      37.147  31.297  34.089  1.00  0.00    -0.206 F 
ATOM     85  C   UNL A   1      35.774  32.928  33.126  1.00  0.00     0.059 A 
ATOM     86  C   UNL A   1      35.765  33.238  30.734  1.00  0.00     0.059 A 
ATOM     87  F   UNL A   1      37.145  31.942  29.364  1.00  0.00    -0.206 F 
ATOM     88  C   UNL A   1      35.333  33.620  32.001  1.00  0.00     0.060 A 
BRANCH  88  89
ATOM     89  S   UNL A   1      34.303  35.099  32.214  1.00  0.00     0.124 S 
ATOM     90  O   UNL A   1      33.139  34.564  32.909  1.00  0.00    -0.237 OA
ATOM     91  O   UNL A   1      35.170  35.971  33.002  1.00  0.00    -0.237 OA
ATOM     92  O   UNL A   1      34.064  35.542  30.843  1.00  0.00    -0.744 OA
ENDBRANCH  88  89
ENDBRANCH  56  81
BRANCH  68  93
ATOM     93  C   UNL A   1      42.671  29.126  33.808  1.00  0.00     0.058 A 
ATOM     94  C   UNL A   1      42.941  29.421  35.158  1.00  0.00     0.135 A 
ATOM     95  C   UNL A   1      42.081  27.879  33.540  1.00  0.00     0.135 A 
ATOM     96  F   UNL A   1      43.403  30.624  35.527  1.00  0.00    -0.206 F 
ATOM     97  C   UNL A   1      42.685  28.502  36.180  1.00  0.00     0.059 A 
ATOM     98  C   UNL A   1      41.782  26.964  34.546  1.00  0.00     0.059 A 
ATOM     99  F   UNL A   1      41.748  27.548  32.281  1.00  0.00    -0.206 F 
ATOM    100  C   UNL A   1      42.103  27.274  35.863  1.00  0.00     0.060 A 
BRANCH 100 101
ATOM    101  S   UNL A   1      41.720  26.109  37.189  1.00  0.00     0.124 S 
ATOM    102  O   UNL A   1      42.851  26.292  38.093  1.00  0.00    -0.237 OA
ATOM    103  O   UNL A   1      40.433  26.597  37.676  1.00  0.00    -0.237 OA
ATOM    104  O   UNL A   1      41.669  24.819  36.506  1.00  0.00    -0.744 OA
ENDBRANCH 100 101
ENDBRANCH  68  93
ENDBRANCH  42  43
ENDBRANCH  35  37
ENDBRANCH  34  35
ENDBRANCH  33  34
ENDBRANCH   1  33
TORSDOF 21
ENDMDL
