MODEL 1
REMARK VINA RESULT:     -10.5      0.000      0.000
REMARK SMILES CCc1ccsc1C(=O)N(CC(=O)OCCOCCOC(=O)c1ccc(-c2c3nc(c(-c4c(F)cc(S(=O)(=O)[O-])cc4F)c4ccc([nH]4)c(-c4c(F)cc(S(=O)(=O)[O-])cc4F)c4nc(c(-c5c(F)cc(S(=O)(=O)[O-])cc5F)c5ccc2[nH]5)C=C4)C=C3)cc1)c1ccccc1N
REMARK SMILES IDX 16 1 15 2 14 3 12 4 13 5 11 6 10 7 8 8 9 9 7 10 3 11 4 12
REMARK SMILES IDX 5 13 6 14 2 15 1 16 89 17 90 18 94 19 91 20 93 21 92 22
REMARK SMILES IDX 95 23 17 26 18 27 19 28 20 29 21 30 22 31 23 32 24 33 88 34
REMARK SMILES IDX 25 35 87 36 26 37 27 38 28 39 81 40 29 41 86 42 80 43 82 44
REMARK SMILES IDX 30 45 85 46 79 47 78 48 31 50 65 51 44 52 64 53 45 54 48 55
REMARK SMILES IDX 63 56 83 57 46 58 47 59 62 61 84 62 49 63 32 64 33 65 42 66
REMARK SMILES IDX 34 67 35 68 41 69 43 70 36 71 37 72 38 73 39 74 40 75 66 76
REMARK SMILES IDX 67 77 76 78 68 79 69 80 75 81 77 82 70 83 71 84 72 85 73 86
REMARK SMILES IDX 74 87 50 88 51 89 60 90 52 91 53 92 59 93 61 94 54 95 55 96
REMARK SMILES IDX 56 97 57 98 58 99
REMARK H PARENT 95 24 95 25 82 49 48 60
REMARK Flexibility Score: inf
ROOT
ATOM      1  C   UNL A   1      39.309  21.199  26.060  1.00  0.00     0.202 C 
ENDROOT
BRANCH   1   2
ATOM      2  C   UNL A   1      38.110  22.072  25.655  1.00  0.00     0.261 C 
BRANCH   2   3
ATOM      3  O   UNL A   1      37.423  21.718  24.432  1.00  0.00    -0.462 OA
BRANCH   3   4
ATOM      4  C   UNL A   1      36.663  22.708  23.891  1.00  0.00     0.326 C 
ATOM      5  O   UNL A   1      36.743  23.075  22.719  1.00  0.00    -0.250 OA
BRANCH   4   6
ATOM      6  C   UNL A   1      35.689  23.405  24.852  1.00  0.00     0.248 C 
BRANCH   6   7
ATOM      7  N   UNL A   1      34.310  23.632  24.475  1.00  0.00    -0.294 N 
BRANCH   7   8
ATOM      8  C   UNL A   1      33.702  24.915  24.653  1.00  0.00     0.269 C 
ATOM      9  O   UNL A   1      34.475  25.882  24.731  1.00  0.00    -0.268 OA
BRANCH   8  10
ATOM     10  C   UNL A   1      32.211  25.205  24.778  1.00  0.00     0.096 A 
ATOM     11  C   UNL A   1      31.110  25.783  24.089  1.00  0.00    -0.025 A 
ATOM     12  C   UNL A   1      29.899  25.746  24.892  1.00  0.00     0.016 A 
ATOM     13  C   UNL A   1      30.044  25.166  26.117  1.00  0.00     0.066 A 
ATOM     14  S   UNL A   1      31.614  24.612  26.349  1.00  0.00    -0.138 S 
BRANCH  11  15
ATOM     15  C   UNL A   1      31.030  26.430  22.722  1.00  0.00     0.034 C 
ATOM     16  C   UNL A   1      31.838  27.694  22.457  1.00  0.00     0.009 C 
ENDBRANCH  11  15
ENDBRANCH   8  10
ENDBRANCH   7   8
BRANCH   7  17
ATOM     17  C   UNL A   1      33.581  22.445  23.949  1.00  0.00     0.068 A 
ATOM     18  C   UNL A   1      33.620  21.237  24.694  1.00  0.00     0.028 A 
ATOM     19  C   UNL A   1      32.850  22.381  22.731  1.00  0.00     0.056 A 
ATOM     20  C   UNL A   1      32.894  20.087  24.354  1.00  0.00     0.002 A 
ATOM     21  C   UNL A   1      32.145  21.200  22.388  1.00  0.00     0.028 A 
ATOM     22  C   UNL A   1      32.127  20.080  23.210  1.00  0.00     0.002 A 
BRANCH  19  23
ATOM     23  N   UNL A   1      32.955  23.332  21.702  1.00  0.00    -0.397 N 
ATOM     24  H   UNL A   1      33.284  23.061  20.815  1.00  0.00     0.156 HD
ATOM     25  H   UNL A   1      32.699  24.268  21.868  1.00  0.00     0.156 HD
ENDBRANCH  19  23
ENDBRANCH   7  17
ENDBRANCH   6   7
ENDBRANCH   4   6
ENDBRANCH   3   4
ENDBRANCH   2   3
ENDBRANCH   1   2
BRANCH   1  26
ATOM     26  O   UNL A   1      40.092  21.527  27.196  1.00  0.00    -0.374 OA
BRANCH  26  27
ATOM     27  C   UNL A   1      41.446  21.906  27.024  1.00  0.00     0.202 C 
BRANCH  27  28
ATOM     28  C   UNL A   1      41.824  23.260  26.403  1.00  0.00     0.261 C 
BRANCH  28  29
ATOM     29  O   UNL A   1      40.817  24.250  26.376  1.00  0.00    -0.460 OA
BRANCH  29  30
ATOM     30  C   UNL A   1      41.270  25.487  26.085  1.00  0.00     0.338 C 
ATOM     31  O   UNL A   1      41.551  25.950  24.998  1.00  0.00    -0.246 OA
BRANCH  30  32
ATOM     32  C   UNL A   1      41.241  26.230  27.345  1.00  0.00     0.060 A 
ATOM     33  C   UNL A   1      40.233  25.922  28.260  1.00  0.00     0.016 A 
ATOM     34  C   UNL A   1      42.209  27.203  27.612  1.00  0.00     0.016 A 
ATOM     35  C   UNL A   1      40.151  26.648  29.437  1.00  0.00     0.010 A 
ATOM     36  C   UNL A   1      42.126  27.928  28.793  1.00  0.00     0.010 A 
ATOM     37  C   UNL A   1      41.068  27.681  29.682  1.00  0.00    -0.014 A 
BRANCH  37  38
ATOM     38  C   UNL A   1      40.797  28.619  30.785  1.00  0.00     0.031 A 
ATOM     39  C   UNL A   1      41.683  28.566  31.993  1.00  0.00     0.074 A 
ATOM     40  C   UNL A   1      39.818  29.528  30.662  1.00  0.00     0.049 A 
ATOM     41  N   UNL A   1      41.687  29.329  33.052  1.00  0.00    -0.248 NA
ATOM     42  C   UNL A   1      42.707  27.507  32.009  1.00  0.00     0.031 C 
ATOM     43  C   UNL A   1      38.933  29.661  29.505  1.00  0.00     0.029 A 
ATOM     44  N   UNL A   1      39.416  30.521  31.513  1.00  0.00    -0.354 N 
ATOM     45  C   UNL A   1      42.709  28.844  33.860  1.00  0.00     0.074 A 
ATOM     46  C   UNL A   1      43.273  27.693  33.192  1.00  0.00     0.031 C 
ATOM     47  C   UNL A   1      38.104  30.697  29.710  1.00  0.00     0.029 A 
ATOM     48  C   UNL A   1      38.381  31.277  31.022  1.00  0.00     0.049 A 
ATOM     49  H   UNL A   1      39.829  30.678  32.394  1.00  0.00     0.167 HD
ATOM     50  C   UNL A   1      43.143  29.329  35.047  1.00  0.00     0.037 A 
ATOM     51  C   UNL A   1      37.739  32.320  31.578  1.00  0.00     0.037 A 
ATOM     52  C   UNL A   1      42.547  30.468  35.694  1.00  0.00     0.049 A 
ATOM     53  C   UNL A   1      38.192  32.801  32.929  1.00  0.00     0.074 A 
ATOM     54  C   UNL A   1      42.898  31.063  36.891  1.00  0.00     0.029 A 
ATOM     55  N   UNL A   1      41.459  31.174  35.197  1.00  0.00    -0.354 N 
ATOM     56  N   UNL A   1      39.179  32.359  33.674  1.00  0.00    -0.248 NA
ATOM     57  C   UNL A   1      37.448  33.921  33.516  1.00  0.00     0.031 C 
ATOM     58  C   UNL A   1      41.984  32.093  37.146  1.00  0.00     0.029 A 
ATOM     59  C   UNL A   1      41.103  32.181  36.078  1.00  0.00     0.049 A 
ATOM     60  H   UNL A   1      41.006  30.988  34.343  1.00  0.00     0.167 HD
ATOM     61  C   UNL A   1      39.193  33.162  34.808  1.00  0.00     0.074 A 
ATOM     62  C   UNL A   1      38.119  34.123  34.642  1.00  0.00     0.031 C 
ATOM     63  C   UNL A   1      40.019  33.117  35.885  1.00  0.00     0.037 A 
BRANCH  50  64
ATOM     64  C   UNL A   1      44.272  28.594  35.718  1.00  0.00     0.058 A 
ATOM     65  C   UNL A   1      44.044  27.559  36.641  1.00  0.00     0.135 A 
ATOM     66  C   UNL A   1      45.605  28.959  35.469  1.00  0.00     0.135 A 
ATOM     67  F   UNL A   1      42.789  27.179  36.934  1.00  0.00    -0.206 F 
ATOM     68  C   UNL A   1      45.089  26.954  37.333  1.00  0.00     0.059 A 
ATOM     69  C   UNL A   1      46.668  28.345  36.124  1.00  0.00     0.059 A 
ATOM     70  F   UNL A   1      45.886  29.941  34.598  1.00  0.00    -0.206 F 
ATOM     71  C   UNL A   1      46.398  27.361  37.075  1.00  0.00     0.060 A 
BRANCH  71  72
ATOM     72  S   UNL A   1      47.742  26.604  38.014  1.00  0.00     0.124 S 
ATOM     73  O   UNL A   1      48.854  26.720  37.076  1.00  0.00    -0.237 OA
ATOM     74  O   UNL A   1      47.817  27.456  39.197  1.00  0.00    -0.237 OA
ATOM     75  O   UNL A   1      47.264  25.246  38.255  1.00  0.00    -0.744 OA
ENDBRANCH  71  72
ENDBRANCH  50  64
BRANCH  51  76
ATOM     76  C   UNL A   1      36.638  32.984  30.834  1.00  0.00     0.058 A 
ATOM     77  C   UNL A   1      35.302  32.820  31.225  1.00  0.00     0.135 A 
ATOM     78  C   UNL A   1      36.902  33.849  29.759  1.00  0.00     0.135 A 
ATOM     79  F   UNL A   1      34.998  31.999  32.243  1.00  0.00    -0.206 F 
ATOM     80  C   UNL A   1      34.266  33.493  30.585  1.00  0.00     0.059 A 
ATOM     81  C   UNL A   1      35.886  34.552  29.119  1.00  0.00     0.059 A 
ATOM     82  F   UNL A   1      38.166  34.051  29.354  1.00  0.00    -0.206 F 
ATOM     83  C   UNL A   1      34.571  34.367  29.539  1.00  0.00     0.060 A 
BRANCH  83  84
ATOM     84  S   UNL A   1      33.227  35.304  28.779  1.00  0.00     0.124 S 
ATOM     85  O   UNL A   1      32.542  34.269  28.011  1.00  0.00    -0.237 OA
ATOM     86  O   UNL A   1      32.512  35.812  29.945  1.00  0.00    -0.237 OA
ATOM     87  O   UNL A   1      33.926  36.316  27.991  1.00  0.00    -0.744 OA
ENDBRANCH  83  84
ENDBRANCH  51  76
BRANCH  63  88
ATOM     88  C   UNL A   1      39.803  34.150  36.955  1.00  0.00     0.058 A 
ATOM     89  C   UNL A   1      39.091  33.860  38.130  1.00  0.00     0.135 A 
ATOM     90  C   UNL A   1      40.362  35.432  36.824  1.00  0.00     0.135 A 
ATOM     91  F   UNL A   1      38.531  32.651  38.299  1.00  0.00    -0.206 F 
ATOM     92  C   UNL A   1      38.920  34.813  39.127  1.00  0.00     0.059 A 
ATOM     93  C   UNL A   1      40.228  36.390  37.822  1.00  0.00     0.059 A 
ATOM     94  F   UNL A   1      41.061  35.757  35.725  1.00  0.00    -0.206 F 
ATOM     95  C   UNL A   1      39.494  36.075  38.965  1.00  0.00     0.060 A 
BRANCH  95  96
ATOM     96  S   UNL A   1      39.291  37.292  40.281  1.00  0.00     0.124 S 
ATOM     97  O   UNL A   1      40.677  37.616  40.599  1.00  0.00    -0.237 OA
ATOM     98  O   UNL A   1      38.530  38.346  39.617  1.00  0.00    -0.237 OA
ATOM     99  O   UNL A   1      38.565  36.558  41.313  1.00  0.00    -0.744 OA
ENDBRANCH  95  96
ENDBRANCH  63  88
ENDBRANCH  37  38
ENDBRANCH  30  32
ENDBRANCH  29  30
ENDBRANCH  28  29
ENDBRANCH  27  28
ENDBRANCH  26  27
ENDBRANCH   1  26
TORSDOF 23
ENDMDL
MODEL 2
REMARK VINA RESULT:     -10.4      1.043      2.181
REMARK SMILES CCc1ccsc1C(=O)N(CC(=O)OCCOCCOC(=O)c1ccc(-c2c3nc(c(-c4c(F)cc(S(=O)(=O)[O-])cc4F)c4ccc([nH]4)c(-c4c(F)cc(S(=O)(=O)[O-])cc4F)c4nc(c(-c5c(F)cc(S(=O)(=O)[O-])cc5F)c5ccc2[nH]5)C=C4)C=C3)cc1)c1ccccc1N
REMARK SMILES IDX 16 1 15 2 14 3 12 4 13 5 11 6 10 7 8 8 9 9 7 10 3 11 4 12
REMARK SMILES IDX 5 13 6 14 2 15 1 16 89 17 90 18 94 19 91 20 93 21 92 22
REMARK SMILES IDX 95 23 17 26 18 27 19 28 20 29 21 30 22 31 23 32 24 33 88 34
REMARK SMILES IDX 25 35 87 36 26 37 27 38 28 39 81 40 29 41 86 42 80 43 82 44
REMARK SMILES IDX 30 45 85 46 79 47 78 48 31 50 65 51 44 52 64 53 45 54 48 55
REMARK SMILES IDX 63 56 83 57 46 58 47 59 62 61 84 62 49 63 32 64 33 65 42 66
REMARK SMILES IDX 34 67 35 68 41 69 43 70 36 71 37 72 38 73 39 74 40 75 66 76
REMARK SMILES IDX 67 77 76 78 68 79 69 80 75 81 77 82 70 83 71 84 72 85 73 86
REMARK SMILES IDX 74 87 50 88 51 89 60 90 52 91 53 92 59 93 61 94 54 95 55 96
REMARK SMILES IDX 56 97 57 98 58 99
REMARK H PARENT 95 24 95 25 82 49 48 60
REMARK Flexibility Score: inf
ROOT
ATOM      1  C   UNL A   1      37.447  22.237  25.996  1.00  0.00     0.202 C 
ENDROOT
BRANCH   1   2
ATOM      2  C   UNL A   1      36.177  21.802  25.246  1.00  0.00     0.261 C 
BRANCH   2   3
ATOM      3  O   UNL A   1      35.396  22.846  24.619  1.00  0.00    -0.462 OA
BRANCH   3   4
ATOM      4  C   UNL A   1      35.616  23.010  23.286  1.00  0.00     0.326 C 
ATOM      5  O   UNL A   1      36.680  22.749  22.727  1.00  0.00    -0.250 OA
BRANCH   4   6
ATOM      6  C   UNL A   1      34.447  23.598  22.482  1.00  0.00     0.248 C 
BRANCH   6   7
ATOM      7  N   UNL A   1      33.361  24.285  23.146  1.00  0.00    -0.294 N 
BRANCH   7   8
ATOM      8  C   UNL A   1      32.186  23.580  23.554  1.00  0.00     0.269 C 
ATOM      9  O   UNL A   1      31.991  22.480  23.014  1.00  0.00    -0.268 OA
BRANCH   8  10
ATOM     10  C   UNL A   1      31.145  24.053  24.563  1.00  0.00     0.096 A 
ATOM     11  C   UNL A   1      30.225  25.102  24.830  1.00  0.00    -0.025 A 
ATOM     12  C   UNL A   1      29.539  24.903  26.096  1.00  0.00     0.016 A 
ATOM     13  C   UNL A   1      29.891  23.767  26.762  1.00  0.00     0.066 A 
ATOM     14  S   UNL A   1      31.024  22.876  25.897  1.00  0.00    -0.138 S 
BRANCH  11  15
ATOM     15  C   UNL A   1      29.898  26.354  24.041  1.00  0.00     0.034 C 
ATOM     16  C   UNL A   1      28.445  26.798  23.932  1.00  0.00     0.009 C 
ENDBRANCH  11  15
ENDBRANCH   8  10
ENDBRANCH   7   8
BRANCH   7  17
ATOM     17  C   UNL A   1      33.538  25.753  23.323  1.00  0.00     0.068 A 
ATOM     18  C   UNL A   1      33.500  26.587  22.174  1.00  0.00     0.028 A 
ATOM     19  C   UNL A   1      33.776  26.428  24.552  1.00  0.00     0.056 A 
ATOM     20  C   UNL A   1      33.553  27.987  22.223  1.00  0.00     0.002 A 
ATOM     21  C   UNL A   1      33.857  27.844  24.580  1.00  0.00     0.028 A 
ATOM     22  C   UNL A   1      33.701  28.620  23.438  1.00  0.00     0.002 A 
BRANCH  19  23
ATOM     23  N   UNL A   1      34.176  25.786  25.736  1.00  0.00    -0.397 N 
ATOM     24  H   UNL A   1      35.133  25.649  25.921  1.00  0.00     0.156 HD
ATOM     25  H   UNL A   1      33.500  25.473  26.379  1.00  0.00     0.156 HD
ENDBRANCH  19  23
ENDBRANCH   7  17
ENDBRANCH   6   7
ENDBRANCH   4   6
ENDBRANCH   3   4
ENDBRANCH   2   3
ENDBRANCH   1   2
BRANCH   1  26
ATOM     26  O   UNL A   1      38.725  21.781  25.581  1.00  0.00    -0.374 OA
BRANCH  26  27
ATOM     27  C   UNL A   1      39.823  21.882  26.470  1.00  0.00     0.202 C 
BRANCH  27  28
ATOM     28  C   UNL A   1      40.666  23.165  26.558  1.00  0.00     0.261 C 
BRANCH  28  29
ATOM     29  O   UNL A   1      39.967  24.390  26.477  1.00  0.00    -0.460 OA
BRANCH  29  30
ATOM     30  C   UNL A   1      40.756  25.456  26.227  1.00  0.00     0.338 C 
ATOM     31  O   UNL A   1      41.258  25.790  25.174  1.00  0.00    -0.246 OA
BRANCH  30  32
ATOM     32  C   UNL A   1      40.793  26.225  27.471  1.00  0.00     0.060 A 
ATOM     33  C   UNL A   1      39.825  25.949  28.438  1.00  0.00     0.016 A 
ATOM     34  C   UNL A   1      41.782  27.194  27.671  1.00  0.00     0.016 A 
ATOM     35  C   UNL A   1      39.805  26.700  29.602  1.00  0.00     0.010 A 
ATOM     36  C   UNL A   1      41.761  27.944  28.840  1.00  0.00     0.010 A 
ATOM     37  C   UNL A   1      40.743  27.728  29.781  1.00  0.00    -0.014 A 
BRANCH  37  38
ATOM     38  C   UNL A   1      40.533  28.692  30.875  1.00  0.00     0.031 A 
ATOM     39  C   UNL A   1      41.452  28.631  32.059  1.00  0.00     0.074 A 
ATOM     40  C   UNL A   1      39.580  29.629  30.764  1.00  0.00     0.049 A 
ATOM     41  N   UNL A   1      41.510  29.411  33.103  1.00  0.00    -0.248 NA
ATOM     42  C   UNL A   1      42.443  27.541  32.064  1.00  0.00     0.031 C 
ATOM     43  C   UNL A   1      38.667  29.771  29.630  1.00  0.00     0.029 A 
ATOM     44  N   UNL A   1      39.234  30.648  31.609  1.00  0.00    -0.354 N 
ATOM     45  C   UNL A   1      42.539  28.908  33.890  1.00  0.00     0.074 A 
ATOM     46  C   UNL A   1      43.048  27.729  33.227  1.00  0.00     0.031 C 
ATOM     47  C   UNL A   1      37.876  30.836  29.840  1.00  0.00     0.029 A 
ATOM     48  C   UNL A   1      38.209  31.428  31.134  1.00  0.00     0.049 A 
ATOM     49  H   UNL A   1      39.676  30.807  32.474  1.00  0.00     0.167 HD
ATOM     50  C   UNL A   1      43.022  29.399  35.056  1.00  0.00     0.037 A 
ATOM     51  C   UNL A   1      37.615  32.500  31.690  1.00  0.00     0.037 A 
ATOM     52  C   UNL A   1      42.481  30.566  35.700  1.00  0.00     0.049 A 
ATOM     53  C   UNL A   1      38.122  32.989  33.019  1.00  0.00     0.074 A 
ATOM     54  C   UNL A   1      42.884  31.170  36.876  1.00  0.00     0.029 A 
ATOM     55  N   UNL A   1      41.401  31.298  35.222  1.00  0.00    -0.354 N 
ATOM     56  N   UNL A   1      39.115  32.528  33.743  1.00  0.00    -0.248 NA
ATOM     57  C   UNL A   1      37.430  34.141  33.607  1.00  0.00     0.031 C 
ATOM     58  C   UNL A   1      42.010  32.232  37.138  1.00  0.00     0.029 A 
ATOM     59  C   UNL A   1      41.101  32.330  36.094  1.00  0.00     0.049 A 
ATOM     60  H   UNL A   1      40.918  31.112  34.384  1.00  0.00     0.167 HD
ATOM     61  C   UNL A   1      39.188  33.350  34.862  1.00  0.00     0.074 A 
ATOM     62  C   UNL A   1      38.139  34.341  34.710  1.00  0.00     0.031 C 
ATOM     63  C   UNL A   1      40.042  33.296  35.915  1.00  0.00     0.037 A 
BRANCH  50  64
ATOM     64  C   UNL A   1      44.147  28.640  35.707  1.00  0.00     0.058 A 
ATOM     65  C   UNL A   1      43.913  27.602  36.626  1.00  0.00     0.135 A 
ATOM     66  C   UNL A   1      45.482  28.985  35.445  1.00  0.00     0.135 A 
ATOM     67  F   UNL A   1      42.655  27.240  36.931  1.00  0.00    -0.206 F 
ATOM     68  C   UNL A   1      44.956  26.974  37.300  1.00  0.00     0.059 A 
ATOM     69  C   UNL A   1      46.543  28.348  36.083  1.00  0.00     0.059 A 
ATOM     70  F   UNL A   1      45.769  29.968  34.578  1.00  0.00    -0.206 F 
ATOM     71  C   UNL A   1      46.268  27.362  37.029  1.00  0.00     0.060 A 
BRANCH  71  72
ATOM     72  S   UNL A   1      47.610  26.574  37.946  1.00  0.00     0.124 S 
ATOM     73  O   UNL A   1      48.782  27.073  37.233  1.00  0.00    -0.237 OA
ATOM     74  O   UNL A   1      47.418  27.099  39.294  1.00  0.00    -0.237 OA
ATOM     75  O   UNL A   1      47.339  25.149  37.788  1.00  0.00    -0.744 OA
ENDBRANCH  71  72
ENDBRANCH  50  64
BRANCH  51  76
ATOM     76  C   UNL A   1      36.515  33.186  30.966  1.00  0.00     0.058 A 
ATOM     77  C   UNL A   1      35.190  33.096  31.415  1.00  0.00     0.135 A 
ATOM     78  C   UNL A   1      36.771  33.999  29.850  1.00  0.00     0.135 A 
ATOM     79  F   UNL A   1      34.893  32.326  32.474  1.00  0.00    -0.206 F 
ATOM     80  C   UNL A   1      34.159  33.791  30.792  1.00  0.00     0.059 A 
ATOM     81  C   UNL A   1      35.761  34.724  29.224  1.00  0.00     0.059 A 
ATOM     82  F   UNL A   1      38.025  34.131  29.388  1.00  0.00    -0.206 F 
ATOM     83  C   UNL A   1      34.457  34.613  29.703  1.00  0.00     0.060 A 
BRANCH  83  84
ATOM     84  S   UNL A   1      33.125  35.582  28.962  1.00  0.00     0.124 S 
ATOM     85  O   UNL A   1      32.420  34.569  28.184  1.00  0.00    -0.237 OA
ATOM     86  O   UNL A   1      32.425  36.086  30.138  1.00  0.00    -0.237 OA
ATOM     87  O   UNL A   1      33.836  36.593  28.185  1.00  0.00    -0.744 OA
ENDBRANCH  83  84
ENDBRANCH  51  76
BRANCH  63  88
ATOM     88  C   UNL A   1      39.889  34.353  36.973  1.00  0.00     0.058 A 
ATOM     89  C   UNL A   1      40.491  35.616  36.848  1.00  0.00     0.135 A 
ATOM     90  C   UNL A   1      39.087  34.116  38.101  1.00  0.00     0.135 A 
ATOM     91  F   UNL A   1      41.274  35.889  35.792  1.00  0.00    -0.206 F 
ATOM     92  C   UNL A   1      40.322  36.598  37.818  1.00  0.00     0.059 A 
ATOM     93  C   UNL A   1      38.880  35.094  39.067  1.00  0.00     0.059 A 
ATOM     94  F   UNL A   1      38.479  32.930  38.262  1.00  0.00    -0.206 F 
ATOM     95  C   UNL A   1      39.512  36.328  38.923  1.00  0.00     0.060 A 
BRANCH  95  96
ATOM     96  S   UNL A   1      39.277  37.622  40.157  1.00  0.00     0.124 S 
ATOM     97  O   UNL A   1      40.592  38.254  40.175  1.00  0.00    -0.237 OA
ATOM     98  O   UNL A   1      38.200  38.417  39.575  1.00  0.00    -0.237 OA
ATOM     99  O   UNL A   1      38.920  36.881  41.363  1.00  0.00    -0.744 OA
ENDBRANCH  95  96
ENDBRANCH  63  88
ENDBRANCH  37  38
ENDBRANCH  30  32
ENDBRANCH  29  30
ENDBRANCH  28  29
ENDBRANCH  27  28
ENDBRANCH  26  27
ENDBRANCH   1  26
TORSDOF 23
ENDMDL
MODEL 3
REMARK VINA RESULT:     -10.3      1.117      8.353
REMARK SMILES CCc1ccsc1C(=O)N(CC(=O)OCCOCCOC(=O)c1ccc(-c2c3nc(c(-c4c(F)cc(S(=O)(=O)[O-])cc4F)c4ccc([nH]4)c(-c4c(F)cc(S(=O)(=O)[O-])cc4F)c4nc(c(-c5c(F)cc(S(=O)(=O)[O-])cc5F)c5ccc2[nH]5)C=C4)C=C3)cc1)c1ccccc1N
REMARK SMILES IDX 16 1 15 2 14 3 12 4 13 5 11 6 10 7 8 8 9 9 7 10 3 11 4 12
REMARK SMILES IDX 5 13 6 14 2 15 1 16 89 17 90 18 94 19 91 20 93 21 92 22
REMARK SMILES IDX 95 23 17 26 18 27 19 28 20 29 21 30 22 31 23 32 24 33 88 34
REMARK SMILES IDX 25 35 87 36 26 37 27 38 28 39 81 40 29 41 86 42 80 43 82 44
REMARK SMILES IDX 30 45 85 46 79 47 78 48 31 50 65 51 44 52 64 53 45 54 48 55
REMARK SMILES IDX 63 56 83 57 46 58 47 59 62 61 84 62 49 63 32 64 33 65 42 66
REMARK SMILES IDX 34 67 35 68 41 69 43 70 36 71 37 72 38 73 39 74 40 75 66 76
REMARK SMILES IDX 67 77 76 78 68 79 69 80 75 81 77 82 70 83 71 84 72 85 73 86
REMARK SMILES IDX 74 87 50 88 51 89 60 90 52 91 53 92 59 93 61 94 54 95 55 96
REMARK SMILES IDX 56 97 57 98 58 99
REMARK H PARENT 95 24 95 25 82 49 48 60
REMARK Flexibility Score: inf
ROOT
ATOM      1  C   UNL A   1      38.150  21.143  25.736  1.00  0.00     0.202 C 
ENDROOT
BRANCH   1   2
ATOM      2  C   UNL A   1      37.083  22.202  25.414  1.00  0.00     0.261 C 
BRANCH   2   3
ATOM      3  O   UNL A   1      36.637  22.288  24.040  1.00  0.00    -0.462 OA
BRANCH   3   4
ATOM      4  C   UNL A   1      35.568  23.104  23.831  1.00  0.00     0.326 C 
ATOM      5  O   UNL A   1      35.244  23.545  22.730  1.00  0.00    -0.250 OA
BRANCH   4   6
ATOM      6  C   UNL A   1      34.774  23.501  25.084  1.00  0.00     0.248 C 
BRANCH   6   7
ATOM      7  N   UNL A   1      33.386  23.121  25.234  1.00  0.00    -0.294 N 
BRANCH   7   8
ATOM      8  C   UNL A   1      32.429  24.035  25.778  1.00  0.00     0.269 C 
ATOM      9  O   UNL A   1      31.921  23.715  26.863  1.00  0.00    -0.268 OA
BRANCH   8  10
ATOM     10  C   UNL A   1      31.961  25.343  25.150  1.00  0.00     0.096 A 
ATOM     11  C   UNL A   1      31.530  26.659  25.468  1.00  0.00    -0.025 A 
ATOM     12  C   UNL A   1      31.175  27.408  24.274  1.00  0.00     0.016 A 
ATOM     13  C   UNL A   1      31.331  26.725  23.104  1.00  0.00     0.066 A 
ATOM     14  S   UNL A   1      31.938  25.180  23.375  1.00  0.00    -0.138 S 
BRANCH  11  15
ATOM     15  C   UNL A   1      31.364  27.348  26.807  1.00  0.00     0.034 C 
ATOM     16  C   UNL A   1      32.373  28.414  27.217  1.00  0.00     0.009 C 
ENDBRANCH  11  15
ENDBRANCH   8  10
ENDBRANCH   7   8
BRANCH   7  17
ATOM     17  C   UNL A   1      33.051  21.727  24.834  1.00  0.00     0.068 A 
ATOM     18  C   UNL A   1      32.420  21.511  23.580  1.00  0.00     0.028 A 
ATOM     19  C   UNL A   1      33.278  20.554  25.607  1.00  0.00     0.056 A 
ATOM     20  C   UNL A   1      32.150  20.241  23.051  1.00  0.00     0.002 A 
ATOM     21  C   UNL A   1      32.970  19.279  25.068  1.00  0.00     0.028 A 
ATOM     22  C   UNL A   1      32.456  19.118  23.787  1.00  0.00     0.002 A 
BRANCH  19  23
ATOM     23  N   UNL A   1      33.574  20.565  26.980  1.00  0.00    -0.397 N 
ATOM     24  H   UNL A   1      34.510  20.528  27.281  1.00  0.00     0.156 HD
ATOM     25  H   UNL A   1      32.845  20.609  27.640  1.00  0.00     0.156 HD
ENDBRANCH  19  23
ENDBRANCH   7  17
ENDBRANCH   6   7
ENDBRANCH   4   6
ENDBRANCH   3   4
ENDBRANCH   2   3
ENDBRANCH   1   2
BRANCH   1  26
ATOM     26  O   UNL A   1      39.531  21.453  25.636  1.00  0.00    -0.374 OA
BRANCH  26  27
ATOM     27  C   UNL A   1      40.359  21.322  26.778  1.00  0.00     0.202 C 
BRANCH  27  28
ATOM     28  C   UNL A   1      40.822  22.551  27.576  1.00  0.00     0.261 C 
BRANCH  28  29
ATOM     29  O   UNL A   1      40.201  23.781  27.265  1.00  0.00    -0.460 OA
BRANCH  29  30
ATOM     30  C   UNL A   1      41.062  24.757  26.909  1.00  0.00     0.338 C 
ATOM     31  O   UNL A   1      41.811  24.788  25.953  1.00  0.00    -0.246 OA
BRANCH  30  32
ATOM     32  C   UNL A   1      40.830  25.856  27.846  1.00  0.00     0.060 A 
ATOM     33  C   UNL A   1      41.737  26.918  27.843  1.00  0.00     0.016 A 
ATOM     34  C   UNL A   1      39.723  25.832  28.700  1.00  0.00     0.016 A 
ATOM     35  C   UNL A   1      41.569  27.945  28.758  1.00  0.00     0.010 A 
ATOM     36  C   UNL A   1      39.556  26.864  29.614  1.00  0.00     0.010 A 
ATOM     37  C   UNL A   1      40.508  27.894  29.673  1.00  0.00    -0.014 A 
BRANCH  37  38
ATOM     38  C   UNL A   1      40.511  28.831  30.810  1.00  0.00     0.031 A 
ATOM     39  C   UNL A   1      39.492  29.932  30.822  1.00  0.00     0.074 A 
ATOM     40  C   UNL A   1      41.369  28.648  31.823  1.00  0.00     0.049 A 
ATOM     41  N   UNL A   1      39.253  30.829  31.739  1.00  0.00    -0.248 NA
ATOM     42  C   UNL A   1      38.622  30.033  29.638  1.00  0.00     0.031 C 
ATOM     43  C   UNL A   1      42.370  27.583  31.897  1.00  0.00     0.029 A 
ATOM     44  N   UNL A   1      41.526  29.342  32.992  1.00  0.00    -0.354 N 
ATOM     45  C   UNL A   1      38.209  31.602  31.245  1.00  0.00     0.074 A 
ATOM     46  C   UNL A   1      37.891  31.098  29.928  1.00  0.00     0.031 C 
ATOM     47  C   UNL A   1      43.023  27.681  33.066  1.00  0.00     0.029 A 
ATOM     48  C   UNL A   1      42.507  28.831  33.804  1.00  0.00     0.049 A 
ATOM     49  H   UNL A   1      40.987  30.132  33.227  1.00  0.00     0.167 HD
ATOM     50  C   UNL A   1      37.567  32.630  31.847  1.00  0.00     0.037 A 
ATOM     51  C   UNL A   1      42.931  29.252  35.010  1.00  0.00     0.037 A 
ATOM     52  C   UNL A   1      37.921  33.119  33.153  1.00  0.00     0.049 A 
ATOM     53  C   UNL A   1      42.250  30.440  35.632  1.00  0.00     0.074 A 
ATOM     54  C   UNL A   1      37.346  34.146  33.878  1.00  0.00     0.029 A 
ATOM     55  N   UNL A   1      38.962  32.617  33.925  1.00  0.00    -0.354 N 
ATOM     56  N   UNL A   1      41.243  31.147  35.174  1.00  0.00    -0.248 NA
ATOM     57  C   UNL A   1      42.760  30.888  36.933  1.00  0.00     0.031 C 
ATOM     58  C   UNL A   1      38.076  34.303  35.061  1.00  0.00     0.029 A 
ATOM     59  C   UNL A   1      39.068  33.333  35.105  1.00  0.00     0.049 A 
ATOM     60  H   UNL A   1      39.541  31.862  33.671  1.00  0.00     0.167 HD
ATOM     61  C   UNL A   1      40.979  32.110  36.142  1.00  0.00     0.074 A 
ATOM     62  C   UNL A   1      41.930  31.884  37.214  1.00  0.00     0.031 C 
ATOM     63  C   UNL A   1      40.036  33.086  36.149  1.00  0.00     0.037 A 
BRANCH  50  64
ATOM     64  C   UNL A   1      36.468  33.303  31.070  1.00  0.00     0.058 A 
ATOM     65  C   UNL A   1      36.735  34.156  29.985  1.00  0.00     0.135 A 
ATOM     66  C   UNL A   1      35.125  33.131  31.444  1.00  0.00     0.135 A 
ATOM     67  F   UNL A   1      38.002  34.375  29.593  1.00  0.00    -0.206 F 
ATOM     68  C   UNL A   1      35.721  34.854  29.337  1.00  0.00     0.059 A 
ATOM     69  C   UNL A   1      34.091  33.793  30.789  1.00  0.00     0.059 A 
ATOM     70  F   UNL A   1      34.807  32.331  32.473  1.00  0.00    -0.206 F 
ATOM     71  C   UNL A   1      34.401  34.673  29.753  1.00  0.00     0.060 A 
BRANCH  71  72
ATOM     72  S   UNL A   1      33.099  35.622  28.937  1.00  0.00     0.124 S 
ATOM     73  O   UNL A   1      32.463  34.596  28.116  1.00  0.00    -0.237 OA
ATOM     74  O   UNL A   1      32.312  36.109  30.065  1.00  0.00    -0.237 OA
ATOM     75  O   UNL A   1      33.834  36.645  28.201  1.00  0.00    -0.744 OA
ENDBRANCH  71  72
ENDBRANCH  50  64
BRANCH  51  76
ATOM     76  C   UNL A   1      44.021  28.518  35.701  1.00  0.00     0.058 A 
ATOM     77  C   UNL A   1      45.366  28.849  35.482  1.00  0.00     0.135 A 
ATOM     78  C   UNL A   1      43.741  27.516  36.645  1.00  0.00     0.135 A 
ATOM     79  F   UNL A   1      45.685  29.796  34.586  1.00  0.00    -0.206 F 
ATOM     80  C   UNL A   1      46.394  28.221  36.176  1.00  0.00     0.059 A 
ATOM     81  C   UNL A   1      44.751  26.890  37.369  1.00  0.00     0.059 A 
ATOM     82  F   UNL A   1      42.470  27.171  36.902  1.00  0.00    -0.206 F 
ATOM     83  C   UNL A   1      46.075  27.249  37.128  1.00  0.00     0.060 A 
BRANCH  83  84
ATOM     84  S   UNL A   1      47.414  26.509  38.087  1.00  0.00     0.124 S 
ATOM     85  O   UNL A   1      48.521  27.413  37.798  1.00  0.00    -0.237 OA
ATOM     86  O   UNL A   1      46.882  26.564  39.445  1.00  0.00    -0.237 OA
ATOM     87  O   UNL A   1      47.531  25.167  37.522  1.00  0.00    -0.744 OA
ENDBRANCH  83  84
ENDBRANCH  51  76
BRANCH  63  88
ATOM     88  C   UNL A   1      39.976  33.968  37.365  1.00  0.00     0.058 A 
ATOM     89  C   UNL A   1      40.744  35.139  37.468  1.00  0.00     0.135 A 
ATOM     90  C   UNL A   1      39.098  33.664  38.418  1.00  0.00     0.135 A 
ATOM     91  F   UNL A   1      41.605  35.470  36.491  1.00  0.00    -0.206 F 
ATOM     92  C   UNL A   1      40.663  35.964  38.584  1.00  0.00     0.059 A 
ATOM     93  C   UNL A   1      38.978  34.491  39.529  1.00  0.00     0.059 A 
ATOM     94  F   UNL A   1      38.332  32.563  38.364  1.00  0.00    -0.206 F 
ATOM     95  C   UNL A   1      39.774  35.632  39.609  1.00  0.00     0.060 A 
BRANCH  95  96
ATOM     96  S   UNL A   1      39.656  36.729  41.036  1.00  0.00     0.124 S 
ATOM     97  O   UNL A   1      39.253  35.800  42.087  1.00  0.00    -0.237 OA
ATOM     98  O   UNL A   1      41.013  37.254  41.141  1.00  0.00    -0.237 OA
ATOM     99  O   UNL A   1      38.643  37.701  40.635  1.00  0.00    -0.744 OA
ENDBRANCH  95  96
ENDBRANCH  63  88
ENDBRANCH  37  38
ENDBRANCH  30  32
ENDBRANCH  29  30
ENDBRANCH  28  29
ENDBRANCH  27  28
ENDBRANCH  26  27
ENDBRANCH   1  26
TORSDOF 23
ENDMDL
