MODEL 1
REMARK VINA RESULT:     -10.7      0.000      0.000
REMARK SMILES O=C(OCCOCCOC(=O)[C@@H]1CC[C@H](CNC(=O)C2CCOCC2)O1)c1ccc(-c2c3nc(c(-c4c(F)cc(S(=O)(=O)[O-])cc4F)c4ccc([nH]4)c(-c4c(F)cc(S(=O)(=O)[O-])cc4F)c4nc(c(-c5c(F)cc(S(=O)(=O)[O-])cc5F)c5ccc2[nH]5)C=C4)C=C3)cc1
REMARK SMILES IDX 6 1 5 2 4 3 3 4 2 5 1 6 27 7 28 8 92 9 29 10 91 11 30 12
REMARK SMILES IDX 31 13 32 14 85 15 33 16 90 17 84 18 86 19 34 20 89 21 83 22
REMARK SMILES IDX 82 23 35 25 69 26 48 27 68 28 49 29 52 30 67 31 87 32 50 33
REMARK SMILES IDX 51 34 66 36 88 37 53 38 36 39 37 40 46 41 38 42 39 43 45 44
REMARK SMILES IDX 47 45 40 46 41 47 42 48 43 49 44 50 70 51 71 52 80 53 72 54
REMARK SMILES IDX 73 55 79 56 81 57 74 58 75 59 76 60 77 61 78 62 54 63 55 64
REMARK SMILES IDX 64 65 56 66 57 67 63 68 65 69 58 70 59 71 60 72 61 73 62 74
REMARK SMILES IDX 7 75 8 76 9 77 10 78 11 79 12 80 13 81 26 82 14 83 15 84
REMARK SMILES IDX 16 85 17 86 18 87 19 89 20 90 21 91 25 92 22 93 24 94 23 95
REMARK H PARENT 86 24 52 35 17 88
REMARK Flexibility Score: inf
ROOT
ATOM      1  O   UNL A   1      39.514  21.820  26.677  1.00  0.00    -0.374 OA
ENDROOT
BRANCH   1   2
ATOM      2  C   UNL A   1      40.885  21.732  26.301  1.00  0.00     0.202 C 
BRANCH   2   3
ATOM      3  C   UNL A   1      41.691  23.029  26.352  1.00  0.00     0.261 C 
BRANCH   3   4
ATOM      4  O   UNL A   1      40.816  24.161  26.278  1.00  0.00    -0.460 OA
BRANCH   4   5
ATOM      5  C   UNL A   1      41.185  25.464  26.243  1.00  0.00     0.338 C 
ATOM      6  O   UNL A   1      41.596  25.942  25.188  1.00  0.00    -0.246 OA
BRANCH   5   7
ATOM      7  C   UNL A   1      41.068  26.354  27.431  1.00  0.00     0.060 A 
ATOM      8  C   UNL A   1      41.818  27.516  27.606  1.00  0.00     0.016 A 
ATOM      9  C   UNL A   1      40.095  26.043  28.388  1.00  0.00     0.016 A 
ATOM     10  C   UNL A   1      41.682  28.312  28.719  1.00  0.00     0.010 A 
ATOM     11  C   UNL A   1      39.900  26.879  29.492  1.00  0.00     0.010 A 
ATOM     12  C   UNL A   1      40.703  28.014  29.652  1.00  0.00    -0.014 A 
BRANCH  12  13
ATOM     13  C   UNL A   1      40.632  28.896  30.821  1.00  0.00     0.031 A 
ATOM     14  C   UNL A   1      39.561  29.935  30.850  1.00  0.00     0.074 A 
ATOM     15  C   UNL A   1      41.404  28.617  31.887  1.00  0.00     0.049 A 
ATOM     16  N   UNL A   1      39.338  30.858  31.739  1.00  0.00    -0.248 NA
ATOM     17  C   UNL A   1      38.600  29.922  29.731  1.00  0.00     0.031 C 
ATOM     18  C   UNL A   1      42.348  27.494  31.976  1.00  0.00     0.029 A 
ATOM     19  N   UNL A   1      41.490  29.215  33.112  1.00  0.00    -0.354 N 
ATOM     20  C   UNL A   1      38.240  31.565  31.271  1.00  0.00     0.074 A 
ATOM     21  C   UNL A   1      37.834  30.961  30.023  1.00  0.00     0.031 C 
ATOM     22  C   UNL A   1      42.892  27.472  33.201  1.00  0.00     0.029 A 
ATOM     23  C   UNL A   1      42.412  28.627  33.945  1.00  0.00     0.049 A 
ATOM     24  H   UNL A   1      40.944  29.992  33.373  1.00  0.00     0.167 HD
ATOM     25  C   UNL A   1      37.646  32.634  31.843  1.00  0.00     0.037 A 
ATOM     26  C   UNL A   1      42.848  29.024  35.154  1.00  0.00     0.037 A 
ATOM     27  C   UNL A   1      38.096  33.191  33.090  1.00  0.00     0.049 A 
ATOM     28  C   UNL A   1      42.252  30.285  35.714  1.00  0.00     0.074 A 
ATOM     29  C   UNL A   1      37.655  34.323  33.745  1.00  0.00     0.029 A 
ATOM     30  N   UNL A   1      39.102  32.634  33.875  1.00  0.00    -0.354 N 
ATOM     31  N   UNL A   1      41.290  31.031  35.216  1.00  0.00    -0.248 NA
ATOM     32  C   UNL A   1      42.808  30.779  36.976  1.00  0.00     0.031 C 
ATOM     33  C   UNL A   1      38.426  34.475  34.904  1.00  0.00     0.029 A 
ATOM     34  C   UNL A   1      39.308  33.407  35.001  1.00  0.00     0.049 A 
ATOM     35  H   UNL A   1      39.596  31.810  33.658  1.00  0.00     0.167 HD
ATOM     36  C   UNL A   1      41.114  32.075  36.111  1.00  0.00     0.074 A 
ATOM     37  C   UNL A   1      42.059  31.853  37.191  1.00  0.00     0.031 C 
ATOM     38  C   UNL A   1      40.259  33.127  36.051  1.00  0.00     0.037 A 
BRANCH  25  39
ATOM     39  C   UNL A   1      36.536  33.295  31.079  1.00  0.00     0.058 A 
ATOM     40  C   UNL A   1      36.771  34.056  29.924  1.00  0.00     0.135 A 
ATOM     41  C   UNL A   1      35.213  33.198  31.540  1.00  0.00     0.135 A 
ATOM     42  F   UNL A   1      38.021  34.216  29.461  1.00  0.00    -0.206 F 
ATOM     43  C   UNL A   1      35.737  34.723  29.269  1.00  0.00     0.059 A 
ATOM     44  C   UNL A   1      34.161  33.835  30.888  1.00  0.00     0.059 A 
ATOM     45  F   UNL A   1      34.934  32.500  32.652  1.00  0.00    -0.206 F 
ATOM     46  C   UNL A   1      34.436  34.608  29.761  1.00  0.00     0.060 A 
BRANCH  46  47
ATOM     47  S   UNL A   1      33.110  35.491  28.914  1.00  0.00     0.124 S 
ATOM     48  O   UNL A   1      33.862  36.477  28.142  1.00  0.00    -0.237 OA
ATOM     49  O   UNL A   1      32.476  34.431  28.137  1.00  0.00    -0.237 OA
ATOM     50  O   UNL A   1      32.306  36.030  30.006  1.00  0.00    -0.744 OA
ENDBRANCH  46  47
ENDBRANCH  25  39
BRANCH  26  51
ATOM     51  C   UNL A   1      43.927  28.275  35.855  1.00  0.00     0.058 A 
ATOM     52  C   UNL A   1      43.634  27.256  36.773  1.00  0.00     0.135 A 
ATOM     53  C   UNL A   1      45.283  28.560  35.615  1.00  0.00     0.135 A 
ATOM     54  F   UNL A   1      42.357  26.946  37.044  1.00  0.00    -0.206 F 
ATOM     55  C   UNL A   1      44.641  26.560  37.439  1.00  0.00     0.059 A 
ATOM     56  C   UNL A   1      46.306  27.858  36.245  1.00  0.00     0.059 A 
ATOM     57  F   UNL A   1      45.626  29.517  34.739  1.00  0.00    -0.206 F 
ATOM     58  C   UNL A   1      45.975  26.868  37.167  1.00  0.00     0.060 A 
BRANCH  58  59
ATOM     59  S   UNL A   1      47.273  25.944  38.016  1.00  0.00     0.124 S 
ATOM     60  O   UNL A   1      47.026  24.587  37.541  1.00  0.00    -0.237 OA
ATOM     61  O   UNL A   1      48.485  26.585  37.516  1.00  0.00    -0.237 OA
ATOM     62  O   UNL A   1      46.984  26.179  39.428  1.00  0.00    -0.744 OA
ENDBRANCH  58  59
ENDBRANCH  26  51
BRANCH  38  63
ATOM     63  C   UNL A   1      40.286  34.082  37.207  1.00  0.00     0.058 A 
ATOM     64  C   UNL A   1      41.117  35.212  37.207  1.00  0.00     0.135 A 
ATOM     65  C   UNL A   1      39.418  33.893  38.293  1.00  0.00     0.135 A 
ATOM     66  F   UNL A   1      41.970  35.426  36.192  1.00  0.00    -0.206 F 
ATOM     67  C   UNL A   1      41.097  36.119  38.257  1.00  0.00     0.059 A 
ATOM     68  C   UNL A   1      39.360  34.803  39.339  1.00  0.00     0.059 A 
ATOM     69  F   UNL A   1      38.599  32.830  38.327  1.00  0.00    -0.206 F 
ATOM     70  C   UNL A   1      40.210  35.908  39.316  1.00  0.00     0.060 A 
BRANCH  70  71
ATOM     71  S   UNL A   1      40.155  37.121  40.649  1.00  0.00     0.124 S 
ATOM     72  O   UNL A   1      38.846  36.853  41.235  1.00  0.00    -0.237 OA
ATOM     73  O   UNL A   1      41.305  36.739  41.463  1.00  0.00    -0.237 OA
ATOM     74  O   UNL A   1      40.285  38.397  39.953  1.00  0.00    -0.744 OA
ENDBRANCH  70  71
ENDBRANCH  38  63
ENDBRANCH  12  13
ENDBRANCH   5   7
ENDBRANCH   4   5
ENDBRANCH   3   4
ENDBRANCH   2   3
ENDBRANCH   1   2
BRANCH   1  75
ATOM     75  C   UNL A   1      38.554  21.592  25.645  1.00  0.00     0.202 C 
BRANCH  75  76
ATOM     76  C   UNL A   1      37.489  22.683  25.706  1.00  0.00     0.261 C 
BRANCH  76  77
ATOM     77  O   UNL A   1      36.226  22.115  25.311  1.00  0.00    -0.461 OA
BRANCH  77  78
ATOM     78  C   UNL A   1      35.127  22.641  25.928  1.00  0.00     0.335 C 
ATOM     79  O   UNL A   1      34.938  22.693  27.139  1.00  0.00    -0.249 OA
BRANCH  78  80
ATOM     80  C   UNL A   1      34.174  23.218  24.883  1.00  0.00     0.228 C 
ATOM     81  C   UNL A   1      32.761  23.357  25.427  1.00  0.00     0.047 C 
ATOM     82  O   UNL A   1      34.079  22.344  23.747  1.00  0.00    -0.361 OA
ATOM     83  C   UNL A   1      31.885  22.988  24.262  1.00  0.00     0.037 C 
ATOM     84  C   UNL A   1      32.719  21.907  23.603  1.00  0.00     0.138 C 
BRANCH  84  85
ATOM     85  C   UNL A   1      32.521  20.508  24.238  1.00  0.00     0.147 C 
BRANCH  85  86
ATOM     86  N   UNL A   1      32.191  19.546  23.205  1.00  0.00    -0.353 N 
ATOM     87  C   UNL A   1      32.629  18.267  23.053  1.00  0.00     0.223 C 
ATOM     88  H   UNL A   1      31.560  19.862  22.517  1.00  0.00     0.163 HD
ATOM     89  O   UNL A   1      32.427  17.742  21.955  1.00  0.00    -0.275 OA
BRANCH  87  90
ATOM     90  C   UNL A   1      33.252  17.500  24.225  1.00  0.00     0.083 C 
ATOM     91  C   UNL A   1      34.551  16.748  23.915  1.00  0.00     0.042 C 
ATOM     92  C   UNL A   1      32.222  16.487  24.757  1.00  0.00     0.042 C 
ATOM     93  C   UNL A   1      34.997  15.914  25.108  1.00  0.00     0.161 C 
ATOM     94  C   UNL A   1      32.790  15.650  25.890  1.00  0.00     0.161 C 
ATOM     95  O   UNL A   1      33.982  14.986  25.476  1.00  0.00    -0.381 OA
ENDBRANCH  87  90
ENDBRANCH  85  86
ENDBRANCH  84  85
ENDBRANCH  78  80
ENDBRANCH  77  78
ENDBRANCH  76  77
ENDBRANCH  75  76
ENDBRANCH   1  75
TORSDOF 20
ENDMDL
MODEL 2
REMARK VINA RESULT:     -10.6      2.357      8.695
REMARK SMILES O=C(OCCOCCOC(=O)[C@@H]1CC[C@H](CNC(=O)C2CCOCC2)O1)c1ccc(-c2c3nc(c(-c4c(F)cc(S(=O)(=O)[O-])cc4F)c4ccc([nH]4)c(-c4c(F)cc(S(=O)(=O)[O-])cc4F)c4nc(c(-c5c(F)cc(S(=O)(=O)[O-])cc5F)c5ccc2[nH]5)C=C4)C=C3)cc1
REMARK SMILES IDX 6 1 5 2 4 3 3 4 2 5 1 6 27 7 28 8 92 9 29 10 91 11 30 12
REMARK SMILES IDX 31 13 32 14 85 15 33 16 90 17 84 18 86 19 34 20 89 21 83 22
REMARK SMILES IDX 82 23 35 25 69 26 48 27 68 28 49 29 52 30 67 31 87 32 50 33
REMARK SMILES IDX 51 34 66 36 88 37 53 38 36 39 37 40 46 41 38 42 39 43 45 44
REMARK SMILES IDX 47 45 40 46 41 47 42 48 43 49 44 50 70 51 71 52 80 53 72 54
REMARK SMILES IDX 73 55 79 56 81 57 74 58 75 59 76 60 77 61 78 62 54 63 55 64
REMARK SMILES IDX 64 65 56 66 57 67 63 68 65 69 58 70 59 71 60 72 61 73 62 74
REMARK SMILES IDX 7 75 8 76 9 77 10 78 11 79 12 80 13 81 26 82 14 83 15 84
REMARK SMILES IDX 16 85 17 86 18 87 19 89 20 90 21 91 25 92 22 93 24 94 23 95
REMARK H PARENT 86 24 52 35 17 88
REMARK Flexibility Score: inf
ROOT
ATOM      1  O   UNL A   1      35.339  22.173  26.292  1.00  0.00    -0.374 OA
ENDROOT
BRANCH   1   2
ATOM      2  C   UNL A   1      36.258  21.411  25.517  1.00  0.00     0.202 C 
BRANCH   2   3
ATOM      3  C   UNL A   1      37.215  22.199  24.622  1.00  0.00     0.261 C 
BRANCH   3   4
ATOM      4  O   UNL A   1      37.758  23.314  25.338  1.00  0.00    -0.460 OA
BRANCH   4   5
ATOM      5  C   UNL A   1      38.932  23.345  26.013  1.00  0.00     0.338 C 
ATOM      6  O   UNL A   1      39.734  22.426  25.862  1.00  0.00    -0.246 OA
BRANCH   5   7
ATOM      7  C   UNL A   1      39.306  24.479  26.902  1.00  0.00     0.060 A 
ATOM      8  C   UNL A   1      38.959  24.555  28.250  1.00  0.00     0.016 A 
ATOM      9  C   UNL A   1      40.119  25.487  26.370  1.00  0.00     0.016 A 
ATOM     10  C   UNL A   1      39.323  25.620  29.040  1.00  0.00     0.010 A 
ATOM     11  C   UNL A   1      40.553  26.542  27.178  1.00  0.00     0.010 A 
ATOM     12  C   UNL A   1      40.145  26.604  28.516  1.00  0.00    -0.014 A 
BRANCH  12  13
ATOM     13  C   UNL A   1      40.474  27.718  29.410  1.00  0.00     0.031 A 
ATOM     14  C   UNL A   1      41.809  27.708  30.078  1.00  0.00     0.074 A 
ATOM     15  C   UNL A   1      39.649  28.780  29.449  1.00  0.00     0.049 A 
ATOM     16  N   UNL A   1      42.296  28.544  30.948  1.00  0.00    -0.248 NA
ATOM     17  C   UNL A   1      42.726  26.616  29.702  1.00  0.00     0.031 C 
ATOM     18  C   UNL A   1      38.410  28.915  28.671  1.00  0.00     0.029 A 
ATOM     19  N   UNL A   1      39.743  29.963  30.124  1.00  0.00    -0.354 N 
ATOM     20  C   UNL A   1      43.559  28.059  31.259  1.00  0.00     0.074 A 
ATOM     21  C   UNL A   1      43.769  26.861  30.479  1.00  0.00     0.031 C 
ATOM     22  C   UNL A   1      37.879  30.126  28.894  1.00  0.00     0.029 A 
ATOM     23  C   UNL A   1      38.682  30.808  29.898  1.00  0.00     0.049 A 
ATOM     24  H   UNL A   1      40.497  30.189  30.716  1.00  0.00     0.167 HD
ATOM     25  C   UNL A   1      44.446  28.579  32.135  1.00  0.00     0.037 A 
ATOM     26  C   UNL A   1      38.382  31.980  30.486  1.00  0.00     0.037 A 
ATOM     27  C   UNL A   1      44.180  29.778  32.882  1.00  0.00     0.049 A 
ATOM     28  C   UNL A   1      39.329  32.475  31.544  1.00  0.00     0.074 A 
ATOM     29  C   UNL A   1      44.939  30.372  33.870  1.00  0.00     0.029 A 
ATOM     30  N   UNL A   1      43.049  30.571  32.708  1.00  0.00    -0.354 N 
ATOM     31  N   UNL A   1      40.473  31.955  31.930  1.00  0.00    -0.248 NA
ATOM     32  C   UNL A   1      38.942  33.691  32.265  1.00  0.00     0.031 C 
ATOM     33  C   UNL A   1      44.245  31.501  34.323  1.00  0.00     0.029 A 
ATOM     34  C   UNL A   1      43.081  31.642  33.579  1.00  0.00     0.049 A 
ATOM     35  H   UNL A   1      42.331  30.394  32.058  1.00  0.00     0.167 HD
ATOM     36  C   UNL A   1      40.953  32.788  32.930  1.00  0.00     0.074 A 
ATOM     37  C   UNL A   1      39.980  33.856  33.074  1.00  0.00     0.031 C 
ATOM     38  C   UNL A   1      42.086  32.684  33.669  1.00  0.00     0.037 A 
BRANCH  25  39
ATOM     39  C   UNL A   1      45.707  27.802  32.378  1.00  0.00     0.058 A 
ATOM     40  C   UNL A   1      46.863  27.989  31.605  1.00  0.00     0.135 A 
ATOM     41  C   UNL A   1      45.742  26.817  33.378  1.00  0.00     0.135 A 
ATOM     42  F   UNL A   1      46.873  28.889  30.608  1.00  0.00    -0.206 F 
ATOM     43  C   UNL A   1      48.000  27.207  31.796  1.00  0.00     0.059 A 
ATOM     44  C   UNL A   1      46.875  26.041  33.604  1.00  0.00     0.059 A 
ATOM     45  F   UNL A   1      44.657  26.582  34.132  1.00  0.00    -0.206 F 
ATOM     46  C   UNL A   1      47.995  26.234  32.796  1.00  0.00     0.060 A 
BRANCH  46  47
ATOM     47  S   UNL A   1      49.468  25.216  33.022  1.00  0.00     0.124 S 
ATOM     48  O   UNL A   1      48.904  24.018  33.637  1.00  0.00    -0.237 OA
ATOM     49  O   UNL A   1      49.949  25.057  31.653  1.00  0.00    -0.237 OA
ATOM     50  O   UNL A   1      50.314  26.027  33.891  1.00  0.00    -0.744 OA
ENDBRANCH  46  47
ENDBRANCH  25  39
BRANCH  26  51
ATOM     51  C   UNL A   1      37.124  32.700  30.146  1.00  0.00     0.058 A 
ATOM     52  C   UNL A   1      35.923  32.436  30.820  1.00  0.00     0.135 A 
ATOM     53  C   UNL A   1      37.097  33.679  29.136  1.00  0.00     0.135 A 
ATOM     54  F   UNL A   1      35.890  31.508  31.789  1.00  0.00    -0.206 F 
ATOM     55  C   UNL A   1      34.743  33.101  30.498  1.00  0.00     0.059 A 
ATOM     56  C   UNL A   1      35.938  34.377  28.817  1.00  0.00     0.059 A 
ATOM     57  F   UNL A   1      38.217  33.983  28.462  1.00  0.00    -0.206 F 
ATOM     58  C   UNL A   1      34.760  34.071  29.494  1.00  0.00     0.060 A 
BRANCH  58  59
ATOM     59  S   UNL A   1      33.229  34.945  29.101  1.00  0.00     0.124 S 
ATOM     60  O   UNL A   1      32.573  34.987  30.403  1.00  0.00    -0.237 OA
ATOM     61  O   UNL A   1      33.725  36.220  28.593  1.00  0.00    -0.237 OA
ATOM     62  O   UNL A   1      32.597  34.084  28.104  1.00  0.00    -0.744 OA
ENDBRANCH  58  59
ENDBRANCH  26  51
BRANCH  38  63
ATOM     63  C   UNL A   1      42.343  33.778  34.662  1.00  0.00     0.058 A 
ATOM     64  C   UNL A   1      41.982  33.645  36.010  1.00  0.00     0.135 A 
ATOM     65  C   UNL A   1      43.021  34.940  34.264  1.00  0.00     0.135 A 
ATOM     66  F   UNL A   1      41.325  32.553  36.432  1.00  0.00    -0.206 F 
ATOM     67  C   UNL A   1      42.272  34.641  36.933  1.00  0.00     0.059 A 
ATOM     68  C   UNL A   1      43.347  35.935  35.175  1.00  0.00     0.059 A 
ATOM     69  F   UNL A   1      43.393  35.103  32.984  1.00  0.00    -0.206 F 
ATOM     70  C   UNL A   1      42.961  35.779  36.506  1.00  0.00     0.060 A 
BRANCH  70  71
ATOM     71  S   UNL A   1      43.378  37.041  37.724  1.00  0.00     0.124 S 
ATOM     72  O   UNL A   1      44.040  38.042  36.893  1.00  0.00    -0.237 OA
ATOM     73  O   UNL A   1      42.067  37.415  38.246  1.00  0.00    -0.237 OA
ATOM     74  O   UNL A   1      44.241  36.334  38.665  1.00  0.00    -0.744 OA
ENDBRANCH  70  71
ENDBRANCH  38  63
ENDBRANCH  12  13
ENDBRANCH   5   7
ENDBRANCH   4   5
ENDBRANCH   3   4
ENDBRANCH   2   3
ENDBRANCH   1   2
BRANCH   1  75
ATOM     75  C   UNL A   1      34.466  21.439  27.151  1.00  0.00     0.202 C 
BRANCH  75  76
ATOM     76  C   UNL A   1      33.515  22.410  27.843  1.00  0.00     0.261 C 
BRANCH  76  77
ATOM     77  O   UNL A   1      33.363  23.576  27.012  1.00  0.00    -0.461 OA
BRANCH  77  78
ATOM     78  C   UNL A   1      32.106  23.790  26.523  1.00  0.00     0.335 C 
ATOM     79  O   UNL A   1      31.076  23.845  27.187  1.00  0.00    -0.249 OA
BRANCH  78  80
ATOM     80  C   UNL A   1      32.169  24.013  25.013  1.00  0.00     0.228 C 
ATOM     81  C   UNL A   1      30.919  23.498  24.317  1.00  0.00     0.047 C 
ATOM     82  O   UNL A   1      33.271  23.289  24.440  1.00  0.00    -0.361 OA
ATOM     83  C   UNL A   1      31.435  22.908  23.034  1.00  0.00     0.037 C 
ATOM     84  C   UNL A   1      32.765  22.341  23.489  1.00  0.00     0.138 C 
BRANCH  84  85
ATOM     85  C   UNL A   1      32.646  20.933  24.126  1.00  0.00     0.147 C 
BRANCH  85  86
ATOM     86  N   UNL A   1      32.188  19.985  23.131  1.00  0.00    -0.353 N 
ATOM     87  C   UNL A   1      32.549  18.685  22.955  1.00  0.00     0.223 C 
ATOM     88  H   UNL A   1      31.520  20.328  22.493  1.00  0.00     0.163 HD
ATOM     89  O   UNL A   1      32.235  18.166  21.881  1.00  0.00    -0.275 OA
BRANCH  87  90
ATOM     90  C   UNL A   1      33.226  17.893  24.080  1.00  0.00     0.083 C 
ATOM     91  C   UNL A   1      34.409  17.015  23.659  1.00  0.00     0.042 C 
ATOM     92  C   UNL A   1      32.173  16.995  24.756  1.00  0.00     0.042 C 
ATOM     93  C   UNL A   1      34.907  16.174  24.827  1.00  0.00     0.161 C 
ATOM     94  C   UNL A   1      32.785  16.138  25.850  1.00  0.00     0.161 C 
ATOM     95  O   UNL A   1      33.859  15.355  25.334  1.00  0.00    -0.381 OA
ENDBRANCH  87  90
ENDBRANCH  85  86
ENDBRANCH  84  85
ENDBRANCH  78  80
ENDBRANCH  77  78
ENDBRANCH  76  77
ENDBRANCH  75  76
ENDBRANCH   1  75
TORSDOF 20
ENDMDL
MODEL 3
REMARK VINA RESULT:     -10.6      7.507     12.635
REMARK SMILES O=C(OCCOCCOC(=O)[C@@H]1CC[C@H](CNC(=O)C2CCOCC2)O1)c1ccc(-c2c3nc(c(-c4c(F)cc(S(=O)(=O)[O-])cc4F)c4ccc([nH]4)c(-c4c(F)cc(S(=O)(=O)[O-])cc4F)c4nc(c(-c5c(F)cc(S(=O)(=O)[O-])cc5F)c5ccc2[nH]5)C=C4)C=C3)cc1
REMARK SMILES IDX 6 1 5 2 4 3 3 4 2 5 1 6 27 7 28 8 92 9 29 10 91 11 30 12
REMARK SMILES IDX 31 13 32 14 85 15 33 16 90 17 84 18 86 19 34 20 89 21 83 22
REMARK SMILES IDX 82 23 35 25 69 26 48 27 68 28 49 29 52 30 67 31 87 32 50 33
REMARK SMILES IDX 51 34 66 36 88 37 53 38 36 39 37 40 46 41 38 42 39 43 45 44
REMARK SMILES IDX 47 45 40 46 41 47 42 48 43 49 44 50 70 51 71 52 80 53 72 54
REMARK SMILES IDX 73 55 79 56 81 57 74 58 75 59 76 60 77 61 78 62 54 63 55 64
REMARK SMILES IDX 64 65 56 66 57 67 63 68 65 69 58 70 59 71 60 72 61 73 62 74
REMARK SMILES IDX 7 75 8 76 9 77 10 78 11 79 12 80 13 81 26 82 14 83 15 84
REMARK SMILES IDX 16 85 17 86 18 87 19 89 20 90 21 91 25 92 22 93 24 94 23 95
REMARK H PARENT 86 24 52 35 17 88
REMARK Flexibility Score: inf
ROOT
ATOM      1  O   UNL A   1      34.778  34.697  28.495  1.00  0.00    -0.374 OA
ENDROOT
BRANCH   1   2
ATOM      2  C   UNL A   1      35.950  34.269  29.181  1.00  0.00     0.202 C 
BRANCH   2   3
ATOM      3  C   UNL A   1      36.612  32.989  28.671  1.00  0.00     0.261 C 
BRANCH   3   4
ATOM      4  O   UNL A   1      36.134  31.856  29.406  1.00  0.00    -0.460 OA
BRANCH   4   5
ATOM      5  C   UNL A   1      36.440  30.558  29.174  1.00  0.00     0.338 C 
ATOM      6  O   UNL A   1      35.537  29.725  29.144  1.00  0.00    -0.246 OA
BRANCH   5   7
ATOM      7  C   UNL A   1      37.834  30.106  28.909  1.00  0.00     0.060 A 
ATOM      8  C   UNL A   1      38.771  29.852  29.910  1.00  0.00     0.016 A 
ATOM      9  C   UNL A   1      38.198  29.851  27.581  1.00  0.00     0.016 A 
ATOM     10  C   UNL A   1      40.050  29.436  29.625  1.00  0.00     0.010 A 
ATOM     11  C   UNL A   1      39.474  29.365  27.281  1.00  0.00     0.010 A 
ATOM     12  C   UNL A   1      40.399  29.163  28.312  1.00  0.00    -0.014 A 
BRANCH  12  13
ATOM     13  C   UNL A   1      41.786  28.745  28.084  1.00  0.00     0.031 A 
ATOM     14  C   UNL A   1      42.865  29.751  28.303  1.00  0.00     0.074 A 
ATOM     15  C   UNL A   1      42.039  27.441  27.870  1.00  0.00     0.049 A 
ATOM     16  N   UNL A   1      44.146  29.634  28.111  1.00  0.00    -0.248 NA
ATOM     17  C   UNL A   1      42.446  31.065  28.827  1.00  0.00     0.031 C 
ATOM     18  C   UNL A   1      41.024  26.380  27.823  1.00  0.00     0.029 A 
ATOM     19  N   UNL A   1      43.219  26.774  27.701  1.00  0.00    -0.354 N 
ATOM     20  C   UNL A   1      44.685  30.868  28.447  1.00  0.00     0.074 A 
ATOM     21  C   UNL A   1      43.595  31.720  28.864  1.00  0.00     0.031 C 
ATOM     22  C   UNL A   1      41.631  25.195  27.667  1.00  0.00     0.029 A 
ATOM     23  C   UNL A   1      43.060  25.422  27.506  1.00  0.00     0.049 A 
ATOM     24  H   UNL A   1      44.097  27.218  27.716  1.00  0.00     0.167 HD
ATOM     25  C   UNL A   1      45.982  31.242  28.390  1.00  0.00     0.037 A 
ATOM     26  C   UNL A   1      43.975  24.491  27.182  1.00  0.00     0.037 A 
ATOM     27  C   UNL A   1      47.025  30.347  27.967  1.00  0.00     0.049 A 
ATOM     28  C   UNL A   1      45.393  24.960  27.009  1.00  0.00     0.074 A 
ATOM     29  C   UNL A   1      48.366  30.607  27.771  1.00  0.00     0.029 A 
ATOM     30  N   UNL A   1      46.827  29.000  27.678  1.00  0.00    -0.354 N 
ATOM     31  N   UNL A   1      45.892  26.160  27.210  1.00  0.00    -0.248 NA
ATOM     32  C   UNL A   1      46.368  23.970  26.544  1.00  0.00     0.031 C 
ATOM     33  C   UNL A   1      48.970  29.427  27.321  1.00  0.00     0.029 A 
ATOM     34  C   UNL A   1      48.017  28.417  27.292  1.00  0.00     0.049 A 
ATOM     35  H   UNL A   1      45.963  28.531  27.741  1.00  0.00     0.167 HD
ATOM     36  C   UNL A   1      47.243  26.068  26.910  1.00  0.00     0.074 A 
ATOM     37  C   UNL A   1      47.484  24.687  26.532  1.00  0.00     0.031 C 
ATOM     38  C   UNL A   1      48.199  27.030  26.936  1.00  0.00     0.037 A 
BRANCH  25  39
ATOM     39  C   UNL A   1      46.298  32.676  28.702  1.00  0.00     0.058 A 
ATOM     40  C   UNL A   1      46.619  33.108  29.997  1.00  0.00     0.135 A 
ATOM     41  C   UNL A   1      46.232  33.644  27.687  1.00  0.00     0.135 A 
ATOM     42  F   UNL A   1      46.656  32.231  31.014  1.00  0.00    -0.206 F 
ATOM     43  C   UNL A   1      46.837  34.454  30.282  1.00  0.00     0.059 A 
ATOM     44  C   UNL A   1      46.470  34.992  27.944  1.00  0.00     0.059 A 
ATOM     45  F   UNL A   1      45.908  33.289  26.434  1.00  0.00    -0.206 F 
ATOM     46  C   UNL A   1      46.757  35.389  29.248  1.00  0.00     0.060 A 
BRANCH  46  47
ATOM     47  S   UNL A   1      47.023  37.132  29.634  1.00  0.00     0.124 S 
ATOM     48  O   UNL A   1      47.628  37.048  30.961  1.00  0.00    -0.237 OA
ATOM     49  O   UNL A   1      47.915  37.556  28.560  1.00  0.00    -0.237 OA
ATOM     50  O   UNL A   1      45.680  37.700  29.592  1.00  0.00    -0.744 OA
ENDBRANCH  46  47
ENDBRANCH  25  39
BRANCH  26  51
ATOM     51  C   UNL A   1      43.569  23.081  26.934  1.00  0.00     0.058 A 
ATOM     52  C   UNL A   1      43.284  22.204  27.990  1.00  0.00     0.135 A 
ATOM     53  C   UNL A   1      43.448  22.578  25.626  1.00  0.00     0.135 A 
ATOM     54  F   UNL A   1      43.386  22.629  29.259  1.00  0.00    -0.206 F 
ATOM     55  C   UNL A   1      42.913  20.881  27.763  1.00  0.00     0.059 A 
ATOM     56  C   UNL A   1      43.050  21.270  25.372  1.00  0.00     0.059 A 
ATOM     57  F   UNL A   1      43.698  23.373  24.573  1.00  0.00    -0.206 F 
ATOM     58  C   UNL A   1      42.798  20.423  26.448  1.00  0.00     0.060 A 
BRANCH  58  59
ATOM     59  S   UNL A   1      42.292  18.713  26.163  1.00  0.00     0.124 S 
ATOM     60  O   UNL A   1      43.259  18.285  25.159  1.00  0.00    -0.237 OA
ATOM     61  O   UNL A   1      42.442  18.123  27.489  1.00  0.00    -0.237 OA
ATOM     62  O   UNL A   1      40.914  18.843  25.695  1.00  0.00    -0.744 OA
ENDBRANCH  58  59
ENDBRANCH  26  51
BRANCH  38  63
ATOM     63  C   UNL A   1      49.592  26.601  26.586  1.00  0.00     0.058 A 
ATOM     64  C   UNL A   1      50.484  26.133  27.561  1.00  0.00     0.135 A 
ATOM     65  C   UNL A   1      50.008  26.596  25.245  1.00  0.00     0.135 A 
ATOM     66  F   UNL A   1      50.130  26.129  28.857  1.00  0.00    -0.206 F 
ATOM     67  C   UNL A   1      51.754  25.688  27.221  1.00  0.00     0.059 A 
ATOM     68  C   UNL A   1      51.262  26.127  24.879  1.00  0.00     0.059 A 
ATOM     69  F   UNL A   1      49.182  27.025  24.279  1.00  0.00    -0.206 F 
ATOM     70  C   UNL A   1      52.131  25.683  25.876  1.00  0.00     0.060 A 
BRANCH  70  71
ATOM     71  S   UNL A   1      53.763  25.053  25.440  1.00  0.00     0.124 S 
ATOM     72  O   UNL A   1      53.486  23.634  25.244  1.00  0.00    -0.237 OA
ATOM     73  O   UNL A   1      54.077  25.812  24.233  1.00  0.00    -0.237 OA
ATOM     74  O   UNL A   1      54.577  25.381  26.607  1.00  0.00    -0.744 OA
ENDBRANCH  70  71
ENDBRANCH  38  63
ENDBRANCH  12  13
ENDBRANCH   5   7
ENDBRANCH   4   5
ENDBRANCH   3   4
ENDBRANCH   2   3
ENDBRANCH   1   2
BRANCH   1  75
ATOM     75  C   UNL A   1      33.545  34.110  28.912  1.00  0.00     0.202 C 
BRANCH  75  76
ATOM     76  C   UNL A   1      32.840  33.515  27.697  1.00  0.00     0.261 C 
BRANCH  76  77
ATOM     77  O   UNL A   1      33.095  32.098  27.666  1.00  0.00    -0.461 OA
BRANCH  77  78
ATOM     78  C   UNL A   1      32.191  31.354  26.963  1.00  0.00     0.335 C 
ATOM     79  O   UNL A   1      31.220  31.789  26.354  1.00  0.00    -0.249 OA
BRANCH  78  80
ATOM     80  C   UNL A   1      32.600  29.882  26.992  1.00  0.00     0.228 C 
ATOM     81  C   UNL A   1      33.774  29.607  26.065  1.00  0.00     0.047 C 
ATOM     82  O   UNL A   1      31.525  29.048  26.530  1.00  0.00    -0.361 OA
ATOM     83  C   UNL A   1      33.463  28.260  25.475  1.00  0.00     0.037 C 
ATOM     84  C   UNL A   1      31.953  28.333  25.362  1.00  0.00     0.138 C 
BRANCH  84  85
ATOM     85  C   UNL A   1      31.469  29.045  24.073  1.00  0.00     0.147 C 
BRANCH  85  86
ATOM     86  N   UNL A   1      30.224  28.453  23.627  1.00  0.00    -0.353 N 
ATOM     87  C   UNL A   1      29.115  29.062  23.129  1.00  0.00     0.223 C 
ATOM     88  H   UNL A   1      30.175  27.471  23.692  1.00  0.00     0.163 HD
ATOM     89  O   UNL A   1      28.087  28.380  23.077  1.00  0.00    -0.275 OA
BRANCH  87  90
ATOM     90  C   UNL A   1      29.179  30.490  22.574  1.00  0.00     0.083 C 
ATOM     91  C   UNL A   1      28.847  31.607  23.570  1.00  0.00     0.042 C 
ATOM     92  C   UNL A   1      28.211  30.602  21.381  1.00  0.00     0.042 C 
ATOM     93  C   UNL A   1      28.805  32.962  22.875  1.00  0.00     0.161 C 
ATOM     94  C   UNL A   1      28.182  32.009  20.812  1.00  0.00     0.161 C 
ATOM     95  O   UNL A   1      27.844  32.954  21.825  1.00  0.00    -0.381 OA
ENDBRANCH  87  90
ENDBRANCH  85  86
ENDBRANCH  84  85
ENDBRANCH  78  80
ENDBRANCH  77  78
ENDBRANCH  76  77
ENDBRANCH  75  76
ENDBRANCH   1  75
TORSDOF 20
ENDMDL
