MODEL 1
REMARK VINA RESULT:     -10.5      0.000      0.000
REMARK SMILES O=C(Cc1ccc(S(=O)(=O)CC[NH+]2CCCC2)cc1)OCCOCCOC(=O)c1ccc(-c2c3nc(c(-c4c(F)cc(S(=O)(=O)[O-])cc4F)c4ccc([nH]4)c(-c4c(F)cc(S(=O)(=O)[O-])cc4F)c4nc(c(-c5c(F)cc(S(=O)(=O)[O-])cc5F)c5ccc2[nH]5)C=C4)C=C3)cc1
REMARK SMILES IDX 22 1 21 2 20 3 2 4 1 5 3 6 4 7 5 8 19 9 6 10 18 11 7 12 8 13
REMARK SMILES IDX 9 14 10 15 11 16 12 17 13 18 14 19 17 20 15 22 16 23 23 24
REMARK SMILES IDX 24 25 25 26 26 27 27 28 28 29 29 30 30 31 94 32 31 33 93 34
REMARK SMILES IDX 32 35 33 36 34 37 87 38 35 39 92 40 86 41 88 42 36 43 91 44
REMARK SMILES IDX 85 45 84 46 37 48 71 49 50 50 70 51 51 52 54 53 69 54 89 55
REMARK SMILES IDX 52 56 53 57 68 59 90 60 55 61 38 62 39 63 48 64 40 65 41 66
REMARK SMILES IDX 47 67 49 68 42 69 43 70 44 71 45 72 46 73 72 74 73 75 82 76
REMARK SMILES IDX 74 77 75 78 81 79 83 80 76 81 77 82 78 83 79 84 80 85 56 86
REMARK SMILES IDX 57 87 66 88 58 89 59 90 65 91 67 92 60 93 61 94 62 95 63 96
REMARK SMILES IDX 64 97
REMARK H PARENT 13 21 88 47 54 58
REMARK Flexibility Score: inf
ROOT
ATOM      1  C   UNL A   1      34.388  33.876  29.895  1.00  0.00     0.202 C 
ENDROOT
BRANCH   1   2
ATOM      2  C   UNL A   1      34.362  33.359  28.453  1.00  0.00     0.261 C 
BRANCH   2   3
ATOM      3  O   UNL A   1      34.453  31.935  28.158  1.00  0.00    -0.463 OA
BRANCH   3   4
ATOM      4  C   UNL A   1      33.740  31.002  27.508  1.00  0.00     0.310 C 
ATOM      5  O   UNL A   1      32.700  31.359  26.947  1.00  0.00    -0.252 OA
BRANCH   4   6
ATOM      6  C   UNL A   1      34.152  29.550  27.450  1.00  0.00     0.158 C 
BRANCH   6   7
ATOM      7  C   UNL A   1      33.304  28.609  26.627  1.00  0.00    -0.037 A 
ATOM      8  C   UNL A   1      32.145  28.018  27.145  1.00  0.00     0.005 A 
ATOM      9  C   UNL A   1      33.675  28.236  25.341  1.00  0.00     0.005 A 
ATOM     10  C   UNL A   1      31.296  27.274  26.307  1.00  0.00     0.020 A 
ATOM     11  C   UNL A   1      32.945  27.343  24.579  1.00  0.00     0.020 A 
ATOM     12  C   UNL A   1      31.675  27.022  24.987  1.00  0.00     0.067 A 
BRANCH  12  13
ATOM     13  S   UNL A   1      30.517  26.485  23.753  1.00  0.00     0.183 S 
ATOM     14  O   UNL A   1      31.094  25.264  23.218  1.00  0.00    -0.223 OA
ATOM     15  O   UNL A   1      29.215  26.454  24.392  1.00  0.00    -0.223 OA
BRANCH  13  16
ATOM     16  C   UNL A   1      30.474  27.698  22.412  1.00  0.00     0.203 C 
BRANCH  16  17
ATOM     17  C   UNL A   1      29.996  29.127  22.741  1.00  0.00     0.279 C 
BRANCH  17  18
ATOM     18  N   UNL A   1      28.854  29.813  22.099  1.00  0.00    -0.334 N 
ATOM     19  C   UNL A   1      29.011  31.225  21.736  1.00  0.00     0.262 C 
ATOM     20  C   UNL A   1      27.573  29.776  22.777  1.00  0.00     0.262 C 
ATOM     21  H   UNL A   1      28.858  29.214  21.272  1.00  0.00     0.348 HD
ATOM     22  C   UNL A   1      28.438  32.022  22.896  1.00  0.00     0.067 C 
ATOM     23  C   UNL A   1      27.534  31.042  23.626  1.00  0.00     0.067 C 
ENDBRANCH  17  18
ENDBRANCH  16  17
ENDBRANCH  13  16
ENDBRANCH  12  13
ENDBRANCH   6   7
ENDBRANCH   4   6
ENDBRANCH   3   4
ENDBRANCH   2   3
ENDBRANCH   1   2
BRANCH   1  24
ATOM     24  O   UNL A   1      34.098  32.966  30.942  1.00  0.00    -0.374 OA
BRANCH  24  25
ATOM     25  C   UNL A   1      35.041  32.813  31.991  1.00  0.00     0.202 C 
BRANCH  25  26
ATOM     26  C   UNL A   1      36.396  32.245  31.585  1.00  0.00     0.261 C 
BRANCH  26  27
ATOM     27  O   UNL A   1      36.275  31.077  30.761  1.00  0.00    -0.460 OA
BRANCH  27  28
ATOM     28  C   UNL A   1      37.025  30.019  31.145  1.00  0.00     0.338 C 
ATOM     29  O   UNL A   1      36.642  29.024  31.750  1.00  0.00    -0.246 OA
BRANCH  28  30
ATOM     30  C   UNL A   1      38.386  30.148  30.599  1.00  0.00     0.060 A 
ATOM     31  C   UNL A   1      38.548  30.155  29.208  1.00  0.00     0.016 A 
ATOM     32  C   UNL A   1      39.496  30.161  31.448  1.00  0.00     0.016 A 
ATOM     33  C   UNL A   1      39.826  30.094  28.659  1.00  0.00     0.010 A 
ATOM     34  C   UNL A   1      40.775  30.099  30.896  1.00  0.00     0.010 A 
ATOM     35  C   UNL A   1      40.940  30.010  29.504  1.00  0.00    -0.014 A 
BRANCH  35  36
ATOM     36  C   UNL A   1      42.260  29.635  28.948  1.00  0.00     0.031 A 
ATOM     37  C   UNL A   1      42.464  28.220  28.477  1.00  0.00     0.074 A 
ATOM     38  C   UNL A   1      43.250  30.539  28.862  1.00  0.00     0.049 A 
ATOM     39  N   UNL A   1      43.542  27.647  28.016  1.00  0.00    -0.248 NA
ATOM     40  C   UNL A   1      41.291  27.332  28.548  1.00  0.00     0.031 C 
ATOM     41  C   UNL A   1      43.146  31.943  29.257  1.00  0.00     0.029 A 
ATOM     42  N   UNL A   1      44.541  30.404  28.425  1.00  0.00    -0.354 N 
ATOM     43  C   UNL A   1      43.185  26.328  27.755  1.00  0.00     0.074 A 
ATOM     44  C   UNL A   1      41.801  26.179  28.143  1.00  0.00     0.031 C 
ATOM     45  C   UNL A   1      44.331  32.540  29.049  1.00  0.00     0.029 A 
ATOM     46  C   UNL A   1      45.284  31.553  28.544  1.00  0.00     0.049 A 
ATOM     47  H   UNL A   1      44.902  29.563  28.059  1.00  0.00     0.167 HD
ATOM     48  C   UNL A   1      43.943  25.335  27.230  1.00  0.00     0.037 A 
ATOM     49  C   UNL A   1      46.588  31.772  28.292  1.00  0.00     0.037 A 
ATOM     50  C   UNL A   1      45.323  25.502  26.854  1.00  0.00     0.049 A 
ATOM     51  C   UNL A   1      47.431  30.639  27.766  1.00  0.00     0.074 A 
ATOM     52  C   UNL A   1      46.183  24.572  26.296  1.00  0.00     0.029 A 
ATOM     53  N   UNL A   1      46.048  26.675  27.008  1.00  0.00    -0.354 N 
ATOM     54  N   UNL A   1      47.079  29.402  27.502  1.00  0.00    -0.248 NA
ATOM     55  C   UNL A   1      48.845  30.933  27.499  1.00  0.00     0.031 C 
ATOM     56  C   UNL A   1      47.442  25.167  26.166  1.00  0.00     0.029 A 
ATOM     57  C   UNL A   1      47.353  26.488  26.581  1.00  0.00     0.049 A 
ATOM     58  H   UNL A   1      45.689  27.518  27.368  1.00  0.00     0.167 HD
ATOM     59  C   UNL A   1      48.219  28.779  27.005  1.00  0.00     0.074 A 
ATOM     60  C   UNL A   1      49.269  29.778  27.003  1.00  0.00     0.031 C 
ATOM     61  C   UNL A   1      48.382  27.499  26.583  1.00  0.00     0.037 A 
BRANCH  48  62
ATOM     62  C   UNL A   1      43.304  23.980  27.077  1.00  0.00     0.058 A 
ATOM     63  C   UNL A   1      43.119  23.116  28.169  1.00  0.00     0.135 A 
ATOM     64  C   UNL A   1      42.876  23.536  25.815  1.00  0.00     0.135 A 
ATOM     65  F   UNL A   1      43.526  23.479  29.396  1.00  0.00    -0.206 F 
ATOM     66  C   UNL A   1      42.573  21.846  28.008  1.00  0.00     0.059 A 
ATOM     67  C   UNL A   1      42.298  22.283  25.637  1.00  0.00     0.059 A 
ATOM     68  F   UNL A   1      43.030  24.318  24.735  1.00  0.00    -0.206 F 
ATOM     69  C   UNL A   1      42.170  21.436  26.736  1.00  0.00     0.060 A 
BRANCH  69  70
ATOM     70  S   UNL A   1      41.489  19.776  26.539  1.00  0.00     0.124 S 
ATOM     71  O   UNL A   1      42.143  19.337  25.311  1.00  0.00    -0.237 OA
ATOM     72  O   UNL A   1      41.928  19.111  27.763  1.00  0.00    -0.237 OA
ATOM     73  O   UNL A   1      40.052  20.008  26.437  1.00  0.00    -0.744 OA
ENDBRANCH  69  70
ENDBRANCH  48  62
BRANCH  49  74
ATOM     74  C   UNL A   1      47.166  33.122  28.522  1.00  0.00     0.058 A 
ATOM     75  C   UNL A   1      47.060  34.126  27.549  1.00  0.00     0.135 A 
ATOM     76  C   UNL A   1      47.798  33.447  29.733  1.00  0.00     0.135 A 
ATOM     77  F   UNL A   1      46.471  33.861  26.373  1.00  0.00    -0.206 F 
ATOM     78  C   UNL A   1      47.559  35.405  27.767  1.00  0.00     0.059 A 
ATOM     79  C   UNL A   1      48.283  34.726  29.984  1.00  0.00     0.059 A 
ATOM     80  F   UNL A   1      47.914  32.524  30.700  1.00  0.00    -0.206 F 
ATOM     81  C   UNL A   1      48.161  35.699  28.992  1.00  0.00     0.060 A 
BRANCH  81  82
ATOM     82  S   UNL A   1      48.726  37.387  29.293  1.00  0.00     0.124 S 
ATOM     83  O   UNL A   1      48.259  37.616  30.655  1.00  0.00    -0.237 OA
ATOM     84  O   UNL A   1      50.171  37.256  29.124  1.00  0.00    -0.237 OA
ATOM     85  O   UNL A   1      48.049  38.157  28.255  1.00  0.00    -0.744 OA
ENDBRANCH  81  82
ENDBRANCH  49  74
BRANCH  61  86
ATOM     86  C   UNL A   1      49.732  27.116  26.039  1.00  0.00     0.058 A 
ATOM     87  C   UNL A   1      50.727  26.549  26.849  1.00  0.00     0.135 A 
ATOM     88  C   UNL A   1      50.010  27.271  24.671  1.00  0.00     0.135 A 
ATOM     89  F   UNL A   1      50.516  26.383  28.164  1.00  0.00    -0.206 F 
ATOM     90  C   UNL A   1      51.962  26.175  26.328  1.00  0.00     0.059 A 
ATOM     91  C   UNL A   1      51.225  26.875  24.122  1.00  0.00     0.059 A 
ATOM     92  F   UNL A   1      49.089  27.797  23.848  1.00  0.00    -0.206 F 
ATOM     93  C   UNL A   1      52.200  26.340  24.962  1.00  0.00     0.060 A 
BRANCH  93  94
ATOM     94  S   UNL A   1      53.796  25.823  24.294  1.00  0.00     0.124 S 
ATOM     95  O   UNL A   1      53.863  24.434  24.737  1.00  0.00    -0.237 OA
ATOM     96  O   UNL A   1      53.614  26.024  22.860  1.00  0.00    -0.237 OA
ATOM     97  O   UNL A   1      54.743  26.732  24.933  1.00  0.00    -0.744 OA
ENDBRANCH  93  94
ENDBRANCH  61  86
ENDBRANCH  35  36
ENDBRANCH  28  30
ENDBRANCH  27  28
ENDBRANCH  26  27
ENDBRANCH  25  26
ENDBRANCH  24  25
ENDBRANCH   1  24
TORSDOF 22
ENDMDL
MODEL 2
REMARK VINA RESULT:     -10.2      6.374     12.111
REMARK SMILES O=C(Cc1ccc(S(=O)(=O)CC[NH+]2CCCC2)cc1)OCCOCCOC(=O)c1ccc(-c2c3nc(c(-c4c(F)cc(S(=O)(=O)[O-])cc4F)c4ccc([nH]4)c(-c4c(F)cc(S(=O)(=O)[O-])cc4F)c4nc(c(-c5c(F)cc(S(=O)(=O)[O-])cc5F)c5ccc2[nH]5)C=C4)C=C3)cc1
REMARK SMILES IDX 22 1 21 2 20 3 2 4 1 5 3 6 4 7 5 8 19 9 6 10 18 11 7 12 8 13
REMARK SMILES IDX 9 14 10 15 11 16 12 17 13 18 14 19 17 20 15 22 16 23 23 24
REMARK SMILES IDX 24 25 25 26 26 27 27 28 28 29 29 30 30 31 94 32 31 33 93 34
REMARK SMILES IDX 32 35 33 36 34 37 87 38 35 39 92 40 86 41 88 42 36 43 91 44
REMARK SMILES IDX 85 45 84 46 37 48 71 49 50 50 70 51 51 52 54 53 69 54 89 55
REMARK SMILES IDX 52 56 53 57 68 59 90 60 55 61 38 62 39 63 48 64 40 65 41 66
REMARK SMILES IDX 47 67 49 68 42 69 43 70 44 71 45 72 46 73 72 74 73 75 82 76
REMARK SMILES IDX 74 77 75 78 81 79 83 80 76 81 77 82 78 83 79 84 80 85 56 86
REMARK SMILES IDX 57 87 66 88 58 89 59 90 65 91 67 92 60 93 61 94 62 95 63 96
REMARK SMILES IDX 64 97
REMARK H PARENT 13 21 88 47 54 58
REMARK Flexibility Score: inf
ROOT
ATOM      1  C   UNL A   1      42.160  20.492  26.606  1.00  0.00     0.202 C 
ENDROOT
BRANCH   1   2
ATOM      2  C   UNL A   1      40.646  20.446  26.381  1.00  0.00     0.261 C 
BRANCH   2   3
ATOM      3  O   UNL A   1      39.798  21.589  26.696  1.00  0.00    -0.463 OA
BRANCH   3   4
ATOM      4  C   UNL A   1      38.819  22.296  26.112  1.00  0.00     0.310 C 
ATOM      5  O   UNL A   1      38.736  23.498  26.382  1.00  0.00    -0.252 OA
BRANCH   4   6
ATOM      6  C   UNL A   1      37.820  21.681  25.160  1.00  0.00     0.158 C 
BRANCH   6   7
ATOM      7  C   UNL A   1      36.531  22.427  24.910  1.00  0.00    -0.037 A 
ATOM      8  C   UNL A   1      35.549  22.553  25.901  1.00  0.00     0.005 A 
ATOM      9  C   UNL A   1      36.235  22.964  23.664  1.00  0.00     0.005 A 
ATOM     10  C   UNL A   1      34.435  23.383  25.690  1.00  0.00     0.020 A 
ATOM     11  C   UNL A   1      35.045  23.614  23.391  1.00  0.00     0.020 A 
ATOM     12  C   UNL A   1      34.247  23.984  24.443  1.00  0.00     0.067 A 
BRANCH  12  13
ATOM     13  S   UNL A   1      33.146  25.357  24.207  1.00  0.00     0.183 S 
ATOM     14  O   UNL A   1      34.020  26.485  23.942  1.00  0.00    -0.223 OA
ATOM     15  O   UNL A   1      32.173  24.942  23.214  1.00  0.00    -0.223 OA
BRANCH  13  16
ATOM     16  C   UNL A   1      32.280  25.696  25.759  1.00  0.00     0.203 C 
BRANCH  16  17
ATOM     17  C   UNL A   1      31.204  26.802  25.762  1.00  0.00     0.279 C 
BRANCH  17  18
ATOM     18  N   UNL A   1      31.357  28.137  26.382  1.00  0.00    -0.334 N 
ATOM     19  C   UNL A   1      31.851  29.234  25.545  1.00  0.00     0.262 C 
ATOM     20  C   UNL A   1      32.160  28.237  27.585  1.00  0.00     0.262 C 
ATOM     21  H   UNL A   1      30.362  28.243  26.585  1.00  0.00     0.348 HD
ATOM     22  C   UNL A   1      33.352  29.296  25.777  1.00  0.00     0.067 C 
ATOM     23  C   UNL A   1      33.565  28.577  27.100  1.00  0.00     0.067 C 
ENDBRANCH  17  18
ENDBRANCH  16  17
ENDBRANCH  13  16
ENDBRANCH  12  13
ENDBRANCH   6   7
ENDBRANCH   4   6
ENDBRANCH   3   4
ENDBRANCH   2   3
ENDBRANCH   1   2
BRANCH   1  24
ATOM     24  O   UNL A   1      42.977  21.035  25.584  1.00  0.00    -0.374 OA
BRANCH  24  25
ATOM     25  C   UNL A   1      43.625  22.276  25.817  1.00  0.00     0.202 C 
BRANCH  25  26
ATOM     26  C   UNL A   1      42.887  23.512  25.313  1.00  0.00     0.261 C 
BRANCH  26  27
ATOM     27  O   UNL A   1      42.036  24.088  26.315  1.00  0.00    -0.460 OA
BRANCH  27  28
ATOM     28  C   UNL A   1      41.781  25.407  26.167  1.00  0.00     0.338 C 
ATOM     29  O   UNL A   1      41.456  25.985  25.137  1.00  0.00    -0.246 OA
BRANCH  28  30
ATOM     30  C   UNL A   1      41.801  26.069  27.482  1.00  0.00     0.060 A 
ATOM     31  C   UNL A   1      40.732  25.842  28.359  1.00  0.00     0.016 A 
ATOM     32  C   UNL A   1      42.810  26.979  27.807  1.00  0.00     0.016 A 
ATOM     33  C   UNL A   1      40.627  26.587  29.531  1.00  0.00     0.010 A 
ATOM     34  C   UNL A   1      42.703  27.724  28.980  1.00  0.00     0.010 A 
ATOM     35  C   UNL A   1      41.585  27.569  29.816  1.00  0.00    -0.014 A 
BRANCH  35  36
ATOM     36  C   UNL A   1      41.324  28.566  30.878  1.00  0.00     0.031 A 
ATOM     37  C   UNL A   1      42.177  28.534  32.117  1.00  0.00     0.074 A 
ATOM     38  C   UNL A   1      40.350  29.480  30.736  1.00  0.00     0.049 A 
ATOM     39  N   UNL A   1      42.096  29.259  33.200  1.00  0.00    -0.248 NA
ATOM     40  C   UNL A   1      43.263  27.539  32.138  1.00  0.00     0.031 C 
ATOM     41  C   UNL A   1      39.490  29.621  29.563  1.00  0.00     0.029 A 
ATOM     42  N   UNL A   1      39.916  30.456  31.594  1.00  0.00    -0.354 N 
ATOM     43  C   UNL A   1      43.108  28.801  34.037  1.00  0.00     0.074 A 
ATOM     44  C   UNL A   1      43.766  27.712  33.351  1.00  0.00     0.031 C 
ATOM     45  C   UNL A   1      38.623  30.624  29.778  1.00  0.00     0.029 A 
ATOM     46  C   UNL A   1      38.843  31.169  31.117  1.00  0.00     0.049 A 
ATOM     47  H   UNL A   1      40.334  30.631  32.469  1.00  0.00     0.167 HD
ATOM     48  C   UNL A   1      43.460  29.255  35.264  1.00  0.00     0.037 A 
ATOM     49  C   UNL A   1      38.114  32.136  31.705  1.00  0.00     0.037 A 
ATOM     50  C   UNL A   1      42.790  30.338  35.934  1.00  0.00     0.049 A 
ATOM     51  C   UNL A   1      38.482  32.586  33.094  1.00  0.00     0.074 A 
ATOM     52  C   UNL A   1      43.072  30.895  37.169  1.00  0.00     0.029 A 
ATOM     53  N   UNL A   1      41.693  31.024  35.428  1.00  0.00    -0.354 N 
ATOM     54  N   UNL A   1      39.454  32.162  33.869  1.00  0.00    -0.248 NA
ATOM     55  C   UNL A   1      37.660  33.649  33.688  1.00  0.00     0.031 C 
ATOM     56  C   UNL A   1      42.112  31.877  37.434  1.00  0.00     0.029 A 
ATOM     57  C   UNL A   1      41.270  31.980  36.336  1.00  0.00     0.049 A 
ATOM     58  H   UNL A   1      41.278  30.855  34.552  1.00  0.00     0.167 HD
ATOM     59  C   UNL A   1      39.382  32.929  35.027  1.00  0.00     0.074 A 
ATOM     60  C   UNL A   1      38.273  33.846  34.848  1.00  0.00     0.031 C 
ATOM     61  C   UNL A   1      40.165  32.886  36.135  1.00  0.00     0.037 A 
BRANCH  48  62
ATOM     62  C   UNL A   1      44.590  28.551  35.967  1.00  0.00     0.058 A 
ATOM     63  C   UNL A   1      45.921  28.991  35.863  1.00  0.00     0.135 A 
ATOM     64  C   UNL A   1      44.341  27.414  36.753  1.00  0.00     0.135 A 
ATOM     65  F   UNL A   1      46.223  30.062  35.112  1.00  0.00    -0.206 F 
ATOM     66  C   UNL A   1      46.965  28.304  36.476  1.00  0.00     0.059 A 
ATOM     67  C   UNL A   1      45.365  26.731  37.400  1.00  0.00     0.059 A 
ATOM     68  F   UNL A   1      43.089  26.946  36.886  1.00  0.00    -0.206 F 
ATOM     69  C   UNL A   1      46.678  27.171  37.239  1.00  0.00     0.060 A 
BRANCH  69  70
ATOM     70  S   UNL A   1      48.045  26.276  38.005  1.00  0.00     0.124 S 
ATOM     71  O   UNL A   1      47.332  25.327  38.852  1.00  0.00    -0.237 OA
ATOM     72  O   UNL A   1      48.730  25.704  36.849  1.00  0.00    -0.237 OA
ATOM     73  O   UNL A   1      48.781  27.320  38.712  1.00  0.00    -0.744 OA
ENDBRANCH  69  70
ENDBRANCH  48  62
BRANCH  49  74
ATOM     74  C   UNL A   1      36.973  32.746  30.973  1.00  0.00     0.058 A 
ATOM     75  C   UNL A   1      37.180  33.790  30.060  1.00  0.00     0.135 A 
ATOM     76  C   UNL A   1      35.662  32.273  31.140  1.00  0.00     0.135 A 
ATOM     77  F   UNL A   1      38.414  34.282  29.871  1.00  0.00    -0.206 F 
ATOM     78  C   UNL A   1      36.129  34.343  29.337  1.00  0.00     0.059 A 
ATOM     79  C   UNL A   1      34.599  32.792  30.410  1.00  0.00     0.059 A 
ATOM     80  F   UNL A   1      35.414  31.267  31.993  1.00  0.00    -0.206 F 
ATOM     81  C   UNL A   1      34.842  33.831  29.512  1.00  0.00     0.060 A 
BRANCH  81  82
ATOM     82  S   UNL A   1      33.502  34.500  28.503  1.00  0.00     0.124 S 
ATOM     83  O   UNL A   1      32.558  34.941  29.524  1.00  0.00    -0.237 OA
ATOM     84  O   UNL A   1      34.183  35.558  27.761  1.00  0.00    -0.237 OA
ATOM     85  O   UNL A   1      33.080  33.355  27.704  1.00  0.00    -0.744 OA
ENDBRANCH  81  82
ENDBRANCH  49  74
BRANCH  61  86
ATOM     86  C   UNL A   1      39.882  33.887  37.223  1.00  0.00     0.058 A 
ATOM     87  C   UNL A   1      39.059  33.584  38.317  1.00  0.00     0.135 A 
ATOM     88  C   UNL A   1      40.491  35.153  37.191  1.00  0.00     0.135 A 
ATOM     89  F   UNL A   1      38.448  32.391  38.395  1.00  0.00    -0.206 F 
ATOM     90  C   UNL A   1      38.827  34.510  39.330  1.00  0.00     0.059 A 
ATOM     91  C   UNL A   1      40.298  36.083  38.207  1.00  0.00     0.059 A 
ATOM     92  F   UNL A   1      41.297  35.492  36.172  1.00  0.00    -0.206 F 
ATOM     93  C   UNL A   1      39.453  35.756  39.266  1.00  0.00     0.060 A 
BRANCH  93  94
ATOM     94  S   UNL A   1      39.166  36.938  40.602  1.00  0.00     0.124 S 
ATOM     95  O   UNL A   1      40.523  37.398  40.882  1.00  0.00    -0.237 OA
ATOM     96  O   UNL A   1      38.283  37.913  39.972  1.00  0.00    -0.237 OA
ATOM     97  O   UNL A   1      38.551  36.125  41.647  1.00  0.00    -0.744 OA
ENDBRANCH  93  94
ENDBRANCH  61  86
ENDBRANCH  35  36
ENDBRANCH  28  30
ENDBRANCH  27  28
ENDBRANCH  26  27
ENDBRANCH  25  26
ENDBRANCH  24  25
ENDBRANCH   1  24
TORSDOF 22
ENDMDL
MODEL 3
REMARK VINA RESULT:     -10.0      1.613      2.688
REMARK SMILES O=C(Cc1ccc(S(=O)(=O)CC[NH+]2CCCC2)cc1)OCCOCCOC(=O)c1ccc(-c2c3nc(c(-c4c(F)cc(S(=O)(=O)[O-])cc4F)c4ccc([nH]4)c(-c4c(F)cc(S(=O)(=O)[O-])cc4F)c4nc(c(-c5c(F)cc(S(=O)(=O)[O-])cc5F)c5ccc2[nH]5)C=C4)C=C3)cc1
REMARK SMILES IDX 22 1 21 2 20 3 2 4 1 5 3 6 4 7 5 8 19 9 6 10 18 11 7 12 8 13
REMARK SMILES IDX 9 14 10 15 11 16 12 17 13 18 14 19 17 20 15 22 16 23 23 24
REMARK SMILES IDX 24 25 25 26 26 27 27 28 28 29 29 30 30 31 94 32 31 33 93 34
REMARK SMILES IDX 32 35 33 36 34 37 87 38 35 39 92 40 86 41 88 42 36 43 91 44
REMARK SMILES IDX 85 45 84 46 37 48 71 49 50 50 70 51 51 52 54 53 69 54 89 55
REMARK SMILES IDX 52 56 53 57 68 59 90 60 55 61 38 62 39 63 48 64 40 65 41 66
REMARK SMILES IDX 47 67 49 68 42 69 43 70 44 71 45 72 46 73 72 74 73 75 82 76
REMARK SMILES IDX 74 77 75 78 81 79 83 80 76 81 77 82 78 83 79 84 80 85 56 86
REMARK SMILES IDX 57 87 66 88 58 89 59 90 65 91 67 92 60 93 61 94 62 95 63 96
REMARK SMILES IDX 64 97
REMARK H PARENT 13 21 88 47 54 58
REMARK Flexibility Score: inf
ROOT
ATOM      1  C   UNL A   1      34.390  33.790  29.784  1.00  0.00     0.202 C 
ENDROOT
BRANCH   1   2
ATOM      2  C   UNL A   1      34.262  33.186  28.382  1.00  0.00     0.261 C 
BRANCH   2   3
ATOM      3  O   UNL A   1      34.319  31.745  28.171  1.00  0.00    -0.463 OA
BRANCH   3   4
ATOM      4  C   UNL A   1      33.673  30.816  27.450  1.00  0.00     0.310 C 
ATOM      5  O   UNL A   1      32.611  31.140  26.909  1.00  0.00    -0.252 OA
BRANCH   4   6
ATOM      6  C   UNL A   1      34.185  29.404  27.287  1.00  0.00     0.158 C 
BRANCH   6   7
ATOM      7  C   UNL A   1      33.341  28.434  26.494  1.00  0.00    -0.037 A 
ATOM      8  C   UNL A   1      32.232  27.791  27.058  1.00  0.00     0.005 A 
ATOM      9  C   UNL A   1      33.669  28.086  25.190  1.00  0.00     0.005 A 
ATOM     10  C   UNL A   1      31.378  27.018  26.252  1.00  0.00     0.020 A 
ATOM     11  C   UNL A   1      32.943  27.169  24.453  1.00  0.00     0.020 A 
ATOM     12  C   UNL A   1      31.707  26.792  24.914  1.00  0.00     0.067 A 
BRANCH  12  13
ATOM     13  S   UNL A   1      30.518  26.215  23.728  1.00  0.00     0.183 S 
ATOM     14  O   UNL A   1      29.237  26.361  24.395  1.00  0.00    -0.223 OA
ATOM     15  O   UNL A   1      30.781  26.933  22.495  1.00  0.00    -0.223 OA
BRANCH  13  16
ATOM     16  C   UNL A   1      30.781  24.450  23.436  1.00  0.00     0.203 C 
BRANCH  16  17
ATOM     17  C   UNL A   1      32.211  23.893  23.593  1.00  0.00     0.279 C 
BRANCH  17  18
ATOM     18  N   UNL A   1      32.646  22.947  24.644  1.00  0.00    -0.334 N 
ATOM     19  C   UNL A   1      31.672  21.970  25.141  1.00  0.00     0.262 C 
ATOM     20  C   UNL A   1      33.224  23.498  25.854  1.00  0.00     0.262 C 
ATOM     21  H   UNL A   1      33.354  22.501  24.059  1.00  0.00     0.348 HD
ATOM     22  C   UNL A   1      31.057  22.588  26.386  1.00  0.00     0.067 C 
ATOM     23  C   UNL A   1      32.056  23.647  26.823  1.00  0.00     0.067 C 
ENDBRANCH  17  18
ENDBRANCH  16  17
ENDBRANCH  13  16
ENDBRANCH  12  13
ENDBRANCH   6   7
ENDBRANCH   4   6
ENDBRANCH   3   4
ENDBRANCH   2   3
ENDBRANCH   1   2
BRANCH   1  24
ATOM     24  O   UNL A   1      34.175  32.947  30.902  1.00  0.00    -0.374 OA
BRANCH  24  25
ATOM     25  C   UNL A   1      35.124  32.961  31.958  1.00  0.00     0.202 C 
BRANCH  25  26
ATOM     26  C   UNL A   1      36.455  32.279  31.659  1.00  0.00     0.261 C 
BRANCH  26  27
ATOM     27  O   UNL A   1      36.296  31.087  30.877  1.00  0.00    -0.460 OA
BRANCH  27  28
ATOM     28  C   UNL A   1      37.049  30.034  31.270  1.00  0.00     0.338 C 
ATOM     29  O   UNL A   1      36.672  29.051  31.896  1.00  0.00    -0.246 OA
BRANCH  28  30
ATOM     30  C   UNL A   1      38.402  30.150  30.704  1.00  0.00     0.060 A 
ATOM     31  C   UNL A   1      38.543  30.173  29.310  1.00  0.00     0.016 A 
ATOM     32  C   UNL A   1      39.526  30.137  31.535  1.00  0.00     0.016 A 
ATOM     33  C   UNL A   1      39.811  30.101  28.741  1.00  0.00     0.010 A 
ATOM     34  C   UNL A   1      40.795  30.063  30.962  1.00  0.00     0.010 A 
ATOM     35  C   UNL A   1      40.937  29.990  29.567  1.00  0.00    -0.014 A 
BRANCH  35  36
ATOM     36  C   UNL A   1      42.242  29.603  28.985  1.00  0.00     0.031 A 
ATOM     37  C   UNL A   1      42.420  28.190  28.498  1.00  0.00     0.074 A 
ATOM     38  C   UNL A   1      43.242  30.495  28.892  1.00  0.00     0.049 A 
ATOM     39  N   UNL A   1      43.483  27.607  28.014  1.00  0.00    -0.248 NA
ATOM     40  C   UNL A   1      41.237  27.317  28.580  1.00  0.00     0.031 C 
ATOM     41  C   UNL A   1      43.164  31.896  29.301  1.00  0.00     0.029 A 
ATOM     42  N   UNL A   1      44.524  30.347  28.432  1.00  0.00    -0.354 N 
ATOM     43  C   UNL A   1      43.104  26.296  27.746  1.00  0.00     0.074 A 
ATOM     44  C   UNL A   1      41.724  26.161  28.156  1.00  0.00     0.031 C 
ATOM     45  C   UNL A   1      44.353  32.480  29.080  1.00  0.00     0.029 A 
ATOM     46  C   UNL A   1      45.284  31.485  28.549  1.00  0.00     0.049 A 
ATOM     47  H   UNL A   1      44.868  29.505  28.052  1.00  0.00     0.167 HD
ATOM     48  C   UNL A   1      43.840  25.298  27.200  1.00  0.00     0.037 A 
ATOM     49  C   UNL A   1      46.587  31.689  28.278  1.00  0.00     0.037 A 
ATOM     50  C   UNL A   1      45.215  25.450  26.802  1.00  0.00     0.049 A 
ATOM     51  C   UNL A   1      47.406  30.551  27.728  1.00  0.00     0.074 A 
ATOM     52  C   UNL A   1      46.053  24.515  26.221  1.00  0.00     0.029 A 
ATOM     53  N   UNL A   1      45.959  26.613  26.955  1.00  0.00    -0.354 N 
ATOM     54  N   UNL A   1      47.033  29.321  27.458  1.00  0.00    -0.248 NA
ATOM     55  C   UNL A   1      48.819  30.828  27.440  1.00  0.00     0.031 C 
ATOM     56  C   UNL A   1      47.318  25.095  26.076  1.00  0.00     0.029 A 
ATOM     57  C   UNL A   1      47.253  26.412  26.505  1.00  0.00     0.049 A 
ATOM     58  H   UNL A   1      45.616  27.457  27.329  1.00  0.00     0.167 HD
ATOM     59  C   UNL A   1      48.157  28.687  26.936  1.00  0.00     0.074 A 
ATOM     60  C   UNL A   1      49.220  29.673  26.926  1.00  0.00     0.031 C 
ATOM     61  C   UNL A   1      48.296  27.410  26.500  1.00  0.00     0.037 A 
BRANCH  48  62
ATOM     62  C   UNL A   1      43.181  23.954  27.044  1.00  0.00     0.058 A 
ATOM     63  C   UNL A   1      42.688  23.505  25.807  1.00  0.00     0.135 A 
ATOM     64  C   UNL A   1      43.034  23.102  28.151  1.00  0.00     0.135 A 
ATOM     65  F   UNL A   1      42.783  24.284  24.718  1.00  0.00    -0.206 F 
ATOM     66  C   UNL A   1      42.034  22.282  25.684  1.00  0.00     0.059 A 
ATOM     67  C   UNL A   1      42.414  21.861  28.044  1.00  0.00     0.059 A 
ATOM     68  F   UNL A   1      43.484  23.478  29.359  1.00  0.00    -0.206 F 
ATOM     69  C   UNL A   1      41.898  21.468  26.810  1.00  0.00     0.060 A 
BRANCH  69  70
ATOM     70  S   UNL A   1      41.026  19.898  26.640  1.00  0.00     0.124 S 
ATOM     71  O   UNL A   1      39.756  20.331  26.065  1.00  0.00    -0.237 OA
ATOM     72  O   UNL A   1      41.903  19.149  25.744  1.00  0.00    -0.237 OA
ATOM     73  O   UNL A   1      40.956  19.397  28.009  1.00  0.00    -0.744 OA
ENDBRANCH  69  70
ENDBRANCH  48  62
BRANCH  49  74
ATOM     74  C   UNL A   1      47.187  33.029  28.511  1.00  0.00     0.058 A 
ATOM     75  C   UNL A   1      47.191  34.002  27.502  1.00  0.00     0.135 A 
ATOM     76  C   UNL A   1      47.729  33.378  29.758  1.00  0.00     0.135 A 
ATOM     77  F   UNL A   1      46.691  33.714  26.290  1.00  0.00    -0.206 F 
ATOM     78  C   UNL A   1      47.711  35.273  27.718  1.00  0.00     0.059 A 
ATOM     79  C   UNL A   1      48.231  34.650  30.007  1.00  0.00     0.059 A 
ATOM     80  F   UNL A   1      47.737  32.486  30.761  1.00  0.00    -0.206 F 
ATOM     81  C   UNL A   1      48.221  35.591  28.978  1.00  0.00     0.060 A 
BRANCH  81  82
ATOM     82  S   UNL A   1      48.813  37.272  29.270  1.00  0.00     0.124 S 
ATOM     83  O   UNL A   1      48.501  37.918  28.000  1.00  0.00    -0.237 OA
ATOM     84  O   UNL A   1      48.003  37.683  30.413  1.00  0.00    -0.237 OA
ATOM     85  O   UNL A   1      50.232  37.083  29.551  1.00  0.00    -0.744 OA
ENDBRANCH  81  82
ENDBRANCH  49  74
BRANCH  61  86
ATOM     86  C   UNL A   1      49.631  27.014  25.930  1.00  0.00     0.058 A 
ATOM     87  C   UNL A   1      49.956  27.223  24.581  1.00  0.00     0.135 A 
ATOM     88  C   UNL A   1      50.619  26.464  26.764  1.00  0.00     0.135 A 
ATOM     89  F   UNL A   1      49.047  27.741  23.739  1.00  0.00    -0.206 F 
ATOM     90  C   UNL A   1      51.204  26.877  24.073  1.00  0.00     0.059 A 
ATOM     91  C   UNL A   1      51.884  26.140  26.284  1.00  0.00     0.059 A 
ATOM     92  F   UNL A   1      50.366  26.253  28.065  1.00  0.00    -0.206 F 
ATOM     93  C   UNL A   1      52.162  26.338  24.933  1.00  0.00     0.060 A 
BRANCH  93  94
ATOM     94  S   UNL A   1      53.787  25.920  24.266  1.00  0.00     0.124 S 
ATOM     95  O   UNL A   1      53.949  24.545  24.728  1.00  0.00    -0.237 OA
ATOM     96  O   UNL A   1      53.588  26.087  22.831  1.00  0.00    -0.237 OA
ATOM     97  O   UNL A   1      54.672  26.900  24.889  1.00  0.00    -0.744 OA
ENDBRANCH  93  94
ENDBRANCH  61  86
ENDBRANCH  35  36
ENDBRANCH  28  30
ENDBRANCH  27  28
ENDBRANCH  26  27
ENDBRANCH  25  26
ENDBRANCH  24  25
ENDBRANCH   1  24
TORSDOF 22
ENDMDL
