MODEL 1
REMARK VINA RESULT:     -12.6      0.000      0.000
REMARK SMILES CC(=O)O[C@@H]1CC[C@]23C(=O)O[C@]4(CC[C@]2(O)C1)[C@H]3CC[C@]1(C)[C@H](C(=O)OCCOCCOC(=O)c2ccc(-c3c5nc(c(-c6c(F)cc(S(=O)(=O)[O-])cc6F)c6ccc([nH]6)c(-c6c(F)cc(S(=O)(=O)[O-])cc6F)c6nc(c(-c7c(F)cc(S(=O)(=O)[O-])cc7F)c7ccc3[nH]7)C=C6)C=C5)cc2)CC[C@@H]14
REMARK SMILES IDX 30 1 29 2 28 3 27 4 26 5 24 6 25 7 23 8 5 9 6 10 17 11 7 12
REMARK SMILES IDX 15 13 8 14 14 15 9 16 18 17 13 18 10 19 11 20 12 21 19 22
REMARK SMILES IDX 103 23 20 24 21 25 102 26 22 27 101 28 4 29 2 30 1 31 3 32
REMARK SMILES IDX 16 33 31 35 32 36 33 37 34 38 35 39 36 40 100 41 37 42 99 43
REMARK SMILES IDX 38 44 39 45 40 46 93 47 41 48 98 49 92 50 94 51 42 52 97 53
REMARK SMILES IDX 91 54 90 55 43 57 77 58 56 59 76 60 57 61 60 62 75 63 95 64
REMARK SMILES IDX 58 65 59 66 74 68 96 69 61 70 44 71 45 72 54 73 46 74 47 75
REMARK SMILES IDX 53 76 55 77 48 78 49 79 50 80 51 81 52 82 78 83 79 84 88 85
REMARK SMILES IDX 80 86 81 87 87 88 89 89 82 90 83 91 84 92 85 93 86 94 62 95
REMARK SMILES IDX 63 96 72 97 64 98 65 99 71 100 73 101 66 102 67 103 68 104
REMARK SMILES IDX 69 105 70 106
REMARK H PARENT 16 34 94 56 60 67
REMARK Flexibility Score: inf
ROOT
ATOM      1  C   UNL A   1      36.829  20.488  24.991  1.00  0.00     0.202 C 
ENDROOT
BRANCH   1   2
ATOM      2  O   UNL A   1      35.455  20.618  24.636  1.00  0.00    -0.374 OA
BRANCH   2   3
ATOM      3  C   UNL A   1      34.569  19.534  24.904  1.00  0.00     0.202 C 
BRANCH   3   4
ATOM      4  C   UNL A   1      33.237  19.820  25.605  1.00  0.00     0.261 C 
BRANCH   4   5
ATOM      5  O   UNL A   1      32.290  20.483  24.753  1.00  0.00    -0.463 OA
BRANCH   5   6
ATOM      6  C   UNL A   1      32.049  21.771  25.086  1.00  0.00     0.309 C 
ATOM      7  O   UNL A   1      31.210  22.125  25.913  1.00  0.00    -0.252 OA
BRANCH   6   8
ATOM      8  C   UNL A   1      32.993  22.789  24.465  1.00  0.00     0.105 C 
ATOM      9  C   UNL A   1      32.226  30.098  27.059  1.00  0.00     0.179 C 
ATOM     10  C   UNL A   1      31.566  28.841  27.546  1.00  0.00     0.047 C 
ATOM     11  C   UNL A   1      31.653  30.319  25.651  1.00  0.00     0.081 C 
ATOM     12  C   UNL A   1      31.898  27.744  26.571  1.00  0.00     0.026 C 
ATOM     13  C   UNL A   1      31.751  29.123  24.625  1.00  0.00     0.085 C 
ATOM     14  C   UNL A   1      31.041  27.771  25.000  1.00  0.00     0.103 C 
ATOM     15  C   UNL A   1      33.229  28.966  24.164  1.00  0.00     0.041 C 
ATOM     16  C   UNL A   1      30.922  26.355  25.406  1.00  0.00     0.316 C 
ATOM     17  C   UNL A   1      31.569  26.885  23.517  1.00  0.00     0.054 C 
ATOM     18  C   UNL A   1      33.794  27.532  24.052  1.00  0.00     0.052 C 
ATOM     19  O   UNL A   1      29.945  25.789  25.850  1.00  0.00    -0.251 OA
ATOM     20  O   UNL A   1      32.187  25.833  25.295  1.00  0.00    -0.458 OA
ATOM     21  C   UNL A   1      32.812  26.332  24.108  1.00  0.00     0.120 C 
ATOM     22  C   UNL A   1      30.784  25.724  22.811  1.00  0.00     0.009 C 
ATOM     23  C   UNL A   1      33.560  25.082  23.684  1.00  0.00     0.040 C 
ATOM     24  C   UNL A   1      31.141  24.252  23.196  1.00  0.00     0.008 C 
ATOM     25  C   UNL A   1      32.649  23.862  23.349  1.00  0.00    -0.013 C 
ATOM     26  C   UNL A   1      34.435  24.616  24.895  1.00  0.00     0.009 C 
ATOM     27  C   UNL A   1      33.198  23.320  22.006  1.00  0.00     0.013 C 
ATOM     28  C   UNL A   1      33.616  23.564  25.617  1.00  0.00     0.016 C 
BRANCH   9  29
ATOM     29  O   UNL A   1      33.687  30.135  27.001  1.00  0.00    -0.462 OA
BRANCH  29  30
ATOM     30  C   UNL A   1      34.477  31.087  27.567  1.00  0.00     0.302 C 
ATOM     31  C   UNL A   1      35.879  30.579  27.757  1.00  0.00     0.139 C 
ATOM     32  O   UNL A   1      34.147  32.217  27.896  1.00  0.00    -0.253 OA
ENDBRANCH  29  30
ENDBRANCH   9  29
BRANCH  13  33
ATOM     33  O   UNL A   1      30.968  29.672  23.527  1.00  0.00    -0.389 OA
ATOM     34  H   UNL A   1      30.613  28.948  22.989  1.00  0.00     0.211 HD
ENDBRANCH  13  33
ENDBRANCH   6   8
ENDBRANCH   5   6
ENDBRANCH   4   5
ENDBRANCH   3   4
ENDBRANCH   2   3
ENDBRANCH   1   2
BRANCH   1  35
ATOM     35  C   UNL A   1      37.752  21.710  24.874  1.00  0.00     0.261 C 
BRANCH  35  36
ATOM     36  O   UNL A   1      38.086  22.306  26.136  1.00  0.00    -0.460 OA
BRANCH  36  37
ATOM     37  C   UNL A   1      39.416  22.318  26.398  1.00  0.00     0.338 C 
ATOM     38  O   UNL A   1      40.254  21.534  25.984  1.00  0.00    -0.246 OA
BRANCH  37  39
ATOM     39  C   UNL A   1      39.782  23.544  27.126  1.00  0.00     0.060 A 
ATOM     40  C   UNL A   1      39.127  24.727  26.759  1.00  0.00     0.016 A 
ATOM     41  C   UNL A   1      40.820  23.556  28.057  1.00  0.00     0.016 A 
ATOM     42  C   UNL A   1      39.553  25.942  27.279  1.00  0.00     0.010 A 
ATOM     43  C   UNL A   1      41.251  24.780  28.572  1.00  0.00     0.010 A 
ATOM     44  C   UNL A   1      40.648  25.979  28.150  1.00  0.00    -0.014 A 
BRANCH  44  45
ATOM     45  C   UNL A   1      41.259  27.286  28.486  1.00  0.00     0.031 A 
ATOM     46  C   UNL A   1      42.731  27.482  28.251  1.00  0.00     0.074 A 
ATOM     47  C   UNL A   1      40.495  28.294  28.943  1.00  0.00     0.049 A 
ATOM     48  N   UNL A   1      43.474  28.533  28.472  1.00  0.00    -0.248 NA
ATOM     49  C   UNL A   1      43.464  26.333  27.693  1.00  0.00     0.031 C 
ATOM     50  C   UNL A   1      39.051  28.225  29.160  1.00  0.00     0.029 A 
ATOM     51  N   UNL A   1      40.831  29.573  29.301  1.00  0.00    -0.354 N 
ATOM     52  C   UNL A   1      44.761  28.176  28.085  1.00  0.00     0.074 A 
ATOM     53  C   UNL A   1      44.705  26.795  27.657  1.00  0.00     0.031 C 
ATOM     54  C   UNL A   1      38.621  29.416  29.609  1.00  0.00     0.029 A 
ATOM     55  C   UNL A   1      39.765  30.316  29.744  1.00  0.00     0.049 A 
ATOM     56  H   UNL A   1      41.749  29.925  29.248  1.00  0.00     0.167 HD
ATOM     57  C   UNL A   1      45.883  28.934  28.074  1.00  0.00     0.037 A 
ATOM     58  C   UNL A   1      39.723  31.577  30.216  1.00  0.00     0.037 A 
ATOM     59  C   UNL A   1      45.924  30.306  28.513  1.00  0.00     0.049 A 
ATOM     60  C   UNL A   1      41.000  32.374  30.281  1.00  0.00     0.074 A 
ATOM     61  C   UNL A   1      47.003  31.170  28.546  1.00  0.00     0.029 A 
ATOM     62  N   UNL A   1      44.833  31.010  29.007  1.00  0.00    -0.354 N 
ATOM     63  N   UNL A   1      42.209  32.031  29.901  1.00  0.00    -0.248 NA
ATOM     64  C   UNL A   1      40.907  33.730  30.838  1.00  0.00     0.031 C 
ATOM     65  C   UNL A   1      46.578  32.377  29.111  1.00  0.00     0.029 A 
ATOM     66  C   UNL A   1      45.219  32.290  29.373  1.00  0.00     0.049 A 
ATOM     67  H   UNL A   1      43.919  30.653  29.085  1.00  0.00     0.167 HD
ATOM     68  C   UNL A   1      43.013  33.140  30.139  1.00  0.00     0.074 A 
ATOM     69  C   UNL A   1      42.151  34.165  30.692  1.00  0.00     0.031 C 
ATOM     70  C   UNL A   1      44.343  33.299  29.917  1.00  0.00     0.037 A 
BRANCH  57  71
ATOM     71  C   UNL A   1      47.157  28.281  27.605  1.00  0.00     0.058 A 
ATOM     72  C   UNL A   1      47.558  28.320  26.259  1.00  0.00     0.135 A 
ATOM     73  C   UNL A   1      47.986  27.602  28.512  1.00  0.00     0.135 A 
ATOM     74  F   UNL A   1      46.798  28.943  25.343  1.00  0.00    -0.206 F 
ATOM     75  C   UNL A   1      48.708  27.669  25.822  1.00  0.00     0.059 A 
ATOM     76  C   UNL A   1      49.157  26.971  28.103  1.00  0.00     0.059 A 
ATOM     77  F   UNL A   1      47.654  27.532  29.810  1.00  0.00    -0.206 F 
ATOM     78  C   UNL A   1      49.499  26.991  26.752  1.00  0.00     0.060 A 
BRANCH  78  79
ATOM     79  S   UNL A   1      50.969  26.124  26.165  1.00  0.00     0.124 S 
ATOM     80  O   UNL A   1      50.705  26.040  24.732  1.00  0.00    -0.237 OA
ATOM     81  O   UNL A   1      52.044  27.028  26.559  1.00  0.00    -0.237 OA
ATOM     82  O   UNL A   1      50.926  24.854  26.885  1.00  0.00    -0.744 OA
ENDBRANCH  78  79
ENDBRANCH  57  71
BRANCH  58  83
ATOM     83  C   UNL A   1      38.428  32.165  30.648  1.00  0.00     0.058 A 
ATOM     84  C   UNL A   1      37.688  32.987  29.786  1.00  0.00     0.135 A 
ATOM     85  C   UNL A   1      37.894  31.905  31.921  1.00  0.00     0.135 A 
ATOM     86  F   UNL A   1      38.160  33.274  28.563  1.00  0.00    -0.206 F 
ATOM     87  C   UNL A   1      36.471  33.540  30.171  1.00  0.00     0.059 A 
ATOM     88  C   UNL A   1      36.665  32.423  32.319  1.00  0.00     0.059 A 
ATOM     89  F   UNL A   1      38.558  31.118  32.781  1.00  0.00    -0.206 F 
ATOM     90  C   UNL A   1      35.965  33.246  31.439  1.00  0.00     0.060 A 
BRANCH  90  91
ATOM     91  S   UNL A   1      34.361  33.931  31.907  1.00  0.00     0.124 S 
ATOM     92  O   UNL A   1      33.759  34.191  30.604  1.00  0.00    -0.237 OA
ATOM     93  O   UNL A   1      33.775  32.837  32.674  1.00  0.00    -0.237 OA
ATOM     94  O   UNL A   1      34.714  35.115  32.685  1.00  0.00    -0.744 OA
ENDBRANCH  90  91
ENDBRANCH  58  83
BRANCH  70  95
ATOM     95  C   UNL A   1      44.942  34.645  30.230  1.00  0.00     0.058 A 
ATOM     96  C   UNL A   1      45.518  34.928  31.478  1.00  0.00     0.135 A 
ATOM     97  C   UNL A   1      44.984  35.647  29.247  1.00  0.00     0.135 A 
ATOM     98  F   UNL A   1      45.499  34.009  32.457  1.00  0.00    -0.206 F 
ATOM     99  C   UNL A   1      46.094  36.166  31.747  1.00  0.00     0.059 A 
ATOM    100  C   UNL A   1      45.583  36.880  29.484  1.00  0.00     0.059 A 
ATOM    101  F   UNL A   1      44.457  35.425  28.032  1.00  0.00    -0.206 F 
ATOM    102  C   UNL A   1      46.125  37.134  30.742  1.00  0.00     0.060 A 
BRANCH 102 103
ATOM    103  S   UNL A   1      46.908  38.722  31.095  1.00  0.00     0.124 S 
ATOM    104  O   UNL A   1      46.989  39.314  29.763  1.00  0.00    -0.237 OA
ATOM    105  O   UNL A   1      45.954  39.343  32.008  1.00  0.00    -0.237 OA
ATOM    106  O   UNL A   1      48.186  38.347  31.693  1.00  0.00    -0.744 OA
ENDBRANCH 102 103
ENDBRANCH  70  95
ENDBRANCH  44  45
ENDBRANCH  37  39
ENDBRANCH  36  37
ENDBRANCH  35  36
ENDBRANCH   1  35
TORSDOF 20
ENDMDL
MODEL 2
REMARK VINA RESULT:     -12.5      4.080      9.837
REMARK SMILES CC(=O)O[C@@H]1CC[C@]23C(=O)O[C@]4(CC[C@]2(O)C1)[C@H]3CC[C@]1(C)[C@H](C(=O)OCCOCCOC(=O)c2ccc(-c3c5nc(c(-c6c(F)cc(S(=O)(=O)[O-])cc6F)c6ccc([nH]6)c(-c6c(F)cc(S(=O)(=O)[O-])cc6F)c6nc(c(-c7c(F)cc(S(=O)(=O)[O-])cc7F)c7ccc3[nH]7)C=C6)C=C5)cc2)CC[C@@H]14
REMARK SMILES IDX 30 1 29 2 28 3 27 4 26 5 24 6 25 7 23 8 5 9 6 10 17 11 7 12
REMARK SMILES IDX 15 13 8 14 14 15 9 16 18 17 13 18 10 19 11 20 12 21 19 22
REMARK SMILES IDX 103 23 20 24 21 25 102 26 22 27 101 28 4 29 2 30 1 31 3 32
REMARK SMILES IDX 16 33 31 35 32 36 33 37 34 38 35 39 36 40 100 41 37 42 99 43
REMARK SMILES IDX 38 44 39 45 40 46 93 47 41 48 98 49 92 50 94 51 42 52 97 53
REMARK SMILES IDX 91 54 90 55 43 57 77 58 56 59 76 60 57 61 60 62 75 63 95 64
REMARK SMILES IDX 58 65 59 66 74 68 96 69 61 70 44 71 45 72 54 73 46 74 47 75
REMARK SMILES IDX 53 76 55 77 48 78 49 79 50 80 51 81 52 82 78 83 79 84 88 85
REMARK SMILES IDX 80 86 81 87 87 88 89 89 82 90 83 91 84 92 85 93 86 94 62 95
REMARK SMILES IDX 63 96 72 97 64 98 65 99 71 100 73 101 66 102 67 103 68 104
REMARK SMILES IDX 69 105 70 106
REMARK H PARENT 16 34 94 56 60 67
REMARK Flexibility Score: inf
ROOT
ATOM      1  C   UNL A   1      31.636  29.819  25.832  1.00  0.00     0.202 C 
ENDROOT
BRANCH   1   2
ATOM      2  O   UNL A   1      31.042  30.424  24.687  1.00  0.00    -0.374 OA
BRANCH   2   3
ATOM      3  C   UNL A   1      30.113  29.669  23.914  1.00  0.00     0.202 C 
BRANCH   3   4
ATOM      4  C   UNL A   1      30.527  29.184  22.521  1.00  0.00     0.261 C 
BRANCH   4   5
ATOM      5  O   UNL A   1      30.762  27.769  22.470  1.00  0.00    -0.463 OA
BRANCH   5   6
ATOM      6  C   UNL A   1      32.029  27.404  22.770  1.00  0.00     0.309 C 
ATOM      7  O   UNL A   1      32.994  27.583  22.028  1.00  0.00    -0.252 OA
BRANCH   6   8
ATOM      8  C   UNL A   1      32.232  26.865  24.177  1.00  0.00     0.105 C 
ATOM      9  C   UNL A   1      37.481  21.143  24.852  1.00  0.00     0.179 C 
ATOM     10  C   UNL A   1      37.138  21.984  23.657  1.00  0.00     0.047 C 
ATOM     11  C   UNL A   1      36.223  20.297  25.107  1.00  0.00     0.081 C 
ATOM     12  C   UNL A   1      35.918  22.794  24.004  1.00  0.00     0.026 C 
ATOM     13  C   UNL A   1      34.847  21.060  25.252  1.00  0.00     0.085 C 
ATOM     14  C   UNL A   1      34.354  21.925  24.035  1.00  0.00     0.103 C 
ATOM     15  C   UNL A   1      34.814  21.798  26.620  1.00  0.00     0.041 C 
ATOM     16  C   UNL A   1      34.028  23.145  23.267  1.00  0.00     0.316 C 
ATOM     17  C   UNL A   1      32.854  22.521  24.848  1.00  0.00     0.054 C 
ATOM     18  C   UNL A   1      34.240  23.232  26.645  1.00  0.00     0.052 C 
ATOM     19  O   UNL A   1      33.868  23.247  22.068  1.00  0.00    -0.251 OA
ATOM     20  O   UNL A   1      34.065  24.173  24.175  1.00  0.00    -0.458 OA
ATOM     21  C   UNL A   1      33.465  23.752  25.405  1.00  0.00     0.120 C 
ATOM     22  C   UNL A   1      31.510  22.901  24.133  1.00  0.00     0.009 C 
ATOM     23  C   UNL A   1      32.763  25.042  25.786  1.00  0.00     0.040 C 
ATOM     24  C   UNL A   1      31.279  24.397  23.745  1.00  0.00     0.008 C 
ATOM     25  C   UNL A   1      31.670  25.508  24.776  1.00  0.00    -0.013 C 
ATOM     26  C   UNL A   1      33.831  26.184  25.785  1.00  0.00     0.009 C 
ATOM     27  C   UNL A   1      30.449  25.867  25.660  1.00  0.00     0.013 C 
ATOM     28  C   UNL A   1      33.734  26.842  24.422  1.00  0.00     0.016 C 
BRANCH   9  29
ATOM     29  O   UNL A   1      37.870  21.820  26.088  1.00  0.00    -0.462 OA
BRANCH  29  30
ATOM     30  C   UNL A   1      38.971  22.604  26.247  1.00  0.00     0.302 C 
ATOM     31  C   UNL A   1      38.582  24.041  26.457  1.00  0.00     0.139 C 
ATOM     32  O   UNL A   1      40.139  22.245  26.230  1.00  0.00    -0.253 OA
ENDBRANCH  29  30
ENDBRANCH   9  29
BRANCH  13  33
ATOM     33  O   UNL A   1      33.938  19.923  25.304  1.00  0.00    -0.389 OA
ATOM     34  H   UNL A   1      34.378  19.140  24.940  1.00  0.00     0.211 HD
ENDBRANCH  13  33
ENDBRANCH   6   8
ENDBRANCH   5   6
ENDBRANCH   4   5
ENDBRANCH   3   4
ENDBRANCH   2   3
ENDBRANCH   1   2
BRANCH   1  35
ATOM     35  C   UNL A   1      33.136  30.021  26.094  1.00  0.00     0.261 C 
BRANCH  35  36
ATOM     36  O   UNL A   1      33.471  30.126  27.485  1.00  0.00    -0.460 OA
BRANCH  36  37
ATOM     37  C   UNL A   1      34.444  31.032  27.745  1.00  0.00     0.338 C 
ATOM     38  O   UNL A   1      34.321  32.244  27.814  1.00  0.00    -0.246 OA
BRANCH  37  39
ATOM     39  C   UNL A   1      35.690  30.350  28.127  1.00  0.00     0.060 A 
ATOM     40  C   UNL A   1      35.704  29.683  29.359  1.00  0.00     0.016 A 
ATOM     41  C   UNL A   1      36.848  30.460  27.357  1.00  0.00     0.016 A 
ATOM     42  C   UNL A   1      36.897  29.175  29.857  1.00  0.00     0.010 A 
ATOM     43  C   UNL A   1      38.048  29.955  27.863  1.00  0.00     0.010 A 
ATOM     44  C   UNL A   1      38.083  29.352  29.134  1.00  0.00    -0.014 A 
BRANCH  44  45
ATOM     45  C   UNL A   1      39.377  29.050  29.787  1.00  0.00     0.031 A 
ATOM     46  C   UNL A   1      39.764  29.816  31.021  1.00  0.00     0.074 A 
ATOM     47  C   UNL A   1      40.164  28.069  29.311  1.00  0.00     0.049 A 
ATOM     48  N   UNL A   1      40.843  29.723  31.752  1.00  0.00    -0.248 NA
ATOM     49  C   UNL A   1      38.804  30.829  31.492  1.00  0.00     0.031 C 
ATOM     50  C   UNL A   1      39.860  27.233  28.151  1.00  0.00     0.029 A 
ATOM     51  N   UNL A   1      41.378  27.610  29.751  1.00  0.00    -0.354 N 
ATOM     52  C   UNL A   1      40.696  30.662  32.766  1.00  0.00     0.074 A 
ATOM     53  C   UNL A   1      39.443  31.347  32.530  1.00  0.00     0.031 C 
ATOM     54  C   UNL A   1      40.861  26.355  27.974  1.00  0.00     0.029 A 
ATOM     55  C   UNL A   1      41.890  26.592  28.985  1.00  0.00     0.049 A 
ATOM     56  H   UNL A   1      41.840  27.977  30.539  1.00  0.00     0.167 HD
ATOM     57  C   UNL A   1      41.523  30.920  33.807  1.00  0.00     0.037 A 
ATOM     58  C   UNL A   1      43.062  25.936  29.084  1.00  0.00     0.037 A 
ATOM     59  C   UNL A   1      42.773  30.236  34.023  1.00  0.00     0.049 A 
ATOM     60  C   UNL A   1      44.010  26.302  30.197  1.00  0.00     0.074 A 
ATOM     61  C   UNL A   1      43.690  30.415  35.043  1.00  0.00     0.029 A 
ATOM     62  N   UNL A   1      43.284  29.246  33.194  1.00  0.00    -0.354 N 
ATOM     63  N   UNL A   1      43.856  27.183  31.159  1.00  0.00    -0.248 NA
ATOM     64  C   UNL A   1      45.290  25.584  30.240  1.00  0.00     0.031 C 
ATOM     65  C   UNL A   1      44.781  29.574  34.800  1.00  0.00     0.029 A 
ATOM     66  C   UNL A   1      44.518  28.823  33.664  1.00  0.00     0.049 A 
ATOM     67  H   UNL A   1      42.836  28.895  32.391  1.00  0.00     0.167 HD
ATOM     68  C   UNL A   1      45.003  27.100  31.941  1.00  0.00     0.074 A 
ATOM     69  C   UNL A   1      45.838  26.079  31.341  1.00  0.00     0.031 C 
ATOM     70  C   UNL A   1      45.333  27.800  33.056  1.00  0.00     0.037 A 
BRANCH  57  71
ATOM     71  C   UNL A   1      41.114  32.009  34.765  1.00  0.00     0.058 A 
ATOM     72  C   UNL A   1      41.528  33.341  34.596  1.00  0.00     0.135 A 
ATOM     73  C   UNL A   1      40.300  31.717  35.871  1.00  0.00     0.135 A 
ATOM     74  F   UNL A   1      42.320  33.678  33.564  1.00  0.00    -0.206 F 
ATOM     75  C   UNL A   1      41.191  34.332  35.513  1.00  0.00     0.059 A 
ATOM     76  C   UNL A   1      39.923  32.698  36.783  1.00  0.00     0.059 A 
ATOM     77  F   UNL A   1      39.873  30.463  36.084  1.00  0.00    -0.206 F 
ATOM     78  C   UNL A   1      40.392  33.999  36.608  1.00  0.00     0.060 A 
BRANCH  78  79
ATOM     79  S   UNL A   1      39.991  35.287  37.807  1.00  0.00     0.124 S 
ATOM     80  O   UNL A   1      38.733  34.791  38.357  1.00  0.00    -0.237 OA
ATOM     81  O   UNL A   1      41.137  35.245  38.708  1.00  0.00    -0.237 OA
ATOM     82  O   UNL A   1      39.884  36.492  36.989  1.00  0.00    -0.744 OA
ENDBRANCH  78  79
ENDBRANCH  57  71
BRANCH  58  83
ATOM     83  C   UNL A   1      43.395  24.861  28.114  1.00  0.00     0.058 A 
ATOM     84  C   UNL A   1      42.985  23.538  28.337  1.00  0.00     0.135 A 
ATOM     85  C   UNL A   1      44.114  25.132  26.938  1.00  0.00     0.135 A 
ATOM     86  F   UNL A   1      42.305  23.226  29.450  1.00  0.00    -0.206 F 
ATOM     87  C   UNL A   1      43.282  22.521  27.436  1.00  0.00     0.059 A 
ATOM     88  C   UNL A   1      44.399  24.137  26.008  1.00  0.00     0.059 A 
ATOM     89  F   UNL A   1      44.523  26.383  26.673  1.00  0.00    -0.206 F 
ATOM     90  C   UNL A   1      43.985  22.832  26.270  1.00  0.00     0.060 A 
BRANCH  90  91
ATOM     91  S   UNL A   1      44.321  21.510  25.087  1.00  0.00     0.124 S 
ATOM     92  O   UNL A   1      44.153  22.203  23.815  1.00  0.00    -0.237 OA
ATOM     93  O   UNL A   1      45.687  21.132  25.432  1.00  0.00    -0.237 OA
ATOM     94  O   UNL A   1      43.303  20.512  25.400  1.00  0.00    -0.744 OA
ENDBRANCH  90  91
ENDBRANCH  58  83
BRANCH  70  95
ATOM     95  C   UNL A   1      46.636  27.457  33.728  1.00  0.00     0.058 A 
ATOM     96  C   UNL A   1      47.830  28.125  33.418  1.00  0.00     0.135 A 
ATOM     97  C   UNL A   1      46.676  26.479  34.735  1.00  0.00     0.135 A 
ATOM     98  F   UNL A   1      47.850  29.064  32.458  1.00  0.00    -0.206 F 
ATOM     99  C   UNL A   1      49.022  27.819  34.065  1.00  0.00     0.059 A 
ATOM    100  C   UNL A   1      47.850  26.179  35.419  1.00  0.00     0.059 A 
ATOM    101  F   UNL A   1      45.560  25.816  35.080  1.00  0.00    -0.206 F 
ATOM    102  C   UNL A   1      49.022  26.847  35.068  1.00  0.00     0.060 A 
BRANCH 102 103
ATOM    103  S   UNL A   1      50.569  26.487  35.925  1.00  0.00     0.124 S 
ATOM    104  O   UNL A   1      50.120  26.369  37.308  1.00  0.00    -0.237 OA
ATOM    105  O   UNL A   1      50.995  25.244  35.289  1.00  0.00    -0.237 OA
ATOM    106  O   UNL A   1      51.400  27.651  35.631  1.00  0.00    -0.744 OA
ENDBRANCH 102 103
ENDBRANCH  70  95
ENDBRANCH  44  45
ENDBRANCH  37  39
ENDBRANCH  36  37
ENDBRANCH  35  36
ENDBRANCH   1  35
TORSDOF 20
ENDMDL
MODEL 3
REMARK VINA RESULT:     -12.1      2.941      9.521
REMARK SMILES CC(=O)O[C@@H]1CC[C@]23C(=O)O[C@]4(CC[C@]2(O)C1)[C@H]3CC[C@]1(C)[C@H](C(=O)OCCOCCOC(=O)c2ccc(-c3c5nc(c(-c6c(F)cc(S(=O)(=O)[O-])cc6F)c6ccc([nH]6)c(-c6c(F)cc(S(=O)(=O)[O-])cc6F)c6nc(c(-c7c(F)cc(S(=O)(=O)[O-])cc7F)c7ccc3[nH]7)C=C6)C=C5)cc2)CC[C@@H]14
REMARK SMILES IDX 30 1 29 2 28 3 27 4 26 5 24 6 25 7 23 8 5 9 6 10 17 11 7 12
REMARK SMILES IDX 15 13 8 14 14 15 9 16 18 17 13 18 10 19 11 20 12 21 19 22
REMARK SMILES IDX 103 23 20 24 21 25 102 26 22 27 101 28 4 29 2 30 1 31 3 32
REMARK SMILES IDX 16 33 31 35 32 36 33 37 34 38 35 39 36 40 100 41 37 42 99 43
REMARK SMILES IDX 38 44 39 45 40 46 93 47 41 48 98 49 92 50 94 51 42 52 97 53
REMARK SMILES IDX 91 54 90 55 43 57 77 58 56 59 76 60 57 61 60 62 75 63 95 64
REMARK SMILES IDX 58 65 59 66 74 68 96 69 61 70 44 71 45 72 54 73 46 74 47 75
REMARK SMILES IDX 53 76 55 77 48 78 49 79 50 80 51 81 52 82 78 83 79 84 88 85
REMARK SMILES IDX 80 86 81 87 87 88 89 89 82 90 83 91 84 92 85 93 86 94 62 95
REMARK SMILES IDX 63 96 72 97 64 98 65 99 71 100 73 101 66 102 67 103 68 104
REMARK SMILES IDX 69 105 70 106
REMARK H PARENT 16 34 94 56 60 67
REMARK Flexibility Score: inf
ROOT
ATOM      1  C   UNL A   1      34.044  31.353  27.537  1.00  0.00     0.202 C 
ENDROOT
BRANCH   1   2
ATOM      2  O   UNL A   1      33.141  30.286  27.260  1.00  0.00    -0.374 OA
BRANCH   2   3
ATOM      3  C   UNL A   1      31.806  30.598  26.871  1.00  0.00     0.202 C 
BRANCH   3   4
ATOM      4  C   UNL A   1      31.410  30.460  25.397  1.00  0.00     0.261 C 
BRANCH   4   5
ATOM      5  O   UNL A   1      31.037  29.120  25.044  1.00  0.00    -0.463 OA
BRANCH   5   6
ATOM      6  C   UNL A   1      30.806  28.936  23.725  1.00  0.00     0.309 C 
ATOM      7  O   UNL A   1      29.904  29.489  23.097  1.00  0.00    -0.252 OA
BRANCH   6   8
ATOM      8  C   UNL A   1      31.837  28.085  22.999  1.00  0.00     0.105 C 
ATOM      9  C   UNL A   1      32.404  20.701  25.429  1.00  0.00     0.179 C 
ATOM     10  C   UNL A   1      31.414  21.760  25.822  1.00  0.00     0.047 C 
ATOM     11  C   UNL A   1      33.748  21.202  25.980  1.00  0.00     0.081 C 
ATOM     12  C   UNL A   1      31.874  23.060  25.221  1.00  0.00     0.026 C 
ATOM     13  C   UNL A   1      34.202  22.661  25.584  1.00  0.00     0.085 C 
ATOM     14  C   UNL A   1      33.273  23.859  26.000  1.00  0.00     0.103 C 
ATOM     15  C   UNL A   1      34.636  22.674  24.091  1.00  0.00     0.041 C 
ATOM     16  C   UNL A   1      32.320  24.977  25.827  1.00  0.00     0.316 C 
ATOM     17  C   UNL A   1      34.292  25.139  25.234  1.00  0.00     0.054 C 
ATOM     18  C   UNL A   1      34.185  23.872  23.225  1.00  0.00     0.052 C 
ATOM     19  O   UNL A   1      31.634  25.506  26.676  1.00  0.00    -0.251 OA
ATOM     20  O   UNL A   1      32.276  25.216  24.475  1.00  0.00    -0.458 OA
ATOM     21  C   UNL A   1      33.594  25.124  23.926  1.00  0.00     0.120 C 
ATOM     22  C   UNL A   1      34.423  26.625  25.722  1.00  0.00     0.009 C 
ATOM     23  C   UNL A   1      33.511  26.247  22.909  1.00  0.00     0.040 C 
ATOM     24  C   UNL A   1      33.492  27.698  25.071  1.00  0.00     0.008 C 
ATOM     25  C   UNL A   1      33.272  27.661  23.521  1.00  0.00    -0.013 C 
ATOM     26  C   UNL A   1      32.264  25.979  22.004  1.00  0.00     0.009 C 
ATOM     27  C   UNL A   1      34.306  28.573  22.815  1.00  0.00     0.013 C 
ATOM     28  C   UNL A   1      31.134  26.793  22.605  1.00  0.00     0.016 C 
BRANCH   9  29
ATOM     29  O   UNL A   1      32.549  20.381  24.010  1.00  0.00    -0.462 OA
BRANCH  29  30
ATOM     30  C   UNL A   1      32.576  19.127  23.482  1.00  0.00     0.302 C 
ATOM     31  C   UNL A   1      33.241  18.161  24.423  1.00  0.00     0.139 C 
ATOM     32  O   UNL A   1      32.137  18.776  22.397  1.00  0.00    -0.253 OA
ENDBRANCH  29  30
ENDBRANCH   9  29
BRANCH  13  33
ATOM     33  O   UNL A   1      35.386  22.789  26.423  1.00  0.00    -0.389 OA
ATOM     34  H   UNL A   1      35.367  23.643  26.882  1.00  0.00     0.211 HD
ENDBRANCH  13  33
ENDBRANCH   6   8
ENDBRANCH   5   6
ENDBRANCH   4   5
ENDBRANCH   3   4
ENDBRANCH   2   3
ENDBRANCH   1   2
BRANCH   1  35
ATOM     35  C   UNL A   1      35.039  31.211  28.698  1.00  0.00     0.261 C 
BRANCH  35  36
ATOM     36  O   UNL A   1      35.733  29.955  28.714  1.00  0.00    -0.460 OA
BRANCH  36  37
ATOM     37  C   UNL A   1      36.477  29.758  29.831  1.00  0.00     0.338 C 
ATOM     38  O   UNL A   1      36.070  29.458  30.941  1.00  0.00    -0.246 OA
BRANCH  37  39
ATOM     39  C   UNL A   1      37.910  29.771  29.499  1.00  0.00     0.060 A 
ATOM     40  C   UNL A   1      38.256  29.691  28.144  1.00  0.00     0.016 A 
ATOM     41  C   UNL A   1      38.889  29.742  30.493  1.00  0.00     0.016 A 
ATOM     42  C   UNL A   1      39.584  29.517  27.778  1.00  0.00     0.010 A 
ATOM     43  C   UNL A   1      40.223  29.560  30.123  1.00  0.00     0.010 A 
ATOM     44  C   UNL A   1      40.568  29.403  28.768  1.00  0.00    -0.014 A 
BRANCH  44  45
ATOM     45  C   UNL A   1      41.927  28.955  28.386  1.00  0.00     0.031 A 
ATOM     46  C   UNL A   1      43.050  29.955  28.399  1.00  0.00     0.074 A 
ATOM     47  C   UNL A   1      42.157  27.666  28.084  1.00  0.00     0.049 A 
ATOM     48  N   UNL A   1      44.312  29.790  28.100  1.00  0.00    -0.248 NA
ATOM     49  C   UNL A   1      42.701  31.328  28.800  1.00  0.00     0.031 C 
ATOM     50  C   UNL A   1      41.149  26.607  28.088  1.00  0.00     0.029 A 
ATOM     51  N   UNL A   1      43.315  27.030  27.720  1.00  0.00    -0.354 N 
ATOM     52  C   UNL A   1      44.908  31.034  28.274  1.00  0.00     0.074 A 
ATOM     53  C   UNL A   1      43.860  31.955  28.660  1.00  0.00     0.031 C 
ATOM     54  C   UNL A   1      41.735  25.447  27.749  1.00  0.00     0.029 A 
ATOM     55  C   UNL A   1      43.149  25.690  27.470  1.00  0.00     0.049 A 
ATOM     56  H   UNL A   1      44.182  27.490  27.643  1.00  0.00     0.167 HD
ATOM     57  C   UNL A   1      46.212  31.374  28.137  1.00  0.00     0.037 A 
ATOM     58  C   UNL A   1      44.039  24.770  27.050  1.00  0.00     0.037 A 
ATOM     59  C   UNL A   1      47.241  30.447  27.742  1.00  0.00     0.049 A 
ATOM     60  C   UNL A   1      45.467  25.189  26.817  1.00  0.00     0.074 A 
ATOM     61  C   UNL A   1      48.594  30.680  27.572  1.00  0.00     0.029 A 
ATOM     62  N   UNL A   1      47.027  29.108  27.444  1.00  0.00    -0.354 N 
ATOM     63  N   UNL A   1      46.023  26.366  26.996  1.00  0.00    -0.248 NA
ATOM     64  C   UNL A   1      46.389  24.157  26.324  1.00  0.00     0.031 C 
ATOM     65  C   UNL A   1      49.187  29.497  27.118  1.00  0.00     0.029 A 
ATOM     66  C   UNL A   1      48.217  28.508  27.065  1.00  0.00     0.049 A 
ATOM     67  H   UNL A   1      46.156  28.651  27.495  1.00  0.00     0.167 HD
ATOM     68  C   UNL A   1      47.366  26.206  26.673  1.00  0.00     0.074 A 
ATOM     69  C   UNL A   1      47.538  24.818  26.292  1.00  0.00     0.031 C 
ATOM     70  C   UNL A   1      48.368  27.121  26.694  1.00  0.00     0.037 A 
BRANCH  57  71
ATOM     71  C   UNL A   1      46.583  32.813  28.385  1.00  0.00     0.058 A 
ATOM     72  C   UNL A   1      46.967  33.272  29.655  1.00  0.00     0.135 A 
ATOM     73  C   UNL A   1      46.548  33.749  27.338  1.00  0.00     0.135 A 
ATOM     74  F   UNL A   1      47.005  32.426  30.698  1.00  0.00    -0.206 F 
ATOM     75  C   UNL A   1      47.256  34.613  29.890  1.00  0.00     0.059 A 
ATOM     76  C   UNL A   1      46.864  35.088  27.542  1.00  0.00     0.059 A 
ATOM     77  F   UNL A   1      46.189  33.368  26.103  1.00  0.00    -0.206 F 
ATOM     78  C   UNL A   1      47.196  35.516  28.826  1.00  0.00     0.060 A 
BRANCH  78  79
ATOM     79  S   UNL A   1      47.542  37.257  29.152  1.00  0.00     0.124 S 
ATOM     80  O   UNL A   1      48.197  37.185  30.454  1.00  0.00    -0.237 OA
ATOM     81  O   UNL A   1      48.400  37.621  28.030  1.00  0.00    -0.237 OA
ATOM     82  O   UNL A   1      46.218  37.874  29.151  1.00  0.00    -0.744 OA
ENDBRANCH  78  79
ENDBRANCH  57  71
BRANCH  58  83
ATOM     83  C   UNL A   1      43.608  23.363  26.841  1.00  0.00     0.058 A 
ATOM     84  C   UNL A   1      43.382  22.510  27.931  1.00  0.00     0.135 A 
ATOM     85  C   UNL A   1      43.396  22.846  25.552  1.00  0.00     0.135 A 
ATOM     86  F   UNL A   1      43.579  22.953  29.182  1.00  0.00    -0.206 F 
ATOM     87  C   UNL A   1      42.971  21.192  27.754  1.00  0.00     0.059 A 
ATOM     88  C   UNL A   1      42.959  21.540  25.350  1.00  0.00     0.059 A 
ATOM     89  F   UNL A   1      43.591  23.623  24.476  1.00  0.00    -0.206 F 
ATOM     90  C   UNL A   1      42.756  20.719  26.458  1.00  0.00     0.060 A 
BRANCH  90  91
ATOM     91  S   UNL A   1      42.177  19.022  26.245  1.00  0.00     0.124 S 
ATOM     92  O   UNL A   1      43.129  18.505  25.270  1.00  0.00    -0.237 OA
ATOM     93  O   UNL A   1      42.294  18.488  27.598  1.00  0.00    -0.237 OA
ATOM     94  O   UNL A   1      40.809  19.191  25.762  1.00  0.00    -0.744 OA
ENDBRANCH  90  91
ENDBRANCH  58  83
BRANCH  70  95
ATOM     95  C   UNL A   1      49.751  26.644  26.336  1.00  0.00     0.058 A 
ATOM     96  C   UNL A   1      50.587  26.020  27.274  1.00  0.00     0.135 A 
ATOM     97  C   UNL A   1      50.222  26.768  25.018  1.00  0.00     0.135 A 
ATOM     98  F   UNL A   1      50.189  25.882  28.549  1.00  0.00    -0.206 F 
ATOM     99  C   UNL A   1      51.852  25.558  26.924  1.00  0.00     0.059 A 
ATOM    100  C   UNL A   1      51.471  26.284  24.639  1.00  0.00     0.059 A 
ATOM    101  F   UNL A   1      49.459  27.347  24.078  1.00  0.00    -0.206 F 
ATOM    102  C   UNL A   1      52.284  25.692  25.603  1.00  0.00     0.060 A 
BRANCH 102 103
ATOM    103  S   UNL A   1      53.912  25.054  25.156  1.00  0.00     0.124 S 
ATOM    104  O   UNL A   1      54.662  25.270  26.389  1.00  0.00    -0.237 OA
ATOM    105  O   UNL A   1      53.622  23.662  24.826  1.00  0.00    -0.237 OA
ATOM    106  O   UNL A   1      54.308  25.890  24.027  1.00  0.00    -0.744 OA
ENDBRANCH 102 103
ENDBRANCH  70  95
ENDBRANCH  44  45
ENDBRANCH  37  39
ENDBRANCH  36  37
ENDBRANCH  35  36
ENDBRANCH   1  35
TORSDOF 20
ENDMDL
