MODEL 1
REMARK VINA RESULT:     -12.1      0.000      0.000
REMARK SMILES O=C(OCCOCCOC(=O)[C@]1(NC(=O)C2CCN(C(=O)C3CC3)CC2)CCCc2ccccc21)c1ccc(-c2c3nc(c(-c4c(F)cc(S(=O)(=O)[O-])cc4F)c4ccc([nH]4)c(-c4c(F)cc(S(=O)(=O)[O-])cc4F)c4nc(c(-c5c(F)cc(S(=O)(=O)[O-])cc5F)c5ccc2[nH]5)C=C4)C=C3)cc1
REMARK SMILES IDX 6 1 5 2 4 3 3 4 2 5 1 6 36 7 37 8 101 9 38 10 100 11 39 12
REMARK SMILES IDX 40 13 41 14 94 15 42 16 99 17 93 18 95 19 43 20 98 21 92 22
REMARK SMILES IDX 91 23 44 25 78 26 57 27 77 28 58 29 61 30 76 31 96 32 59 33
REMARK SMILES IDX 60 34 75 36 97 37 62 38 45 39 46 40 55 41 47 42 48 43 54 44
REMARK SMILES IDX 56 45 49 46 50 47 51 48 52 49 53 50 79 51 80 52 89 53 81 54
REMARK SMILES IDX 82 55 88 56 90 57 83 58 84 59 85 60 86 61 87 62 63 63 64 64
REMARK SMILES IDX 73 65 65 66 66 67 72 68 74 69 67 70 68 71 69 72 70 73 71 74
REMARK SMILES IDX 7 75 8 76 9 77 10 78 11 79 12 80 27 81 35 82 28 83 30 84
REMARK SMILES IDX 34 85 29 86 31 87 33 88 32 89 13 90 14 91 15 93 16 94 17 95
REMARK SMILES IDX 26 96 18 97 25 98 19 99 20 100 21 101 22 102 23 103 24 104
REMARK H PARENT 95 24 61 35 13 92
REMARK Flexibility Score: inf
ROOT
ATOM      1  O   UNL A   1      32.904  30.065  26.556  1.00  0.00    -0.374 OA
ENDROOT
BRANCH   1   2
ATOM      2  C   UNL A   1      32.947  31.293  27.268  1.00  0.00     0.202 C 
BRANCH   2   3
ATOM      3  C   UNL A   1      34.397  31.638  27.606  1.00  0.00     0.261 C 
BRANCH   3   4
ATOM      4  O   UNL A   1      35.036  30.527  28.251  1.00  0.00    -0.460 OA
BRANCH   4   5
ATOM      5  C   UNL A   1      35.979  30.725  29.213  1.00  0.00     0.338 C 
ATOM      6  O   UNL A   1      35.674  31.201  30.302  1.00  0.00    -0.246 OA
BRANCH   5   7
ATOM      7  C   UNL A   1      37.338  30.146  29.023  1.00  0.00     0.060 A 
ATOM      8  C   UNL A   1      37.954  29.942  27.779  1.00  0.00     0.016 A 
ATOM      9  C   UNL A   1      38.068  29.903  30.190  1.00  0.00     0.016 A 
ATOM     10  C   UNL A   1      39.258  29.499  27.689  1.00  0.00     0.010 A 
ATOM     11  C   UNL A   1      39.398  29.495  30.106  1.00  0.00     0.010 A 
ATOM     12  C   UNL A   1      39.994  29.311  28.851  1.00  0.00    -0.014 A 
BRANCH  12  13
ATOM     13  C   UNL A   1      41.388  28.873  28.715  1.00  0.00     0.031 A 
ATOM     14  C   UNL A   1      42.461  29.886  28.925  1.00  0.00     0.074 A 
ATOM     15  C   UNL A   1      41.645  27.572  28.483  1.00  0.00     0.049 A 
ATOM     16  N   UNL A   1      43.736  29.791  28.682  1.00  0.00    -0.248 NA
ATOM     17  C   UNL A   1      42.044  31.186  29.481  1.00  0.00     0.031 C 
ATOM     18  C   UNL A   1      40.634  26.511  28.395  1.00  0.00     0.029 A 
ATOM     19  N   UNL A   1      42.828  26.914  28.284  1.00  0.00    -0.354 N 
ATOM     20  C   UNL A   1      44.264  31.035  28.995  1.00  0.00     0.074 A 
ATOM     21  C   UNL A   1      43.181  31.864  29.470  1.00  0.00     0.031 C 
ATOM     22  C   UNL A   1      41.242  25.337  28.165  1.00  0.00     0.029 A 
ATOM     23  C   UNL A   1      42.666  25.581  27.985  1.00  0.00     0.049 A 
ATOM     24  H   UNL A   1      43.708  27.351  28.349  1.00  0.00     0.167 HD
ATOM     25  C   UNL A   1      45.547  31.432  28.862  1.00  0.00     0.037 A 
ATOM     26  C   UNL A   1      43.566  24.687  27.539  1.00  0.00     0.037 A 
ATOM     27  C   UNL A   1      46.586  30.550  28.405  1.00  0.00     0.049 A 
ATOM     28  C   UNL A   1      44.973  25.182  27.326  1.00  0.00     0.074 A 
ATOM     29  C   UNL A   1      47.925  30.821  28.208  1.00  0.00     0.029 A 
ATOM     30  N   UNL A   1      46.388  29.215  28.073  1.00  0.00    -0.354 N 
ATOM     31  N   UNL A   1      45.470  26.374  27.574  1.00  0.00    -0.248 NA
ATOM     32  C   UNL A   1      45.933  24.235  26.752  1.00  0.00     0.031 C 
ATOM     33  C   UNL A   1      48.525  29.664  27.704  1.00  0.00     0.029 A 
ATOM     34  C   UNL A   1      47.574  28.655  27.642  1.00  0.00     0.049 A 
ATOM     35  H   UNL A   1      45.528  28.739  28.135  1.00  0.00     0.167 HD
ATOM     36  C   UNL A   1      46.803  26.317  27.193  1.00  0.00     0.074 A 
ATOM     37  C   UNL A   1      47.041  24.963  26.729  1.00  0.00     0.031 C 
ATOM     38  C   UNL A   1      47.749  27.290  27.208  1.00  0.00     0.037 A 
BRANCH  25  39
ATOM     39  C   UNL A   1      45.869  32.872  29.135  1.00  0.00     0.058 A 
ATOM     40  C   UNL A   1      46.273  33.326  30.399  1.00  0.00     0.135 A 
ATOM     41  C   UNL A   1      45.792  33.810  28.093  1.00  0.00     0.135 A 
ATOM     42  F   UNL A   1      46.322  32.480  31.440  1.00  0.00    -0.206 F 
ATOM     43  C   UNL A   1      46.595  34.662  30.619  1.00  0.00     0.059 A 
ATOM     44  C   UNL A   1      46.132  35.145  28.284  1.00  0.00     0.059 A 
ATOM     45  F   UNL A   1      45.383  33.432  26.872  1.00  0.00    -0.206 F 
ATOM     46  C   UNL A   1      46.532  35.562  29.552  1.00  0.00     0.060 A 
BRANCH  46  47
ATOM     47  S   UNL A   1      47.010  37.279  29.842  1.00  0.00     0.124 S 
ATOM     48  O   UNL A   1      48.304  37.340  29.169  1.00  0.00    -0.237 OA
ATOM     49  O   UNL A   1      45.926  38.013  29.197  1.00  0.00    -0.237 OA
ATOM     50  O   UNL A   1      47.054  37.379  31.297  1.00  0.00    -0.744 OA
ENDBRANCH  46  47
ENDBRANCH  25  39
BRANCH  26  51
ATOM     51  C   UNL A   1      43.157  23.304  27.161  1.00  0.00     0.058 A 
ATOM     52  C   UNL A   1      42.928  22.318  28.132  1.00  0.00     0.135 A 
ATOM     53  C   UNL A   1      43.030  22.925  25.813  1.00  0.00     0.135 A 
ATOM     54  F   UNL A   1      43.033  22.624  29.435  1.00  0.00    -0.206 F 
ATOM     55  C   UNL A   1      42.638  21.000  27.783  1.00  0.00     0.059 A 
ATOM     56  C   UNL A   1      42.705  21.625  25.440  1.00  0.00     0.059 A 
ATOM     57  F   UNL A   1      43.223  23.826  24.838  1.00  0.00    -0.206 F 
ATOM     58  C   UNL A   1      42.540  20.662  26.432  1.00  0.00     0.060 A 
BRANCH  58  59
ATOM     59  S   UNL A   1      42.212  18.943  25.983  1.00  0.00     0.124 S 
ATOM     60  O   UNL A   1      43.049  18.788  24.798  1.00  0.00    -0.237 OA
ATOM     61  O   UNL A   1      42.652  18.219  27.171  1.00  0.00    -0.237 OA
ATOM     62  O   UNL A   1      40.772  18.927  25.742  1.00  0.00    -0.744 OA
ENDBRANCH  58  59
ENDBRANCH  26  51
BRANCH  38  63
ATOM     63  C   UNL A   1      49.120  26.903  26.739  1.00  0.00     0.058 A 
ATOM     64  C   UNL A   1      50.097  26.444  27.634  1.00  0.00     0.135 A 
ATOM     65  C   UNL A   1      49.428  26.925  25.370  1.00  0.00     0.135 A 
ATOM     66  F   UNL A   1      49.847  26.417  28.952  1.00  0.00    -0.206 F 
ATOM     67  C   UNL A   1      51.345  26.033  27.188  1.00  0.00     0.059 A 
ATOM     68  C   UNL A   1      50.657  26.485  24.899  1.00  0.00     0.059 A 
ATOM     69  F   UNL A   1      48.518  27.345  24.477  1.00  0.00    -0.206 F 
ATOM     70  C   UNL A   1      51.612  26.048  25.816  1.00  0.00     0.060 A 
BRANCH  70  71
ATOM     71  S   UNL A   1      53.216  25.456  25.246  1.00  0.00     0.124 S 
ATOM     72  O   UNL A   1      54.124  26.153  26.150  1.00  0.00    -0.237 OA
ATOM     73  O   UNL A   1      53.103  24.015  25.443  1.00  0.00    -0.237 OA
ATOM     74  O   UNL A   1      53.262  25.891  23.853  1.00  0.00    -0.744 OA
ENDBRANCH  70  71
ENDBRANCH  38  63
ENDBRANCH  12  13
ENDBRANCH   5   7
ENDBRANCH   4   5
ENDBRANCH   3   4
ENDBRANCH   2   3
ENDBRANCH   1   2
BRANCH   1  75
ATOM     75  C   UNL A   1      31.803  29.193  26.702  1.00  0.00     0.202 C 
BRANCH  75  76
ATOM     76  C   UNL A   1      32.249  27.935  27.446  1.00  0.00     0.261 C 
BRANCH  76  77
ATOM     77  O   UNL A   1      31.942  26.777  26.656  1.00  0.00    -0.461 OA
BRANCH  77  78
ATOM     78  C   UNL A   1      32.915  26.344  25.806  1.00  0.00     0.336 C 
ATOM     79  O   UNL A   1      34.054  26.800  25.757  1.00  0.00    -0.249 OA
BRANCH  78  80
ATOM     80  C   UNL A   1      32.376  25.263  24.828  1.00  0.00     0.164 C 
ATOM     81  C   UNL A   1      31.034  24.639  25.304  1.00  0.00     0.046 C 
ATOM     82  C   UNL A   1      33.460  24.149  24.797  1.00  0.00    -0.008 A 
ATOM     83  C   UNL A   1      31.181  23.809  26.588  1.00  0.00     0.008 C 
ATOM     84  C   UNL A   1      33.384  23.007  25.626  1.00  0.00    -0.042 A 
ATOM     85  C   UNL A   1      34.650  24.368  24.070  1.00  0.00     0.007 A 
ATOM     86  C   UNL A   1      32.143  22.646  26.402  1.00  0.00     0.036 C 
ATOM     87  C   UNL A   1      34.493  22.146  25.730  1.00  0.00     0.004 A 
ATOM     88  C   UNL A   1      35.743  23.509  24.190  1.00  0.00     0.000 A 
ATOM     89  C   UNL A   1      35.669  22.405  25.030  1.00  0.00     0.000 A 
BRANCH  80  90
ATOM     90  N   UNL A   1      32.206  25.804  23.440  1.00  0.00    -0.336 N 
ATOM     91  C   UNL A   1      31.368  26.709  22.845  1.00  0.00     0.224 C 
ATOM     92  H   UNL A   1      32.851  25.418  22.804  1.00  0.00     0.164 HD
ATOM     93  O   UNL A   1      31.339  26.708  21.611  1.00  0.00    -0.275 OA
BRANCH  91  94
ATOM     94  C   UNL A   1      30.599  27.775  23.628  1.00  0.00     0.082 C 
ATOM     95  C   UNL A   1      29.106  27.462  23.783  1.00  0.00     0.035 C 
ATOM     96  C   UNL A   1      30.921  29.187  23.080  1.00  0.00     0.035 C 
ATOM     97  C   UNL A   1      28.215  28.112  22.739  1.00  0.00     0.120 C 
ATOM     98  C   UNL A   1      29.917  29.676  22.035  1.00  0.00     0.120 C 
ATOM     99  N   UNL A   1      28.574  29.515  22.565  1.00  0.00    -0.342 N 
ATOM    100  C   UNL A   1      27.762  30.476  23.183  1.00  0.00     0.225 C 
ATOM    101  O   UNL A   1      26.869  30.122  23.945  1.00  0.00    -0.275 OA
BRANCH 100 102
ATOM    102  C   UNL A   1      27.851  31.948  22.926  1.00  0.00     0.079 C 
ATOM    103  C   UNL A   1      29.069  32.806  22.748  1.00  0.00     0.014 C 
ATOM    104  C   UNL A   1      28.173  32.520  21.570  1.00  0.00     0.014 C 
ENDBRANCH 100 102
ENDBRANCH  91  94
ENDBRANCH  80  90
ENDBRANCH  78  80
ENDBRANCH  77  78
ENDBRANCH  76  77
ENDBRANCH  75  76
ENDBRANCH   1  75
TORSDOF 20
ENDMDL
MODEL 2
REMARK VINA RESULT:     -11.8      2.071      9.087
REMARK SMILES O=C(OCCOCCOC(=O)[C@]1(NC(=O)C2CCN(C(=O)C3CC3)CC2)CCCc2ccccc21)c1ccc(-c2c3nc(c(-c4c(F)cc(S(=O)(=O)[O-])cc4F)c4ccc([nH]4)c(-c4c(F)cc(S(=O)(=O)[O-])cc4F)c4nc(c(-c5c(F)cc(S(=O)(=O)[O-])cc5F)c5ccc2[nH]5)C=C4)C=C3)cc1
REMARK SMILES IDX 6 1 5 2 4 3 3 4 2 5 1 6 36 7 37 8 101 9 38 10 100 11 39 12
REMARK SMILES IDX 40 13 41 14 94 15 42 16 99 17 93 18 95 19 43 20 98 21 92 22
REMARK SMILES IDX 91 23 44 25 78 26 57 27 77 28 58 29 61 30 76 31 96 32 59 33
REMARK SMILES IDX 60 34 75 36 97 37 62 38 45 39 46 40 55 41 47 42 48 43 54 44
REMARK SMILES IDX 56 45 49 46 50 47 51 48 52 49 53 50 79 51 80 52 89 53 81 54
REMARK SMILES IDX 82 55 88 56 90 57 83 58 84 59 85 60 86 61 87 62 63 63 64 64
REMARK SMILES IDX 73 65 65 66 66 67 72 68 74 69 67 70 68 71 69 72 70 73 71 74
REMARK SMILES IDX 7 75 8 76 9 77 10 78 11 79 12 80 27 81 35 82 28 83 30 84
REMARK SMILES IDX 34 85 29 86 31 87 33 88 32 89 13 90 14 91 15 93 16 94 17 95
REMARK SMILES IDX 26 96 18 97 25 98 19 99 20 100 21 101 22 102 23 103 24 104
REMARK H PARENT 95 24 61 35 13 92
REMARK Flexibility Score: inf
ROOT
ATOM      1  O   UNL A   1      32.989  31.046  27.319  1.00  0.00    -0.374 OA
ENDROOT
BRANCH   1   2
ATOM      2  C   UNL A   1      34.258  31.539  27.723  1.00  0.00     0.202 C 
BRANCH   2   3
ATOM      3  C   UNL A   1      35.080  30.400  28.326  1.00  0.00     0.261 C 
BRANCH   3   4
ATOM      4  O   UNL A   1      35.936  30.899  29.364  1.00  0.00    -0.460 OA
BRANCH   4   5
ATOM      5  C   UNL A   1      36.733  30.058  30.078  1.00  0.00     0.338 C 
ATOM      6  O   UNL A   1      36.304  29.478  31.071  1.00  0.00    -0.246 OA
BRANCH   5   7
ATOM      7  C   UNL A   1      38.054  29.663  29.515  1.00  0.00     0.060 A 
ATOM      8  C   UNL A   1      38.363  29.627  28.147  1.00  0.00     0.016 A 
ATOM      9  C   UNL A   1      39.069  29.424  30.446  1.00  0.00     0.016 A 
ATOM     10  C   UNL A   1      39.642  29.353  27.707  1.00  0.00     0.010 A 
ATOM     11  C   UNL A   1      40.371  29.186  30.010  1.00  0.00     0.010 A 
ATOM     12  C   UNL A   1      40.656  29.169  28.638  1.00  0.00    -0.014 A 
BRANCH  12  13
ATOM     13  C   UNL A   1      42.011  28.915  28.134  1.00  0.00     0.031 A 
ATOM     14  C   UNL A   1      42.334  27.537  27.668  1.00  0.00     0.074 A 
ATOM     15  C   UNL A   1      42.878  29.941  28.042  1.00  0.00     0.049 A 
ATOM     16  N   UNL A   1      43.491  27.027  27.361  1.00  0.00    -0.248 NA
ATOM     17  C   UNL A   1      41.202  26.602  27.531  1.00  0.00     0.031 C 
ATOM     18  C   UNL A   1      42.572  31.340  28.366  1.00  0.00     0.029 A 
ATOM     19  N   UNL A   1      44.186  29.975  27.646  1.00  0.00    -0.354 N 
ATOM     20  C   UNL A   1      43.238  25.697  27.055  1.00  0.00     0.074 A 
ATOM     21  C   UNL A   1      41.816  25.480  27.187  1.00  0.00     0.031 C 
ATOM     22  C   UNL A   1      43.662  32.093  28.151  1.00  0.00     0.029 A 
ATOM     23  C   UNL A   1      44.763  31.217  27.779  1.00  0.00     0.049 A 
ATOM     24  H   UNL A   1      44.668  29.188  27.301  1.00  0.00     0.167 HD
ATOM     25  C   UNL A   1      44.141  24.752  26.720  1.00  0.00     0.037 A 
ATOM     26  C   UNL A   1      46.057  31.577  27.684  1.00  0.00     0.037 A 
ATOM     27  C   UNL A   1      45.543  25.037  26.582  1.00  0.00     0.049 A 
ATOM     28  C   UNL A   1      47.049  30.483  27.387  1.00  0.00     0.074 A 
ATOM     29  C   UNL A   1      46.572  24.174  26.263  1.00  0.00     0.029 A 
ATOM     30  N   UNL A   1      46.106  26.296  26.758  1.00  0.00    -0.354 N 
ATOM     31  N   UNL A   1      46.821  29.211  27.144  1.00  0.00    -0.248 NA
ATOM     32  C   UNL A   1      48.467  30.856  27.375  1.00  0.00     0.031 C 
ATOM     33  C   UNL A   1      47.765  24.902  26.301  1.00  0.00     0.029 A 
ATOM     34  C   UNL A   1      47.474  26.229  26.585  1.00  0.00     0.049 A 
ATOM     35  H   UNL A   1      45.603  27.114  26.975  1.00  0.00     0.167 HD
ATOM     36  C   UNL A   1      48.067  28.633  26.945  1.00  0.00     0.074 A 
ATOM     37  C   UNL A   1      49.041  29.702  27.062  1.00  0.00     0.031 C 
ATOM     38  C   UNL A   1      48.390  27.338  26.700  1.00  0.00     0.037 A 
BRANCH  25  39
ATOM     39  C   UNL A   1      43.656  23.341  26.564  1.00  0.00     0.058 A 
ATOM     40  C   UNL A   1      43.482  22.740  25.309  1.00  0.00     0.135 A 
ATOM     41  C   UNL A   1      43.383  22.569  27.705  1.00  0.00     0.135 A 
ATOM     42  F   UNL A   1      43.688  23.445  24.185  1.00  0.00    -0.206 F 
ATOM     43  C   UNL A   1      43.060  21.419  25.190  1.00  0.00     0.059 A 
ATOM     44  C   UNL A   1      42.982  21.241  27.612  1.00  0.00     0.059 A 
ATOM     45  F   UNL A   1      43.505  23.107  28.929  1.00  0.00    -0.206 F 
ATOM     46  C   UNL A   1      42.824  20.674  26.349  1.00  0.00     0.060 A 
BRANCH  46  47
ATOM     47  S   UNL A   1      42.333  18.945  26.178  1.00  0.00     0.124 S 
ATOM     48  O   UNL A   1      40.978  19.075  25.652  1.00  0.00    -0.237 OA
ATOM     49  O   UNL A   1      43.330  18.433  25.241  1.00  0.00    -0.237 OA
ATOM     50  O   UNL A   1      42.431  18.427  27.538  1.00  0.00    -0.744 OA
ENDBRANCH  46  47
ENDBRANCH  25  39
BRANCH  26  51
ATOM     51  C   UNL A   1      46.492  32.971  27.979  1.00  0.00     0.058 A 
ATOM     52  C   UNL A   1      46.892  33.357  29.266  1.00  0.00     0.135 A 
ATOM     53  C   UNL A   1      46.475  33.964  26.984  1.00  0.00     0.135 A 
ATOM     54  F   UNL A   1      46.931  32.449  30.255  1.00  0.00    -0.206 F 
ATOM     55  C   UNL A   1      47.210  34.679  29.570  1.00  0.00     0.059 A 
ATOM     56  C   UNL A   1      46.823  35.284  27.253  1.00  0.00     0.059 A 
ATOM     57  F   UNL A   1      46.115  33.657  25.728  1.00  0.00    -0.206 F 
ATOM     58  C   UNL A   1      47.161  35.639  28.556  1.00  0.00     0.060 A 
BRANCH  58  59
ATOM     59  S   UNL A   1      47.526  37.360  28.964  1.00  0.00     0.124 S 
ATOM     60  O   UNL A   1      47.454  37.991  27.649  1.00  0.00    -0.237 OA
ATOM     61  O   UNL A   1      46.451  37.697  29.891  1.00  0.00    -0.237 OA
ATOM     62  O   UNL A   1      48.859  37.291  29.555  1.00  0.00    -0.744 OA
ENDBRANCH  58  59
ENDBRANCH  26  51
BRANCH  38  63
ATOM     63  C   UNL A   1      49.846  27.030  26.514  1.00  0.00     0.058 A 
ATOM     64  C   UNL A   1      50.645  26.600  27.583  1.00  0.00     0.135 A 
ATOM     65  C   UNL A   1      50.422  27.097  25.236  1.00  0.00     0.135 A 
ATOM     66  F   UNL A   1      50.137  26.532  28.823  1.00  0.00    -0.206 F 
ATOM     67  C   UNL A   1      51.977  26.260  27.394  1.00  0.00     0.059 A 
ATOM     68  C   UNL A   1      51.742  26.728  25.018  1.00  0.00     0.059 A 
ATOM     69  F   UNL A   1      49.689  27.492  24.182  1.00  0.00    -0.206 F 
ATOM     70  C   UNL A   1      52.514  26.319  26.105  1.00  0.00     0.060 A 
BRANCH  70  71
ATOM     71  S   UNL A   1      54.229  25.820  25.865  1.00  0.00     0.124 S 
ATOM     72  O   UNL A   1      54.948  26.934  26.474  1.00  0.00    -0.237 OA
ATOM     73  O   UNL A   1      54.288  24.553  26.587  1.00  0.00    -0.237 OA
ATOM     74  O   UNL A   1      54.351  25.713  24.414  1.00  0.00    -0.744 OA
ENDBRANCH  70  71
ENDBRANCH  38  63
ENDBRANCH  12  13
ENDBRANCH   5   7
ENDBRANCH   4   5
ENDBRANCH   3   4
ENDBRANCH   2   3
ENDBRANCH   1   2
BRANCH   1  75
ATOM     75  C   UNL A   1      32.806  29.668  27.069  1.00  0.00     0.202 C 
BRANCH  75  76
ATOM     76  C   UNL A   1      33.022  29.389  25.583  1.00  0.00     0.261 C 
BRANCH  76  77
ATOM     77  O   UNL A   1      33.692  28.131  25.423  1.00  0.00    -0.461 OA
BRANCH  77  78
ATOM     78  C   UNL A   1      33.885  27.701  24.144  1.00  0.00     0.336 C 
ATOM     79  O   UNL A   1      34.126  28.433  23.189  1.00  0.00    -0.249 OA
BRANCH  78  80
ATOM     80  C   UNL A   1      33.660  26.167  24.021  1.00  0.00     0.164 C 
ATOM     81  C   UNL A   1      33.913  25.637  22.582  1.00  0.00     0.046 C 
ATOM     82  C   UNL A   1      32.166  25.934  24.382  1.00  0.00    -0.008 A 
ATOM     83  C   UNL A   1      32.887  26.155  21.563  1.00  0.00     0.008 C 
ATOM     84  C   UNL A   1      31.160  25.857  23.393  1.00  0.00    -0.042 A 
ATOM     85  C   UNL A   1      31.768  25.992  25.735  1.00  0.00     0.007 A 
ATOM     86  C   UNL A   1      31.471  25.733  21.924  1.00  0.00     0.036 C 
ATOM     87  C   UNL A   1      29.804  25.873  23.775  1.00  0.00     0.004 A 
ATOM     88  C   UNL A   1      30.422  26.015  26.097  1.00  0.00     0.000 A 
ATOM     89  C   UNL A   1      29.440  25.970  25.115  1.00  0.00     0.000 A 
BRANCH  80  90
ATOM     90  N   UNL A   1      34.512  25.401  24.989  1.00  0.00    -0.336 N 
ATOM     91  C   UNL A   1      34.618  24.089  25.363  1.00  0.00     0.224 C 
ATOM     92  H   UNL A   1      35.147  25.980  25.469  1.00  0.00     0.164 HD
ATOM     93  O   UNL A   1      35.252  23.857  26.397  1.00  0.00    -0.275 OA
BRANCH  91  94
ATOM     94  C   UNL A   1      34.114  22.931  24.500  1.00  0.00     0.082 C 
ATOM     95  C   UNL A   1      32.798  22.323  24.998  1.00  0.00     0.035 C 
ATOM     96  C   UNL A   1      35.251  21.912  24.241  1.00  0.00     0.035 C 
ATOM     97  C   UNL A   1      32.965  21.103  25.888  1.00  0.00     0.120 C 
ATOM     98  C   UNL A   1      35.265  20.752  25.238  1.00  0.00     0.120 C 
ATOM     99  N   UNL A   1      33.932  20.179  25.308  1.00  0.00    -0.342 N 
ATOM    100  C   UNL A   1      33.436  19.050  24.642  1.00  0.00     0.225 C 
ATOM    101  O   UNL A   1      32.230  18.934  24.451  1.00  0.00    -0.275 OA
BRANCH 100 102
ATOM    102  C   UNL A   1      34.278  17.897  24.191  1.00  0.00     0.079 C 
ATOM    103  C   UNL A   1      34.043  16.426  24.369  1.00  0.00     0.014 C 
ATOM    104  C   UNL A   1      33.921  17.045  23.001  1.00  0.00     0.014 C 
ENDBRANCH 100 102
ENDBRANCH  91  94
ENDBRANCH  80  90
ENDBRANCH  78  80
ENDBRANCH  77  78
ENDBRANCH  76  77
ENDBRANCH  75  76
ENDBRANCH   1  75
TORSDOF 20
ENDMDL
MODEL 3
REMARK VINA RESULT:     -11.8      6.186     11.156
REMARK SMILES O=C(OCCOCCOC(=O)[C@]1(NC(=O)C2CCN(C(=O)C3CC3)CC2)CCCc2ccccc21)c1ccc(-c2c3nc(c(-c4c(F)cc(S(=O)(=O)[O-])cc4F)c4ccc([nH]4)c(-c4c(F)cc(S(=O)(=O)[O-])cc4F)c4nc(c(-c5c(F)cc(S(=O)(=O)[O-])cc5F)c5ccc2[nH]5)C=C4)C=C3)cc1
REMARK SMILES IDX 6 1 5 2 4 3 3 4 2 5 1 6 36 7 37 8 101 9 38 10 100 11 39 12
REMARK SMILES IDX 40 13 41 14 94 15 42 16 99 17 93 18 95 19 43 20 98 21 92 22
REMARK SMILES IDX 91 23 44 25 78 26 57 27 77 28 58 29 61 30 76 31 96 32 59 33
REMARK SMILES IDX 60 34 75 36 97 37 62 38 45 39 46 40 55 41 47 42 48 43 54 44
REMARK SMILES IDX 56 45 49 46 50 47 51 48 52 49 53 50 79 51 80 52 89 53 81 54
REMARK SMILES IDX 82 55 88 56 90 57 83 58 84 59 85 60 86 61 87 62 63 63 64 64
REMARK SMILES IDX 73 65 65 66 66 67 72 68 74 69 67 70 68 71 69 72 70 73 71 74
REMARK SMILES IDX 7 75 8 76 9 77 10 78 11 79 12 80 27 81 35 82 28 83 30 84
REMARK SMILES IDX 34 85 29 86 31 87 33 88 32 89 13 90 14 91 15 93 16 94 17 95
REMARK SMILES IDX 26 96 18 97 25 98 19 99 20 100 21 101 22 102 23 103 24 104
REMARK H PARENT 95 24 61 35 13 92
REMARK Flexibility Score: inf
ROOT
ATOM      1  O   UNL A   1      31.975  30.399  27.219  1.00  0.00    -0.374 OA
ENDROOT
BRANCH   1   2
ATOM      2  C   UNL A   1      32.034  31.778  26.887  1.00  0.00     0.202 C 
BRANCH   2   3
ATOM      3  C   UNL A   1      33.234  32.420  27.583  1.00  0.00     0.261 C 
BRANCH   3   4
ATOM      4  O   UNL A   1      33.059  33.842  27.667  1.00  0.00    -0.460 OA
BRANCH   4   5
ATOM      5  C   UNL A   1      33.315  34.510  28.825  1.00  0.00     0.338 C 
ATOM      6  O   UNL A   1      32.505  35.311  29.280  1.00  0.00    -0.246 OA
BRANCH   5   7
ATOM      7  C   UNL A   1      34.477  34.093  29.658  1.00  0.00     0.060 A 
ATOM      8  C   UNL A   1      34.389  33.317  30.823  1.00  0.00     0.016 A 
ATOM      9  C   UNL A   1      35.740  34.420  29.155  1.00  0.00     0.016 A 
ATOM     10  C   UNL A   1      35.521  32.881  31.482  1.00  0.00     0.010 A 
ATOM     11  C   UNL A   1      36.886  33.950  29.792  1.00  0.00     0.010 A 
ATOM     12  C   UNL A   1      36.771  33.164  30.947  1.00  0.00    -0.014 A 
BRANCH  12  13
ATOM     13  C   UNL A   1      37.950  32.655  31.655  1.00  0.00     0.031 A 
ATOM     14  C   UNL A   1      38.711  31.537  31.030  1.00  0.00     0.074 A 
ATOM     15  C   UNL A   1      38.341  33.260  32.794  1.00  0.00     0.049 A 
ATOM     16  N   UNL A   1      39.658  30.805  31.540  1.00  0.00    -0.248 NA
ATOM     17  C   UNL A   1      38.356  31.190  29.642  1.00  0.00     0.031 C 
ATOM     18  C   UNL A   1      37.705  34.444  33.385  1.00  0.00     0.029 A 
ATOM     19  N   UNL A   1      39.364  32.974  33.654  1.00  0.00    -0.354 N 
ATOM     20  C   UNL A   1      39.970  29.872  30.562  1.00  0.00     0.074 A 
ATOM     21  C   UNL A   1      39.132  30.141  29.417  1.00  0.00     0.031 C 
ATOM     22  C   UNL A   1      38.357  34.782  34.508  1.00  0.00     0.029 A 
ATOM     23  C   UNL A   1      39.382  33.782  34.768  1.00  0.00     0.049 A 
ATOM     24  H   UNL A   1      40.023  32.259  33.493  1.00  0.00     0.167 HD
ATOM     25  C   UNL A   1      40.868  28.869  30.650  1.00  0.00     0.037 A 
ATOM     26  C   UNL A   1      40.099  33.666  35.900  1.00  0.00     0.037 A 
ATOM     27  C   UNL A   1      41.691  28.667  31.811  1.00  0.00     0.049 A 
ATOM     28  C   UNL A   1      41.035  32.490  35.998  1.00  0.00     0.074 A 
ATOM     29  C   UNL A   1      42.631  27.683  32.044  1.00  0.00     0.029 A 
ATOM     30  N   UNL A   1      41.662  29.478  32.940  1.00  0.00    -0.354 N 
ATOM     31  N   UNL A   1      41.300  31.574  35.094  1.00  0.00    -0.248 NA
ATOM     32  C   UNL A   1      41.748  32.310  37.267  1.00  0.00     0.031 C 
ATOM     33  C   UNL A   1      43.131  27.868  33.336  1.00  0.00     0.029 A 
ATOM     34  C   UNL A   1      42.546  29.000  33.887  1.00  0.00     0.049 A 
ATOM     35  H   UNL A   1      41.094  30.275  33.049  1.00  0.00     0.167 HD
ATOM     36  C   UNL A   1      42.215  30.712  35.682  1.00  0.00     0.074 A 
ATOM     37  C   UNL A   1      42.482  31.237  37.007  1.00  0.00     0.031 C 
ATOM     38  C   UNL A   1      42.779  29.581  35.187  1.00  0.00     0.037 A 
BRANCH  25  39
ATOM     39  C   UNL A   1      40.944  27.892  29.514  1.00  0.00     0.058 A 
ATOM     40  C   UNL A   1      41.955  27.944  28.543  1.00  0.00     0.135 A 
ATOM     41  C   UNL A   1      39.991  26.866  29.414  1.00  0.00     0.135 A 
ATOM     42  F   UNL A   1      42.866  28.930  28.565  1.00  0.00    -0.206 F 
ATOM     43  C   UNL A   1      42.022  27.008  27.515  1.00  0.00     0.059 A 
ATOM     44  C   UNL A   1      40.050  25.906  28.410  1.00  0.00     0.059 A 
ATOM     45  F   UNL A   1      38.986  26.789  30.301  1.00  0.00    -0.206 F 
ATOM     46  C   UNL A   1      41.070  25.986  27.464  1.00  0.00     0.060 A 
BRANCH  46  47
ATOM     47  S   UNL A   1      41.206  24.746  26.159  1.00  0.00     0.124 S 
ATOM     48  O   UNL A   1      41.595  25.566  25.015  1.00  0.00    -0.237 OA
ATOM     49  O   UNL A   1      42.239  23.858  26.683  1.00  0.00    -0.237 OA
ATOM     50  O   UNL A   1      39.865  24.173  26.092  1.00  0.00    -0.744 OA
ENDBRANCH  46  47
ENDBRANCH  25  39
BRANCH  26  51
ATOM     51  C   UNL A   1      39.884  34.594  37.047  1.00  0.00     0.058 A 
ATOM     52  C   UNL A   1      40.662  35.749  37.209  1.00  0.00     0.135 A 
ATOM     53  C   UNL A   1      38.921  34.321  38.033  1.00  0.00     0.135 A 
ATOM     54  F   UNL A   1      41.596  36.062  36.296  1.00  0.00    -0.206 F 
ATOM     55  C   UNL A   1      40.531  36.571  38.327  1.00  0.00     0.059 A 
ATOM     56  C   UNL A   1      38.744  35.145  39.141  1.00  0.00     0.059 A 
ATOM     57  F   UNL A   1      38.134  33.239  37.928  1.00  0.00    -0.206 F 
ATOM     58  C   UNL A   1      39.574  36.252  39.294  1.00  0.00     0.060 A 
BRANCH  58  59
ATOM     59  S   UNL A   1      39.440  37.291  40.766  1.00  0.00     0.124 S 
ATOM     60  O   UNL A   1      40.821  37.727  40.940  1.00  0.00    -0.237 OA
ATOM     61  O   UNL A   1      38.497  38.319  40.339  1.00  0.00    -0.237 OA
ATOM     62  O   UNL A   1      38.938  36.371  41.782  1.00  0.00    -0.744 OA
ENDBRANCH  58  59
ENDBRANCH  26  51
BRANCH  38  63
ATOM     63  C   UNL A   1      43.756  28.871  36.076  1.00  0.00     0.058 A 
ATOM     64  C   UNL A   1      43.369  27.770  36.855  1.00  0.00     0.135 A 
ATOM     65  C   UNL A   1      45.105  29.254  36.087  1.00  0.00     0.135 A 
ATOM     66  F   UNL A   1      42.087  27.377  36.881  1.00  0.00    -0.206 F 
ATOM     67  C   UNL A   1      44.290  27.080  37.631  1.00  0.00     0.059 A 
ATOM     68  C   UNL A   1      46.049  28.557  36.828  1.00  0.00     0.059 A 
ATOM     69  F   UNL A   1      45.520  30.295  35.347  1.00  0.00    -0.206 F 
ATOM     70  C   UNL A   1      45.630  27.476  37.603  1.00  0.00     0.060 A 
BRANCH  70  71
ATOM     71  S   UNL A   1      46.825  26.535  38.571  1.00  0.00     0.124 S 
ATOM     72  O   UNL A   1      46.754  25.226  37.931  1.00  0.00    -0.237 OA
ATOM     73  O   UNL A   1      48.058  27.284  38.355  1.00  0.00    -0.237 OA
ATOM     74  O   UNL A   1      46.288  26.599  39.928  1.00  0.00    -0.744 OA
ENDBRANCH  70  71
ENDBRANCH  38  63
ENDBRANCH  12  13
ENDBRANCH   5   7
ENDBRANCH   4   5
ENDBRANCH   3   4
ENDBRANCH   2   3
ENDBRANCH   1   2
BRANCH   1  75
ATOM     75  C   UNL A   1      31.777  29.430  26.211  1.00  0.00     0.202 C 
BRANCH  75  76
ATOM     76  C   UNL A   1      32.969  29.440  25.257  1.00  0.00     0.261 C 
BRANCH  76  77
ATOM     77  O   UNL A   1      33.573  28.138  25.231  1.00  0.00    -0.461 OA
BRANCH  77  78
ATOM     78  C   UNL A   1      33.899  27.642  24.004  1.00  0.00     0.336 C 
ATOM     79  O   UNL A   1      34.249  28.323  23.045  1.00  0.00    -0.249 OA
BRANCH  78  80
ATOM     80  C   UNL A   1      33.676  26.104  23.936  1.00  0.00     0.164 C 
ATOM     81  C   UNL A   1      33.883  25.531  22.506  1.00  0.00     0.046 C 
ATOM     82  C   UNL A   1      32.196  25.879  24.354  1.00  0.00    -0.008 A 
ATOM     83  C   UNL A   1      32.821  26.014  21.506  1.00  0.00     0.008 C 
ATOM     84  C   UNL A   1      31.157  25.769  23.402  1.00  0.00    -0.042 A 
ATOM     85  C   UNL A   1      31.843  25.978  25.717  1.00  0.00     0.007 A 
ATOM     86  C   UNL A   1      31.419  25.601  21.927  1.00  0.00     0.036 C 
ATOM     87  C   UNL A   1      29.815  25.794  23.827  1.00  0.00     0.004 A 
ATOM     88  C   UNL A   1      30.509  26.009  26.122  1.00  0.00     0.000 A 
ATOM     89  C   UNL A   1      29.495  25.931  25.176  1.00  0.00     0.000 A 
BRANCH  80  90
ATOM     90  N   UNL A   1      34.563  25.371  24.897  1.00  0.00    -0.336 N 
ATOM     91  C   UNL A   1      34.734  24.061  25.255  1.00  0.00     0.224 C 
ATOM     92  H   UNL A   1      35.165  25.975  25.388  1.00  0.00     0.164 HD
ATOM     93  O   UNL A   1      35.375  23.849  26.289  1.00  0.00    -0.275 OA
BRANCH  91  94
ATOM     94  C   UNL A   1      34.294  22.890  24.375  1.00  0.00     0.082 C 
ATOM     95  C   UNL A   1      32.937  22.299  24.776  1.00  0.00     0.035 C 
ATOM     96  C   UNL A   1      35.441  21.861  24.228  1.00  0.00     0.035 C 
ATOM     97  C   UNL A   1      33.024  21.095  25.698  1.00  0.00     0.120 C 
ATOM     98  C   UNL A   1      35.367  20.719  25.244  1.00  0.00     0.120 C 
ATOM     99  N   UNL A   1      34.029  20.155  25.215  1.00  0.00    -0.342 N 
ATOM    100  C   UNL A   1      33.580  19.016  24.533  1.00  0.00     0.225 C 
ATOM    101  O   UNL A   1      32.393  18.903  24.247  1.00  0.00    -0.275 OA
BRANCH 100 102
ATOM    102  C   UNL A   1      34.448  17.851  24.172  1.00  0.00     0.079 C 
ATOM    103  C   UNL A   1      34.258  16.396  24.485  1.00  0.00     0.014 C 
ATOM    104  C   UNL A   1      34.098  16.886  23.069  1.00  0.00     0.014 C 
ENDBRANCH 100 102
ENDBRANCH  91  94
ENDBRANCH  80  90
ENDBRANCH  78  80
ENDBRANCH  77  78
ENDBRANCH  76  77
ENDBRANCH  75  76
ENDBRANCH   1  75
TORSDOF 20
ENDMDL
