MODEL 1
REMARK VINA RESULT:      -9.6      0.000      0.000
REMARK SMILES C=Cc1cccc(-c2ccc([C@@H](C)C(=O)OCCOCCOC(=O)c3ccc(-c4c5nc(c(-c6c(F)cc(S(=O)(=O)[O-])cc6F)c6ccc([nH]6)c(-c6c(F)cc(S(=O)(=O)[O-])cc6F)c6nc(c(-c7c(F)cc(S(=O)(=O)[O-])cc7F)c7ccc4[nH]7)C=C6)C=C5)cc3)cc2)c1
REMARK SMILES IDX 19 1 18 2 17 3 16 4 14 5 15 6 12 7 13 8 11 9 8 10 9 11 92 12
REMARK SMILES IDX 10 13 91 14 7 15 3 16 4 17 93 18 5 19 6 20 2 21 1 22 20 23
REMARK SMILES IDX 21 24 22 25 23 26 24 27 25 28 26 29 90 30 27 31 89 32 28 33
REMARK SMILES IDX 29 34 30 35 83 36 31 37 88 38 82 39 84 40 32 41 87 42 81 43
REMARK SMILES IDX 80 44 33 46 67 47 46 48 66 49 47 50 50 51 65 52 85 53 48 54
REMARK SMILES IDX 49 55 64 57 86 58 51 59 34 60 35 61 44 62 36 63 37 64 43 65
REMARK SMILES IDX 45 66 38 67 39 68 40 69 41 70 42 71 68 72 69 73 78 74 70 75
REMARK SMILES IDX 71 76 77 77 79 78 72 79 73 80 74 81 75 82 76 83 52 84 53 85
REMARK SMILES IDX 62 86 54 87 55 88 61 89 63 90 56 91 57 92 58 93 59 94 60 95
REMARK H PARENT 84 45 50 56
REMARK Flexibility Score: inf
ROOT
ATOM      1  O   UNL A   1      42.662  19.205  26.964  1.00  0.00    -0.374 OA
ENDROOT
BRANCH   1   2
ATOM      2  C   UNL A   1      42.777  18.865  25.581  1.00  0.00     0.202 C 
BRANCH   2   3
ATOM      3  C   UNL A   1      44.112  19.215  24.920  1.00  0.00     0.261 C 
BRANCH   3   4
ATOM      4  O   UNL A   1      44.719  20.356  25.557  1.00  0.00    -0.463 OA
BRANCH   4   5
ATOM      5  C   UNL A   1      44.604  21.541  24.904  1.00  0.00     0.313 C 
ATOM      6  O   UNL A   1      45.237  21.844  23.896  1.00  0.00    -0.252 OA
BRANCH   5   7
ATOM      7  C   UNL A   1      43.626  22.507  25.555  1.00  0.00     0.126 C 
ATOM      8  C   UNL A   1      43.413  23.704  24.631  1.00  0.00     0.025 C 
BRANCH   7   9
ATOM      9  C   UNL A   1      43.897  22.936  26.993  1.00  0.00    -0.034 A 
ATOM     10  C   UNL A   1      44.279  23.954  29.630  1.00  0.00    -0.018 A 
ATOM     11  C   UNL A   1      45.346  23.861  28.723  1.00  0.00     0.009 A 
ATOM     12  C   UNL A   1      43.027  23.483  29.211  1.00  0.00     0.009 A 
ATOM     13  C   UNL A   1      45.160  23.362  27.425  1.00  0.00     0.005 A 
ATOM     14  C   UNL A   1      42.839  22.983  27.915  1.00  0.00     0.005 A 
BRANCH  10  15
ATOM     15  C   UNL A   1      44.453  24.587  30.951  1.00  0.00    -0.018 A 
ATOM     16  C   UNL A   1      44.417  24.486  33.401  1.00  0.00    -0.026 A 
ATOM     17  C   UNL A   1      44.715  25.853  33.455  1.00  0.00     0.008 A 
ATOM     18  C   UNL A   1      44.276  23.867  32.148  1.00  0.00     0.016 A 
ATOM     19  C   UNL A   1      44.896  26.582  32.283  1.00  0.00     0.001 A 
ATOM     20  C   UNL A   1      44.768  25.952  31.044  1.00  0.00     0.009 A 
BRANCH  16  21
ATOM     21  C   UNL A   1      44.213  23.766  34.664  1.00  0.00     0.000 C 
ATOM     22  C   UNL A   1      43.011  23.422  35.144  1.00  0.00     0.009 C 
ENDBRANCH  16  21
ENDBRANCH  10  15
ENDBRANCH   7   9
ENDBRANCH   5   7
ENDBRANCH   4   5
ENDBRANCH   3   4
ENDBRANCH   2   3
ENDBRANCH   1   2
BRANCH   1  23
ATOM     23  C   UNL A   1      41.372  19.601  27.433  1.00  0.00     0.202 C 
BRANCH  23  24
ATOM     24  C   UNL A   1      40.577  20.548  26.527  1.00  0.00     0.261 C 
BRANCH  24  25
ATOM     25  O   UNL A   1      40.011  21.653  27.252  1.00  0.00    -0.460 OA
BRANCH  25  26
ATOM     26  C   UNL A   1      39.275  22.501  26.497  1.00  0.00     0.338 C 
ATOM     27  O   UNL A   1      38.464  22.198  25.631  1.00  0.00    -0.246 OA
BRANCH  26  28
ATOM     28  C   UNL A   1      39.442  23.892  26.960  1.00  0.00     0.060 A 
ATOM     29  C   UNL A   1      39.997  24.799  26.049  1.00  0.00     0.016 A 
ATOM     30  C   UNL A   1      39.162  24.285  28.271  1.00  0.00     0.016 A 
ATOM     31  C   UNL A   1      40.352  26.078  26.466  1.00  0.00     0.010 A 
ATOM     32  C   UNL A   1      39.523  25.573  28.691  1.00  0.00     0.010 A 
ATOM     33  C   UNL A   1      40.167  26.456  27.804  1.00  0.00    -0.014 A 
BRANCH  33  34
ATOM     34  C   UNL A   1      40.825  27.696  28.285  1.00  0.00     0.031 A 
ATOM     35  C   UNL A   1      42.314  27.846  28.104  1.00  0.00     0.074 A 
ATOM     36  C   UNL A   1      40.101  28.711  28.791  1.00  0.00     0.049 A 
ATOM     37  N   UNL A   1      43.084  28.869  28.375  1.00  0.00    -0.248 NA
ATOM     38  C   UNL A   1      43.028  26.692  27.535  1.00  0.00     0.031 C 
ATOM     39  C   UNL A   1      38.653  28.701  28.987  1.00  0.00     0.029 A 
ATOM     40  N   UNL A   1      40.490  29.955  29.219  1.00  0.00    -0.354 N 
ATOM     41  C   UNL A   1      44.369  28.484  28.009  1.00  0.00     0.074 A 
ATOM     42  C   UNL A   1      44.281  27.120  27.533  1.00  0.00     0.031 C 
ATOM     43  C   UNL A   1      38.273  29.886  29.495  1.00  0.00     0.029 A 
ATOM     44  C   UNL A   1      39.452  30.732  29.675  1.00  0.00     0.049 A 
ATOM     45  H   UNL A   1      41.426  30.264  29.203  1.00  0.00     0.167 HD
ATOM     46  C   UNL A   1      45.516  29.203  28.052  1.00  0.00     0.037 A 
ATOM     47  C   UNL A   1      39.453  31.982  30.179  1.00  0.00     0.037 A 
ATOM     48  C   UNL A   1      45.603  30.560  28.522  1.00  0.00     0.049 A 
ATOM     49  C   UNL A   1      40.748  32.749  30.254  1.00  0.00     0.074 A 
ATOM     50  C   UNL A   1      46.717  31.377  28.594  1.00  0.00     0.029 A 
ATOM     51  N   UNL A   1      44.533  31.301  29.001  1.00  0.00    -0.354 N 
ATOM     52  N   UNL A   1      41.950  32.378  29.883  1.00  0.00    -0.248 NA
ATOM     53  C   UNL A   1      40.683  34.110  30.806  1.00  0.00     0.031 C 
ATOM     54  C   UNL A   1      46.329  32.600  29.154  1.00  0.00     0.029 A 
ATOM     55  C   UNL A   1      44.964  32.559  29.389  1.00  0.00     0.049 A 
ATOM     56  H   UNL A   1      43.605  30.979  29.059  1.00  0.00     0.167 HD
ATOM     57  C   UNL A   1      42.779  33.469  30.129  1.00  0.00     0.074 A 
ATOM     58  C   UNL A   1      41.938  34.516  30.673  1.00  0.00     0.031 C 
ATOM     59  C   UNL A   1      44.114  33.593  29.923  1.00  0.00     0.037 A 
BRANCH  46  60
ATOM     60  C   UNL A   1      46.775  28.522  27.591  1.00  0.00     0.058 A 
ATOM     61  C   UNL A   1      47.222  28.617  26.264  1.00  0.00     0.135 A 
ATOM     62  C   UNL A   1      47.556  27.783  28.494  1.00  0.00     0.135 A 
ATOM     63  F   UNL A   1      46.504  29.296  25.355  1.00  0.00    -0.206 F 
ATOM     64  C   UNL A   1      48.385  27.979  25.840  1.00  0.00     0.059 A 
ATOM     65  C   UNL A   1      48.735  27.157  28.098  1.00  0.00     0.059 A 
ATOM     66  F   UNL A   1      47.173  27.659  29.775  1.00  0.00    -0.206 F 
ATOM     67  C   UNL A   1      49.133  27.249  26.765  1.00  0.00     0.060 A 
BRANCH  67  68
ATOM     68  S   UNL A   1      50.637  26.424  26.203  1.00  0.00     0.124 S 
ATOM     69  O   UNL A   1      51.664  27.367  26.637  1.00  0.00    -0.237 OA
ATOM     70  O   UNL A   1      50.592  25.159  26.928  1.00  0.00    -0.237 OA
ATOM     71  O   UNL A   1      50.450  26.323  24.759  1.00  0.00    -0.744 OA
ENDBRANCH  67  68
ENDBRANCH  46  60
BRANCH  47  72
ATOM     72  C   UNL A   1      38.182  32.593  30.649  1.00  0.00     0.058 A 
ATOM     73  C   UNL A   1      37.828  32.583  32.006  1.00  0.00     0.135 A 
ATOM     74  C   UNL A   1      37.294  33.197  29.746  1.00  0.00     0.135 A 
ATOM     75  F   UNL A   1      38.639  32.008  32.907  1.00  0.00    -0.206 F 
ATOM     76  C   UNL A   1      36.632  33.139  32.451  1.00  0.00     0.059 A 
ATOM     77  C   UNL A   1      36.103  33.779  30.169  1.00  0.00     0.059 A 
ATOM     78  F   UNL A   1      37.591  33.240  28.438  1.00  0.00    -0.206 F 
ATOM     79  C   UNL A   1      35.776  33.737  31.524  1.00  0.00     0.060 A 
BRANCH  79  80
ATOM     80  S   UNL A   1      34.251  34.502  32.116  1.00  0.00     0.124 S 
ATOM     81  O   UNL A   1      33.647  33.409  32.867  1.00  0.00    -0.237 OA
ATOM     82  O   UNL A   1      34.754  35.620  32.907  1.00  0.00    -0.237 OA
ATOM     83  O   UNL A   1      33.566  34.876  30.881  1.00  0.00    -0.744 OA
ENDBRANCH  79  80
ENDBRANCH  47  72
BRANCH  59  84
ATOM     84  C   UNL A   1      44.743  34.920  30.253  1.00  0.00     0.058 A 
ATOM     85  C   UNL A   1      44.807  35.961  29.316  1.00  0.00     0.135 A 
ATOM     86  C   UNL A   1      45.261  35.160  31.537  1.00  0.00     0.135 A 
ATOM     87  F   UNL A   1      44.329  35.782  28.073  1.00  0.00    -0.206 F 
ATOM     88  C   UNL A   1      45.391  37.185  29.627  1.00  0.00     0.059 A 
ATOM     89  C   UNL A   1      45.827  36.384  31.878  1.00  0.00     0.059 A 
ATOM     90  F   UNL A   1      45.213  34.201  32.475  1.00  0.00    -0.206 F 
ATOM     91  C   UNL A   1      45.904  37.385  30.911  1.00  0.00     0.060 A 
BRANCH  91  92
ATOM     92  S   UNL A   1      46.652  38.980  31.309  1.00  0.00     0.124 S 
ATOM     93  O   UNL A   1      47.593  39.145  30.207  1.00  0.00    -0.237 OA
ATOM     94  O   UNL A   1      45.502  39.879  31.301  1.00  0.00    -0.237 OA
ATOM     95  O   UNL A   1      47.252  38.753  32.621  1.00  0.00    -0.744 OA
ENDBRANCH  91  92
ENDBRANCH  59  84
ENDBRANCH  33  34
ENDBRANCH  26  28
ENDBRANCH  25  26
ENDBRANCH  24  25
ENDBRANCH  23  24
ENDBRANCH   1  23
TORSDOF 20
ENDMDL
MODEL 2
REMARK VINA RESULT:      -9.4      3.226     10.187
REMARK SMILES C=Cc1cccc(-c2ccc([C@@H](C)C(=O)OCCOCCOC(=O)c3ccc(-c4c5nc(c(-c6c(F)cc(S(=O)(=O)[O-])cc6F)c6ccc([nH]6)c(-c6c(F)cc(S(=O)(=O)[O-])cc6F)c6nc(c(-c7c(F)cc(S(=O)(=O)[O-])cc7F)c7ccc4[nH]7)C=C6)C=C5)cc3)cc2)c1
REMARK SMILES IDX 19 1 18 2 17 3 16 4 14 5 15 6 12 7 13 8 11 9 8 10 9 11 92 12
REMARK SMILES IDX 10 13 91 14 7 15 3 16 4 17 93 18 5 19 6 20 2 21 1 22 20 23
REMARK SMILES IDX 21 24 22 25 23 26 24 27 25 28 26 29 90 30 27 31 89 32 28 33
REMARK SMILES IDX 29 34 30 35 83 36 31 37 88 38 82 39 84 40 32 41 87 42 81 43
REMARK SMILES IDX 80 44 33 46 67 47 46 48 66 49 47 50 50 51 65 52 85 53 48 54
REMARK SMILES IDX 49 55 64 57 86 58 51 59 34 60 35 61 44 62 36 63 37 64 43 65
REMARK SMILES IDX 45 66 38 67 39 68 40 69 41 70 42 71 68 72 69 73 78 74 70 75
REMARK SMILES IDX 71 76 77 77 79 78 72 79 73 80 74 81 75 82 76 83 52 84 53 85
REMARK SMILES IDX 62 86 54 87 55 88 61 89 63 90 56 91 57 92 58 93 59 94 60 95
REMARK H PARENT 84 45 50 56
REMARK Flexibility Score: inf
ROOT
ATOM      1  O   UNL A   1      32.450  34.764  28.506  1.00  0.00    -0.374 OA
ENDROOT
BRANCH   1   2
ATOM      2  C   UNL A   1      33.108  35.132  29.720  1.00  0.00     0.202 C 
BRANCH   2   3
ATOM      3  C   UNL A   1      33.148  36.631  30.027  1.00  0.00     0.261 C 
BRANCH   3   4
ATOM      4  O   UNL A   1      32.371  36.937  31.201  1.00  0.00    -0.463 OA
BRANCH   4   5
ATOM      5  C   UNL A   1      32.492  36.075  32.243  1.00  0.00     0.313 C 
ATOM      6  O   UNL A   1      31.748  35.118  32.445  1.00  0.00    -0.252 OA
BRANCH   5   7
ATOM      7  C   UNL A   1      33.632  36.414  33.191  1.00  0.00     0.126 C 
ATOM      8  C   UNL A   1      34.142  37.819  32.880  1.00  0.00     0.025 C 
BRANCH   7   9
ATOM      9  C   UNL A   1      34.772  35.409  33.325  1.00  0.00    -0.034 A 
ATOM     10  C   UNL A   1      36.765  33.372  33.429  1.00  0.00    -0.018 A 
ATOM     11  C   UNL A   1      35.984  33.685  34.552  1.00  0.00     0.009 A 
ATOM     12  C   UNL A   1      36.565  34.129  32.267  1.00  0.00     0.009 A 
ATOM     13  C   UNL A   1      35.002  34.686  34.503  1.00  0.00     0.005 A 
ATOM     14  C   UNL A   1      35.585  35.130  32.214  1.00  0.00     0.005 A 
BRANCH  10  15
ATOM     15  C   UNL A   1      37.713  32.242  33.450  1.00  0.00    -0.018 A 
ATOM     16  C   UNL A   1      38.256  29.887  33.031  1.00  0.00    -0.026 A 
ATOM     17  C   UNL A   1      39.528  30.089  33.580  1.00  0.00     0.008 A 
ATOM     18  C   UNL A   1      37.354  30.964  32.982  1.00  0.00     0.016 A 
ATOM     19  C   UNL A   1      39.903  31.347  34.045  1.00  0.00     0.001 A 
ATOM     20  C   UNL A   1      39.004  32.412  33.978  1.00  0.00     0.009 A 
BRANCH  16  21
ATOM     21  C   UNL A   1      37.899  28.538  32.576  1.00  0.00     0.000 C 
ATOM     22  C   UNL A   1      38.748  27.503  32.561  1.00  0.00     0.009 C 
ENDBRANCH  16  21
ENDBRANCH  10  15
ENDBRANCH   7   9
ENDBRANCH   5   7
ENDBRANCH   4   5
ENDBRANCH   3   4
ENDBRANCH   2   3
ENDBRANCH   1   2
BRANCH   1  23
ATOM     23  C   UNL A   1      33.121  33.832  27.658  1.00  0.00     0.202 C 
BRANCH  23  24
ATOM     24  C   UNL A   1      34.077  32.849  28.343  1.00  0.00     0.261 C 
BRANCH  24  25
ATOM     25  O   UNL A   1      34.721  31.968  27.407  1.00  0.00    -0.460 OA
BRANCH  25  26
ATOM     26  C   UNL A   1      34.556  30.652  27.669  1.00  0.00     0.338 C 
ATOM     27  O   UNL A   1      33.513  30.013  27.595  1.00  0.00    -0.246 OA
BRANCH  26  28
ATOM     28  C   UNL A   1      35.857  30.000  27.912  1.00  0.00     0.060 A 
ATOM     29  C   UNL A   1      36.110  29.558  29.217  1.00  0.00     0.016 A 
ATOM     30  C   UNL A   1      36.844  29.906  26.928  1.00  0.00     0.016 A 
ATOM     31  C   UNL A   1      37.376  29.100  29.564  1.00  0.00     0.010 A 
ATOM     32  C   UNL A   1      38.121  29.447  27.280  1.00  0.00     0.010 A 
ATOM     33  C   UNL A   1      38.406  29.091  28.612  1.00  0.00    -0.014 A 
BRANCH  33  34
ATOM     34  C   UNL A   1      39.800  28.892  29.080  1.00  0.00     0.031 A 
ATOM     35  C   UNL A   1      40.495  27.593  28.762  1.00  0.00     0.074 A 
ATOM     36  C   UNL A   1      40.471  29.883  29.695  1.00  0.00     0.049 A 
ATOM     37  N   UNL A   1      41.730  27.233  29.001  1.00  0.00    -0.248 NA
ATOM     38  C   UNL A   1      39.692  26.567  28.079  1.00  0.00     0.031 C 
ATOM     39  C   UNL A   1      39.921  31.195  30.029  1.00  0.00     0.029 A 
ATOM     40  N   UNL A   1      41.769  29.940  30.137  1.00  0.00    -0.354 N 
ATOM     41  C   UNL A   1      41.853  25.942  28.497  1.00  0.00     0.074 A 
ATOM     42  C   UNL A   1      40.556  25.569  27.973  1.00  0.00     0.031 C 
ATOM     43  C   UNL A   1      40.877  31.932  30.622  1.00  0.00     0.029 A 
ATOM     44  C   UNL A   1      42.101  31.137  30.722  1.00  0.00     0.049 A 
ATOM     45  H   UNL A   1      42.404  29.192  30.043  1.00  0.00     0.167 HD
ATOM     46  C   UNL A   1      42.947  25.145  28.459  1.00  0.00     0.037 A 
ATOM     47  C   UNL A   1      43.260  31.546  31.277  1.00  0.00     0.037 A 
ATOM     48  C   UNL A   1      44.238  25.518  28.975  1.00  0.00     0.049 A 
ATOM     49  C   UNL A   1      44.454  30.627  31.258  1.00  0.00     0.074 A 
ATOM     50  C   UNL A   1      45.411  24.785  28.973  1.00  0.00     0.029 A 
ATOM     51  N   UNL A   1      44.525  26.729  29.586  1.00  0.00    -0.354 N 
ATOM     52  N   UNL A   1      44.559  29.419  30.757  1.00  0.00    -0.248 NA
ATOM     53  C   UNL A   1      45.691  31.133  31.871  1.00  0.00     0.031 C 
ATOM     54  C   UNL A   1      46.399  25.537  29.620  1.00  0.00     0.029 A 
ATOM     55  C   UNL A   1      45.852  26.757  29.983  1.00  0.00     0.049 A 
ATOM     56  H   UNL A   1      43.880  27.461  29.720  1.00  0.00     0.167 HD
ATOM     57  C   UNL A   1      45.879  29.032  30.969  1.00  0.00     0.074 A 
ATOM     58  C   UNL A   1      46.536  30.139  31.635  1.00  0.00     0.031 C 
ATOM     59  C   UNL A   1      46.493  27.868  30.640  1.00  0.00     0.037 A 
BRANCH  46  60
ATOM     60  C   UNL A   1      42.786  23.780  27.850  1.00  0.00     0.058 A 
ATOM     61  C   UNL A   1      42.397  22.671  28.619  1.00  0.00     0.135 A 
ATOM     62  C   UNL A   1      43.004  23.581  26.478  1.00  0.00     0.135 A 
ATOM     63  F   UNL A   1      42.194  22.801  29.940  1.00  0.00    -0.206 F 
ATOM     64  C   UNL A   1      42.256  21.407  28.053  1.00  0.00     0.059 A 
ATOM     65  C   UNL A   1      42.845  22.331  25.887  1.00  0.00     0.059 A 
ATOM     66  F   UNL A   1      43.380  24.607  25.698  1.00  0.00    -0.206 F 
ATOM     67  C   UNL A   1      42.486  21.246  26.686  1.00  0.00     0.060 A 
BRANCH  67  68
ATOM     68  S   UNL A   1      42.302  19.602  25.964  1.00  0.00     0.124 S 
ATOM     69  O   UNL A   1      43.121  19.720  24.761  1.00  0.00    -0.237 OA
ATOM     70  O   UNL A   1      42.837  18.738  27.011  1.00  0.00    -0.237 OA
ATOM     71  O   UNL A   1      40.866  19.490  25.735  1.00  0.00    -0.744 OA
ENDBRANCH  67  68
ENDBRANCH  46  60
BRANCH  47  72
ATOM     72  C   UNL A   1      43.351  32.896  31.893  1.00  0.00     0.058 A 
ATOM     73  C   UNL A   1      43.235  33.073  33.279  1.00  0.00     0.135 A 
ATOM     74  C   UNL A   1      43.554  34.038  31.103  1.00  0.00     0.135 A 
ATOM     75  F   UNL A   1      43.029  32.013  34.076  1.00  0.00    -0.206 F 
ATOM     76  C   UNL A   1      43.304  34.336  33.861  1.00  0.00     0.059 A 
ATOM     77  C   UNL A   1      43.650  35.308  31.663  1.00  0.00     0.059 A 
ATOM     78  F   UNL A   1      43.681  33.921  29.772  1.00  0.00    -0.206 F 
ATOM     79  C   UNL A   1      43.513  35.448  33.043  1.00  0.00     0.060 A 
BRANCH  79  80
ATOM     80  S   UNL A   1      43.654  37.077  33.810  1.00  0.00     0.124 S 
ATOM     81  O   UNL A   1      42.373  37.189  34.497  1.00  0.00    -0.237 OA
ATOM     82  O   UNL A   1      44.825  36.915  34.665  1.00  0.00    -0.237 OA
ATOM     83  O   UNL A   1      43.839  37.968  32.668  1.00  0.00    -0.744 OA
ENDBRANCH  79  80
ENDBRANCH  47  72
BRANCH  59  84
ATOM     84  C   UNL A   1      47.957  27.744  30.964  1.00  0.00     0.058 A 
ATOM     85  C   UNL A   1      48.951  28.121  30.048  1.00  0.00     0.135 A 
ATOM     86  C   UNL A   1      48.368  27.269  32.221  1.00  0.00     0.135 A 
ATOM     87  F   UNL A   1      48.611  28.577  28.832  1.00  0.00    -0.206 F 
ATOM     88  C   UNL A   1      50.303  28.002  30.354  1.00  0.00     0.059 A 
ATOM     89  C   UNL A   1      49.715  27.167  32.556  1.00  0.00     0.059 A 
ATOM     90  F   UNL A   1      47.458  26.909  33.138  1.00  0.00    -0.206 F 
ATOM     91  C   UNL A   1      50.675  27.518  31.610  1.00  0.00     0.060 A 
BRANCH  91  92
ATOM     92  S   UNL A   1      52.433  27.376  32.001  1.00  0.00     0.124 S 
ATOM     93  O   UNL A   1      52.632  25.933  31.932  1.00  0.00    -0.237 OA
ATOM     94  O   UNL A   1      53.057  28.154  30.934  1.00  0.00    -0.237 OA
ATOM     95  O   UNL A   1      52.531  27.963  33.334  1.00  0.00    -0.744 OA
ENDBRANCH  91  92
ENDBRANCH  59  84
ENDBRANCH  33  34
ENDBRANCH  26  28
ENDBRANCH  25  26
ENDBRANCH  24  25
ENDBRANCH  23  24
ENDBRANCH   1  23
TORSDOF 20
ENDMDL
MODEL 3
REMARK VINA RESULT:      -9.3      3.976     11.886
REMARK SMILES C=Cc1cccc(-c2ccc([C@@H](C)C(=O)OCCOCCOC(=O)c3ccc(-c4c5nc(c(-c6c(F)cc(S(=O)(=O)[O-])cc6F)c6ccc([nH]6)c(-c6c(F)cc(S(=O)(=O)[O-])cc6F)c6nc(c(-c7c(F)cc(S(=O)(=O)[O-])cc7F)c7ccc4[nH]7)C=C6)C=C5)cc3)cc2)c1
REMARK SMILES IDX 19 1 18 2 17 3 16 4 14 5 15 6 12 7 13 8 11 9 8 10 9 11 92 12
REMARK SMILES IDX 10 13 91 14 7 15 3 16 4 17 93 18 5 19 6 20 2 21 1 22 20 23
REMARK SMILES IDX 21 24 22 25 23 26 24 27 25 28 26 29 90 30 27 31 89 32 28 33
REMARK SMILES IDX 29 34 30 35 83 36 31 37 88 38 82 39 84 40 32 41 87 42 81 43
REMARK SMILES IDX 80 44 33 46 67 47 46 48 66 49 47 50 50 51 65 52 85 53 48 54
REMARK SMILES IDX 49 55 64 57 86 58 51 59 34 60 35 61 44 62 36 63 37 64 43 65
REMARK SMILES IDX 45 66 38 67 39 68 40 69 41 70 42 71 68 72 69 73 78 74 70 75
REMARK SMILES IDX 71 76 77 77 79 78 72 79 73 80 74 81 75 82 76 83 52 84 53 85
REMARK SMILES IDX 62 86 54 87 55 88 61 89 63 90 56 91 57 92 58 93 59 94 60 95
REMARK H PARENT 84 45 50 56
REMARK Flexibility Score: inf
ROOT
ATOM      1  O   UNL A   1      34.037  33.094  32.849  1.00  0.00    -0.374 OA
ENDROOT
BRANCH   1   2
ATOM      2  C   UNL A   1      33.842  34.509  32.879  1.00  0.00     0.202 C 
BRANCH   2   3
ATOM      3  C   UNL A   1      33.945  35.224  31.530  1.00  0.00     0.261 C 
BRANCH   3   4
ATOM      4  O   UNL A   1      32.841  34.869  30.675  1.00  0.00    -0.463 OA
BRANCH   4   5
ATOM      5  C   UNL A   1      32.986  35.159  29.356  1.00  0.00     0.313 C 
ATOM      6  O   UNL A   1      32.443  36.104  28.788  1.00  0.00    -0.252 OA
BRANCH   5   7
ATOM      7  C   UNL A   1      33.869  34.175  28.604  1.00  0.00     0.126 C 
ATOM      8  C   UNL A   1      34.723  34.938  27.595  1.00  0.00     0.025 C 
BRANCH   7   9
ATOM      9  C   UNL A   1      33.206  32.951  27.983  1.00  0.00    -0.034 A 
ATOM     10  C   UNL A   1      32.143  30.671  26.639  1.00  0.00    -0.018 A 
ATOM     11  C   UNL A   1      31.466  31.900  26.635  1.00  0.00     0.009 A 
ATOM     12  C   UNL A   1      33.336  30.589  27.369  1.00  0.00     0.009 A 
ATOM     13  C   UNL A   1      31.988  33.023  27.294  1.00  0.00     0.005 A 
ATOM     14  C   UNL A   1      33.860  31.708  28.029  1.00  0.00     0.005 A 
BRANCH  10  15
ATOM     15  C   UNL A   1      31.652  29.527  25.849  1.00  0.00    -0.018 A 
ATOM     16  C   UNL A   1      30.631  28.598  23.820  1.00  0.00    -0.026 A 
ATOM     17  C   UNL A   1      30.650  27.325  24.401  1.00  0.00     0.008 A 
ATOM     18  C   UNL A   1      31.122  29.691  24.555  1.00  0.00     0.016 A 
ATOM     19  C   UNL A   1      31.174  27.140  25.679  1.00  0.00     0.001 A 
ATOM     20  C   UNL A   1      31.671  28.232  26.393  1.00  0.00     0.009 A 
BRANCH  16  21
ATOM     21  C   UNL A   1      30.049  28.745  22.481  1.00  0.00     0.000 C 
ATOM     22  C   UNL A   1      29.741  29.922  21.922  1.00  0.00     0.009 C 
ENDBRANCH  16  21
ENDBRANCH  10  15
ENDBRANCH   7   9
ENDBRANCH   5   7
ENDBRANCH   4   5
ENDBRANCH   3   4
ENDBRANCH   2   3
ENDBRANCH   1   2
BRANCH   1  23
ATOM     23  C   UNL A   1      35.364  32.623  32.611  1.00  0.00     0.202 C 
BRANCH  23  24
ATOM     24  C   UNL A   1      35.582  31.813  31.329  1.00  0.00     0.261 C 
BRANCH  24  25
ATOM     25  O   UNL A   1      36.290  30.585  31.571  1.00  0.00    -0.460 OA
BRANCH  25  26
ATOM     26  C   UNL A   1      36.615  29.895  30.453  1.00  0.00     0.338 C 
ATOM     27  O   UNL A   1      35.841  29.365  29.666  1.00  0.00    -0.246 OA
BRANCH  26  28
ATOM     28  C   UNL A   1      38.062  29.989  30.183  1.00  0.00     0.060 A 
ATOM     29  C   UNL A   1      38.451  30.081  28.840  1.00  0.00     0.016 A 
ATOM     30  C   UNL A   1      39.022  29.891  31.194  1.00  0.00     0.016 A 
ATOM     31  C   UNL A   1      39.795  29.992  28.496  1.00  0.00     0.010 A 
ATOM     32  C   UNL A   1      40.376  29.799  30.845  1.00  0.00     0.010 A 
ATOM     33  C   UNL A   1      40.763  29.796  29.491  1.00  0.00    -0.014 A 
BRANCH  33  34
ATOM     34  C   UNL A   1      42.133  29.403  29.077  1.00  0.00     0.031 A 
ATOM     35  C   UNL A   1      42.374  27.991  28.608  1.00  0.00     0.074 A 
ATOM     36  C   UNL A   1      43.128  30.309  29.028  1.00  0.00     0.049 A 
ATOM     37  N   UNL A   1      43.465  27.451  28.129  1.00  0.00    -0.248 NA
ATOM     38  C   UNL A   1      41.231  27.068  28.686  1.00  0.00     0.031 C 
ATOM     39  C   UNL A   1      43.013  31.712  29.423  1.00  0.00     0.029 A 
ATOM     40  N   UNL A   1      44.429  30.182  28.612  1.00  0.00    -0.354 N 
ATOM     41  C   UNL A   1      43.141  26.128  27.845  1.00  0.00     0.074 A 
ATOM     42  C   UNL A   1      41.762  25.938  28.243  1.00  0.00     0.031 C 
ATOM     43  C   UNL A   1      44.196  32.319  29.227  1.00  0.00     0.029 A 
ATOM     44  C   UNL A   1      45.155  31.344  28.707  1.00  0.00     0.049 A 
ATOM     45  H   UNL A   1      44.807  29.337  28.276  1.00  0.00     0.167 HD
ATOM     46  C   UNL A   1      43.914  25.163  27.292  1.00  0.00     0.037 A 
ATOM     47  C   UNL A   1      46.446  31.594  28.410  1.00  0.00     0.037 A 
ATOM     48  C   UNL A   1      45.283  25.354  26.893  1.00  0.00     0.049 A 
ATOM     49  C   UNL A   1      47.299  30.494  27.832  1.00  0.00     0.074 A 
ATOM     50  C   UNL A   1      46.146  24.441  26.313  1.00  0.00     0.029 A 
ATOM     51  N   UNL A   1      45.990  26.538  27.033  1.00  0.00    -0.354 N 
ATOM     52  N   UNL A   1      46.969  29.256  27.550  1.00  0.00    -0.248 NA
ATOM     53  C   UNL A   1      48.696  30.830  27.521  1.00  0.00     0.031 C 
ATOM     54  C   UNL A   1      47.389  25.062  26.139  1.00  0.00     0.029 A 
ATOM     55  C   UNL A   1      47.285  26.375  26.568  1.00  0.00     0.049 A 
ATOM     56  H   UNL A   1      45.626  27.372  27.409  1.00  0.00     0.167 HD
ATOM     57  C   UNL A   1      48.109  28.674  27.002  1.00  0.00     0.074 A 
ATOM     58  C   UNL A   1      49.133  29.699  26.985  1.00  0.00     0.031 C 
ATOM     59  C   UNL A   1      48.292  27.407  26.553  1.00  0.00     0.037 A 
BRANCH  46  60
ATOM     60  C   UNL A   1      43.294  23.806  27.103  1.00  0.00     0.058 A 
ATOM     61  C   UNL A   1      43.263  22.859  28.139  1.00  0.00     0.135 A 
ATOM     62  C   UNL A   1      42.706  23.456  25.877  1.00  0.00     0.135 A 
ATOM     63  F   UNL A   1      43.827  23.135  29.325  1.00  0.00    -0.206 F 
ATOM     64  C   UNL A   1      42.695  21.601  27.957  1.00  0.00     0.059 A 
ATOM     65  C   UNL A   1      42.111  22.213  25.681  1.00  0.00     0.059 A 
ATOM     66  F   UNL A   1      42.711  24.324  24.853  1.00  0.00    -0.206 F 
ATOM     67  C   UNL A   1      42.124  21.287  26.723  1.00  0.00     0.060 A 
BRANCH  67  68
ATOM     68  S   UNL A   1      41.393  19.651  26.499  1.00  0.00     0.124 S 
ATOM     69  O   UNL A   1      41.437  19.125  27.860  1.00  0.00    -0.237 OA
ATOM     70  O   UNL A   1      40.065  19.969  25.985  1.00  0.00    -0.237 OA
ATOM     71  O   UNL A   1      42.292  19.005  25.549  1.00  0.00    -0.744 OA
ENDBRANCH  67  68
ENDBRANCH  46  60
BRANCH  47  72
ATOM     72  C   UNL A   1      47.013  32.947  28.648  1.00  0.00     0.058 A 
ATOM     73  C   UNL A   1      46.991  33.932  27.650  1.00  0.00     0.135 A 
ATOM     74  C   UNL A   1      47.591  33.281  29.883  1.00  0.00     0.135 A 
ATOM     75  F   UNL A   1      46.458  33.658  26.449  1.00  0.00    -0.206 F 
ATOM     76  C   UNL A   1      47.533  35.196  27.861  1.00  0.00     0.059 A 
ATOM     77  C   UNL A   1      48.120  34.544  30.126  1.00  0.00     0.059 A 
ATOM     78  F   UNL A   1      47.629  32.376  30.873  1.00  0.00    -0.206 F 
ATOM     79  C   UNL A   1      48.095  35.493  29.105  1.00  0.00     0.060 A 
BRANCH  79  80
ATOM     80  S   UNL A   1      48.750  37.152  29.389  1.00  0.00     0.124 S 
ATOM     81  O   UNL A   1      48.860  37.661  28.027  1.00  0.00    -0.237 OA
ATOM     82  O   UNL A   1      47.710  37.757  30.214  1.00  0.00    -0.237 OA
ATOM     83  O   UNL A   1      50.015  36.898  30.073  1.00  0.00    -0.744 OA
ENDBRANCH  79  80
ENDBRANCH  47  72
BRANCH  59  84
ATOM     84  C   UNL A   1      49.637  27.067  25.971  1.00  0.00     0.058 A 
ATOM     85  C   UNL A   1      50.686  26.584  26.768  1.00  0.00     0.135 A 
ATOM     86  C   UNL A   1      49.868  27.198  24.592  1.00  0.00     0.135 A 
ATOM     87  F   UNL A   1      50.518  26.444  28.093  1.00  0.00    -0.206 F 
ATOM     88  C   UNL A   1      51.928  26.273  26.224  1.00  0.00     0.059 A 
ATOM     89  C   UNL A   1      51.094  26.869  24.023  1.00  0.00     0.059 A 
ATOM     90  F   UNL A   1      48.894  27.642  23.783  1.00  0.00    -0.206 F 
ATOM     91  C   UNL A   1      52.124  26.424  24.850  1.00  0.00     0.060 A 
BRANCH  91  92
ATOM     92  S   UNL A   1      53.737  26.009  24.151  1.00  0.00     0.124 S 
ATOM     93  O   UNL A   1      54.585  27.040  24.740  1.00  0.00    -0.237 OA
ATOM     94  O   UNL A   1      53.954  24.652  24.643  1.00  0.00    -0.237 OA
ATOM     95  O   UNL A   1      53.520  26.119  22.712  1.00  0.00    -0.744 OA
ENDBRANCH  91  92
ENDBRANCH  59  84
ENDBRANCH  33  34
ENDBRANCH  26  28
ENDBRANCH  25  26
ENDBRANCH  24  25
ENDBRANCH  23  24
ENDBRANCH   1  23
TORSDOF 20
ENDMDL
