MODEL 1
REMARK VINA RESULT:      -9.8      0.000      0.000
REMARK SMILES Nc1ccc(Cl)c(SC[C@H]2CC[C@@H](C(=O)OCCOCCOC(=O)c3ccc(-c4c5nc(c(-c6c(F)cc(S(=O)(=O)[O-])cc6F)c6ccc([nH]6)c(-c6c(F)cc(S(=O)(=O)[O-])cc6F)c6nc(c(-c7c(F)cc(S(=O)(=O)[O-])cc7F)c7ccc4[nH]7)C=C6)C=C5)cc3)O2)c1
REMARK SMILES IDX 18 1 17 2 16 3 14 4 15 5 13 6 10 7 11 8 91 9 12 10 9 11 8 12
REMARK SMILES IDX 7 13 2 14 3 15 92 16 4 17 5 18 6 19 1 20 19 23 20 24 21 25
REMARK SMILES IDX 22 26 23 27 24 28 25 29 26 30 90 31 27 32 89 33 28 34 29 35
REMARK SMILES IDX 30 36 83 37 31 38 88 39 82 40 84 41 32 42 87 43 81 44 80 45
REMARK SMILES IDX 33 47 67 48 46 49 66 50 47 51 50 52 65 53 85 54 48 55 49 56
REMARK SMILES IDX 64 58 86 59 51 60 34 61 35 62 44 63 36 64 37 65 43 66 45 67
REMARK SMILES IDX 38 68 39 69 40 70 41 71 42 72 68 73 69 74 78 75 70 76 71 77
REMARK SMILES IDX 77 78 79 79 72 80 73 81 74 82 75 83 76 84 52 85 53 86 62 87
REMARK SMILES IDX 54 88 55 89 61 90 63 91 56 92 57 93 58 94 59 95 60 96
REMARK H PARENT 1 21 1 22 84 46 50 57
REMARK Flexibility Score: inf
ROOT
ATOM      1  C   UNL A   1      39.555  21.207  26.036  1.00  0.00     0.202 C 
ENDROOT
BRANCH   1   2
ATOM      2  C   UNL A   1      38.077  21.506  25.759  1.00  0.00     0.261 C 
BRANCH   2   3
ATOM      3  O   UNL A   1      37.884  22.789  25.136  1.00  0.00    -0.461 OA
BRANCH   3   4
ATOM      4  C   UNL A   1      36.809  22.887  24.305  1.00  0.00     0.335 C 
ATOM      5  O   UNL A   1      36.845  22.717  23.090  1.00  0.00    -0.249 OA
BRANCH   4   6
ATOM      6  C   UNL A   1      35.497  23.142  25.060  1.00  0.00     0.228 C 
ATOM      7  C   UNL A   1      33.874  24.545  25.957  1.00  0.00     0.129 C 
ATOM      8  C   UNL A   1      33.194  23.361  25.233  1.00  0.00     0.036 C 
ATOM      9  O   UNL A   1      35.265  24.460  25.591  1.00  0.00    -0.362 OA
ATOM     10  C   UNL A   1      34.247  22.875  24.257  1.00  0.00     0.047 C 
BRANCH   7  11
ATOM     11  C   UNL A   1      33.156  25.861  25.583  1.00  0.00     0.107 C 
BRANCH  11  12
ATOM     12  S   UNL A   1      33.789  27.345  24.674  1.00  0.00    -0.122 SA
BRANCH  12  13
ATOM     13  C   UNL A   1      33.095  28.824  25.389  1.00  0.00     0.028 A 
ATOM     14  C   UNL A   1      33.205  30.538  27.125  1.00  0.00     0.033 A 
ATOM     15  C   UNL A   1      32.021  31.099  26.651  1.00  0.00     0.027 A 
ATOM     16  C   UNL A   1      33.756  29.439  26.456  1.00  0.00     0.042 A 
ATOM     17  C   UNL A   1      31.311  30.472  25.631  1.00  0.00     0.024 A 
ATOM     18  C   UNL A   1      31.815  29.307  25.044  1.00  0.00     0.054 A 
ATOM     19  Cl  UNL A   1      30.765  28.499  23.926  1.00  0.00    -0.083 Cl
BRANCH  14  20
ATOM     20  N   UNL A   1      33.883  31.118  28.185  1.00  0.00    -0.399 N 
ATOM     21  H   UNL A   1      33.905  32.097  28.278  1.00  0.00     0.156 HD
ATOM     22  H   UNL A   1      34.344  30.550  28.844  1.00  0.00     0.156 HD
ENDBRANCH  14  20
ENDBRANCH  12  13
ENDBRANCH  11  12
ENDBRANCH   7  11
ENDBRANCH   4   6
ENDBRANCH   3   4
ENDBRANCH   2   3
ENDBRANCH   1   2
BRANCH   1  23
ATOM     23  O   UNL A   1      40.049  21.365  27.362  1.00  0.00    -0.374 OA
BRANCH  23  24
ATOM     24  C   UNL A   1      41.084  22.311  27.584  1.00  0.00     0.202 C 
BRANCH  24  25
ATOM     25  C   UNL A   1      41.377  23.385  26.526  1.00  0.00     0.261 C 
BRANCH  25  26
ATOM     26  O   UNL A   1      40.507  24.505  26.485  1.00  0.00    -0.460 OA
BRANCH  26  27
ATOM     27  C   UNL A   1      41.129  25.672  26.201  1.00  0.00     0.338 C 
ATOM     28  O   UNL A   1      41.664  26.029  25.167  1.00  0.00    -0.246 OA
BRANCH  27  29
ATOM     29  C   UNL A   1      40.976  26.504  27.387  1.00  0.00     0.060 A 
ATOM     30  C   UNL A   1      39.981  26.168  28.306  1.00  0.00     0.016 A 
ATOM     31  C   UNL A   1      41.856  27.567  27.599  1.00  0.00     0.016 A 
ATOM     32  C   UNL A   1      39.871  26.902  29.476  1.00  0.00     0.010 A 
ATOM     33  C   UNL A   1      41.740  28.304  28.769  1.00  0.00     0.010 A 
ATOM     34  C   UNL A   1      40.746  27.972  29.706  1.00  0.00    -0.014 A 
BRANCH  34  35
ATOM     35  C   UNL A   1      40.595  28.792  30.918  1.00  0.00     0.031 A 
ATOM     36  C   UNL A   1      39.568  29.878  30.927  1.00  0.00     0.074 A 
ATOM     37  C   UNL A   1      41.396  28.555  31.970  1.00  0.00     0.049 A 
ATOM     38  N   UNL A   1      39.323  30.770  31.847  1.00  0.00    -0.248 NA
ATOM     39  C   UNL A   1      38.706  29.982  29.736  1.00  0.00     0.031 C 
ATOM     40  C   UNL A   1      42.407  27.497  32.038  1.00  0.00     0.029 A 
ATOM     41  N   UNL A   1      41.497  29.195  33.175  1.00  0.00    -0.354 N 
ATOM     42  C   UNL A   1      38.286  31.547  31.347  1.00  0.00     0.074 A 
ATOM     43  C   UNL A   1      37.969  31.042  30.030  1.00  0.00     0.031 C 
ATOM     44  C   UNL A   1      43.036  27.571  33.221  1.00  0.00     0.029 A 
ATOM     45  C   UNL A   1      42.503  28.704  33.971  1.00  0.00     0.049 A 
ATOM     46  H   UNL A   1      40.908  29.936  33.445  1.00  0.00     0.167 HD
ATOM     47  C   UNL A   1      37.659  32.584  31.948  1.00  0.00     0.037 A 
ATOM     48  C   UNL A   1      42.960  29.150  35.157  1.00  0.00     0.037 A 
ATOM     49  C   UNL A   1      38.010  33.064  33.259  1.00  0.00     0.049 A 
ATOM     50  C   UNL A   1      42.292  30.350  35.771  1.00  0.00     0.074 A 
ATOM     51  C   UNL A   1      37.432  34.088  33.984  1.00  0.00     0.029 A 
ATOM     52  N   UNL A   1      39.047  32.558  34.033  1.00  0.00    -0.354 N 
ATOM     53  N   UNL A   1      41.282  31.053  35.314  1.00  0.00    -0.248 NA
ATOM     54  C   UNL A   1      42.824  30.823  37.055  1.00  0.00     0.031 C 
ATOM     55  C   UNL A   1      38.157  34.241  35.170  1.00  0.00     0.029 A 
ATOM     56  C   UNL A   1      39.149  33.273  35.213  1.00  0.00     0.049 A 
ATOM     57  H   UNL A   1      39.624  31.801  33.781  1.00  0.00     0.167 HD
ATOM     58  C   UNL A   1      41.045  32.042  36.261  1.00  0.00     0.074 A 
ATOM     59  C   UNL A   1      42.007  31.832  37.326  1.00  0.00     0.031 C 
ATOM     60  C   UNL A   1      40.122  33.036  36.254  1.00  0.00     0.037 A 
BRANCH  47  61
ATOM     61  C   UNL A   1      36.565  33.278  31.187  1.00  0.00     0.058 A 
ATOM     62  C   UNL A   1      36.837  34.096  30.078  1.00  0.00     0.135 A 
ATOM     63  C   UNL A   1      35.221  33.102  31.554  1.00  0.00     0.135 A 
ATOM     64  F   UNL A   1      38.104  34.319  29.694  1.00  0.00    -0.206 F 
ATOM     65  C   UNL A   1      35.817  34.732  29.375  1.00  0.00     0.059 A 
ATOM     66  C   UNL A   1      34.185  33.704  30.848  1.00  0.00     0.059 A 
ATOM     67  F   UNL A   1      34.905  32.338  32.612  1.00  0.00    -0.206 F 
ATOM     68  C   UNL A   1      34.493  34.527  29.766  1.00  0.00     0.060 A 
BRANCH  68  69
ATOM     69  S   UNL A   1      33.183  35.344  28.832  1.00  0.00     0.124 S 
ATOM     70  O   UNL A   1      32.614  34.225  28.086  1.00  0.00    -0.237 OA
ATOM     71  O   UNL A   1      32.343  35.892  29.891  1.00  0.00    -0.237 OA
ATOM     72  O   UNL A   1      33.900  36.332  28.031  1.00  0.00    -0.744 OA
ENDBRANCH  68  69
ENDBRANCH  47  61
BRANCH  48  73
ATOM     73  C   UNL A   1      44.109  28.473  35.813  1.00  0.00     0.058 A 
ATOM     74  C   UNL A   1      45.428  28.866  35.548  1.00  0.00     0.135 A 
ATOM     75  C   UNL A   1      43.911  27.434  36.738  1.00  0.00     0.135 A 
ATOM     76  F   UNL A   1      45.672  29.850  34.669  1.00  0.00    -0.206 F 
ATOM     77  C   UNL A   1      46.511  28.247  36.165  1.00  0.00     0.059 A 
ATOM     78  C   UNL A   1      44.975  26.819  37.389  1.00  0.00     0.059 A 
ATOM     79  F   UNL A   1      42.667  27.029  37.041  1.00  0.00    -0.206 F 
ATOM     80  C   UNL A   1      46.274  27.227  37.088  1.00  0.00     0.060 A 
BRANCH  80  81
ATOM     81  S   UNL A   1      47.685  26.464  37.918  1.00  0.00     0.124 S 
ATOM     82  O   UNL A   1      48.233  27.592  38.662  1.00  0.00    -0.237 OA
ATOM     83  O   UNL A   1      47.043  25.424  38.716  1.00  0.00    -0.237 OA
ATOM     84  O   UNL A   1      48.504  25.979  36.812  1.00  0.00    -0.744 OA
ENDBRANCH  80  81
ENDBRANCH  48  73
BRANCH  60  85
ATOM     85  C   UNL A   1      40.100  33.963  37.436  1.00  0.00     0.058 A 
ATOM     86  C   UNL A   1      39.332  33.678  38.575  1.00  0.00     0.135 A 
ATOM     87  C   UNL A   1      40.916  35.105  37.459  1.00  0.00     0.135 A 
ATOM     88  F   UNL A   1      38.527  32.605  38.598  1.00  0.00    -0.206 F 
ATOM     89  C   UNL A   1      39.369  34.499  39.696  1.00  0.00     0.059 A 
ATOM     90  C   UNL A   1      40.993  35.923  38.581  1.00  0.00     0.059 A 
ATOM     91  F   UNL A   1      41.675  35.416  36.396  1.00  0.00    -0.206 F 
ATOM     92  C   UNL A   1      40.211  35.614  39.693  1.00  0.00     0.060 A 
BRANCH  92  93
ATOM     93  S   UNL A   1      40.294  36.633  41.180  1.00  0.00     0.124 S 
ATOM     94  O   UNL A   1      40.204  35.626  42.233  1.00  0.00    -0.237 OA
ATOM     95  O   UNL A   1      41.593  37.285  41.035  1.00  0.00    -0.237 OA
ATOM     96  O   UNL A   1      39.138  37.515  41.053  1.00  0.00    -0.744 OA
ENDBRANCH  92  93
ENDBRANCH  60  85
ENDBRANCH  34  35
ENDBRANCH  27  29
ENDBRANCH  26  27
ENDBRANCH  25  26
ENDBRANCH  24  25
ENDBRANCH  23  24
ENDBRANCH   1  23
TORSDOF 21
ENDMDL
MODEL 2
REMARK VINA RESULT:      -9.8      1.310      8.460
REMARK SMILES Nc1ccc(Cl)c(SC[C@H]2CC[C@@H](C(=O)OCCOCCOC(=O)c3ccc(-c4c5nc(c(-c6c(F)cc(S(=O)(=O)[O-])cc6F)c6ccc([nH]6)c(-c6c(F)cc(S(=O)(=O)[O-])cc6F)c6nc(c(-c7c(F)cc(S(=O)(=O)[O-])cc7F)c7ccc4[nH]7)C=C6)C=C5)cc3)O2)c1
REMARK SMILES IDX 18 1 17 2 16 3 14 4 15 5 13 6 10 7 11 8 91 9 12 10 9 11 8 12
REMARK SMILES IDX 7 13 2 14 3 15 92 16 4 17 5 18 6 19 1 20 19 23 20 24 21 25
REMARK SMILES IDX 22 26 23 27 24 28 25 29 26 30 90 31 27 32 89 33 28 34 29 35
REMARK SMILES IDX 30 36 83 37 31 38 88 39 82 40 84 41 32 42 87 43 81 44 80 45
REMARK SMILES IDX 33 47 67 48 46 49 66 50 47 51 50 52 65 53 85 54 48 55 49 56
REMARK SMILES IDX 64 58 86 59 51 60 34 61 35 62 44 63 36 64 37 65 43 66 45 67
REMARK SMILES IDX 38 68 39 69 40 70 41 71 42 72 68 73 69 74 78 75 70 76 71 77
REMARK SMILES IDX 77 78 79 79 72 80 73 81 74 82 75 83 76 84 52 85 53 86 62 87
REMARK SMILES IDX 54 88 55 89 61 90 63 91 56 92 57 93 58 94 59 95 60 96
REMARK H PARENT 1 21 1 22 84 46 50 57
REMARK Flexibility Score: inf
ROOT
ATOM      1  C   UNL A   1      38.728  20.865  25.879  1.00  0.00     0.202 C 
ENDROOT
BRANCH   1   2
ATOM      2  C   UNL A   1      37.856  20.238  24.786  1.00  0.00     0.261 C 
BRANCH   2   3
ATOM      3  O   UNL A   1      36.449  20.352  25.074  1.00  0.00    -0.461 OA
BRANCH   3   4
ATOM      4  C   UNL A   1      35.870  21.536  24.730  1.00  0.00     0.335 C 
ATOM      5  O   UNL A   1      36.411  22.414  24.066  1.00  0.00    -0.249 OA
BRANCH   4   6
ATOM      6  C   UNL A   1      34.405  21.632  25.181  1.00  0.00     0.228 C 
ATOM      7  C   UNL A   1      32.303  22.626  25.159  1.00  0.00     0.129 C 
ATOM      8  C   UNL A   1      32.151  21.089  25.091  1.00  0.00     0.036 C 
ATOM      9  O   UNL A   1      33.709  22.873  24.964  1.00  0.00    -0.362 OA
ATOM     10  C   UNL A   1      33.485  20.613  24.552  1.00  0.00     0.047 C 
BRANCH   7  11
ATOM     11  C   UNL A   1      31.352  23.285  24.137  1.00  0.00     0.107 C 
BRANCH  11  12
ATOM     12  S   UNL A   1      30.675  25.008  24.080  1.00  0.00    -0.122 SA
BRANCH  12  13
ATOM     13  C   UNL A   1      31.680  26.079  25.092  1.00  0.00     0.028 A 
ATOM     14  C   UNL A   1      31.843  27.535  27.046  1.00  0.00     0.033 A 
ATOM     15  C   UNL A   1      33.152  27.861  26.698  1.00  0.00     0.027 A 
ATOM     16  C   UNL A   1      31.141  26.607  26.268  1.00  0.00     0.042 A 
ATOM     17  C   UNL A   1      33.692  27.400  25.501  1.00  0.00     0.024 A 
ATOM     18  C   UNL A   1      32.938  26.561  24.672  1.00  0.00     0.054 A 
ATOM     19  Cl  UNL A   1      33.623  26.203  23.121  1.00  0.00    -0.083 Cl
BRANCH  14  20
ATOM     20  N   UNL A   1      31.274  28.045  28.201  1.00  0.00    -0.399 N 
ATOM     21  H   UNL A   1      31.404  28.992  28.436  1.00  0.00     0.156 HD
ATOM     22  H   UNL A   1      30.740  27.461  28.786  1.00  0.00     0.156 HD
ENDBRANCH  14  20
ENDBRANCH  12  13
ENDBRANCH  11  12
ENDBRANCH   7  11
ENDBRANCH   4   6
ENDBRANCH   3   4
ENDBRANCH   2   3
ENDBRANCH   1   2
BRANCH   1  23
ATOM     23  O   UNL A   1      40.060  20.392  26.049  1.00  0.00    -0.374 OA
BRANCH  23  24
ATOM     24  C   UNL A   1      40.953  21.168  26.834  1.00  0.00     0.202 C 
BRANCH  24  25
ATOM     25  C   UNL A   1      41.528  22.475  26.270  1.00  0.00     0.261 C 
BRANCH  25  26
ATOM     26  O   UNL A   1      40.973  23.687  26.754  1.00  0.00    -0.460 OA
BRANCH  26  27
ATOM     27  C   UNL A   1      41.670  24.790  26.398  1.00  0.00     0.338 C 
ATOM     28  O   UNL A   1      42.266  25.025  25.362  1.00  0.00    -0.246 OA
BRANCH  27  29
ATOM     29  C   UNL A   1      41.518  25.731  27.500  1.00  0.00     0.060 A 
ATOM     30  C   UNL A   1      42.459  26.753  27.631  1.00  0.00     0.016 A 
ATOM     31  C   UNL A   1      40.416  25.621  28.350  1.00  0.00     0.016 A 
ATOM     32  C   UNL A   1      42.287  27.702  28.626  1.00  0.00     0.010 A 
ATOM     33  C   UNL A   1      40.250  26.569  29.350  1.00  0.00     0.010 A 
ATOM     34  C   UNL A   1      41.187  27.608  29.488  1.00  0.00    -0.014 A 
BRANCH  34  35
ATOM     35  C   UNL A   1      41.033  28.577  30.584  1.00  0.00     0.031 A 
ATOM     36  C   UNL A   1      41.898  28.437  31.795  1.00  0.00     0.074 A 
ATOM     37  C   UNL A   1      40.107  29.545  30.474  1.00  0.00     0.049 A 
ATOM     38  N   UNL A   1      41.875  29.119  32.906  1.00  0.00    -0.248 NA
ATOM     39  C   UNL A   1      42.922  27.378  31.755  1.00  0.00     0.031 C 
ATOM     40  C   UNL A   1      39.241  29.754  29.311  1.00  0.00     0.029 A 
ATOM     41  N   UNL A   1      39.730  30.521  31.355  1.00  0.00    -0.354 N 
ATOM     42  C   UNL A   1      42.872  28.571  33.702  1.00  0.00     0.074 A 
ATOM     43  C   UNL A   1      43.462  27.480  32.959  1.00  0.00     0.031 C 
ATOM     44  C   UNL A   1      38.423  30.789  29.558  1.00  0.00     0.029 A 
ATOM     45  C   UNL A   1      38.678  31.283  30.908  1.00  0.00     0.049 A 
ATOM     46  H   UNL A   1      40.169  30.664  32.224  1.00  0.00     0.167 HD
ATOM     47  C   UNL A   1      43.256  28.959  34.939  1.00  0.00     0.037 A 
ATOM     48  C   UNL A   1      37.981  32.246  31.539  1.00  0.00     0.037 A 
ATOM     49  C   UNL A   1      42.637  30.048  35.651  1.00  0.00     0.049 A 
ATOM     50  C   UNL A   1      38.382  32.611  32.943  1.00  0.00     0.074 A 
ATOM     51  C   UNL A   1      42.955  30.552  36.897  1.00  0.00     0.029 A 
ATOM     52  N   UNL A   1      41.561  30.788  35.179  1.00  0.00    -0.354 N 
ATOM     53  N   UNL A   1      39.355  32.119  33.674  1.00  0.00    -0.248 NA
ATOM     54  C   UNL A   1      37.592  33.651  33.612  1.00  0.00     0.031 C 
ATOM     55  C   UNL A   1      42.033  31.557  37.205  1.00  0.00     0.029 A 
ATOM     56  C   UNL A   1      41.177  31.722  36.125  1.00  0.00     0.049 A 
ATOM     57  H   UNL A   1      41.134  30.668  34.300  1.00  0.00     0.167 HD
ATOM     58  C   UNL A   1      39.307  32.802  34.883  1.00  0.00     0.074 A 
ATOM     59  C   UNL A   1      38.219  33.755  34.776  1.00  0.00     0.031 C 
ATOM     60  C   UNL A   1      40.086  32.656  35.985  1.00  0.00     0.037 A 
BRANCH  47  61
ATOM     61  C   UNL A   1      44.363  28.190  35.603  1.00  0.00     0.058 A 
ATOM     62  C   UNL A   1      44.106  27.074  36.416  1.00  0.00     0.135 A 
ATOM     63  C   UNL A   1      45.703  28.558  35.404  1.00  0.00     0.135 A 
ATOM     64  F   UNL A   1      42.843  26.689  36.660  1.00  0.00    -0.206 F 
ATOM     65  C   UNL A   1      45.138  26.363  37.024  1.00  0.00     0.059 A 
ATOM     66  C   UNL A   1      46.751  27.845  35.978  1.00  0.00     0.059 A 
ATOM     67  F   UNL A   1      46.005  29.623  34.645  1.00  0.00    -0.206 F 
ATOM     68  C   UNL A   1      46.457  26.755  36.796  1.00  0.00     0.060 A 
BRANCH  68  69
ATOM     69  S   UNL A   1      47.783  25.811  37.578  1.00  0.00     0.124 S 
ATOM     70  O   UNL A   1      47.875  26.463  38.882  1.00  0.00    -0.237 OA
ATOM     71  O   UNL A   1      47.238  24.459  37.584  1.00  0.00    -0.237 OA
ATOM     72  O   UNL A   1      48.922  26.023  36.690  1.00  0.00    -0.744 OA
ENDBRANCH  68  69
ENDBRANCH  47  61
BRANCH  48  73
ATOM     73  C   UNL A   1      36.836  32.904  30.858  1.00  0.00     0.058 A 
ATOM     74  C   UNL A   1      35.513  32.558  31.168  1.00  0.00     0.135 A 
ATOM     75  C   UNL A   1      37.038  33.910  29.898  1.00  0.00     0.135 A 
ATOM     76  F   UNL A   1      35.265  31.600  32.075  1.00  0.00    -0.206 F 
ATOM     77  C   UNL A   1      34.432  33.175  30.546  1.00  0.00     0.059 A 
ATOM     78  C   UNL A   1      35.975  34.561  29.282  1.00  0.00     0.059 A 
ATOM     79  F   UNL A   1      38.285  34.291  29.574  1.00  0.00    -0.206 F 
ATOM     80  C   UNL A   1      34.674  34.179  29.606  1.00  0.00     0.060 A 
BRANCH  80  81
ATOM     81  S   UNL A   1      33.263  35.006  28.839  1.00  0.00     0.124 S 
ATOM     82  O   UNL A   1      33.895  36.177  28.247  1.00  0.00    -0.237 OA
ATOM     83  O   UNL A   1      32.790  33.992  27.902  1.00  0.00    -0.237 OA
ATOM     84  O   UNL A   1      32.374  35.269  29.967  1.00  0.00    -0.744 OA
ENDBRANCH  80  81
ENDBRANCH  48  73
BRANCH  60  85
ATOM     85  C   UNL A   1      39.797  33.553  37.155  1.00  0.00     0.058 A 
ATOM     86  C   UNL A   1      38.935  33.154  38.187  1.00  0.00     0.135 A 
ATOM     87  C   UNL A   1      40.452  34.788  37.283  1.00  0.00     0.135 A 
ATOM     88  F   UNL A   1      38.276  31.988  38.107  1.00  0.00    -0.206 F 
ATOM     89  C   UNL A   1      38.725  33.954  39.305  1.00  0.00     0.059 A 
ATOM     90  C   UNL A   1      40.282  35.590  38.407  1.00  0.00     0.059 A 
ATOM     91  F   UNL A   1      41.293  35.211  36.325  1.00  0.00    -0.206 F 
ATOM     92  C   UNL A   1      39.412  35.166  39.409  1.00  0.00     0.060 A 
BRANCH  92  93
ATOM     93  S   UNL A   1      39.177  36.162  40.896  1.00  0.00     0.124 S 
ATOM     94  O   UNL A   1      39.282  37.516  40.363  1.00  0.00    -0.237 OA
ATOM     95  O   UNL A   1      37.845  35.755  41.334  1.00  0.00    -0.237 OA
ATOM     96  O   UNL A   1      40.272  35.742  41.764  1.00  0.00    -0.744 OA
ENDBRANCH  92  93
ENDBRANCH  60  85
ENDBRANCH  34  35
ENDBRANCH  27  29
ENDBRANCH  26  27
ENDBRANCH  25  26
ENDBRANCH  24  25
ENDBRANCH  23  24
ENDBRANCH   1  23
TORSDOF 21
ENDMDL
MODEL 3
REMARK VINA RESULT:      -9.8      1.307      2.405
REMARK SMILES Nc1ccc(Cl)c(SC[C@H]2CC[C@@H](C(=O)OCCOCCOC(=O)c3ccc(-c4c5nc(c(-c6c(F)cc(S(=O)(=O)[O-])cc6F)c6ccc([nH]6)c(-c6c(F)cc(S(=O)(=O)[O-])cc6F)c6nc(c(-c7c(F)cc(S(=O)(=O)[O-])cc7F)c7ccc4[nH]7)C=C6)C=C5)cc3)O2)c1
REMARK SMILES IDX 18 1 17 2 16 3 14 4 15 5 13 6 10 7 11 8 91 9 12 10 9 11 8 12
REMARK SMILES IDX 7 13 2 14 3 15 92 16 4 17 5 18 6 19 1 20 19 23 20 24 21 25
REMARK SMILES IDX 22 26 23 27 24 28 25 29 26 30 90 31 27 32 89 33 28 34 29 35
REMARK SMILES IDX 30 36 83 37 31 38 88 39 82 40 84 41 32 42 87 43 81 44 80 45
REMARK SMILES IDX 33 47 67 48 46 49 66 50 47 51 50 52 65 53 85 54 48 55 49 56
REMARK SMILES IDX 64 58 86 59 51 60 34 61 35 62 44 63 36 64 37 65 43 66 45 67
REMARK SMILES IDX 38 68 39 69 40 70 41 71 42 72 68 73 69 74 78 75 70 76 71 77
REMARK SMILES IDX 77 78 79 79 72 80 73 81 74 82 75 83 76 84 52 85 53 86 62 87
REMARK SMILES IDX 54 88 55 89 61 90 63 91 56 92 57 93 58 94 59 95 60 96
REMARK H PARENT 1 21 1 22 84 46 50 57
REMARK Flexibility Score: inf
ROOT
ATOM      1  C   UNL A   1      41.954  20.323  26.633  1.00  0.00     0.202 C 
ENDROOT
BRANCH   1   2
ATOM      2  C   UNL A   1      40.446  20.087  26.490  1.00  0.00     0.261 C 
BRANCH   2   3
ATOM      3  O   UNL A   1      39.831  21.014  25.575  1.00  0.00    -0.461 OA
BRANCH   3   4
ATOM      4  C   UNL A   1      39.135  22.035  26.149  1.00  0.00     0.335 C 
ATOM      5  O   UNL A   1      39.639  22.963  26.773  1.00  0.00    -0.249 OA
BRANCH   4   6
ATOM      6  C   UNL A   1      37.630  21.965  25.853  1.00  0.00     0.228 C 
ATOM      7  C   UNL A   1      35.674  22.797  24.909  1.00  0.00     0.129 C 
ATOM      8  C   UNL A   1      35.765  21.274  24.659  1.00  0.00     0.036 C 
ATOM      9  O   UNL A   1      36.965  23.170  25.428  1.00  0.00    -0.362 OA
ATOM     10  C   UNL A   1      37.244  20.970  24.785  1.00  0.00     0.047 C 
BRANCH   7  11
ATOM     11  C   UNL A   1      35.234  23.509  23.611  1.00  0.00     0.107 C 
BRANCH  11  12
ATOM     12  S   UNL A   1      33.607  24.273  23.166  1.00  0.00    -0.122 SA
BRANCH  12  13
ATOM     13  C   UNL A   1      33.369  25.767  24.109  1.00  0.00     0.028 A 
ATOM     14  C   UNL A   1      33.596  28.195  24.242  1.00  0.00     0.033 A 
ATOM     15  C   UNL A   1      33.128  28.170  25.554  1.00  0.00     0.027 A 
ATOM     16  C   UNL A   1      33.661  26.999  23.518  1.00  0.00     0.042 A 
ATOM     17  C   UNL A   1      32.890  26.954  26.188  1.00  0.00     0.024 A 
ATOM     18  C   UNL A   1      33.068  25.756  25.488  1.00  0.00     0.054 A 
ATOM     19  Cl  UNL A   1      32.936  24.300  26.419  1.00  0.00    -0.083 Cl
BRANCH  14  20
ATOM     20  N   UNL A   1      33.901  29.398  23.626  1.00  0.00    -0.399 N 
ATOM     21  H   UNL A   1      33.280  30.158  23.698  1.00  0.00     0.156 HD
ATOM     22  H   UNL A   1      34.738  29.492  23.118  1.00  0.00     0.156 HD
ENDBRANCH  14  20
ENDBRANCH  12  13
ENDBRANCH  11  12
ENDBRANCH   7  11
ENDBRANCH   4   6
ENDBRANCH   3   4
ENDBRANCH   2   3
ENDBRANCH   1   2
BRANCH   1  23
ATOM     23  O   UNL A   1      42.624  21.094  25.641  1.00  0.00    -0.374 OA
BRANCH  23  24
ATOM     24  C   UNL A   1      43.353  22.239  26.060  1.00  0.00     0.202 C 
BRANCH  24  25
ATOM     25  C   UNL A   1      42.900  23.637  25.617  1.00  0.00     0.261 C 
BRANCH  25  26
ATOM     26  O   UNL A   1      42.387  24.499  26.620  1.00  0.00    -0.460 OA
BRANCH  26  27
ATOM     27  C   UNL A   1      41.988  25.704  26.156  1.00  0.00     0.338 C 
ATOM     28  O   UNL A   1      41.802  26.066  25.007  1.00  0.00    -0.246 OA
BRANCH  27  29
ATOM     29  C   UNL A   1      41.733  26.521  27.335  1.00  0.00     0.060 A 
ATOM     30  C   UNL A   1      40.760  26.091  28.239  1.00  0.00     0.016 A 
ATOM     31  C   UNL A   1      42.499  27.667  27.555  1.00  0.00     0.016 A 
ATOM     32  C   UNL A   1      40.558  26.815  29.403  1.00  0.00     0.010 A 
ATOM     33  C   UNL A   1      42.290  28.393  28.719  1.00  0.00     0.010 A 
ATOM     34  C   UNL A   1      41.319  27.967  29.641  1.00  0.00    -0.014 A 
BRANCH  34  35
ATOM     35  C   UNL A   1      41.066  28.772  30.846  1.00  0.00     0.031 A 
ATOM     36  C   UNL A   1      39.969  29.788  30.815  1.00  0.00     0.074 A 
ATOM     37  C   UNL A   1      41.838  28.586  31.930  1.00  0.00     0.049 A 
ATOM     38  N   UNL A   1      39.630  30.659  31.725  1.00  0.00    -0.248 NA
ATOM     39  C   UNL A   1      39.151  29.838  29.591  1.00  0.00     0.031 C 
ATOM     40  C   UNL A   1      42.914  27.597  32.037  1.00  0.00     0.029 A 
ATOM     41  N   UNL A   1      41.850  29.229  33.137  1.00  0.00    -0.354 N 
ATOM     42  C   UNL A   1      38.565  31.368  31.184  1.00  0.00     0.074 A 
ATOM     43  C   UNL A   1      38.334  30.846  29.855  1.00  0.00     0.031 C 
ATOM     44  C   UNL A   1      43.490  27.709  33.244  1.00  0.00     0.029 A 
ATOM     45  C   UNL A   1      42.854  28.803  33.972  1.00  0.00     0.049 A 
ATOM     46  H   UNL A   1      41.202  29.928  33.384  1.00  0.00     0.167 HD
ATOM     47  C   UNL A   1      37.847  32.359  31.759  1.00  0.00     0.037 A 
ATOM     48  C   UNL A   1      43.233  29.274  35.175  1.00  0.00     0.037 A 
ATOM     49  C   UNL A   1      38.114  32.858  33.084  1.00  0.00     0.049 A 
ATOM     50  C   UNL A   1      42.464  30.427  35.763  1.00  0.00     0.074 A 
ATOM     51  C   UNL A   1      37.441  33.839  33.785  1.00  0.00     0.029 A 
ATOM     52  N   UNL A   1      39.151  32.419  33.898  1.00  0.00    -0.354 N 
ATOM     53  N   UNL A   1      41.429  31.062  35.266  1.00  0.00    -0.248 NA
ATOM     54  C   UNL A   1      42.912  30.930  37.067  1.00  0.00     0.031 C 
ATOM     55  C   UNL A   1      38.107  34.037  34.999  1.00  0.00     0.029 A 
ATOM     56  C   UNL A   1      39.159  33.137  35.081  1.00  0.00     0.049 A 
ATOM     57  H   UNL A   1      39.786  31.703  33.668  1.00  0.00     0.167 HD
ATOM     58  C   UNL A   1      41.090  32.031  36.203  1.00  0.00     0.074 A 
ATOM     59  C   UNL A   1      42.021  31.882  37.306  1.00  0.00     0.031 C 
ATOM     60  C   UNL A   1      40.104  32.962  36.159  1.00  0.00     0.037 A 
BRANCH  47  61
ATOM     61  C   UNL A   1      36.741  32.981  30.956  1.00  0.00     0.058 A 
ATOM     62  C   UNL A   1      35.389  32.709  31.220  1.00  0.00     0.135 A 
ATOM     63  C   UNL A   1      37.034  33.884  29.921  1.00  0.00     0.135 A 
ATOM     64  F   UNL A   1      35.049  31.837  32.183  1.00  0.00    -0.206 F 
ATOM     65  C   UNL A   1      34.368  33.293  30.474  1.00  0.00     0.059 A 
ATOM     66  C   UNL A   1      36.031  34.502  29.182  1.00  0.00     0.059 A 
ATOM     67  F   UNL A   1      38.310  34.172  29.619  1.00  0.00    -0.206 F 
ATOM     68  C   UNL A   1      34.700  34.191  29.459  1.00  0.00     0.060 A 
BRANCH  68  69
ATOM     69  S   UNL A   1      33.364  34.953  28.513  1.00  0.00     0.124 S 
ATOM     70  O   UNL A   1      34.100  35.900  27.680  1.00  0.00    -0.237 OA
ATOM     71  O   UNL A   1      32.788  33.810  27.815  1.00  0.00    -0.237 OA
ATOM     72  O   UNL A   1      32.516  35.550  29.541  1.00  0.00    -0.744 OA
ENDBRANCH  68  69
ENDBRANCH  47  61
BRANCH  48  73
ATOM     73  C   UNL A   1      44.398  28.673  35.877  1.00  0.00     0.058 A 
ATOM     74  C   UNL A   1      44.229  27.618  36.784  1.00  0.00     0.135 A 
ATOM     75  C   UNL A   1      45.706  29.126  35.638  1.00  0.00     0.135 A 
ATOM     76  F   UNL A   1      43.000  27.152  37.052  1.00  0.00    -0.206 F 
ATOM     77  C   UNL A   1      45.313  27.039  37.439  1.00  0.00     0.059 A 
ATOM     78  C   UNL A   1      46.807  28.545  36.258  1.00  0.00     0.059 A 
ATOM     79  F   UNL A   1      45.925  30.124  34.766  1.00  0.00    -0.206 F 
ATOM     80  C   UNL A   1      46.599  27.508  37.165  1.00  0.00     0.060 A 
BRANCH  80  81
ATOM     81  S   UNL A   1      48.001  26.717  37.985  1.00  0.00     0.124 S 
ATOM     82  O   UNL A   1      49.043  26.847  36.974  1.00  0.00    -0.237 OA
ATOM     83  O   UNL A   1      48.161  27.543  39.178  1.00  0.00    -0.237 OA
ATOM     84  O   UNL A   1      47.525  25.359  38.231  1.00  0.00    -0.744 OA
ENDBRANCH  80  81
ENDBRANCH  48  73
BRANCH  60  85
ATOM     85  C   UNL A   1      39.974  33.882  37.339  1.00  0.00     0.058 A 
ATOM     86  C   UNL A   1      40.675  35.096  37.402  1.00  0.00     0.135 A 
ATOM     87  C   UNL A   1      39.078  33.584  38.378  1.00  0.00     0.135 A 
ATOM     88  F   UNL A   1      41.551  35.422  36.439  1.00  0.00    -0.206 F 
ATOM     89  C   UNL A   1      40.497  35.980  38.460  1.00  0.00     0.059 A 
ATOM     90  C   UNL A   1      38.862  34.468  39.430  1.00  0.00     0.059 A 
ATOM     91  F   UNL A   1      38.378  32.438  38.361  1.00  0.00    -0.206 F 
ATOM     92  C   UNL A   1      39.581  35.661  39.464  1.00  0.00     0.060 A 
BRANCH  92  93
ATOM     93  S   UNL A   1      39.317  36.849  40.797  1.00  0.00     0.124 S 
ATOM     94  O   UNL A   1      38.852  35.983  41.875  1.00  0.00    -0.237 OA
ATOM     95  O   UNL A   1      40.650  37.419  40.971  1.00  0.00    -0.237 OA
ATOM     96  O   UNL A   1      38.318  37.761  40.247  1.00  0.00    -0.744 OA
ENDBRANCH  92  93
ENDBRANCH  60  85
ENDBRANCH  34  35
ENDBRANCH  27  29
ENDBRANCH  26  27
ENDBRANCH  25  26
ENDBRANCH  24  25
ENDBRANCH  23  24
ENDBRANCH   1  23
TORSDOF 21
ENDMDL
