MODEL 1
REMARK VINA RESULT:     -10.8      0.000      0.000
REMARK SMILES Cc1ccc(-c2cnnc(-n3nc(C)c4c3NC(=O)C[C@@H]4c3ccc(C(=O)OCCOCCOC(=O)c4ccc(-c5c6nc(c(-c7c(F)cc(S(=O)(=O)[O-])cc7F)c7ccc([nH]7)c(-c7c(F)cc(S(=O)(=O)[O-])cc7F)c7nc(c(-c8c(F)cc(S(=O)(=O)[O-])cc8F)c8ccc5[nH]8)C=C7)C=C6)cc4)cc3)n2)cc1
REMARK SMILES IDX 31 1 30 2 29 3 28 4 26 5 27 6 25 7 22 8 23 9 104 10 24 11
REMARK SMILES IDX 103 12 21 13 11 14 12 15 16 16 13 17 15 18 17 19 14 20 18 21
REMARK SMILES IDX 20 23 19 24 10 25 6 26 7 27 105 28 8 29 9 30 5 31 1 32 2 33
REMARK SMILES IDX 3 34 107 35 4 36 106 37 32 38 33 39 34 40 35 41 36 42 37 43
REMARK SMILES IDX 38 44 102 45 39 46 101 47 40 48 41 49 42 50 95 51 43 52
REMARK SMILES IDX 100 53 94 54 96 55 44 56 99 57 93 58 92 59 45 61 79 62 58 63
REMARK SMILES IDX 78 64 59 65 62 66 77 67 97 68 60 69 61 70 76 72 98 73 63 74
REMARK SMILES IDX 46 75 47 76 56 77 48 78 49 79 55 80 57 81 50 82 51 83 52 84
REMARK SMILES IDX 53 85 54 86 80 87 81 88 90 89 82 90 83 91 89 92 91 93 84 94
REMARK SMILES IDX 85 95 86 96 87 97 88 98 64 99 65 100 74 101 66 102 67 103
REMARK SMILES IDX 73 104 75 105 68 106 69 107 70 108 71 109 72 110
REMARK H PARENT 17 22 96 60 62 71
REMARK Flexibility Score: inf
ROOT
ATOM      1  O   UNL A   1      40.573  32.053  35.952  1.00  0.00    -0.374 OA
ENDROOT
BRANCH   1   2
ATOM      2  C   UNL A   1      41.035  33.390  35.981  1.00  0.00     0.202 C 
BRANCH   2   3
ATOM      3  C   UNL A   1      41.419  33.992  34.651  1.00  0.00     0.261 C 
BRANCH   3   4
ATOM      4  O   UNL A   1      40.374  33.979  33.706  1.00  0.00    -0.460 OA
BRANCH   4   5
ATOM      5  C   UNL A   1      39.333  34.769  33.997  1.00  0.00     0.338 C 
ATOM      6  O   UNL A   1      39.311  35.721  34.763  1.00  0.00    -0.246 OA
BRANCH   5   7
ATOM      7  C   UNL A   1      38.215  34.317  33.159  1.00  0.00     0.060 A 
ATOM      8  C   UNL A   1      36.023  33.526  31.626  1.00  0.00    -0.040 A 
ATOM      9  C   UNL A   1      35.920  33.660  33.027  1.00  0.00     0.005 A 
ATOM     10  C   UNL A   1      37.237  33.839  31.005  1.00  0.00     0.005 A 
ATOM     11  C   UNL A   1      37.003  34.067  33.790  1.00  0.00     0.016 A 
ATOM     12  C   UNL A   1      38.338  34.184  31.770  1.00  0.00     0.016 A 
BRANCH   8  13
ATOM     13  C   UNL A   1      34.793  33.037  30.908  1.00  0.00     0.064 C 
ATOM     14  N   UNL A   1      34.856  30.851  28.066  1.00  0.00    -0.180 N 
ATOM     15  N   UNL A   1      35.699  30.078  28.799  1.00  0.00    -0.168 NA
ATOM     16  C   UNL A   1      34.900  32.143  28.559  1.00  0.00     0.143 A 
ATOM     17  C   UNL A   1      35.764  30.709  29.980  1.00  0.00     0.066 A 
ATOM     18  C   UNL A   1      35.121  31.980  29.913  1.00  0.00     0.026 A 
ATOM     19  N   UNL A   1      34.732  33.397  28.006  1.00  0.00    -0.310 N 
ATOM     20  C   UNL A   1      36.556  30.072  31.064  1.00  0.00     0.069 C 
ATOM     21  C   UNL A   1      34.592  34.511  28.895  1.00  0.00     0.226 C 
ATOM     22  H   UNL A   1      34.709  33.522  27.030  1.00  0.00     0.171 HD
ATOM     23  C   UNL A   1      34.028  34.196  30.256  1.00  0.00     0.113 C 
ATOM     24  O   UNL A   1      34.777  35.625  28.439  1.00  0.00    -0.275 OA
BRANCH  14  25
ATOM     25  C   UNL A   1      33.748  30.267  27.379  1.00  0.00     0.272 A 
ATOM     26  C   UNL A   1      32.764  28.564  26.215  1.00  0.00     0.095 A 
ATOM     27  C   UNL A   1      31.879  29.472  25.658  1.00  0.00     0.164 A 
ATOM     28  N   UNL A   1      33.762  28.953  27.054  1.00  0.00    -0.208 NA
ATOM     29  N   UNL A   1      31.917  30.767  25.993  1.00  0.00    -0.153 NA
ATOM     30  N   UNL A   1      32.839  31.157  26.897  1.00  0.00    -0.109 NA
BRANCH  26  31
ATOM     31  C   UNL A   1      32.573  27.123  26.021  1.00  0.00     0.002 A 
ATOM     32  C   UNL A   1      32.162  22.821  25.737  1.00  0.00     0.044 C 
ATOM     33  C   UNL A   1      32.311  24.309  25.842  1.00  0.00    -0.051 A 
ATOM     34  C   UNL A   1      31.194  25.111  26.102  1.00  0.00     0.004 A 
ATOM     35  C   UNL A   1      33.557  24.917  25.670  1.00  0.00     0.004 A 
ATOM     36  C   UNL A   1      31.323  26.501  26.192  1.00  0.00     0.011 A 
ATOM     37  C   UNL A   1      33.683  26.305  25.754  1.00  0.00     0.011 A 
ENDBRANCH  26  31
ENDBRANCH  14  25
ENDBRANCH   8  13
ENDBRANCH   5   7
ENDBRANCH   4   5
ENDBRANCH   3   4
ENDBRANCH   2   3
ENDBRANCH   1   2
BRANCH   1  38
ATOM     38  C   UNL A   1      39.188  31.786  36.175  1.00  0.00     0.202 C 
BRANCH  38  39
ATOM     39  C   UNL A   1      38.374  30.849  35.238  1.00  0.00     0.261 C 
BRANCH  39  40
ATOM     40  O   UNL A   1      38.719  31.000  33.840  1.00  0.00    -0.460 OA
BRANCH  40  41
ATOM     41  C   UNL A   1      39.598  30.091  33.303  1.00  0.00     0.338 C 
ATOM     42  O   UNL A   1      39.540  28.883  33.454  1.00  0.00    -0.246 OA
BRANCH  41  43
ATOM     43  C   UNL A   1      40.368  30.713  32.191  1.00  0.00     0.060 A 
ATOM     44  C   UNL A   1      39.823  30.878  30.920  1.00  0.00     0.016 A 
ATOM     45  C   UNL A   1      41.717  30.994  32.386  1.00  0.00     0.016 A 
ATOM     46  C   UNL A   1      40.679  30.930  29.818  1.00  0.00     0.010 A 
ATOM     47  C   UNL A   1      42.564  31.052  31.285  1.00  0.00     0.010 A 
ATOM     48  C   UNL A   1      42.048  30.763  30.019  1.00  0.00    -0.014 A 
BRANCH  48  49
ATOM     49  C   UNL A   1      42.855  29.915  29.099  1.00  0.00     0.031 A 
ATOM     50  C   UNL A   1      42.627  28.465  29.058  1.00  0.00     0.074 A 
ATOM     51  C   UNL A   1      43.651  30.461  28.146  1.00  0.00     0.049 A 
ATOM     52  N   UNL A   1      43.344  27.572  29.659  1.00  0.00    -0.248 NA
ATOM     53  C   UNL A   1      41.451  27.933  28.363  1.00  0.00     0.031 C 
ATOM     54  C   UNL A   1      44.419  29.790  27.101  1.00  0.00     0.029 A 
ATOM     55  N   UNL A   1      43.988  31.806  27.987  1.00  0.00    -0.354 N 
ATOM     56  C   UNL A   1      42.861  26.364  29.185  1.00  0.00     0.074 A 
ATOM     57  C   UNL A   1      41.532  26.641  28.676  1.00  0.00     0.031 C 
ATOM     58  C   UNL A   1      45.331  30.653  26.612  1.00  0.00     0.029 A 
ATOM     59  C   UNL A   1      45.219  31.916  27.336  1.00  0.00     0.049 A 
ATOM     60  H   UNL A   1      43.439  32.565  28.289  1.00  0.00     0.167 HD
ATOM     61  C   UNL A   1      43.681  25.401  28.662  1.00  0.00     0.037 A 
ATOM     62  C   UNL A   1      46.231  32.513  28.030  1.00  0.00     0.037 A 
ATOM     63  C   UNL A   1      44.979  25.984  28.299  1.00  0.00     0.049 A 
ATOM     64  C   UNL A   1      47.111  31.476  28.698  1.00  0.00     0.074 A 
ATOM     65  C   UNL A   1      45.536  26.298  27.069  1.00  0.00     0.029 A 
ATOM     66  N   UNL A   1      45.763  26.633  29.250  1.00  0.00    -0.354 N 
ATOM     67  N   UNL A   1      46.789  30.208  28.751  1.00  0.00    -0.248 NA
ATOM     68  C   UNL A   1      48.435  31.721  29.260  1.00  0.00     0.031 C 
ATOM     69  C   UNL A   1      46.621  27.190  27.284  1.00  0.00     0.029 A 
ATOM     70  C   UNL A   1      46.738  27.412  28.647  1.00  0.00     0.049 A 
ATOM     71  H   UNL A   1      45.640  26.550  30.223  1.00  0.00     0.167 HD
ATOM     72  C   UNL A   1      47.801  29.477  29.301  1.00  0.00     0.074 A 
ATOM     73  C   UNL A   1      48.817  30.473  29.600  1.00  0.00     0.031 C 
ATOM     74  C   UNL A   1      47.732  28.119  29.450  1.00  0.00     0.037 A 
BRANCH  61  75
ATOM     75  C   UNL A   1      43.118  24.096  28.102  1.00  0.00     0.058 A 
ATOM     76  C   UNL A   1      42.835  22.983  28.917  1.00  0.00     0.135 A 
ATOM     77  C   UNL A   1      42.775  23.924  26.738  1.00  0.00     0.135 A 
ATOM     78  F   UNL A   1      42.988  23.036  30.247  1.00  0.00    -0.206 F 
ATOM     79  C   UNL A   1      42.349  21.771  28.408  1.00  0.00     0.059 A 
ATOM     80  C   UNL A   1      42.352  22.707  26.194  1.00  0.00     0.059 A 
ATOM     81  F   UNL A   1      42.810  24.955  25.878  1.00  0.00    -0.206 F 
ATOM     82  C   UNL A   1      42.132  21.633  27.042  1.00  0.00     0.060 A 
BRANCH  82  83
ATOM     83  S   UNL A   1      41.494  20.071  26.402  1.00  0.00     0.124 S 
ATOM     84  O   UNL A   1      40.117  20.416  26.062  1.00  0.00    -0.237 OA
ATOM     85  O   UNL A   1      42.384  19.821  25.274  1.00  0.00    -0.237 OA
ATOM     86  O   UNL A   1      41.640  19.156  27.530  1.00  0.00    -0.744 OA
ENDBRANCH  82  83
ENDBRANCH  61  75
BRANCH  62  87
ATOM     87  C   UNL A   1      45.873  33.928  28.382  1.00  0.00     0.058 A 
ATOM     88  C   UNL A   1      45.846  34.813  27.281  1.00  0.00     0.135 A 
ATOM     89  C   UNL A   1      45.097  34.304  29.488  1.00  0.00     0.135 A 
ATOM     90  F   UNL A   1      46.600  34.544  26.203  1.00  0.00    -0.206 F 
ATOM     91  C   UNL A   1      44.947  35.873  27.184  1.00  0.00     0.059 A 
ATOM     92  C   UNL A   1      44.190  35.381  29.420  1.00  0.00     0.059 A 
ATOM     93  F   UNL A   1      45.116  33.569  30.609  1.00  0.00    -0.206 F 
ATOM     94  C   UNL A   1      44.073  36.108  28.234  1.00  0.00     0.060 A 
BRANCH  94  95
ATOM     95  S   UNL A   1      42.650  37.190  27.929  1.00  0.00     0.124 S 
ATOM     96  O   UNL A   1      42.916  38.304  28.828  1.00  0.00    -0.237 OA
ATOM     97  O   UNL A   1      42.782  37.474  26.499  1.00  0.00    -0.237 OA
ATOM     98  O   UNL A   1      41.524  36.331  28.267  1.00  0.00    -0.744 OA
ENDBRANCH  94  95
ENDBRANCH  62  87
BRANCH  74  99
ATOM     99  C   UNL A   1      48.663  27.294  30.305  1.00  0.00     0.058 A 
ATOM    100  C   UNL A   1      48.567  27.227  31.704  1.00  0.00     0.135 A 
ATOM    101  C   UNL A   1      49.580  26.392  29.708  1.00  0.00     0.135 A 
ATOM    102  F   UNL A   1      47.662  27.950  32.379  1.00  0.00    -0.206 F 
ATOM    103  C   UNL A   1      49.368  26.377  32.463  1.00  0.00     0.059 A 
ATOM    104  C   UNL A   1      50.335  25.485  30.442  1.00  0.00     0.059 A 
ATOM    105  F   UNL A   1      49.763  26.348  28.379  1.00  0.00    -0.206 F 
ATOM    106  C   UNL A   1      50.245  25.507  31.824  1.00  0.00     0.060 A 
BRANCH 106 107
ATOM    107  S   UNL A   1      51.243  24.381  32.809  1.00  0.00     0.124 S 
ATOM    108  O   UNL A   1      51.193  25.026  34.116  1.00  0.00    -0.237 OA
ATOM    109  O   UNL A   1      50.509  23.124  32.695  1.00  0.00    -0.237 OA
ATOM    110  O   UNL A   1      52.539  24.406  32.139  1.00  0.00    -0.744 OA
ENDBRANCH 106 107
ENDBRANCH  74  99
ENDBRANCH  48  49
ENDBRANCH  41  43
ENDBRANCH  40  41
ENDBRANCH  39  40
ENDBRANCH  38  39
ENDBRANCH   1  38
TORSDOF 20
ENDMDL
MODEL 2
REMARK VINA RESULT:     -10.7      1.260      2.155
REMARK SMILES Cc1ccc(-c2cnnc(-n3nc(C)c4c3NC(=O)C[C@@H]4c3ccc(C(=O)OCCOCCOC(=O)c4ccc(-c5c6nc(c(-c7c(F)cc(S(=O)(=O)[O-])cc7F)c7ccc([nH]7)c(-c7c(F)cc(S(=O)(=O)[O-])cc7F)c7nc(c(-c8c(F)cc(S(=O)(=O)[O-])cc8F)c8ccc5[nH]8)C=C7)C=C6)cc4)cc3)n2)cc1
REMARK SMILES IDX 31 1 30 2 29 3 28 4 26 5 27 6 25 7 22 8 23 9 104 10 24 11
REMARK SMILES IDX 103 12 21 13 11 14 12 15 16 16 13 17 15 18 17 19 14 20 18 21
REMARK SMILES IDX 20 23 19 24 10 25 6 26 7 27 105 28 8 29 9 30 5 31 1 32 2 33
REMARK SMILES IDX 3 34 107 35 4 36 106 37 32 38 33 39 34 40 35 41 36 42 37 43
REMARK SMILES IDX 38 44 102 45 39 46 101 47 40 48 41 49 42 50 95 51 43 52
REMARK SMILES IDX 100 53 94 54 96 55 44 56 99 57 93 58 92 59 45 61 79 62 58 63
REMARK SMILES IDX 78 64 59 65 62 66 77 67 97 68 60 69 61 70 76 72 98 73 63 74
REMARK SMILES IDX 46 75 47 76 56 77 48 78 49 79 55 80 57 81 50 82 51 83 52 84
REMARK SMILES IDX 53 85 54 86 80 87 81 88 90 89 82 90 83 91 89 92 91 93 84 94
REMARK SMILES IDX 85 95 86 96 87 97 88 98 64 99 65 100 74 101 66 102 67 103
REMARK SMILES IDX 73 104 75 105 68 106 69 107 70 108 71 109 72 110
REMARK H PARENT 17 22 96 60 62 71
REMARK Flexibility Score: inf
ROOT
ATOM      1  O   UNL A   1      36.642  32.722  35.584  1.00  0.00    -0.374 OA
ENDROOT
BRANCH   1   2
ATOM      2  C   UNL A   1      36.496  34.098  35.292  1.00  0.00     0.202 C 
BRANCH   2   3
ATOM      3  C   UNL A   1      35.680  34.438  34.069  1.00  0.00     0.261 C 
BRANCH   3   4
ATOM      4  O   UNL A   1      36.395  35.174  33.103  1.00  0.00    -0.460 OA
BRANCH   4   5
ATOM      5  C   UNL A   1      37.615  34.702  32.816  1.00  0.00     0.338 C 
ATOM      6  O   UNL A   1      38.635  34.820  33.479  1.00  0.00    -0.246 OA
BRANCH   5   7
ATOM      7  C   UNL A   1      37.488  33.944  31.565  1.00  0.00     0.060 A 
ATOM      8  C   UNL A   1      37.138  32.490  29.210  1.00  0.00    -0.040 A 
ATOM      9  C   UNL A   1      36.525  32.083  30.415  1.00  0.00     0.005 A 
ATOM     10  C   UNL A   1      37.895  33.666  29.202  1.00  0.00     0.005 A 
ATOM     11  C   UNL A   1      36.686  32.810  31.583  1.00  0.00     0.016 A 
ATOM     12  C   UNL A   1      38.109  34.361  30.380  1.00  0.00     0.016 A 
BRANCH   8  13
ATOM     13  C   UNL A   1      36.926  31.598  28.016  1.00  0.00     0.064 C 
ATOM     14  N   UNL A   1      33.887  29.818  27.346  1.00  0.00    -0.180 N 
ATOM     15  N   UNL A   1      33.257  31.002  27.564  1.00  0.00    -0.168 NA
ATOM     16  C   UNL A   1      35.118  29.849  27.975  1.00  0.00     0.143 A 
ATOM     17  C   UNL A   1      34.262  31.862  27.778  1.00  0.00     0.066 A 
ATOM     18  C   UNL A   1      35.505  31.172  27.891  1.00  0.00     0.026 A 
ATOM     19  N   UNL A   1      35.937  28.897  28.550  1.00  0.00    -0.310 N 
ATOM     20  C   UNL A   1      33.919  33.294  27.974  1.00  0.00     0.069 C 
ATOM     21  C   UNL A   1      37.279  29.274  28.878  1.00  0.00     0.226 C 
ATOM     22  H   UNL A   1      35.607  27.988  28.730  1.00  0.00     0.171 HD
ATOM     23  C   UNL A   1      37.868  30.386  28.050  1.00  0.00     0.113 C 
ATOM     24  O   UNL A   1      37.886  28.573  29.668  1.00  0.00    -0.275 OA
BRANCH  14  25
ATOM     25  C   UNL A   1      33.564  29.024  26.203  1.00  0.00     0.272 A 
ATOM     26  C   UNL A   1      33.791  27.148  24.916  1.00  0.00     0.095 A 
ATOM     27  C   UNL A   1      33.352  27.864  23.816  1.00  0.00     0.164 A 
ATOM     28  N   UNL A   1      33.960  27.732  26.135  1.00  0.00    -0.208 NA
ATOM     29  N   UNL A   1      32.992  29.148  23.926  1.00  0.00    -0.153 NA
ATOM     30  N   UNL A   1      33.061  29.719  25.147  1.00  0.00    -0.109 NA
BRANCH  26  31
ATOM     31  C   UNL A   1      33.965  25.694  24.839  1.00  0.00     0.002 A 
ATOM     32  C   UNL A   1      34.796  21.454  24.534  1.00  0.00     0.044 C 
ATOM     33  C   UNL A   1      34.516  22.924  24.635  1.00  0.00    -0.051 A 
ATOM     34  C   UNL A   1      34.284  23.513  25.883  1.00  0.00     0.004 A 
ATOM     35  C   UNL A   1      34.471  23.723  23.490  1.00  0.00     0.004 A 
ATOM     36  C   UNL A   1      34.013  24.881  25.984  1.00  0.00     0.011 A 
ATOM     37  C   UNL A   1      34.194  25.088  23.592  1.00  0.00     0.011 A 
ENDBRANCH  26  31
ENDBRANCH  14  25
ENDBRANCH   8  13
ENDBRANCH   5   7
ENDBRANCH   4   5
ENDBRANCH   3   4
ENDBRANCH   2   3
ENDBRANCH   1   2
BRANCH   1  38
ATOM     38  C   UNL A   1      37.824  32.267  36.244  1.00  0.00     0.202 C 
BRANCH  38  39
ATOM     39  C   UNL A   1      39.198  32.215  35.516  1.00  0.00     0.261 C 
BRANCH  39  40
ATOM     40  O   UNL A   1      39.146  31.518  34.249  1.00  0.00    -0.460 OA
BRANCH  40  41
ATOM     41  C   UNL A   1      40.274  30.839  33.853  1.00  0.00     0.338 C 
ATOM     42  O   UNL A   1      40.641  29.767  34.299  1.00  0.00    -0.246 OA
BRANCH  41  43
ATOM     43  C   UNL A   1      40.755  31.357  32.543  1.00  0.00     0.060 A 
ATOM     44  C   UNL A   1      39.992  31.247  31.383  1.00  0.00     0.016 A 
ATOM     45  C   UNL A   1      42.063  31.823  32.446  1.00  0.00     0.016 A 
ATOM     46  C   UNL A   1      40.641  31.219  30.147  1.00  0.00     0.010 A 
ATOM     47  C   UNL A   1      42.702  31.799  31.212  1.00  0.00     0.010 A 
ATOM     48  C   UNL A   1      42.034  31.249  30.115  1.00  0.00    -0.014 A 
BRANCH  48  49
ATOM     49  C   UNL A   1      42.794  30.363  29.191  1.00  0.00     0.031 A 
ATOM     50  C   UNL A   1      42.508  28.923  29.165  1.00  0.00     0.074 A 
ATOM     51  C   UNL A   1      43.599  30.870  28.224  1.00  0.00     0.049 A 
ATOM     52  N   UNL A   1      43.196  28.006  29.763  1.00  0.00    -0.248 NA
ATOM     53  C   UNL A   1      41.302  28.434  28.489  1.00  0.00     0.031 C 
ATOM     54  C   UNL A   1      44.326  30.161  27.175  1.00  0.00     0.029 A 
ATOM     55  N   UNL A   1      43.988  32.198  28.051  1.00  0.00    -0.354 N 
ATOM     56  C   UNL A   1      42.659  26.815  29.304  1.00  0.00     0.074 A 
ATOM     57  C   UNL A   1      41.335  27.142  28.810  1.00  0.00     0.031 C 
ATOM     58  C   UNL A   1      45.265  30.983  26.667  1.00  0.00     0.029 A 
ATOM     59  C   UNL A   1      45.213  32.254  27.383  1.00  0.00     0.049 A 
ATOM     60  H   UNL A   1      43.474  32.981  28.353  1.00  0.00     0.167 HD
ATOM     61  C   UNL A   1      43.433  25.816  28.778  1.00  0.00     0.037 A 
ATOM     62  C   UNL A   1      46.258  32.815  28.059  1.00  0.00     0.037 A 
ATOM     63  C   UNL A   1      44.748  26.344  28.394  1.00  0.00     0.049 A 
ATOM     64  C   UNL A   1      47.104  31.749  28.723  1.00  0.00     0.074 A 
ATOM     65  C   UNL A   1      45.301  26.627  27.154  1.00  0.00     0.029 A 
ATOM     66  N   UNL A   1      45.570  26.968  29.329  1.00  0.00    -0.354 N 
ATOM     67  N   UNL A   1      46.731  30.494  28.790  1.00  0.00    -0.248 NA
ATOM     68  C   UNL A   1      48.444  31.944  29.266  1.00  0.00     0.031 C 
ATOM     69  C   UNL A   1      46.423  27.476  27.348  1.00  0.00     0.029 A 
ATOM     70  C   UNL A   1      46.567  27.703  28.708  1.00  0.00     0.049 A 
ATOM     71  H   UNL A   1      45.457  26.896  30.305  1.00  0.00     0.167 HD
ATOM     72  C   UNL A   1      47.721  29.728  29.332  1.00  0.00     0.074 A 
ATOM     73  C   UNL A   1      48.779  30.684  29.611  1.00  0.00     0.031 C 
ATOM     74  C   UNL A   1      47.600  28.375  29.492  1.00  0.00     0.037 A 
BRANCH  61  75
ATOM     75  C   UNL A   1      42.811  24.531  28.236  1.00  0.00     0.058 A 
ATOM     76  C   UNL A   1      42.730  23.349  28.997  1.00  0.00     0.135 A 
ATOM     77  C   UNL A   1      42.208  24.443  26.956  1.00  0.00     0.135 A 
ATOM     78  F   UNL A   1      43.143  23.311  30.271  1.00  0.00    -0.206 F 
ATOM     79  C   UNL A   1      42.190  22.157  28.497  1.00  0.00     0.059 A 
ATOM     80  C   UNL A   1      41.723  23.251  26.409  1.00  0.00     0.059 A 
ATOM     81  F   UNL A   1      42.038  25.535  26.192  1.00  0.00    -0.206 F 
ATOM     82  C   UNL A   1      41.710  22.109  27.193  1.00  0.00     0.060 A 
BRANCH  82  83
ATOM     83  S   UNL A   1      41.006  20.570  26.567  1.00  0.00     0.124 S 
ATOM     84  O   UNL A   1      39.765  21.027  25.949  1.00  0.00    -0.237 OA
ATOM     85  O   UNL A   1      42.044  20.116  25.648  1.00  0.00    -0.237 OA
ATOM     86  O   UNL A   1      40.836  19.759  27.768  1.00  0.00    -0.744 OA
ENDBRANCH  82  83
ENDBRANCH  61  75
BRANCH  62  87
ATOM     87  C   UNL A   1      45.961  34.246  28.404  1.00  0.00     0.058 A 
ATOM     88  C   UNL A   1      45.896  35.113  27.290  1.00  0.00     0.135 A 
ATOM     89  C   UNL A   1      45.261  34.664  29.546  1.00  0.00     0.135 A 
ATOM     90  F   UNL A   1      46.578  34.803  26.177  1.00  0.00    -0.206 F 
ATOM     91  C   UNL A   1      45.024  36.197  27.226  1.00  0.00     0.059 A 
ATOM     92  C   UNL A   1      44.383  35.765  29.510  1.00  0.00     0.059 A 
ATOM     93  F   UNL A   1      45.323  33.947  30.677  1.00  0.00    -0.206 F 
ATOM     94  C   UNL A   1      44.219  36.476  28.320  1.00  0.00     0.060 A 
BRANCH  94  95
ATOM     95  S   UNL A   1      42.812  37.595  28.076  1.00  0.00     0.124 S 
ATOM     96  O   UNL A   1      42.941  37.943  26.669  1.00  0.00    -0.237 OA
ATOM     97  O   UNL A   1      41.677  36.740  28.425  1.00  0.00    -0.237 OA
ATOM     98  O   UNL A   1      43.083  38.653  29.039  1.00  0.00    -0.744 OA
ENDBRANCH  94  95
ENDBRANCH  62  87
BRANCH  74  99
ATOM     99  C   UNL A   1      48.508  27.519  30.342  1.00  0.00     0.058 A 
ATOM    100  C   UNL A   1      48.275  27.264  31.702  1.00  0.00     0.135 A 
ATOM    101  C   UNL A   1      49.558  26.774  29.748  1.00  0.00     0.135 A 
ATOM    102  F   UNL A   1      47.245  27.823  32.353  1.00  0.00    -0.206 F 
ATOM    103  C   UNL A   1      49.067  26.387  32.440  1.00  0.00     0.059 A 
ATOM    104  C   UNL A   1      50.312  25.839  30.448  1.00  0.00     0.059 A 
ATOM    105  F   UNL A   1      49.880  26.916  28.453  1.00  0.00    -0.206 F 
ATOM    106  C   UNL A   1      50.079  25.676  31.803  1.00  0.00     0.060 A 
BRANCH 106 107
ATOM    107  S   UNL A   1      51.068  24.510  32.752  1.00  0.00     0.124 S 
ATOM    108  O   UNL A   1      52.356  25.195  32.789  1.00  0.00    -0.237 OA
ATOM    109  O   UNL A   1      50.349  24.445  34.022  1.00  0.00    -0.237 OA
ATOM    110  O   UNL A   1      51.018  23.295  31.948  1.00  0.00    -0.744 OA
ENDBRANCH 106 107
ENDBRANCH  74  99
ENDBRANCH  48  49
ENDBRANCH  41  43
ENDBRANCH  40  41
ENDBRANCH  39  40
ENDBRANCH  38  39
ENDBRANCH   1  38
TORSDOF 20
ENDMDL
MODEL 3
REMARK VINA RESULT:     -10.3      3.530      9.554
REMARK SMILES Cc1ccc(-c2cnnc(-n3nc(C)c4c3NC(=O)C[C@@H]4c3ccc(C(=O)OCCOCCOC(=O)c4ccc(-c5c6nc(c(-c7c(F)cc(S(=O)(=O)[O-])cc7F)c7ccc([nH]7)c(-c7c(F)cc(S(=O)(=O)[O-])cc7F)c7nc(c(-c8c(F)cc(S(=O)(=O)[O-])cc8F)c8ccc5[nH]8)C=C7)C=C6)cc4)cc3)n2)cc1
REMARK SMILES IDX 31 1 30 2 29 3 28 4 26 5 27 6 25 7 22 8 23 9 104 10 24 11
REMARK SMILES IDX 103 12 21 13 11 14 12 15 16 16 13 17 15 18 17 19 14 20 18 21
REMARK SMILES IDX 20 23 19 24 10 25 6 26 7 27 105 28 8 29 9 30 5 31 1 32 2 33
REMARK SMILES IDX 3 34 107 35 4 36 106 37 32 38 33 39 34 40 35 41 36 42 37 43
REMARK SMILES IDX 38 44 102 45 39 46 101 47 40 48 41 49 42 50 95 51 43 52
REMARK SMILES IDX 100 53 94 54 96 55 44 56 99 57 93 58 92 59 45 61 79 62 58 63
REMARK SMILES IDX 78 64 59 65 62 66 77 67 97 68 60 69 61 70 76 72 98 73 63 74
REMARK SMILES IDX 46 75 47 76 56 77 48 78 49 79 55 80 57 81 50 82 51 83 52 84
REMARK SMILES IDX 53 85 54 86 80 87 81 88 90 89 82 90 83 91 89 92 91 93 84 94
REMARK SMILES IDX 85 95 86 96 87 97 88 98 64 99 65 100 74 101 66 102 67 103
REMARK SMILES IDX 73 104 75 105 68 106 69 107 70 108 71 109 72 110
REMARK H PARENT 17 22 96 60 62 71
REMARK Flexibility Score: inf
ROOT
ATOM      1  O   UNL A   1      36.092  32.947  34.850  1.00  0.00    -0.374 OA
ENDROOT
BRANCH   1   2
ATOM      2  C   UNL A   1      35.672  34.269  34.572  1.00  0.00     0.202 C 
BRANCH   2   3
ATOM      3  C   UNL A   1      36.067  34.826  33.226  1.00  0.00     0.261 C 
BRANCH   3   4
ATOM      4  O   UNL A   1      35.117  35.714  32.685  1.00  0.00    -0.460 OA
BRANCH   4   5
ATOM      5  C   UNL A   1      33.953  35.156  32.327  1.00  0.00     0.338 C 
ATOM      6  O   UNL A   1      32.868  35.283  32.874  1.00  0.00    -0.246 OA
BRANCH   5   7
ATOM      7  C   UNL A   1      34.209  34.402  31.095  1.00  0.00     0.060 A 
ATOM      8  C   UNL A   1      34.637  32.882  28.794  1.00  0.00    -0.040 A 
ATOM      9  C   UNL A   1      34.746  32.306  30.078  1.00  0.00     0.005 A 
ATOM     10  C   UNL A   1      34.266  34.227  28.688  1.00  0.00     0.005 A 
ATOM     11  C   UNL A   1      34.521  33.054  31.222  1.00  0.00     0.016 A 
ATOM     12  C   UNL A   1      34.102  34.993  29.829  1.00  0.00     0.016 A 
BRANCH   8  13
ATOM     13  C   UNL A   1      34.946  31.982  27.627  1.00  0.00     0.064 C 
ATOM     14  N   UNL A   1      32.742  29.426  26.416  1.00  0.00    -0.180 N 
ATOM     15  N   UNL A   1      31.776  30.382  26.439  1.00  0.00    -0.168 NA
ATOM     16  C   UNL A   1      33.749  29.795  27.290  1.00  0.00     0.143 A 
ATOM     17  C   UNL A   1      32.431  31.488  26.819  1.00  0.00     0.066 A 
ATOM     18  C   UNL A   1      33.761  31.175  27.226  1.00  0.00     0.026 A 
ATOM     19  N   UNL A   1      34.656  29.106  28.071  1.00  0.00    -0.310 N 
ATOM     20  C   UNL A   1      31.669  32.762  26.868  1.00  0.00     0.069 C 
ATOM     21  C   UNL A   1      35.736  29.841  28.656  1.00  0.00     0.226 C 
ATOM     22  H   UNL A   1      34.562  28.138  28.221  1.00  0.00     0.171 HD
ATOM     23  C   UNL A   1      36.156  31.085  27.919  1.00  0.00     0.113 C 
ATOM     24  O   UNL A   1      36.327  29.330  29.590  1.00  0.00    -0.275 OA
BRANCH  14  25
ATOM     25  C   UNL A   1      32.909  28.590  25.271  1.00  0.00     0.272 A 
ATOM     26  C   UNL A   1      33.650  26.681  24.254  1.00  0.00     0.095 A 
ATOM     27  C   UNL A   1      33.674  27.350  23.042  1.00  0.00     0.164 A 
ATOM     28  N   UNL A   1      33.315  27.307  25.416  1.00  0.00    -0.208 NA
ATOM     29  N   UNL A   1      33.284  28.627  22.951  1.00  0.00    -0.153 NA
ATOM     30  N   UNL A   1      32.858  29.238  24.076  1.00  0.00    -0.109 NA
BRANCH  26  31
ATOM     31  C   UNL A   1      33.858  25.230  24.308  1.00  0.00     0.002 A 
ATOM     32  C   UNL A   1      34.376  20.956  24.781  1.00  0.00     0.044 C 
ATOM     33  C   UNL A   1      34.196  22.437  24.627  1.00  0.00    -0.051 A 
ATOM     34  C   UNL A   1      33.144  22.942  23.854  1.00  0.00     0.004 A 
ATOM     35  C   UNL A   1      35.078  23.332  25.238  1.00  0.00     0.004 A 
ATOM     36  C   UNL A   1      32.977  24.321  23.697  1.00  0.00     0.011 A 
ATOM     37  C   UNL A   1      34.913  24.708  25.075  1.00  0.00     0.011 A 
ENDBRANCH  26  31
ENDBRANCH  14  25
ENDBRANCH   8  13
ENDBRANCH   5   7
ENDBRANCH   4   5
ENDBRANCH   3   4
ENDBRANCH   2   3
ENDBRANCH   1   2
BRANCH   1  38
ATOM     38  C   UNL A   1      37.477  32.685  35.077  1.00  0.00     0.202 C 
BRANCH  38  39
ATOM     39  C   UNL A   1      38.355  31.951  34.024  1.00  0.00     0.261 C 
BRANCH  39  40
ATOM     40  O   UNL A   1      38.259  30.509  34.106  1.00  0.00    -0.460 OA
BRANCH  40  41
ATOM     41  C   UNL A   1      37.819  29.839  32.990  1.00  0.00     0.338 C 
ATOM     42  O   UNL A   1      36.653  29.715  32.659  1.00  0.00    -0.246 OA
BRANCH  41  43
ATOM     43  C   UNL A   1      38.938  29.648  32.027  1.00  0.00     0.060 A 
ATOM     44  C   UNL A   1      40.025  28.827  32.316  1.00  0.00     0.016 A 
ATOM     45  C   UNL A   1      38.974  30.431  30.877  1.00  0.00     0.016 A 
ATOM     46  C   UNL A   1      41.251  29.085  31.699  1.00  0.00     0.010 A 
ATOM     47  C   UNL A   1      40.196  30.680  30.263  1.00  0.00     0.010 A 
ATOM     48  C   UNL A   1      41.363  30.188  30.855  1.00  0.00    -0.014 A 
BRANCH  48  49
ATOM     49  C   UNL A   1      42.558  31.072  30.910  1.00  0.00     0.031 A 
ATOM     50  C   UNL A   1      42.612  32.162  31.893  1.00  0.00     0.074 A 
ATOM     51  C   UNL A   1      43.690  30.779  30.223  1.00  0.00     0.049 A 
ATOM     52  N   UNL A   1      42.357  33.407  31.653  1.00  0.00    -0.248 NA
ATOM     53  C   UNL A   1      42.890  31.859  33.300  1.00  0.00     0.031 C 
ATOM     54  C   UNL A   1      44.978  31.467  30.245  1.00  0.00     0.029 A 
ATOM     55  N   UNL A   1      43.868  29.784  29.262  1.00  0.00    -0.354 N 
ATOM     56  C   UNL A   1      42.712  34.064  32.819  1.00  0.00     0.074 A 
ATOM     57  C   UNL A   1      42.709  33.054  33.860  1.00  0.00     0.031 C 
ATOM     58  C   UNL A   1      45.696  31.077  29.173  1.00  0.00     0.029 A 
ATOM     59  C   UNL A   1      44.897  30.142  28.387  1.00  0.00     0.049 A 
ATOM     60  H   UNL A   1      43.346  28.951  29.208  1.00  0.00     0.167 HD
ATOM     61  C   UNL A   1      43.549  35.147  32.825  1.00  0.00     0.037 A 
ATOM     62  C   UNL A   1      44.560  30.310  27.076  1.00  0.00     0.037 A 
ATOM     63  C   UNL A   1      44.300  35.213  31.566  1.00  0.00     0.049 A 
ATOM     64  C   UNL A   1      44.308  31.771  26.767  1.00  0.00     0.074 A 
ATOM     65  C   UNL A   1      45.624  34.928  31.267  1.00  0.00     0.029 A 
ATOM     66  N   UNL A   1      43.641  35.287  30.341  1.00  0.00    -0.354 N 
ATOM     67  N   UNL A   1      44.230  32.685  27.703  1.00  0.00    -0.248 NA
ATOM     68  C   UNL A   1      44.226  32.355  25.433  1.00  0.00     0.031 C 
ATOM     69  C   UNL A   1      45.741  34.770  29.860  1.00  0.00     0.029 A 
ATOM     70  C   UNL A   1      44.492  34.971  29.294  1.00  0.00     0.049 A 
ATOM     71  H   UNL A   1      42.693  35.531  30.234  1.00  0.00     0.167 HD
ATOM     72  C   UNL A   1      44.114  33.927  27.152  1.00  0.00     0.074 A 
ATOM     73  C   UNL A   1      44.121  33.668  25.721  1.00  0.00     0.031 C 
ATOM     74  C   UNL A   1      44.040  35.064  27.908  1.00  0.00     0.037 A 
BRANCH  61  75
ATOM     75  C   UNL A   1      43.963  35.825  34.130  1.00  0.00     0.058 A 
ATOM     76  C   UNL A   1      45.081  35.409  34.878  1.00  0.00     0.135 A 
ATOM     77  C   UNL A   1      43.300  36.963  34.654  1.00  0.00     0.135 A 
ATOM     78  F   UNL A   1      45.882  34.426  34.446  1.00  0.00    -0.206 F 
ATOM     79  C   UNL A   1      45.449  36.004  36.092  1.00  0.00     0.059 A 
ATOM     80  C   UNL A   1      43.605  37.533  35.894  1.00  0.00     0.059 A 
ATOM     81  F   UNL A   1      42.338  37.589  33.956  1.00  0.00    -0.206 F 
ATOM     82  C   UNL A   1      44.691  37.051  36.606  1.00  0.00     0.060 A 
BRANCH  82  83
ATOM     83  S   UNL A   1      45.184  37.817  38.163  1.00  0.00     0.124 S 
ATOM     84  O   UNL A   1      43.973  38.533  38.553  1.00  0.00    -0.237 OA
ATOM     85  O   UNL A   1      45.525  36.654  38.975  1.00  0.00    -0.237 OA
ATOM     86  O   UNL A   1      46.309  38.667  37.784  1.00  0.00    -0.744 OA
ENDBRANCH  82  83
ENDBRANCH  61  75
BRANCH  62  87
ATOM     87  C   UNL A   1      44.014  29.035  26.499  1.00  0.00     0.058 A 
ATOM     88  C   UNL A   1      44.983  28.027  26.293  1.00  0.00     0.135 A 
ATOM     89  C   UNL A   1      42.692  28.591  26.652  1.00  0.00     0.135 A 
ATOM     90  F   UNL A   1      46.263  28.378  26.092  1.00  0.00    -0.206 F 
ATOM     91  C   UNL A   1      44.708  26.671  26.451  1.00  0.00     0.059 A 
ATOM     92  C   UNL A   1      42.387  27.223  26.800  1.00  0.00     0.059 A 
ATOM     93  F   UNL A   1      41.692  29.474  26.777  1.00  0.00    -0.206 F 
ATOM     94  C   UNL A   1      43.417  26.281  26.773  1.00  0.00     0.060 A 
BRANCH  94  95
ATOM     95  S   UNL A   1      43.167  24.593  27.387  1.00  0.00     0.124 S 
ATOM     96  O   UNL A   1      42.173  24.076  26.458  1.00  0.00    -0.237 OA
ATOM     97  O   UNL A   1      44.510  24.023  27.273  1.00  0.00    -0.237 OA
ATOM     98  O   UNL A   1      42.727  24.819  28.756  1.00  0.00    -0.744 OA
ENDBRANCH  94  95
ENDBRANCH  62  87
BRANCH  74  99
ATOM     99  C   UNL A   1      43.616  36.420  27.396  1.00  0.00     0.058 A 
ATOM    100  C   UNL A   1      42.274  36.802  27.247  1.00  0.00     0.135 A 
ATOM    101  C   UNL A   1      44.573  37.450  27.208  1.00  0.00     0.135 A 
ATOM    102  F   UNL A   1      41.271  35.949  27.502  1.00  0.00    -0.206 F 
ATOM    103  C   UNL A   1      41.906  38.092  26.873  1.00  0.00     0.059 A 
ATOM    104  C   UNL A   1      44.223  38.761  26.907  1.00  0.00     0.059 A 
ATOM    105  F   UNL A   1      45.890  37.220  27.328  1.00  0.00    -0.206 F 
ATOM    106  C   UNL A   1      42.886  39.065  26.710  1.00  0.00     0.060 A 
BRANCH 106 107
ATOM    107  S   UNL A   1      42.400  40.741  26.272  1.00  0.00     0.124 S 
ATOM    108  O   UNL A   1      43.145  40.938  25.033  1.00  0.00    -0.237 OA
ATOM    109  O   UNL A   1      40.952  40.623  26.128  1.00  0.00    -0.237 OA
ATOM    110  O   UNL A   1      42.849  41.530  27.413  1.00  0.00    -0.744 OA
ENDBRANCH 106 107
ENDBRANCH  74  99
ENDBRANCH  48  49
ENDBRANCH  41  43
ENDBRANCH  40  41
ENDBRANCH  39  40
ENDBRANCH  38  39
ENDBRANCH   1  38
TORSDOF 20
ENDMDL
