MODEL 1
REMARK VINA RESULT:     -12.0      0.000      0.000
REMARK SMILES CS(=O)(=O)c1ccc(-n2nc(C(F)(F)F)cc2-c2ccc(CC(=O)OCCOCCOC(=O)c3ccc(-c4c5nc(c(-c6c(F)cc(S(=O)(=O)[O-])cc6F)c6ccc([nH]6)c(-c6c(F)cc(S(=O)(=O)[O-])cc6F)c6nc(c(-c7c(F)cc(S(=O)(=O)[O-])cc7F)c7ccc4[nH]7)C=C6)C=C5)cc3)cc2)cc1
REMARK SMILES IDX 27 1 26 2 25 3 23 4 24 5 22 6 21 7 18 8 19 9 101 10 20 11
REMARK SMILES IDX 100 12 17 13 9 14 10 15 11 16 16 17 8 18 5 19 6 20 103 21
REMARK SMILES IDX 7 22 102 23 2 24 1 25 3 26 4 27 12 28 13 29 14 30 15 31
REMARK SMILES IDX 28 32 29 33 30 34 31 35 32 36 33 37 34 38 35 39 99 40 36 41
REMARK SMILES IDX 98 42 37 43 38 44 39 45 92 46 40 47 97 48 91 49 93 50 41 51
REMARK SMILES IDX 96 52 90 53 89 54 42 56 76 57 55 58 75 59 56 60 59 61 74 62
REMARK SMILES IDX 94 63 57 64 58 65 73 67 95 68 60 69 43 70 44 71 53 72 45 73
REMARK SMILES IDX 46 74 52 75 54 76 47 77 48 78 49 79 50 80 51 81 77 82 78 83
REMARK SMILES IDX 87 84 79 85 80 86 86 87 88 88 81 89 82 90 83 91 84 92 85 93
REMARK SMILES IDX 61 94 62 95 71 96 63 97 64 98 70 99 72 100 65 101 66 102
REMARK SMILES IDX 67 103 68 104 69 105
REMARK H PARENT 93 55 59 66
REMARK Flexibility Score: inf
ROOT
ATOM      1  C   UNL A   1      31.315  29.371  24.983  1.00  0.00     0.202 C 
ENDROOT
BRANCH   1   2
ATOM      2  C   UNL A   1      31.506  28.739  23.596  1.00  0.00     0.261 C 
BRANCH   2   3
ATOM      3  O   UNL A   1      32.862  28.641  23.117  1.00  0.00    -0.463 OA
BRANCH   3   4
ATOM      4  C   UNL A   1      33.126  27.524  22.387  1.00  0.00     0.310 C 
ATOM      5  O   UNL A   1      34.136  27.372  21.704  1.00  0.00    -0.252 OA
BRANCH   4   6
ATOM      6  C   UNL A   1      32.016  26.500  22.370  1.00  0.00     0.158 C 
BRANCH   6   7
ATOM      7  C   UNL A   1      32.273  25.069  22.788  1.00  0.00    -0.037 A 
ATOM      8  C   UNL A   1      33.058  22.512  23.733  1.00  0.00     0.000 A 
ATOM      9  C   UNL A   1      32.268  23.361  24.520  1.00  0.00     0.010 A 
ATOM     10  C   UNL A   1      33.458  22.958  22.468  1.00  0.00     0.010 A 
ATOM     11  C   UNL A   1      31.865  24.615  24.048  1.00  0.00     0.005 A 
ATOM     12  C   UNL A   1      33.063  24.221  21.998  1.00  0.00     0.005 A 
BRANCH   8  13
ATOM     13  C   UNL A   1      33.451  21.189  24.236  1.00  0.00     0.075 A 
ATOM     14  N   UNL A   1      34.731  20.811  24.663  1.00  0.00    -0.233 N 
ATOM     15  N   UNL A   1      34.828  19.463  24.796  1.00  0.00    -0.163 NA
ATOM     16  C   UNL A   1      33.568  18.998  24.699  1.00  0.00     0.167 A 
ATOM     17  C   UNL A   1      32.686  20.040  24.322  1.00  0.00     0.064 A 
BRANCH  14  18
ATOM     18  C   UNL A   1      35.846  21.640  25.006  1.00  0.00     0.065 A 
ATOM     19  C   UNL A   1      38.021  23.163  25.985  1.00  0.00     0.067 A 
ATOM     20  C   UNL A   1      36.718  23.581  26.181  1.00  0.00     0.022 A 
ATOM     21  C   UNL A   1      38.252  21.992  25.252  1.00  0.00     0.022 A 
ATOM     22  C   UNL A   1      35.640  22.838  25.690  1.00  0.00     0.030 A 
ATOM     23  C   UNL A   1      37.166  21.223  24.779  1.00  0.00     0.030 A 
BRANCH  19  24
ATOM     24  S   UNL A   1      39.389  23.929  26.839  1.00  0.00     0.175 S 
ATOM     25  C   UNL A   1      38.787  25.002  28.117  1.00  0.00     0.163 C 
ATOM     26  O   UNL A   1      40.047  24.765  25.873  1.00  0.00    -0.224 OA
ATOM     27  O   UNL A   1      40.074  22.832  27.515  1.00  0.00    -0.224 OA
ENDBRANCH  19  24
ENDBRANCH  14  18
BRANCH  16  28
ATOM     28  C   UNL A   1      33.181  17.551  24.910  1.00  0.00     0.435 C 
ATOM     29  F   UNL A   1      34.175  16.788  25.424  1.00  0.00    -0.164 F 
ATOM     30  F   UNL A   1      32.099  17.431  25.721  1.00  0.00    -0.164 F 
ATOM     31  F   UNL A   1      32.825  16.976  23.722  1.00  0.00    -0.164 F 
ENDBRANCH  16  28
ENDBRANCH   8  13
ENDBRANCH   6   7
ENDBRANCH   4   6
ENDBRANCH   3   4
ENDBRANCH   2   3
ENDBRANCH   1   2
BRANCH   1  32
ATOM     32  O   UNL A   1      32.110  28.883  26.051  1.00  0.00    -0.374 OA
BRANCH  32  33
ATOM     33  C   UNL A   1      32.094  29.633  27.259  1.00  0.00     0.202 C 
BRANCH  33  34
ATOM     34  C   UNL A   1      32.440  31.116  27.182  1.00  0.00     0.261 C 
BRANCH  34  35
ATOM     35  O   UNL A   1      33.847  31.401  27.025  1.00  0.00    -0.460 OA
BRANCH  35  36
ATOM     36  C   UNL A   1      34.393  32.195  27.989  1.00  0.00     0.338 C 
ATOM     37  O   UNL A   1      34.283  33.407  28.068  1.00  0.00    -0.246 OA
BRANCH  36  38
ATOM     38  C   UNL A   1      35.473  31.445  28.670  1.00  0.00     0.060 A 
ATOM     39  C   UNL A   1      36.564  32.214  29.085  1.00  0.00     0.016 A 
ATOM     40  C   UNL A   1      35.576  30.051  28.588  1.00  0.00     0.016 A 
ATOM     41  C   UNL A   1      37.812  31.618  29.184  1.00  0.00     0.010 A 
ATOM     42  C   UNL A   1      36.830  29.450  28.728  1.00  0.00     0.010 A 
ATOM     43  C   UNL A   1      37.961  30.244  28.944  1.00  0.00    -0.014 A 
BRANCH  43  44
ATOM     44  C   UNL A   1      39.275  29.662  29.250  1.00  0.00     0.031 A 
ATOM     45  C   UNL A   1      39.570  29.819  30.677  1.00  0.00     0.074 A 
ATOM     46  C   UNL A   1      40.160  29.046  28.436  1.00  0.00     0.049 A 
ATOM     47  N   UNL A   1      40.415  30.649  31.186  1.00  0.00    -0.248 NA
ATOM     48  C   UNL A   1      38.695  29.147  31.650  1.00  0.00     0.031 C 
ATOM     49  C   UNL A   1      39.927  28.724  27.046  1.00  0.00     0.029 A 
ATOM     50  N   UNL A   1      41.419  28.530  28.649  1.00  0.00    -0.354 N 
ATOM     51  C   UNL A   1      40.420  30.331  32.528  1.00  0.00     0.074 A 
ATOM     52  C   UNL A   1      39.200  29.608  32.796  1.00  0.00     0.031 C 
ATOM     53  C   UNL A   1      40.886  27.908  26.569  1.00  0.00     0.029 A 
ATOM     54  C   UNL A   1      41.896  27.742  27.595  1.00  0.00     0.049 A 
ATOM     55  H   UNL A   1      41.937  28.699  29.468  1.00  0.00     0.167 HD
ATOM     56  C   UNL A   1      41.608  30.284  33.179  1.00  0.00     0.037 A 
ATOM     57  C   UNL A   1      43.044  27.026  27.491  1.00  0.00     0.037 A 
ATOM     58  C   UNL A   1      42.636  31.045  32.522  1.00  0.00     0.049 A 
ATOM     59  C   UNL A   1      44.052  27.664  28.363  1.00  0.00     0.074 A 
ATOM     60  C   UNL A   1      42.930  32.381  32.353  1.00  0.00     0.029 A 
ATOM     61  N   UNL A   1      43.372  30.352  31.599  1.00  0.00    -0.354 N 
ATOM     62  N   UNL A   1      44.609  28.814  28.099  1.00  0.00    -0.248 NA
ATOM     63  C   UNL A   1      44.267  27.156  29.714  1.00  0.00     0.031 C 
ATOM     64  C   UNL A   1      43.837  32.472  31.257  1.00  0.00     0.029 A 
ATOM     65  C   UNL A   1      44.087  31.191  30.779  1.00  0.00     0.049 A 
ATOM     66  H   UNL A   1      43.387  29.371  31.530  1.00  0.00     0.167 HD
ATOM     67  C   UNL A   1      44.855  29.355  29.340  1.00  0.00     0.074 A 
ATOM     68  C   UNL A   1      44.795  28.245  30.277  1.00  0.00     0.031 C 
ATOM     69  C   UNL A   1      44.694  30.688  29.564  1.00  0.00     0.037 A 
BRANCH  56  70
ATOM     70  C   UNL A   1      41.922  29.147  34.105  1.00  0.00     0.058 A 
ATOM     71  C   UNL A   1      42.042  27.847  33.597  1.00  0.00     0.135 A 
ATOM     72  C   UNL A   1      41.874  29.267  35.515  1.00  0.00     0.135 A 
ATOM     73  F   UNL A   1      42.019  27.633  32.273  1.00  0.00    -0.206 F 
ATOM     74  C   UNL A   1      42.136  26.740  34.437  1.00  0.00     0.059 A 
ATOM     75  C   UNL A   1      42.038  28.191  36.369  1.00  0.00     0.059 A 
ATOM     76  F   UNL A   1      41.572  30.425  36.120  1.00  0.00    -0.206 F 
ATOM     77  C   UNL A   1      42.143  26.925  35.820  1.00  0.00     0.060 A 
BRANCH  77  78
ATOM     78  S   UNL A   1      42.256  25.501  36.912  1.00  0.00     0.124 S 
ATOM     79  O   UNL A   1      43.270  24.700  36.235  1.00  0.00    -0.237 OA
ATOM     80  O   UNL A   1      42.656  26.114  38.174  1.00  0.00    -0.237 OA
ATOM     81  O   UNL A   1      40.900  24.959  36.890  1.00  0.00    -0.744 OA
ENDBRANCH  77  78
ENDBRANCH  56  70
BRANCH  57  82
ATOM     82  C   UNL A   1      43.345  25.791  26.711  1.00  0.00     0.058 A 
ATOM     83  C   UNL A   1      44.001  25.856  25.464  1.00  0.00     0.135 A 
ATOM     84  C   UNL A   1      43.258  24.510  27.293  1.00  0.00     0.135 A 
ATOM     85  F   UNL A   1      44.144  27.028  24.829  1.00  0.00    -0.206 F 
ATOM     86  C   UNL A   1      44.603  24.739  24.875  1.00  0.00     0.059 A 
ATOM     87  C   UNL A   1      43.836  23.378  26.713  1.00  0.00     0.059 A 
ATOM     88  F   UNL A   1      42.692  24.336  28.496  1.00  0.00    -0.206 F 
ATOM     89  C   UNL A   1      44.543  23.509  25.524  1.00  0.00     0.060 A 
BRANCH  89  90
ATOM     90  S   UNL A   1      45.528  22.130  24.887  1.00  0.00     0.124 S 
ATOM     91  O   UNL A   1      46.504  22.813  24.046  1.00  0.00    -0.237 OA
ATOM     92  O   UNL A   1      46.052  21.534  26.113  1.00  0.00    -0.237 OA
ATOM     93  O   UNL A   1      44.549  21.313  24.175  1.00  0.00    -0.744 OA
ENDBRANCH  89  90
ENDBRANCH  57  82
BRANCH  69  94
ATOM     94  C   UNL A   1      45.065  31.640  28.467  1.00  0.00     0.058 A 
ATOM     95  C   UNL A   1      44.317  31.894  27.307  1.00  0.00     0.135 A 
ATOM     96  C   UNL A   1      46.249  32.376  28.642  1.00  0.00     0.135 A 
ATOM     97  F   UNL A   1      43.151  31.268  27.089  1.00  0.00    -0.206 F 
ATOM     98  C   UNL A   1      44.738  32.836  26.360  1.00  0.00     0.059 A 
ATOM     99  C   UNL A   1      46.674  33.332  27.727  1.00  0.00     0.059 A 
ATOM    100  F   UNL A   1      47.001  32.191  29.741  1.00  0.00    -0.206 F 
ATOM    101  C   UNL A   1      45.916  33.553  26.582  1.00  0.00     0.060 A 
BRANCH 101 102
ATOM    102  S   UNL A   1      46.430  34.828  25.405  1.00  0.00     0.124 S 
ATOM    103  O   UNL A   1      45.575  34.552  24.256  1.00  0.00    -0.237 OA
ATOM    104  O   UNL A   1      46.147  36.064  26.128  1.00  0.00    -0.237 OA
ATOM    105  O   UNL A   1      47.851  34.551  25.203  1.00  0.00    -0.744 OA
ENDBRANCH 101 102
ENDBRANCH  69  94
ENDBRANCH  43  44
ENDBRANCH  36  38
ENDBRANCH  35  36
ENDBRANCH  34  35
ENDBRANCH  33  34
ENDBRANCH  32  33
ENDBRANCH   1  32
TORSDOF 22
ENDMDL
MODEL 2
REMARK VINA RESULT:     -11.1      2.312      9.508
REMARK SMILES CS(=O)(=O)c1ccc(-n2nc(C(F)(F)F)cc2-c2ccc(CC(=O)OCCOCCOC(=O)c3ccc(-c4c5nc(c(-c6c(F)cc(S(=O)(=O)[O-])cc6F)c6ccc([nH]6)c(-c6c(F)cc(S(=O)(=O)[O-])cc6F)c6nc(c(-c7c(F)cc(S(=O)(=O)[O-])cc7F)c7ccc4[nH]7)C=C6)C=C5)cc3)cc2)cc1
REMARK SMILES IDX 27 1 26 2 25 3 23 4 24 5 22 6 21 7 18 8 19 9 101 10 20 11
REMARK SMILES IDX 100 12 17 13 9 14 10 15 11 16 16 17 8 18 5 19 6 20 103 21
REMARK SMILES IDX 7 22 102 23 2 24 1 25 3 26 4 27 12 28 13 29 14 30 15 31
REMARK SMILES IDX 28 32 29 33 30 34 31 35 32 36 33 37 34 38 35 39 99 40 36 41
REMARK SMILES IDX 98 42 37 43 38 44 39 45 92 46 40 47 97 48 91 49 93 50 41 51
REMARK SMILES IDX 96 52 90 53 89 54 42 56 76 57 55 58 75 59 56 60 59 61 74 62
REMARK SMILES IDX 94 63 57 64 58 65 73 67 95 68 60 69 43 70 44 71 53 72 45 73
REMARK SMILES IDX 46 74 52 75 54 76 47 77 48 78 49 79 50 80 51 81 77 82 78 83
REMARK SMILES IDX 87 84 79 85 80 86 86 87 88 88 81 89 82 90 83 91 84 92 85 93
REMARK SMILES IDX 61 94 62 95 71 96 63 97 64 98 70 99 72 100 65 101 66 102
REMARK SMILES IDX 67 103 68 104 69 105
REMARK H PARENT 93 55 59 66
REMARK Flexibility Score: inf
ROOT
ATOM      1  C   UNL A   1      41.073  19.763  27.241  1.00  0.00     0.202 C 
ENDROOT
BRANCH   1   2
ATOM      2  C   UNL A   1      41.054  21.246  27.644  1.00  0.00     0.261 C 
BRANCH   2   3
ATOM      3  O   UNL A   1      39.796  21.934  27.500  1.00  0.00    -0.463 OA
BRANCH   3   4
ATOM      4  C   UNL A   1      39.902  23.281  27.343  1.00  0.00     0.310 C 
ATOM      5  O   UNL A   1      40.706  23.983  27.952  1.00  0.00    -0.252 OA
BRANCH   4   6
ATOM      6  C   UNL A   1      38.863  23.899  26.439  1.00  0.00     0.158 C 
BRANCH   6   7
ATOM      7  C   UNL A   1      37.725  23.071  25.884  1.00  0.00    -0.037 A 
ATOM      8  C   UNL A   1      35.662  21.282  25.114  1.00  0.00     0.000 A 
ATOM      9  C   UNL A   1      35.424  22.299  26.048  1.00  0.00     0.010 A 
ATOM     10  C   UNL A   1      36.948  21.164  24.572  1.00  0.00     0.010 A 
ATOM     11  C   UNL A   1      36.435  23.193  26.415  1.00  0.00     0.005 A 
ATOM     12  C   UNL A   1      37.965  22.054  24.948  1.00  0.00     0.005 A 
BRANCH   8  13
ATOM     13  C   UNL A   1      34.582  20.367  24.722  1.00  0.00     0.075 A 
ATOM     14  N   UNL A   1      33.276  20.730  24.362  1.00  0.00    -0.233 N 
ATOM     15  N   UNL A   1      32.455  19.648  24.332  1.00  0.00    -0.163 NA
ATOM     16  C   UNL A   1      33.265  18.576  24.423  1.00  0.00     0.167 A 
ATOM     17  C   UNL A   1      34.593  18.984  24.696  1.00  0.00     0.064 A 
BRANCH  14  18
ATOM     18  C   UNL A   1      32.770  22.017  23.995  1.00  0.00     0.065 A 
ATOM     19  C   UNL A   1      31.980  24.686  23.484  1.00  0.00     0.067 A 
ATOM     20  C   UNL A   1      31.486  23.997  24.576  1.00  0.00     0.022 A 
ATOM     21  C   UNL A   1      32.845  24.025  22.604  1.00  0.00     0.022 A 
ATOM     22  C   UNL A   1      31.865  22.675  24.827  1.00  0.00     0.030 A 
ATOM     23  C   UNL A   1      33.255  22.700  22.868  1.00  0.00     0.030 A 
BRANCH  19  24
ATOM     24  S   UNL A   1      31.743  26.446  23.301  1.00  0.00     0.175 S 
ATOM     25  C   UNL A   1      30.211  26.936  24.048  1.00  0.00     0.163 C 
ATOM     26  O   UNL A   1      31.610  26.688  21.890  1.00  0.00    -0.224 OA
ATOM     27  O   UNL A   1      32.800  27.054  24.100  1.00  0.00    -0.224 OA
ENDBRANCH  19  24
ENDBRANCH  14  18
BRANCH  16  28
ATOM     28  C   UNL A   1      32.790  17.146  24.307  1.00  0.00     0.435 C 
ATOM     29  F   UNL A   1      31.705  16.864  25.068  1.00  0.00    -0.164 F 
ATOM     30  F   UNL A   1      32.496  16.814  23.023  1.00  0.00    -0.164 F 
ATOM     31  F   UNL A   1      33.775  16.284  24.700  1.00  0.00    -0.164 F 
ENDBRANCH  16  28
ENDBRANCH   8  13
ENDBRANCH   6   7
ENDBRANCH   4   6
ENDBRANCH   3   4
ENDBRANCH   2   3
ENDBRANCH   1   2
BRANCH   1  32
ATOM     32  O   UNL A   1      42.315  19.081  27.280  1.00  0.00    -0.374 OA
BRANCH  32  33
ATOM     33  C   UNL A   1      42.878  18.700  26.031  1.00  0.00     0.202 C 
BRANCH  33  34
ATOM     34  C   UNL A   1      43.912  19.628  25.403  1.00  0.00     0.261 C 
BRANCH  34  35
ATOM     35  O   UNL A   1      43.419  20.943  25.068  1.00  0.00    -0.460 OA
BRANCH  35  36
ATOM     36  C   UNL A   1      44.335  21.949  25.150  1.00  0.00     0.338 C 
ATOM     37  O   UNL A   1      45.519  21.867  24.865  1.00  0.00    -0.246 OA
BRANCH  36  38
ATOM     38  C   UNL A   1      43.797  23.016  26.024  1.00  0.00     0.060 A 
ATOM     39  C   UNL A   1      43.170  24.074  25.359  1.00  0.00     0.016 A 
ATOM     40  C   UNL A   1      44.191  23.151  27.361  1.00  0.00     0.016 A 
ATOM     41  C   UNL A   1      43.156  25.329  25.949  1.00  0.00     0.010 A 
ATOM     42  C   UNL A   1      44.139  24.410  27.965  1.00  0.00     0.010 A 
ATOM     43  C   UNL A   1      43.698  25.515  27.229  1.00  0.00    -0.014 A 
BRANCH  43  44
ATOM     44  C   UNL A   1      43.476  26.827  27.852  1.00  0.00     0.031 A 
ATOM     45  C   UNL A   1      44.680  27.653  27.719  1.00  0.00     0.074 A 
ATOM     46  C   UNL A   1      42.381  27.317  28.473  1.00  0.00     0.049 A 
ATOM     47  N   UNL A   1      45.506  27.940  28.666  1.00  0.00    -0.248 NA
ATOM     48  C   UNL A   1      45.131  28.019  26.368  1.00  0.00     0.031 C 
ATOM     49  C   UNL A   1      41.102  26.648  28.554  1.00  0.00     0.029 A 
ATOM     50  N   UNL A   1      42.128  28.509  29.117  1.00  0.00    -0.354 N 
ATOM     51  C   UNL A   1      46.384  28.826  28.078  1.00  0.00     0.074 A 
ATOM     52  C   UNL A   1      46.274  28.647  26.650  1.00  0.00     0.031 C 
ATOM     53  C   UNL A   1      40.148  27.477  29.019  1.00  0.00     0.029 A 
ATOM     54  C   UNL A   1      40.775  28.726  29.400  1.00  0.00     0.049 A 
ATOM     55  H   UNL A   1      42.836  29.149  29.355  1.00  0.00     0.167 HD
ATOM     56  C   UNL A   1      46.768  29.920  28.780  1.00  0.00     0.037 A 
ATOM     57  C   UNL A   1      40.162  29.806  29.949  1.00  0.00     0.037 A 
ATOM     58  C   UNL A   1      46.609  29.759  30.200  1.00  0.00     0.049 A 
ATOM     59  C   UNL A   1      41.148  30.495  30.807  1.00  0.00     0.074 A 
ATOM     60  C   UNL A   1      47.248  29.055  31.199  1.00  0.00     0.029 A 
ATOM     61  N   UNL A   1      45.394  30.147  30.696  1.00  0.00    -0.354 N 
ATOM     62  N   UNL A   1      41.576  30.014  31.942  1.00  0.00    -0.248 NA
ATOM     63  C   UNL A   1      41.901  31.628  30.280  1.00  0.00     0.031 C 
ATOM     64  C   UNL A   1      46.348  28.992  32.303  1.00  0.00     0.029 A 
ATOM     65  C   UNL A   1      45.179  29.662  31.964  1.00  0.00     0.049 A 
ATOM     66  H   UNL A   1      44.751  30.705  30.204  1.00  0.00     0.167 HD
ATOM     67  C   UNL A   1      42.866  30.484  32.035  1.00  0.00     0.074 A 
ATOM     68  C   UNL A   1      42.953  31.594  31.099  1.00  0.00     0.031 C 
ATOM     69  C   UNL A   1      43.856  29.706  32.551  1.00  0.00     0.037 A 
BRANCH  56  70
ATOM     70  C   UNL A   1      46.797  31.270  28.126  1.00  0.00     0.058 A 
ATOM     71  C   UNL A   1      45.605  31.855  27.682  1.00  0.00     0.135 A 
ATOM     72  C   UNL A   1      47.996  31.899  27.712  1.00  0.00     0.135 A 
ATOM     73  F   UNL A   1      44.425  31.283  27.963  1.00  0.00    -0.206 F 
ATOM     74  C   UNL A   1      45.603  33.007  26.899  1.00  0.00     0.059 A 
ATOM     75  C   UNL A   1      48.018  33.083  26.997  1.00  0.00     0.059 A 
ATOM     76  F   UNL A   1      49.198  31.337  27.908  1.00  0.00    -0.206 F 
ATOM     77  C   UNL A   1      46.815  33.618  26.572  1.00  0.00     0.060 A 
BRANCH  77  78
ATOM     78  S   UNL A   1      46.822  35.101  25.555  1.00  0.00     0.124 S 
ATOM     79  O   UNL A   1      48.218  35.155  25.136  1.00  0.00    -0.237 OA
ATOM     80  O   UNL A   1      45.851  34.766  24.518  1.00  0.00    -0.237 OA
ATOM     81  O   UNL A   1      46.397  36.142  26.487  1.00  0.00    -0.744 OA
ENDBRANCH  77  78
ENDBRANCH  56  70
BRANCH  57  82
ATOM     82  C   UNL A   1      38.775  30.323  29.770  1.00  0.00     0.058 A 
ATOM     83  C   UNL A   1      38.097  30.978  30.818  1.00  0.00     0.135 A 
ATOM     84  C   UNL A   1      38.192  30.445  28.492  1.00  0.00     0.135 A 
ATOM     85  F   UNL A   1      38.572  30.930  32.072  1.00  0.00    -0.206 F 
ATOM     86  C   UNL A   1      36.965  31.769  30.600  1.00  0.00     0.059 A 
ATOM     87  C   UNL A   1      37.052  31.216  28.254  1.00  0.00     0.059 A 
ATOM     88  F   UNL A   1      38.773  29.898  27.413  1.00  0.00    -0.206 F 
ATOM     89  C   UNL A   1      36.467  31.908  29.308  1.00  0.00     0.060 A 
BRANCH  89  90
ATOM     90  S   UNL A   1      35.161  33.122  28.993  1.00  0.00     0.124 S 
ATOM     91  O   UNL A   1      34.846  32.876  27.591  1.00  0.00    -0.237 OA
ATOM     92  O   UNL A   1      34.136  32.727  29.954  1.00  0.00    -0.237 OA
ATOM     93  O   UNL A   1      35.810  34.400  29.274  1.00  0.00    -0.744 OA
ENDBRANCH  89  90
ENDBRANCH  57  82
BRANCH  69  94
ATOM     94  C   UNL A   1      43.519  28.799  33.697  1.00  0.00     0.058 A 
ATOM     95  C   UNL A   1      43.430  29.174  35.047  1.00  0.00     0.135 A 
ATOM     96  C   UNL A   1      43.221  27.464  33.380  1.00  0.00     0.135 A 
ATOM     97  F   UNL A   1      43.653  30.442  35.425  1.00  0.00    -0.206 F 
ATOM     98  C   UNL A   1      43.069  28.252  36.037  1.00  0.00     0.059 A 
ATOM     99  C   UNL A   1      42.838  26.537  34.343  1.00  0.00     0.059 A 
ATOM    100  F   UNL A   1      43.271  27.047  32.103  1.00  0.00    -0.206 F 
ATOM    101  C   UNL A   1      42.770  26.936  35.674  1.00  0.00     0.060 A 
BRANCH 101 102
ATOM    102  S   UNL A   1      42.225  25.757  36.932  1.00  0.00     0.124 S 
ATOM    103  O   UNL A   1      42.899  26.246  38.129  1.00  0.00    -0.237 OA
ATOM    104  O   UNL A   1      40.774  25.910  36.909  1.00  0.00    -0.237 OA
ATOM    105  O   UNL A   1      42.711  24.473  36.428  1.00  0.00    -0.744 OA
ENDBRANCH 101 102
ENDBRANCH  69  94
ENDBRANCH  43  44
ENDBRANCH  36  38
ENDBRANCH  35  36
ENDBRANCH  34  35
ENDBRANCH  33  34
ENDBRANCH  32  33
ENDBRANCH   1  32
TORSDOF 22
ENDMDL
MODEL 3
REMARK VINA RESULT:     -10.4      5.170     12.763
REMARK SMILES CS(=O)(=O)c1ccc(-n2nc(C(F)(F)F)cc2-c2ccc(CC(=O)OCCOCCOC(=O)c3ccc(-c4c5nc(c(-c6c(F)cc(S(=O)(=O)[O-])cc6F)c6ccc([nH]6)c(-c6c(F)cc(S(=O)(=O)[O-])cc6F)c6nc(c(-c7c(F)cc(S(=O)(=O)[O-])cc7F)c7ccc4[nH]7)C=C6)C=C5)cc3)cc2)cc1
REMARK SMILES IDX 27 1 26 2 25 3 23 4 24 5 22 6 21 7 18 8 19 9 101 10 20 11
REMARK SMILES IDX 100 12 17 13 9 14 10 15 11 16 16 17 8 18 5 19 6 20 103 21
REMARK SMILES IDX 7 22 102 23 2 24 1 25 3 26 4 27 12 28 13 29 14 30 15 31
REMARK SMILES IDX 28 32 29 33 30 34 31 35 32 36 33 37 34 38 35 39 99 40 36 41
REMARK SMILES IDX 98 42 37 43 38 44 39 45 92 46 40 47 97 48 91 49 93 50 41 51
REMARK SMILES IDX 96 52 90 53 89 54 42 56 76 57 55 58 75 59 56 60 59 61 74 62
REMARK SMILES IDX 94 63 57 64 58 65 73 67 95 68 60 69 43 70 44 71 53 72 45 73
REMARK SMILES IDX 46 74 52 75 54 76 47 77 48 78 49 79 50 80 51 81 77 82 78 83
REMARK SMILES IDX 87 84 79 85 80 86 86 87 88 88 81 89 82 90 83 91 84 92 85 93
REMARK SMILES IDX 61 94 62 95 71 96 63 97 64 98 70 99 72 100 65 101 66 102
REMARK SMILES IDX 67 103 68 104 69 105
REMARK H PARENT 93 55 59 66
REMARK Flexibility Score: inf
ROOT
ATOM      1  C   UNL A   1      33.912  33.308  33.441  1.00  0.00     0.202 C 
ENDROOT
BRANCH   1   2
ATOM      2  C   UNL A   1      35.285  33.895  33.804  1.00  0.00     0.261 C 
BRANCH   2   3
ATOM      3  O   UNL A   1      36.206  33.009  34.469  1.00  0.00    -0.463 OA
BRANCH   3   4
ATOM      4  C   UNL A   1      37.278  33.628  35.034  1.00  0.00     0.310 C 
ATOM      5  O   UNL A   1      37.655  33.434  36.187  1.00  0.00    -0.252 OA
BRANCH   4   6
ATOM      6  C   UNL A   1      37.927  34.686  34.174  1.00  0.00     0.158 C 
BRANCH   6   7
ATOM      7  C   UNL A   1      39.398  35.009  34.316  1.00  0.00    -0.037 A 
ATOM      8  C   UNL A   1      42.190  35.283  34.736  1.00  0.00     0.000 A 
ATOM      9  C   UNL A   1      41.691  34.704  33.563  1.00  0.00     0.010 A 
ATOM     10  C   UNL A   1      41.277  35.720  35.704  1.00  0.00     0.010 A 
ATOM     11  C   UNL A   1      40.314  34.584  33.346  1.00  0.00     0.005 A 
ATOM     12  C   UNL A   1      39.896  35.590  35.492  1.00  0.00     0.005 A 
BRANCH   8  13
ATOM     13  C   UNL A   1      43.639  35.423  34.936  1.00  0.00     0.075 A 
ATOM     14  N   UNL A   1      44.470  36.381  34.340  1.00  0.00    -0.233 N 
ATOM     15  N   UNL A   1      45.781  36.067  34.506  1.00  0.00    -0.163 NA
ATOM     16  C   UNL A   1      45.803  35.065  35.405  1.00  0.00     0.167 A 
ATOM     17  C   UNL A   1      44.486  34.617  35.675  1.00  0.00     0.064 A 
BRANCH  14  18
ATOM     18  C   UNL A   1      44.109  37.595  33.674  1.00  0.00     0.065 A 
ATOM     19  C   UNL A   1      43.653  40.130  32.502  1.00  0.00     0.067 A 
ATOM     20  C   UNL A   1      43.249  39.865  33.797  1.00  0.00     0.022 A 
ATOM     21  C   UNL A   1      44.253  39.106  31.758  1.00  0.00     0.022 A 
ATOM     22  C   UNL A   1      43.463  38.611  34.377  1.00  0.00     0.030 A 
ATOM     23  C   UNL A   1      44.498  37.847  32.349  1.00  0.00     0.030 A 
BRANCH  19  24
ATOM     24  S   UNL A   1      43.655  41.789  31.841  1.00  0.00     0.175 S 
ATOM     25  C   UNL A   1      43.465  41.744  30.078  1.00  0.00     0.163 C 
ATOM     26  O   UNL A   1      44.964  42.323  32.103  1.00  0.00    -0.224 OA
ATOM     27  O   UNL A   1      42.442  42.405  32.367  1.00  0.00    -0.224 OA
ENDBRANCH  19  24
ENDBRANCH  14  18
BRANCH  16  28
ATOM     28  C   UNL A   1      47.069  34.477  35.986  1.00  0.00     0.435 C 
ATOM     29  F   UNL A   1      47.732  33.656  35.136  1.00  0.00    -0.164 F 
ATOM     30  F   UNL A   1      47.933  35.442  36.395  1.00  0.00    -0.164 F 
ATOM     31  F   UNL A   1      46.782  33.735  37.098  1.00  0.00    -0.164 F 
ENDBRANCH  16  28
ENDBRANCH   8  13
ENDBRANCH   6   7
ENDBRANCH   4   6
ENDBRANCH   3   4
ENDBRANCH   2   3
ENDBRANCH   1   2
BRANCH   1  32
ATOM     32  O   UNL A   1      32.948  34.176  32.870  1.00  0.00    -0.374 OA
BRANCH  32  33
ATOM     33  C   UNL A   1      33.377  35.494  32.553  1.00  0.00     0.202 C 
BRANCH  33  34
ATOM     34  C   UNL A   1      32.924  36.091  31.226  1.00  0.00     0.261 C 
BRANCH  34  35
ATOM     35  O   UNL A   1      33.799  35.818  30.110  1.00  0.00    -0.460 OA
BRANCH  35  36
ATOM     36  C   UNL A   1      33.402  34.802  29.292  1.00  0.00     0.338 C 
ATOM     37  O   UNL A   1      32.249  34.485  29.048  1.00  0.00    -0.246 OA
BRANCH  36  38
ATOM     38  C   UNL A   1      34.544  33.883  29.082  1.00  0.00     0.060 A 
ATOM     39  C   UNL A   1      34.866  33.072  30.174  1.00  0.00     0.016 A 
ATOM     40  C   UNL A   1      35.454  34.056  28.032  1.00  0.00     0.016 A 
ATOM     41  C   UNL A   1      36.172  32.634  30.328  1.00  0.00     0.010 A 
ATOM     42  C   UNL A   1      36.759  33.578  28.174  1.00  0.00     0.010 A 
ATOM     43  C   UNL A   1      37.140  32.939  29.359  1.00  0.00    -0.014 A 
BRANCH  43  44
ATOM     44  C   UNL A   1      38.446  32.283  29.505  1.00  0.00     0.031 A 
ATOM     45  C   UNL A   1      38.308  30.840  29.288  1.00  0.00     0.074 A 
ATOM     46  C   UNL A   1      39.656  32.816  29.787  1.00  0.00     0.049 A 
ATOM     47  N   UNL A   1      38.348  29.932  30.202  1.00  0.00    -0.248 NA
ATOM     48  C   UNL A   1      37.868  30.371  27.965  1.00  0.00     0.031 C 
ATOM     49  C   UNL A   1      39.937  34.229  29.897  1.00  0.00     0.029 A 
ATOM     50  N   UNL A   1      40.898  32.254  29.987  1.00  0.00    -0.354 N 
ATOM     51  C   UNL A   1      38.296  28.750  29.493  1.00  0.00     0.074 A 
ATOM     52  C   UNL A   1      37.757  29.062  28.191  1.00  0.00     0.031 C 
ATOM     53  C   UNL A   1      41.263  34.459  29.946  1.00  0.00     0.029 A 
ATOM     54  C   UNL A   1      41.945  33.182  30.001  1.00  0.00     0.049 A 
ATOM     55  H   UNL A   1      41.036  31.287  30.109  1.00  0.00     0.167 HD
ATOM     56  C   UNL A   1      39.112  27.734  29.865  1.00  0.00     0.037 A 
ATOM     57  C   UNL A   1      43.285  32.984  30.098  1.00  0.00     0.037 A 
ATOM     58  C   UNL A   1      39.554  27.842  31.228  1.00  0.00     0.049 A 
ATOM     59  C   UNL A   1      43.500  31.716  30.825  1.00  0.00     0.074 A 
ATOM     60  C   UNL A   1      38.989  27.670  32.474  1.00  0.00     0.029 A 
ATOM     61  N   UNL A   1      40.717  28.541  31.409  1.00  0.00    -0.354 N 
ATOM     62  N   UNL A   1      43.268  31.568  32.100  1.00  0.00    -0.248 NA
ATOM     63  C   UNL A   1      43.723  30.482  30.078  1.00  0.00     0.031 C 
ATOM     64  C   UNL A   1      39.834  28.337  33.409  1.00  0.00     0.029 A 
ATOM     65  C   UNL A   1      40.903  28.898  32.722  1.00  0.00     0.049 A 
ATOM     66  H   UNL A   1      41.345  28.762  30.684  1.00  0.00     0.167 HD
ATOM     67  C   UNL A   1      42.891  30.249  32.218  1.00  0.00     0.074 A 
ATOM     68  C   UNL A   1      43.352  29.595  31.004  1.00  0.00     0.031 C 
ATOM     69  C   UNL A   1      41.905  29.881  33.081  1.00  0.00     0.037 A 
BRANCH  56  70
ATOM     70  C   UNL A   1      39.878  26.959  28.834  1.00  0.00     0.058 A 
ATOM     71  C   UNL A   1      39.651  25.586  28.683  1.00  0.00     0.135 A 
ATOM     72  C   UNL A   1      41.001  27.488  28.152  1.00  0.00     0.135 A 
ATOM     73  F   UNL A   1      38.655  24.987  29.353  1.00  0.00    -0.206 F 
ATOM     74  C   UNL A   1      40.471  24.792  27.884  1.00  0.00     0.059 A 
ATOM     75  C   UNL A   1      41.786  26.735  27.297  1.00  0.00     0.059 A 
ATOM     76  F   UNL A   1      41.438  28.738  28.363  1.00  0.00    -0.206 F 
ATOM     77  C   UNL A   1      41.528  25.380  27.188  1.00  0.00     0.060 A 
BRANCH  77  78
ATOM     78  S   UNL A   1      42.597  24.362  26.161  1.00  0.00     0.124 S 
ATOM     79  O   UNL A   1      43.792  24.271  26.990  1.00  0.00    -0.237 OA
ATOM     80  O   UNL A   1      41.813  23.138  26.023  1.00  0.00    -0.237 OA
ATOM     81  O   UNL A   1      42.729  25.150  24.938  1.00  0.00    -0.744 OA
ENDBRANCH  77  78
ENDBRANCH  56  70
BRANCH  57  82
ATOM     82  C   UNL A   1      44.421  33.798  29.579  1.00  0.00     0.058 A 
ATOM     83  C   UNL A   1      44.606  33.998  28.195  1.00  0.00     0.135 A 
ATOM     84  C   UNL A   1      45.179  34.633  30.425  1.00  0.00     0.135 A 
ATOM     85  F   UNL A   1      43.926  33.261  27.304  1.00  0.00    -0.206 F 
ATOM     86  C   UNL A   1      45.423  35.012  27.686  1.00  0.00     0.059 A 
ATOM     87  C   UNL A   1      46.016  35.640  29.939  1.00  0.00     0.059 A 
ATOM     88  F   UNL A   1      45.053  34.560  31.759  1.00  0.00    -0.206 F 
ATOM     89  C   UNL A   1      46.101  35.850  28.567  1.00  0.00     0.060 A 
BRANCH  89  90
ATOM     90  S   UNL A   1      46.955  37.307  27.915  1.00  0.00     0.124 S 
ATOM     91  O   UNL A   1      48.265  37.202  28.548  1.00  0.00    -0.237 OA
ATOM     92  O   UNL A   1      46.923  37.064  26.476  1.00  0.00    -0.237 OA
ATOM     93  O   UNL A   1      46.126  38.419  28.371  1.00  0.00    -0.744 OA
ENDBRANCH  89  90
ENDBRANCH  57  82
BRANCH  69  94
ATOM     94  C   UNL A   1      41.810  30.597  34.394  1.00  0.00     0.058 A 
ATOM     95  C   UNL A   1      40.763  31.440  34.800  1.00  0.00     0.135 A 
ATOM     96  C   UNL A   1      42.843  30.365  35.318  1.00  0.00     0.135 A 
ATOM     97  F   UNL A   1      39.716  31.674  33.994  1.00  0.00    -0.206 F 
ATOM     98  C   UNL A   1      40.754  32.031  36.070  1.00  0.00     0.059 A 
ATOM     99  C   UNL A   1      42.843  30.923  36.590  1.00  0.00     0.059 A 
ATOM    100  F   UNL A   1      43.865  29.554  34.995  1.00  0.00    -0.206 F 
ATOM    101  C   UNL A   1      41.797  31.763  36.959  1.00  0.00     0.060 A 
BRANCH 101 102
ATOM    102  S   UNL A   1      41.758  32.457  38.629  1.00  0.00     0.124 S 
ATOM    103  O   UNL A   1      42.349  33.775  38.432  1.00  0.00    -0.237 OA
ATOM    104  O   UNL A   1      40.334  32.439  38.950  1.00  0.00    -0.237 OA
ATOM    105  O   UNL A   1      42.570  31.522  39.406  1.00  0.00    -0.744 OA
ENDBRANCH 101 102
ENDBRANCH  69  94
ENDBRANCH  43  44
ENDBRANCH  36  38
ENDBRANCH  35  36
ENDBRANCH  34  35
ENDBRANCH  33  34
ENDBRANCH  32  33
ENDBRANCH   1  32
TORSDOF 22
ENDMDL
