MODEL 1
REMARK VINA RESULT:     -10.6      0.000      0.000
REMARK SMILES CCOc1cc(OCC)cc(-c2ccc([C@@H](C)C(=O)OCCOCCOC(=O)c3ccc(-c4c5nc(c(-c6c(F)cc(S(=O)(=O)[O-])cc6F)c6ccc([nH]6)c(-c6c(F)cc(S(=O)(=O)[O-])cc6F)c6nc(c(-c7c(F)cc(S(=O)(=O)[O-])cc7F)c7ccc4[nH]7)C=C6)C=C5)cc3)cc2F)c1
REMARK SMILES IDX 22 1 21 2 20 3 18 4 19 5 16 6 17 7 15 8 12 9 13 10 96 11
REMARK SMILES IDX 14 12 95 13 97 14 11 15 4 16 5 17 98 18 6 19 10 20 3 21 2 22
REMARK SMILES IDX 1 23 7 24 8 25 9 26 23 27 24 28 25 29 26 30 27 31 28 32
REMARK SMILES IDX 29 33 30 34 94 35 31 36 93 37 32 38 33 39 34 40 87 41 35 42
REMARK SMILES IDX 92 43 86 44 88 45 36 46 91 47 85 48 84 49 37 51 71 52 50 53
REMARK SMILES IDX 70 54 51 55 54 56 69 57 89 58 52 59 53 60 68 62 90 63 55 64
REMARK SMILES IDX 38 65 39 66 48 67 40 68 41 69 47 70 49 71 42 72 43 73 44 74
REMARK SMILES IDX 45 75 46 76 72 77 73 78 82 79 74 80 75 81 81 82 83 83 76 84
REMARK SMILES IDX 77 85 78 86 79 87 80 88 56 89 57 90 66 91 58 92 59 93 65 94
REMARK SMILES IDX 67 95 60 96 61 97 62 98 63 99 64 100
REMARK H PARENT 88 50 54 61
REMARK Flexibility Score: inf
ROOT
ATOM      1  C   UNL A   1      33.261  30.574  26.300  1.00  0.00     0.202 C 
ENDROOT
BRANCH   1   2
ATOM      2  C   UNL A   1      33.167  29.116  25.840  1.00  0.00     0.261 C 
BRANCH   2   3
ATOM      3  O   UNL A   1      32.880  29.023  24.433  1.00  0.00    -0.463 OA
BRANCH   3   4
ATOM      4  C   UNL A   1      31.567  28.921  24.098  1.00  0.00     0.313 C 
ATOM      5  O   UNL A   1      30.672  29.616  24.568  1.00  0.00    -0.252 OA
BRANCH   4   6
ATOM      6  C   UNL A   1      31.281  27.823  23.086  1.00  0.00     0.126 C 
ATOM      7  C   UNL A   1      29.773  27.649  22.930  1.00  0.00     0.025 C 
BRANCH   6   8
ATOM      8  C   UNL A   1      31.990  26.486  23.278  1.00  0.00    -0.031 A 
ATOM      9  C   UNL A   1      33.397  24.075  23.857  1.00  0.00     0.018 A 
ATOM     10  C   UNL A   1      33.816  24.936  22.829  1.00  0.00     0.012 A 
ATOM     11  C   UNL A   1      32.229  24.423  24.546  1.00  0.00     0.131 A 
ATOM     12  C   UNL A   1      33.128  26.124  22.545  1.00  0.00     0.005 A 
ATOM     13  C   UNL A   1      31.534  25.601  24.268  1.00  0.00     0.044 A 
ATOM     14  F   UNL A   1      31.766  23.642  25.536  1.00  0.00    -0.206 F 
BRANCH   9  15
ATOM     15  C   UNL A   1      34.194  22.895  24.228  1.00  0.00    -0.008 A 
ATOM     16  C   UNL A   1      36.326  21.803  24.632  1.00  0.00     0.123 A 
ATOM     17  C   UNL A   1      35.673  20.601  24.905  1.00  0.00     0.092 A 
ATOM     18  C   UNL A   1      35.593  22.934  24.273  1.00  0.00     0.055 A 
ATOM     19  C   UNL A   1      34.282  20.526  24.834  1.00  0.00     0.123 A 
ATOM     20  C   UNL A   1      33.555  21.673  24.507  1.00  0.00     0.055 A 
BRANCH  16  21
ATOM     21  O   UNL A   1      37.694  21.795  24.584  1.00  0.00    -0.494 OA
BRANCH  21  22
ATOM     22  C   UNL A   1      38.320  21.969  25.862  1.00  0.00     0.226 C 
ATOM     23  C   UNL A   1      38.498  23.438  26.213  1.00  0.00     0.049 C 
ENDBRANCH  21  22
ENDBRANCH  16  21
BRANCH  19  24
ATOM     24  O   UNL A   1      33.740  19.300  25.112  1.00  0.00    -0.494 OA
BRANCH  24  25
ATOM     25  C   UNL A   1      33.225  18.533  24.021  1.00  0.00     0.226 C 
ATOM     26  C   UNL A   1      34.188  17.429  23.615  1.00  0.00     0.049 C 
ENDBRANCH  24  25
ENDBRANCH  19  24
ENDBRANCH   9  15
ENDBRANCH   6   8
ENDBRANCH   4   6
ENDBRANCH   3   4
ENDBRANCH   2   3
ENDBRANCH   1   2
BRANCH   1  27
ATOM     27  O   UNL A   1      33.389  30.790  27.705  1.00  0.00    -0.374 OA
BRANCH  27  28
ATOM     28  C   UNL A   1      34.009  32.006  28.125  1.00  0.00     0.202 C 
BRANCH  28  29
ATOM     29  C   UNL A   1      35.121  31.892  29.176  1.00  0.00     0.261 C 
BRANCH  29  30
ATOM     30  O   UNL A   1      35.770  30.608  29.157  1.00  0.00    -0.460 OA
BRANCH  30  31
ATOM     31  C   UNL A   1      36.463  30.297  30.278  1.00  0.00     0.338 C 
ATOM     32  O   UNL A   1      36.005  30.072  31.392  1.00  0.00    -0.246 OA
BRANCH  31  33
ATOM     33  C   UNL A   1      37.880  30.069  29.943  1.00  0.00     0.060 A 
ATOM     34  C   UNL A   1      38.219  29.950  28.589  1.00  0.00     0.016 A 
ATOM     35  C   UNL A   1      38.852  29.922  30.933  1.00  0.00     0.016 A 
ATOM     36  C   UNL A   1      39.532  29.662  28.219  1.00  0.00     0.010 A 
ATOM     37  C   UNL A   1      40.167  29.620  30.561  1.00  0.00     0.010 A 
ATOM     38  C   UNL A   1      40.511  29.470  29.204  1.00  0.00    -0.014 A 
BRANCH  38  39
ATOM     39  C   UNL A   1      41.875  29.034  28.819  1.00  0.00     0.031 A 
ATOM     40  C   UNL A   1      42.989  30.043  28.771  1.00  0.00     0.074 A 
ATOM     41  C   UNL A   1      42.117  27.744  28.520  1.00  0.00     0.049 A 
ATOM     42  N   UNL A   1      44.229  29.887  28.389  1.00  0.00    -0.248 NA
ATOM     43  C   UNL A   1      42.660  31.408  29.210  1.00  0.00     0.031 C 
ATOM     44  C   UNL A   1      41.129  26.668  28.571  1.00  0.00     0.029 A 
ATOM     45  N   UNL A   1      43.267  27.126  28.095  1.00  0.00    -0.354 N 
ATOM     46  C   UNL A   1      44.830  31.132  28.534  1.00  0.00     0.074 A 
ATOM     47  C   UNL A   1      43.811  32.038  29.018  1.00  0.00     0.031 C 
ATOM     48  C   UNL A   1      41.710  25.523  28.175  1.00  0.00     0.029 A 
ATOM     49  C   UNL A   1      43.098  25.793  27.803  1.00  0.00     0.049 A 
ATOM     50  H   UNL A   1      44.129  27.591  28.009  1.00  0.00     0.167 HD
ATOM     51  C   UNL A   1      46.116  31.483  28.290  1.00  0.00     0.037 A 
ATOM     52  C   UNL A   1      43.954  24.902  27.265  1.00  0.00     0.037 A 
ATOM     53  C   UNL A   1      47.124  30.575  27.807  1.00  0.00     0.049 A 
ATOM     54  C   UNL A   1      45.354  25.338  26.919  1.00  0.00     0.074 A 
ATOM     55  C   UNL A   1      48.463  30.830  27.560  1.00  0.00     0.029 A 
ATOM     56  N   UNL A   1      46.906  29.244  27.484  1.00  0.00    -0.354 N 
ATOM     57  N   UNL A   1      45.917  26.510  27.090  1.00  0.00    -0.248 NA
ATOM     58  C   UNL A   1      46.232  24.334  26.301  1.00  0.00     0.031 C 
ATOM     59  C   UNL A   1      49.039  29.668  27.035  1.00  0.00     0.029 A 
ATOM     60  C   UNL A   1      48.074  28.674  27.004  1.00  0.00     0.049 A 
ATOM     61  H   UNL A   1      46.047  28.774  27.582  1.00  0.00     0.167 HD
ATOM     62  C   UNL A   1      47.219  26.379  26.615  1.00  0.00     0.074 A 
ATOM     63  C   UNL A   1      47.364  25.009  26.166  1.00  0.00     0.031 C 
ATOM     64  C   UNL A   1      48.205  27.310  26.555  1.00  0.00     0.037 A 
BRANCH  51  65
ATOM     65  C   UNL A   1      46.504  32.918  28.515  1.00  0.00     0.058 A 
ATOM     66  C   UNL A   1      46.999  33.368  29.748  1.00  0.00     0.135 A 
ATOM     67  C   UNL A   1      46.423  33.848  27.464  1.00  0.00     0.135 A 
ATOM     68  F   UNL A   1      47.082  32.525  30.791  1.00  0.00    -0.206 F 
ATOM     69  C   UNL A   1      47.382  34.692  29.940  1.00  0.00     0.059 A 
ATOM     70  C   UNL A   1      46.824  35.171  27.625  1.00  0.00     0.059 A 
ATOM     71  F   UNL A   1      45.955  33.472  26.264  1.00  0.00    -0.206 F 
ATOM     72  C   UNL A   1      47.292  35.586  28.872  1.00  0.00     0.060 A 
BRANCH  72  73
ATOM     73  S   UNL A   1      47.801  37.298  29.134  1.00  0.00     0.124 S 
ATOM     74  O   UNL A   1      48.408  37.621  27.846  1.00  0.00    -0.237 OA
ATOM     75  O   UNL A   1      46.533  37.960  29.420  1.00  0.00    -0.237 OA
ATOM     76  O   UNL A   1      48.727  37.211  30.258  1.00  0.00    -0.744 OA
ENDBRANCH  72  73
ENDBRANCH  51  65
BRANCH  52  77
ATOM     77  C   UNL A   1      43.499  23.513  26.985  1.00  0.00     0.058 A 
ATOM     78  C   UNL A   1      43.371  22.569  28.014  1.00  0.00     0.135 A 
ATOM     79  C   UNL A   1      43.184  23.104  25.680  1.00  0.00     0.135 A 
ATOM     80  F   UNL A   1      43.675  22.908  29.276  1.00  0.00    -0.206 F 
ATOM     81  C   UNL A   1      42.955  21.266  27.759  1.00  0.00     0.059 A 
ATOM     82  C   UNL A   1      42.741  21.814  25.403  1.00  0.00     0.059 A 
ATOM     83  F   UNL A   1      43.282  23.972  24.660  1.00  0.00    -0.206 F 
ATOM     84  C   UNL A   1      42.638  20.900  26.450  1.00  0.00     0.060 A 
BRANCH  84  85
ATOM     85  S   UNL A   1      42.046  19.223  26.136  1.00  0.00     0.124 S 
ATOM     86  O   UNL A   1      42.796  18.866  24.937  1.00  0.00    -0.237 OA
ATOM     87  O   UNL A   1      42.431  18.529  27.361  1.00  0.00    -0.237 OA
ATOM     88  O   UNL A   1      40.609  19.404  25.953  1.00  0.00    -0.744 OA
ENDBRANCH  84  85
ENDBRANCH  52  77
BRANCH  64  89
ATOM     89  C   UNL A   1      49.533  26.884  25.993  1.00  0.00     0.058 A 
ATOM     90  C   UNL A   1      49.846  27.063  24.637  1.00  0.00     0.135 A 
ATOM     91  C   UNL A   1      50.527  26.353  26.831  1.00  0.00     0.135 A 
ATOM     92  F   UNL A   1      48.929  27.557  23.790  1.00  0.00    -0.206 F 
ATOM     93  C   UNL A   1      51.094  26.719  24.128  1.00  0.00     0.059 A 
ATOM     94  C   UNL A   1      51.791  26.026  26.348  1.00  0.00     0.059 A 
ATOM     95  F   UNL A   1      50.283  26.168  28.137  1.00  0.00    -0.206 F 
ATOM     96  C   UNL A   1      52.063  26.206  24.992  1.00  0.00     0.060 A 
BRANCH  96  97
ATOM     97  S   UNL A   1      53.694  25.810  24.327  1.00  0.00     0.124 S 
ATOM     98  O   UNL A   1      53.475  25.969  22.893  1.00  0.00    -0.237 OA
ATOM     99  O   UNL A   1      54.540  26.820  24.955  1.00  0.00    -0.237 OA
ATOM    100  O   UNL A   1      53.923  24.441  24.779  1.00  0.00    -0.744 OA
ENDBRANCH  96  97
ENDBRANCH  64  89
ENDBRANCH  38  39
ENDBRANCH  31  33
ENDBRANCH  30  31
ENDBRANCH  29  30
ENDBRANCH  28  29
ENDBRANCH  27  28
ENDBRANCH   1  27
TORSDOF 23
ENDMDL
MODEL 2
REMARK VINA RESULT:     -10.4      2.247      8.907
REMARK SMILES CCOc1cc(OCC)cc(-c2ccc([C@@H](C)C(=O)OCCOCCOC(=O)c3ccc(-c4c5nc(c(-c6c(F)cc(S(=O)(=O)[O-])cc6F)c6ccc([nH]6)c(-c6c(F)cc(S(=O)(=O)[O-])cc6F)c6nc(c(-c7c(F)cc(S(=O)(=O)[O-])cc7F)c7ccc4[nH]7)C=C6)C=C5)cc3)cc2F)c1
REMARK SMILES IDX 22 1 21 2 20 3 18 4 19 5 16 6 17 7 15 8 12 9 13 10 96 11
REMARK SMILES IDX 14 12 95 13 97 14 11 15 4 16 5 17 98 18 6 19 10 20 3 21 2 22
REMARK SMILES IDX 1 23 7 24 8 25 9 26 23 27 24 28 25 29 26 30 27 31 28 32
REMARK SMILES IDX 29 33 30 34 94 35 31 36 93 37 32 38 33 39 34 40 87 41 35 42
REMARK SMILES IDX 92 43 86 44 88 45 36 46 91 47 85 48 84 49 37 51 71 52 50 53
REMARK SMILES IDX 70 54 51 55 54 56 69 57 89 58 52 59 53 60 68 62 90 63 55 64
REMARK SMILES IDX 38 65 39 66 48 67 40 68 41 69 47 70 49 71 42 72 43 73 44 74
REMARK SMILES IDX 45 75 46 76 72 77 73 78 82 79 74 80 75 81 81 82 83 83 76 84
REMARK SMILES IDX 77 85 78 86 79 87 80 88 56 89 57 90 66 91 58 92 59 93 65 94
REMARK SMILES IDX 67 95 60 96 61 97 62 98 63 99 64 100
REMARK H PARENT 88 50 54 61
REMARK Flexibility Score: inf
ROOT
ATOM      1  C   UNL A   1      34.478  35.036  31.884  1.00  0.00     0.202 C 
ENDROOT
BRANCH   1   2
ATOM      2  C   UNL A   1      33.863  34.333  30.670  1.00  0.00     0.261 C 
BRANCH   2   3
ATOM      3  O   UNL A   1      34.206  35.000  29.442  1.00  0.00    -0.463 OA
BRANCH   3   4
ATOM      4  C   UNL A   1      34.678  34.207  28.445  1.00  0.00     0.313 C 
ATOM      5  O   UNL A   1      34.678  34.509  27.255  1.00  0.00    -0.252 OA
BRANCH   4   6
ATOM      6  C   UNL A   1      35.194  32.861  28.929  1.00  0.00     0.126 C 
ATOM      7  C   UNL A   1      36.704  32.932  29.130  1.00  0.00     0.025 C 
BRANCH   6   8
ATOM      8  C   UNL A   1      34.784  31.624  28.136  1.00  0.00    -0.031 A 
ATOM      9  C   UNL A   1      33.871  29.250  26.848  1.00  0.00     0.018 A 
ATOM     10  C   UNL A   1      35.198  29.375  27.293  1.00  0.00     0.012 A 
ATOM     11  C   UNL A   1      33.034  30.360  27.013  1.00  0.00     0.131 A 
ATOM     12  C   UNL A   1      35.647  30.540  27.931  1.00  0.00     0.005 A 
ATOM     13  C   UNL A   1      33.474  31.525  27.642  1.00  0.00     0.044 A 
ATOM     14  F   UNL A   1      31.756  30.313  26.604  1.00  0.00    -0.206 F 
BRANCH   9  15
ATOM     15  C   UNL A   1      33.377  27.981  26.292  1.00  0.00    -0.008 A 
ATOM     16  C   UNL A   1      31.817  26.118  26.287  1.00  0.00     0.123 A 
ATOM     17  C   UNL A   1      32.494  25.536  25.216  1.00  0.00     0.092 A 
ATOM     18  C   UNL A   1      32.269  27.318  26.836  1.00  0.00     0.055 A 
ATOM     19  C   UNL A   1      33.621  26.159  24.676  1.00  0.00     0.123 A 
ATOM     20  C   UNL A   1      34.045  27.377  25.210  1.00  0.00     0.055 A 
BRANCH  16  21
ATOM     21  O   UNL A   1      30.800  25.408  26.867  1.00  0.00    -0.494 OA
BRANCH  21  22
ATOM     22  C   UNL A   1      30.494  24.179  26.195  1.00  0.00     0.226 C 
ATOM     23  C   UNL A   1      29.982  23.118  27.156  1.00  0.00     0.049 C 
ENDBRANCH  21  22
ENDBRANCH  16  21
BRANCH  19  24
ATOM     24  O   UNL A   1      34.216  25.503  23.633  1.00  0.00    -0.494 OA
BRANCH  24  25
ATOM     25  C   UNL A   1      33.433  25.259  22.462  1.00  0.00     0.226 C 
ATOM     26  C   UNL A   1      32.966  26.558  21.826  1.00  0.00     0.049 C 
ENDBRANCH  24  25
ENDBRANCH  19  24
ENDBRANCH   9  15
ENDBRANCH   6   8
ENDBRANCH   4   6
ENDBRANCH   3   4
ENDBRANCH   2   3
ENDBRANCH   1   2
BRANCH   1  27
ATOM     27  O   UNL A   1      34.729  34.222  33.030  1.00  0.00    -0.374 OA
BRANCH  27  28
ATOM     28  C   UNL A   1      35.970  33.517  33.070  1.00  0.00     0.202 C 
BRANCH  28  29
ATOM     29  C   UNL A   1      35.928  32.016  32.755  1.00  0.00     0.261 C 
BRANCH  29  30
ATOM     30  O   UNL A   1      37.235  31.468  32.506  1.00  0.00    -0.460 OA
BRANCH  30  31
ATOM     31  C   UNL A   1      37.258  30.375  31.706  1.00  0.00     0.338 C 
ATOM     32  O   UNL A   1      36.303  29.686  31.368  1.00  0.00    -0.246 OA
BRANCH  31  33
ATOM     33  C   UNL A   1      38.599  30.217  31.116  1.00  0.00     0.060 A 
ATOM     34  C   UNL A   1      38.715  30.320  29.724  1.00  0.00     0.016 A 
ATOM     35  C   UNL A   1      39.714  29.920  31.901  1.00  0.00     0.016 A 
ATOM     36  C   UNL A   1      39.947  30.107  29.107  1.00  0.00     0.010 A 
ATOM     37  C   UNL A   1      40.947  29.693  31.279  1.00  0.00     0.010 A 
ATOM     38  C   UNL A   1      41.067  29.767  29.879  1.00  0.00    -0.014 A 
BRANCH  38  39
ATOM     39  C   UNL A   1      42.345  29.410  29.215  1.00  0.00     0.031 A 
ATOM     40  C   UNL A   1      42.539  28.017  28.684  1.00  0.00     0.074 A 
ATOM     41  C   UNL A   1      43.323  30.326  29.085  1.00  0.00     0.049 A 
ATOM     42  N   UNL A   1      43.600  27.480  28.141  1.00  0.00    -0.248 NA
ATOM     43  C   UNL A   1      41.384  27.110  28.777  1.00  0.00     0.031 C 
ATOM     44  C   UNL A   1      43.236  31.719  29.522  1.00  0.00     0.029 A 
ATOM     45  N   UNL A   1      44.587  30.216  28.563  1.00  0.00    -0.354 N 
ATOM     46  C   UNL A   1      43.248  26.171  27.834  1.00  0.00     0.074 A 
ATOM     47  C   UNL A   1      41.880  25.989  28.271  1.00  0.00     0.031 C 
ATOM     48  C   UNL A   1      44.405  32.330  29.267  1.00  0.00     0.029 A 
ATOM     49  C   UNL A   1      45.335  31.363  28.686  1.00  0.00     0.049 A 
ATOM     50  H   UNL A   1      44.926  29.395  28.139  1.00  0.00     0.167 HD
ATOM     51  C   UNL A   1      43.996  25.213  27.236  1.00  0.00     0.037 A 
ATOM     52  C   UNL A   1      46.630  31.597  28.397  1.00  0.00     0.037 A 
ATOM     53  C   UNL A   1      45.357  25.401  26.805  1.00  0.00     0.049 A 
ATOM     54  C   UNL A   1      47.469  30.488  27.815  1.00  0.00     0.074 A 
ATOM     55  C   UNL A   1      46.188  24.500  26.161  1.00  0.00     0.029 A 
ATOM     56  N   UNL A   1      46.093  26.563  26.984  1.00  0.00    -0.354 N 
ATOM     57  N   UNL A   1      47.114  29.265  27.501  1.00  0.00    -0.248 NA
ATOM     58  C   UNL A   1      48.884  30.789  27.554  1.00  0.00     0.031 C 
ATOM     59  C   UNL A   1      47.443  25.098  26.002  1.00  0.00     0.029 A 
ATOM     60  C   UNL A   1      47.379  26.390  26.499  1.00  0.00     0.049 A 
ATOM     61  H   UNL A   1      45.752  27.389  27.396  1.00  0.00     0.167 HD
ATOM     62  C   UNL A   1      48.257  28.656  26.992  1.00  0.00     0.074 A 
ATOM     63  C   UNL A   1      49.310  29.651  27.024  1.00  0.00     0.031 C 
ATOM     64  C   UNL A   1      48.421  27.387  26.541  1.00  0.00     0.037 A 
BRANCH  51  65
ATOM     65  C   UNL A   1      43.371  23.860  27.037  1.00  0.00     0.058 A 
ATOM     66  C   UNL A   1      42.850  23.460  25.796  1.00  0.00     0.135 A 
ATOM     67  C   UNL A   1      43.336  22.932  28.091  1.00  0.00     0.135 A 
ATOM     68  F   UNL A   1      42.844  24.313  24.760  1.00  0.00    -0.206 F 
ATOM     69  C   UNL A   1      42.298  22.196  25.612  1.00  0.00     0.059 A 
ATOM     70  C   UNL A   1      42.811  21.653  27.923  1.00  0.00     0.059 A 
ATOM     71  F   UNL A   1      43.819  23.262  29.299  1.00  0.00    -0.206 F 
ATOM     72  C   UNL A   1      42.284  21.299  26.681  1.00  0.00     0.060 A 
BRANCH  72  73
ATOM     73  S   UNL A   1      41.573  19.660  26.424  1.00  0.00     0.124 S 
ATOM     74  O   UNL A   1      40.188  19.991  26.101  1.00  0.00    -0.237 OA
ATOM     75  O   UNL A   1      42.374  19.144  25.319  1.00  0.00    -0.237 OA
ATOM     76  O   UNL A   1      41.775  18.994  27.706  1.00  0.00    -0.744 OA
ENDBRANCH  72  73
ENDBRANCH  51  65
BRANCH  52  77
ATOM     77  C   UNL A   1      47.227  32.928  28.689  1.00  0.00     0.058 A 
ATOM     78  C   UNL A   1      47.261  33.937  27.716  1.00  0.00     0.135 A 
ATOM     79  C   UNL A   1      47.775  33.215  29.949  1.00  0.00     0.135 A 
ATOM     80  F   UNL A   1      46.763  33.706  26.492  1.00  0.00    -0.206 F 
ATOM     81  C   UNL A   1      47.825  35.182  27.978  1.00  0.00     0.059 A 
ATOM     82  C   UNL A   1      48.322  34.460  30.243  1.00  0.00     0.059 A 
ATOM     83  F   UNL A   1      47.760  32.286  30.917  1.00  0.00    -0.206 F 
ATOM     84  C   UNL A   1      48.349  35.435  29.247  1.00  0.00     0.060 A 
BRANCH  84  85
ATOM     85  S   UNL A   1      49.029  37.072  29.595  1.00  0.00     0.124 S 
ATOM     86  O   UNL A   1      50.227  36.736  30.357  1.00  0.00    -0.237 OA
ATOM     87  O   UNL A   1      49.251  37.602  28.254  1.00  0.00    -0.237 OA
ATOM     88  O   UNL A   1      47.962  37.724  30.349  1.00  0.00    -0.744 OA
ENDBRANCH  84  85
ENDBRANCH  52  77
BRANCH  64  89
ATOM     89  C   UNL A   1      49.782  26.997  26.035  1.00  0.00     0.058 A 
ATOM     90  C   UNL A   1      50.146  27.181  24.692  1.00  0.00     0.135 A 
ATOM     91  C   UNL A   1      50.756  26.497  26.914  1.00  0.00     0.135 A 
ATOM     92  F   UNL A   1      49.250  27.646  23.807  1.00  0.00    -0.206 F 
ATOM     93  C   UNL A   1      51.423  26.870  24.235  1.00  0.00     0.059 A 
ATOM     94  C   UNL A   1      52.047  26.204  26.485  1.00  0.00     0.059 A 
ATOM     95  F   UNL A   1      50.464  26.309  28.211  1.00  0.00    -0.206 F 
ATOM     96  C   UNL A   1      52.369  26.388  25.141  1.00  0.00     0.060 A 
BRANCH  96  97
ATOM     97  S   UNL A   1      54.037  26.036  24.544  1.00  0.00     0.124 S 
ATOM     98  O   UNL A   1      54.843  26.907  25.392  1.00  0.00    -0.237 OA
ATOM     99  O   UNL A   1      54.164  24.605  24.803  1.00  0.00    -0.237 OA
ATOM    100  O   UNL A   1      53.981  26.409  23.135  1.00  0.00    -0.744 OA
ENDBRANCH  96  97
ENDBRANCH  64  89
ENDBRANCH  38  39
ENDBRANCH  31  33
ENDBRANCH  30  31
ENDBRANCH  29  30
ENDBRANCH  28  29
ENDBRANCH  27  28
ENDBRANCH   1  27
TORSDOF 23
ENDMDL
MODEL 3
REMARK VINA RESULT:     -10.2      4.880     12.518
REMARK SMILES CCOc1cc(OCC)cc(-c2ccc([C@@H](C)C(=O)OCCOCCOC(=O)c3ccc(-c4c5nc(c(-c6c(F)cc(S(=O)(=O)[O-])cc6F)c6ccc([nH]6)c(-c6c(F)cc(S(=O)(=O)[O-])cc6F)c6nc(c(-c7c(F)cc(S(=O)(=O)[O-])cc7F)c7ccc4[nH]7)C=C6)C=C5)cc3)cc2F)c1
REMARK SMILES IDX 22 1 21 2 20 3 18 4 19 5 16 6 17 7 15 8 12 9 13 10 96 11
REMARK SMILES IDX 14 12 95 13 97 14 11 15 4 16 5 17 98 18 6 19 10 20 3 21 2 22
REMARK SMILES IDX 1 23 7 24 8 25 9 26 23 27 24 28 25 29 26 30 27 31 28 32
REMARK SMILES IDX 29 33 30 34 94 35 31 36 93 37 32 38 33 39 34 40 87 41 35 42
REMARK SMILES IDX 92 43 86 44 88 45 36 46 91 47 85 48 84 49 37 51 71 52 50 53
REMARK SMILES IDX 70 54 51 55 54 56 69 57 89 58 52 59 53 60 68 62 90 63 55 64
REMARK SMILES IDX 38 65 39 66 48 67 40 68 41 69 47 70 49 71 42 72 43 73 44 74
REMARK SMILES IDX 45 75 46 76 72 77 73 78 82 79 74 80 75 81 81 82 83 83 76 84
REMARK SMILES IDX 77 85 78 86 79 87 80 88 56 89 57 90 66 91 58 92 59 93 65 94
REMARK SMILES IDX 67 95 60 96 61 97 62 98 63 99 64 100
REMARK H PARENT 88 50 54 61
REMARK Flexibility Score: inf
ROOT
ATOM      1  C   UNL A   1      42.685  21.875  27.661  1.00  0.00     0.202 C 
ENDROOT
BRANCH   1   2
ATOM      2  C   UNL A   1      43.746  22.973  27.545  1.00  0.00     0.261 C 
BRANCH   2   3
ATOM      3  O   UNL A   1      43.267  24.094  26.784  1.00  0.00    -0.463 OA
BRANCH   3   4
ATOM      4  C   UNL A   1      43.637  24.129  25.476  1.00  0.00     0.313 C 
ATOM      5  O   UNL A   1      43.188  23.389  24.606  1.00  0.00    -0.252 OA
BRANCH   4   6
ATOM      6  C   UNL A   1      44.705  25.167  25.172  1.00  0.00     0.126 C 
ATOM      7  C   UNL A   1      46.074  24.495  25.119  1.00  0.00     0.025 C 
BRANCH   6   8
ATOM      8  C   UNL A   1      44.724  26.428  26.029  1.00  0.00    -0.031 A 
ATOM      9  C   UNL A   1      44.813  28.915  27.422  1.00  0.00     0.018 A 
ATOM     10  C   UNL A   1      45.794  27.930  27.624  1.00  0.00     0.012 A 
ATOM     11  C   UNL A   1      43.761  28.601  26.552  1.00  0.00     0.131 A 
ATOM     12  C   UNL A   1      45.755  26.709  26.936  1.00  0.00     0.005 A 
ATOM     13  C   UNL A   1      43.711  27.386  25.868  1.00  0.00     0.044 A 
ATOM     14  F   UNL A   1      42.784  29.493  26.320  1.00  0.00    -0.206 F 
BRANCH   9  15
ATOM     15  C   UNL A   1      44.929  30.238  28.053  1.00  0.00    -0.008 A 
ATOM     16  C   UNL A   1      43.941  32.203  29.087  1.00  0.00     0.123 A 
ATOM     17  C   UNL A   1      45.202  32.784  29.220  1.00  0.00     0.092 A 
ATOM     18  C   UNL A   1      43.804  30.951  28.487  1.00  0.00     0.055 A 
ATOM     19  C   UNL A   1      46.337  32.110  28.765  1.00  0.00     0.123 A 
ATOM     20  C   UNL A   1      46.192  30.842  28.197  1.00  0.00     0.055 A 
BRANCH  16  21
ATOM     21  O   UNL A   1      42.848  32.955  29.425  1.00  0.00    -0.494 OA
BRANCH  21  22
ATOM     22  C   UNL A   1      42.840  34.262  28.837  1.00  0.00     0.226 C 
ATOM     23  C   UNL A   1      41.739  35.138  29.414  1.00  0.00     0.049 C 
ENDBRANCH  21  22
ENDBRANCH  16  21
BRANCH  19  24
ATOM     24  O   UNL A   1      47.524  32.769  28.935  1.00  0.00    -0.494 OA
BRANCH  24  25
ATOM     25  C   UNL A   1      48.241  32.551  30.153  1.00  0.00     0.226 C 
ATOM     26  C   UNL A   1      48.575  33.864  30.843  1.00  0.00     0.049 C 
ENDBRANCH  24  25
ENDBRANCH  19  24
ENDBRANCH   9  15
ENDBRANCH   6   8
ENDBRANCH   4   6
ENDBRANCH   3   4
ENDBRANCH   2   3
ENDBRANCH   1   2
BRANCH   1  27
ATOM     27  O   UNL A   1      42.711  20.857  26.659  1.00  0.00    -0.374 OA
BRANCH  27  28
ATOM     28  C   UNL A   1      41.477  20.205  26.359  1.00  0.00     0.202 C 
BRANCH  28  29
ATOM     29  C   UNL A   1      40.194  21.026  26.547  1.00  0.00     0.261 C 
BRANCH  29  30
ATOM     30  O   UNL A   1      40.265  22.314  25.910  1.00  0.00    -0.460 OA
BRANCH  30  31
ATOM     31  C   UNL A   1      39.125  23.044  25.960  1.00  0.00     0.338 C 
ATOM     32  O   UNL A   1      38.011  22.703  25.581  1.00  0.00    -0.246 OA
BRANCH  31  33
ATOM     33  C   UNL A   1      39.358  24.281  26.727  1.00  0.00     0.060 A 
ATOM     34  C   UNL A   1      40.142  25.278  26.133  1.00  0.00     0.016 A 
ATOM     35  C   UNL A   1      38.864  24.443  28.022  1.00  0.00     0.016 A 
ATOM     36  C   UNL A   1      40.453  26.437  26.843  1.00  0.00     0.010 A 
ATOM     37  C   UNL A   1      39.189  25.601  28.738  1.00  0.00     0.010 A 
ATOM     38  C   UNL A   1      39.999  26.596  28.160  1.00  0.00    -0.014 A 
BRANCH  38  39
ATOM     39  C   UNL A   1      40.439  27.765  28.961  1.00  0.00     0.031 A 
ATOM     40  C   UNL A   1      41.763  27.719  29.672  1.00  0.00     0.074 A 
ATOM     41  C   UNL A   1      39.662  28.860  29.048  1.00  0.00     0.049 A 
ATOM     42  N   UNL A   1      42.298  28.596  30.480  1.00  0.00    -0.248 NA
ATOM     43  C   UNL A   1      42.593  26.526  29.441  1.00  0.00     0.031 C 
ATOM     44  C   UNL A   1      38.378  29.039  28.370  1.00  0.00     0.029 A 
ATOM     45  N   UNL A   1      39.832  30.022  29.758  1.00  0.00    -0.354 N 
ATOM     46  C   UNL A   1      43.523  28.062  30.862  1.00  0.00     0.074 A 
ATOM     47  C   UNL A   1      43.642  26.774  30.213  1.00  0.00     0.031 C 
ATOM     48  C   UNL A   1      37.867  30.233  28.712  1.00  0.00     0.029 A 
ATOM     49  C   UNL A   1      38.766  30.886  29.663  1.00  0.00     0.049 A 
ATOM     50  H   UNL A   1      40.640  30.220  30.284  1.00  0.00     0.167 HD
ATOM     51  C   UNL A   1      44.463  28.602  31.675  1.00  0.00     0.037 A 
ATOM     52  C   UNL A   1      38.527  32.051  30.296  1.00  0.00     0.037 A 
ATOM     53  C   UNL A   1      44.337  29.884  32.317  1.00  0.00     0.049 A 
ATOM     54  C   UNL A   1      39.548  32.589  31.265  1.00  0.00     0.074 A 
ATOM     55  C   UNL A   1      45.250  30.530  33.134  1.00  0.00     0.029 A 
ATOM     56  N   UNL A   1      43.226  30.710  32.230  1.00  0.00    -0.354 N 
ATOM     57  N   UNL A   1      40.715  32.089  31.593  1.00  0.00    -0.248 NA
ATOM     58  C   UNL A   1      39.218  33.844  31.954  1.00  0.00     0.031 C 
ATOM     59  C   UNL A   1      44.667  31.720  33.584  1.00  0.00     0.029 A 
ATOM     60  C   UNL A   1      43.413  31.842  33.007  1.00  0.00     0.049 A 
ATOM     61  H   UNL A   1      42.423  30.520  31.694  1.00  0.00     0.167 HD
ATOM     62  C   UNL A   1      41.264  32.976  32.514  1.00  0.00     0.074 A 
ATOM     63  C   UNL A   1      40.309  34.052  32.677  1.00  0.00     0.031 C 
ATOM     64  C   UNL A   1      42.452  32.905  33.166  1.00  0.00     0.037 A 
BRANCH  51  65
ATOM     65  C   UNL A   1      45.704  27.795  31.941  1.00  0.00     0.058 A 
ATOM     66  C   UNL A   1      45.725  26.756  32.883  1.00  0.00     0.135 A 
ATOM     67  C   UNL A   1      46.877  28.036  31.206  1.00  0.00     0.135 A 
ATOM     68  F   UNL A   1      44.636  26.494  33.624  1.00  0.00    -0.206 F 
ATOM     69  C   UNL A   1      46.869  25.996  33.104  1.00  0.00     0.059 A 
ATOM     70  C   UNL A   1      48.027  27.273  31.392  1.00  0.00     0.059 A 
ATOM     71  F   UNL A   1      46.914  29.019  30.294  1.00  0.00    -0.206 F 
ATOM     72  C   UNL A   1      48.016  26.261  32.352  1.00  0.00     0.060 A 
BRANCH  72  73
ATOM     73  S   UNL A   1      49.489  25.261  32.643  1.00  0.00     0.124 S 
ATOM     74  O   UNL A   1      48.955  24.195  33.486  1.00  0.00    -0.237 OA
ATOM     75  O   UNL A   1      49.869  24.866  31.291  1.00  0.00    -0.237 OA
ATOM     76  O   UNL A   1      50.405  26.184  33.304  1.00  0.00    -0.744 OA
ENDBRANCH  72  73
ENDBRANCH  51  65
BRANCH  52  77
ATOM     77  C   UNL A   1      37.247  32.773  30.063  1.00  0.00     0.058 A 
ATOM     78  C   UNL A   1      37.179  33.867  29.189  1.00  0.00     0.135 A 
ATOM     79  C   UNL A   1      36.066  32.379  30.711  1.00  0.00     0.135 A 
ATOM     80  F   UNL A   1      38.284  34.291  28.558  1.00  0.00    -0.206 F 
ATOM     81  C   UNL A   1      35.988  34.554  28.972  1.00  0.00     0.059 A 
ATOM     82  C   UNL A   1      34.857  33.032  30.491  1.00  0.00     0.059 A 
ATOM     83  F   UNL A   1      36.075  31.332  31.550  1.00  0.00    -0.206 F 
ATOM     84  C   UNL A   1      34.831  34.125  29.625  1.00  0.00     0.060 A 
BRANCH  84  85
ATOM     85  S   UNL A   1      33.278  34.986  29.295  1.00  0.00     0.124 S 
ATOM     86  O   UNL A   1      32.586  34.026  28.442  1.00  0.00    -0.237 OA
ATOM     87  O   UNL A   1      32.733  35.159  30.637  1.00  0.00    -0.237 OA
ATOM     88  O   UNL A   1      33.711  36.217  28.639  1.00  0.00    -0.744 OA
ENDBRANCH  84  85
ENDBRANCH  52  77
BRANCH  64  89
ATOM     89  C   UNL A   1      42.796  34.022  34.112  1.00  0.00     0.058 A 
ATOM     90  C   UNL A   1      42.313  34.042  35.430  1.00  0.00     0.135 A 
ATOM     91  C   UNL A   1      43.670  35.048  33.720  1.00  0.00     0.135 A 
ATOM     92  F   UNL A   1      41.465  33.090  35.854  1.00  0.00    -0.206 F 
ATOM     93  C   UNL A   1      42.674  35.046  36.322  1.00  0.00     0.059 A 
ATOM     94  C   UNL A   1      44.066  36.048  34.603  1.00  0.00     0.059 A 
ATOM     95  F   UNL A   1      44.168  35.073  32.474  1.00  0.00    -0.206 F 
ATOM     96  C   UNL A   1      43.556  36.043  35.901  1.00  0.00     0.060 A 
BRANCH  96  97
ATOM     97  S   UNL A   1      44.055  37.313  37.084  1.00  0.00     0.124 S 
ATOM     98  O   UNL A   1      42.921  37.323  38.002  1.00  0.00    -0.237 OA
ATOM     99  O   UNL A   1      45.299  36.769  37.619  1.00  0.00    -0.237 OA
ATOM    100  O   UNL A   1      44.205  38.507  36.259  1.00  0.00    -0.744 OA
ENDBRANCH  96  97
ENDBRANCH  64  89
ENDBRANCH  38  39
ENDBRANCH  31  33
ENDBRANCH  30  31
ENDBRANCH  29  30
ENDBRANCH  28  29
ENDBRANCH  27  28
ENDBRANCH   1  27
TORSDOF 23
ENDMDL
