MODEL 1
REMARK VINA RESULT:     -10.0      0.000      0.000
REMARK SMILES Cc1csc(Sc2cncc(C(=O)OCCOCCOC(=O)c3ccc(-c4c5nc(c(-c6c(F)cc(S(=O)(=O)[O-])cc6F)c6ccc([nH]6)c(-c6c(F)cc(S(=O)(=O)[O-])cc6F)c6nc(c(-c7c(F)cc(S(=O)(=O)[O-])cc7F)c7ccc4[nH]7)C=C6)C=C5)cc3)n2)n1
REMARK SMILES IDX 18 1 17 2 16 3 15 4 14 5 12 6 13 7 11 8 7 9 8 10 89 11 9 12
REMARK SMILES IDX 10 13 6 14 5 15 1 16 2 17 3 18 90 19 4 20 19 21 20 22 21 23
REMARK SMILES IDX 22 24 23 25 24 26 88 27 25 28 87 29 26 30 27 31 28 32 81 33
REMARK SMILES IDX 29 34 86 35 80 36 82 37 30 38 85 39 79 40 78 41 31 43 65 44
REMARK SMILES IDX 44 45 64 46 45 47 48 48 63 49 83 50 46 51 47 52 62 54 84 55
REMARK SMILES IDX 49 56 32 57 33 58 42 59 34 60 35 61 41 62 43 63 36 64 37 65
REMARK SMILES IDX 38 66 39 67 40 68 66 69 67 70 76 71 68 72 69 73 75 74 77 75
REMARK SMILES IDX 70 76 71 77 72 78 73 79 74 80 50 81 51 82 60 83 52 84 53 85
REMARK SMILES IDX 59 86 61 87 54 88 55 89 56 90 57 91 58 92
REMARK H PARENT 82 42 48 53
REMARK Flexibility Score: inf
ROOT
ATOM      1  C   UNL A   1      36.846  32.175  33.421  1.00  0.00     0.202 C 
ENDROOT
BRANCH   1   2
ATOM      2  O   UNL A   1      37.561  33.339  33.003  1.00  0.00    -0.374 OA
BRANCH   2   3
ATOM      3  C   UNL A   1      36.931  34.598  33.251  1.00  0.00     0.202 C 
BRANCH   3   4
ATOM      4  C   UNL A   1      35.760  34.561  34.239  1.00  0.00     0.261 C 
BRANCH   4   5
ATOM      5  O   UNL A   1      34.591  35.183  33.678  1.00  0.00    -0.458 OA
BRANCH   5   6
ATOM      6  C   UNL A   1      33.798  34.378  32.931  1.00  0.00     0.358 C 
ATOM      7  O   UNL A   1      33.140  33.427  33.331  1.00  0.00    -0.244 OA
BRANCH   6   8
ATOM      8  C   UNL A   1      33.684  34.888  31.543  1.00  0.00     0.167 A 
ATOM      9  C   UNL A   1      34.298  34.900  29.315  1.00  0.00     0.122 A 
ATOM     10  C   UNL A   1      33.346  35.896  29.092  1.00  0.00     0.147 A 
ATOM     11  N   UNL A   1      34.481  34.387  30.560  1.00  0.00    -0.231 NA
ATOM     12  N   UNL A   1      32.584  36.441  30.076  1.00  0.00    -0.259 NA
ATOM     13  C   UNL A   1      32.768  35.902  31.306  1.00  0.00     0.147 A 
BRANCH   9  14
ATOM     14  S   UNL A   1      35.198  34.100  28.017  1.00  0.00    -0.038 SA
BRANCH  14  15
ATOM     15  C   UNL A   1      34.352  32.589  27.748  1.00  0.00     0.156 A 
ATOM     16  C   UNL A   1      34.893  29.064  27.224  1.00  0.00     0.067 C 
ATOM     17  C   UNL A   1      34.252  30.393  27.396  1.00  0.00     0.050 A 
ATOM     18  C   UNL A   1      32.915  30.701  27.239  1.00  0.00     0.091 A 
ATOM     19  N   UNL A   1      35.052  31.473  27.728  1.00  0.00    -0.235 NA
ATOM     20  S   UNL A   1      32.681  32.392  27.405  1.00  0.00    -0.116 S 
ENDBRANCH  14  15
ENDBRANCH   9  14
ENDBRANCH   6   8
ENDBRANCH   5   6
ENDBRANCH   4   5
ENDBRANCH   3   4
ENDBRANCH   2   3
ENDBRANCH   1   2
BRANCH   1  21
ATOM     21  C   UNL A   1      35.878  31.573  32.398  1.00  0.00     0.261 C 
BRANCH  21  22
ATOM     22  O   UNL A   1      36.466  31.504  31.087  1.00  0.00    -0.460 OA
BRANCH  22  23
ATOM     23  C   UNL A   1      36.718  30.249  30.649  1.00  0.00     0.338 C 
ATOM     24  O   UNL A   1      35.901  29.353  30.479  1.00  0.00    -0.246 OA
BRANCH  23  25
ATOM     25  C   UNL A   1      38.125  30.125  30.225  1.00  0.00     0.060 A 
ATOM     26  C   UNL A   1      38.369  30.025  28.850  1.00  0.00     0.016 A 
ATOM     27  C   UNL A   1      39.183  30.044  31.137  1.00  0.00     0.016 A 
ATOM     28  C   UNL A   1      39.657  29.784  28.384  1.00  0.00     0.010 A 
ATOM     29  C   UNL A   1      40.479  29.799  30.667  1.00  0.00     0.010 A 
ATOM     30  C   UNL A   1      40.715  29.629  29.291  1.00  0.00    -0.014 A 
BRANCH  30  31
ATOM     31  C   UNL A   1      42.031  29.169  28.781  1.00  0.00     0.031 A 
ATOM     32  C   UNL A   1      43.184  30.133  28.734  1.00  0.00     0.074 A 
ATOM     33  C   UNL A   1      42.212  27.882  28.433  1.00  0.00     0.049 A 
ATOM     34  N   UNL A   1      44.431  29.920  28.398  1.00  0.00    -0.248 NA
ATOM     35  C   UNL A   1      42.893  31.525  29.117  1.00  0.00     0.031 C 
ATOM     36  C   UNL A   1      41.175  26.851  28.445  1.00  0.00     0.029 A 
ATOM     37  N   UNL A   1      43.338  27.224  28.006  1.00  0.00    -0.354 N 
ATOM     38  C   UNL A   1      45.077  31.142  28.541  1.00  0.00     0.074 A 
ATOM     39  C   UNL A   1      44.074  32.104  28.948  1.00  0.00     0.031 C 
ATOM     40  C   UNL A   1      41.714  25.688  28.041  1.00  0.00     0.029 A 
ATOM     41  C   UNL A   1      43.127  25.895  27.730  1.00  0.00     0.049 A 
ATOM     42  H   UNL A   1      44.214  27.663  27.909  1.00  0.00     0.167 HD
ATOM     43  C   UNL A   1      46.388  31.435  28.366  1.00  0.00     0.037 A 
ATOM     44  C   UNL A   1      43.976  24.953  27.273  1.00  0.00     0.037 A 
ATOM     45  C   UNL A   1      47.382  30.481  27.946  1.00  0.00     0.049 A 
ATOM     46  C   UNL A   1      45.423  25.307  27.055  1.00  0.00     0.074 A 
ATOM     47  C   UNL A   1      48.737  30.677  27.742  1.00  0.00     0.029 A 
ATOM     48  N   UNL A   1      47.128  29.147  27.659  1.00  0.00    -0.354 N 
ATOM     49  N   UNL A   1      46.026  26.461  27.222  1.00  0.00    -0.248 NA
ATOM     50  C   UNL A   1      46.309  24.226  26.602  1.00  0.00     0.031 C 
ATOM     51  C   UNL A   1      49.294  29.473  27.293  1.00  0.00     0.029 A 
ATOM     52  C   UNL A   1      48.296  28.513  27.263  1.00  0.00     0.049 A 
ATOM     53  H   UNL A   1      46.245  28.714  27.725  1.00  0.00     0.167 HD
ATOM     54  C   UNL A   1      47.363  26.241  26.910  1.00  0.00     0.074 A 
ATOM     55  C   UNL A   1      47.484  24.839  26.565  1.00  0.00     0.031 C 
ATOM     56  C   UNL A   1      48.399  27.120  26.907  1.00  0.00     0.037 A 
BRANCH  43  57
ATOM     57  C   UNL A   1      46.815  32.857  28.615  1.00  0.00     0.058 A 
ATOM     58  C   UNL A   1      46.814  33.815  27.589  1.00  0.00     0.135 A 
ATOM     59  C   UNL A   1      47.221  33.269  29.894  1.00  0.00     0.135 A 
ATOM     60  F   UNL A   1      46.451  33.471  26.342  1.00  0.00    -0.206 F 
ATOM     61  C   UNL A   1      47.235  35.122  27.811  1.00  0.00     0.059 A 
ATOM     62  C   UNL A   1      47.622  34.578  30.146  1.00  0.00     0.059 A 
ATOM     63  F   UNL A   1      47.241  32.395  30.911  1.00  0.00    -0.206 F 
ATOM     64  C   UNL A   1      47.643  35.493  29.094  1.00  0.00     0.060 A 
BRANCH  64  65
ATOM     65  S   UNL A   1      48.202  37.189  29.367  1.00  0.00     0.124 S 
ATOM     66  O   UNL A   1      47.123  37.720  30.194  1.00  0.00    -0.237 OA
ATOM     67  O   UNL A   1      49.480  36.992  30.044  1.00  0.00    -0.237 OA
ATOM     68  O   UNL A   1      48.289  37.739  28.018  1.00  0.00    -0.744 OA
ENDBRANCH  64  65
ENDBRANCH  43  57
BRANCH  44  69
ATOM     69  C   UNL A   1      43.473  23.583  26.999  1.00  0.00     0.058 A 
ATOM     70  C   UNL A   1      43.203  23.150  25.694  1.00  0.00     0.135 A 
ATOM     71  C   UNL A   1      43.274  22.669  28.047  1.00  0.00     0.135 A 
ATOM     72  F   UNL A   1      43.367  23.990  24.661  1.00  0.00    -0.206 F 
ATOM     73  C   UNL A   1      42.748  21.861  25.434  1.00  0.00     0.059 A 
ATOM     74  C   UNL A   1      42.843  21.368  27.810  1.00  0.00     0.059 A 
ATOM     75  F   UNL A   1      43.529  23.032  29.314  1.00  0.00    -0.206 F 
ATOM     76  C   UNL A   1      42.576  20.974  26.499  1.00  0.00     0.060 A 
BRANCH  76  77
ATOM     77  S   UNL A   1      42.055  19.282  26.146  1.00  0.00     0.124 S 
ATOM     78  O   UNL A   1      42.442  18.593  27.372  1.00  0.00    -0.237 OA
ATOM     79  O   UNL A   1      40.621  19.441  25.928  1.00  0.00    -0.237 OA
ATOM     80  O   UNL A   1      42.827  18.935  24.956  1.00  0.00    -0.744 OA
ENDBRANCH  76  77
ENDBRANCH  44  69
BRANCH  56  81
ATOM     81  C   UNL A   1      49.753  26.579  26.534  1.00  0.00     0.058 A 
ATOM     82  C   UNL A   1      50.191  26.544  25.200  1.00  0.00     0.135 A 
ATOM     83  C   UNL A   1      50.624  26.093  27.522  1.00  0.00     0.135 A 
ATOM     84  F   UNL A   1      49.397  26.995  24.216  1.00  0.00    -0.206 F 
ATOM     85  C   UNL A   1      51.427  26.005  24.855  1.00  0.00     0.059 A 
ATOM     86  C   UNL A   1      51.875  25.574  27.202  1.00  0.00     0.059 A 
ATOM     87  F   UNL A   1      50.263  26.116  28.815  1.00  0.00    -0.206 F 
ATOM     88  C   UNL A   1      52.258  25.515  25.862  1.00  0.00     0.060 A 
BRANCH  88  89
ATOM     89  S   UNL A   1      53.853  24.802  25.404  1.00  0.00     0.124 S 
ATOM     90  O   UNL A   1      54.250  25.662  24.295  1.00  0.00    -0.237 OA
ATOM     91  O   UNL A   1      54.630  24.952  26.631  1.00  0.00    -0.237 OA
ATOM     92  O   UNL A   1      53.519  23.427  25.047  1.00  0.00    -0.744 OA
ENDBRANCH  88  89
ENDBRANCH  56  81
ENDBRANCH  30  31
ENDBRANCH  23  25
ENDBRANCH  22  23
ENDBRANCH  21  22
ENDBRANCH   1  21
TORSDOF 19
ENDMDL
MODEL 2
REMARK VINA RESULT:      -9.9      6.914     13.005
REMARK SMILES Cc1csc(Sc2cncc(C(=O)OCCOCCOC(=O)c3ccc(-c4c5nc(c(-c6c(F)cc(S(=O)(=O)[O-])cc6F)c6ccc([nH]6)c(-c6c(F)cc(S(=O)(=O)[O-])cc6F)c6nc(c(-c7c(F)cc(S(=O)(=O)[O-])cc7F)c7ccc4[nH]7)C=C6)C=C5)cc3)n2)n1
REMARK SMILES IDX 18 1 17 2 16 3 15 4 14 5 12 6 13 7 11 8 7 9 8 10 89 11 9 12
REMARK SMILES IDX 10 13 6 14 5 15 1 16 2 17 3 18 90 19 4 20 19 21 20 22 21 23
REMARK SMILES IDX 22 24 23 25 24 26 88 27 25 28 87 29 26 30 27 31 28 32 81 33
REMARK SMILES IDX 29 34 86 35 80 36 82 37 30 38 85 39 79 40 78 41 31 43 65 44
REMARK SMILES IDX 44 45 64 46 45 47 48 48 63 49 83 50 46 51 47 52 62 54 84 55
REMARK SMILES IDX 49 56 32 57 33 58 42 59 34 60 35 61 41 62 43 63 36 64 37 65
REMARK SMILES IDX 38 66 39 67 40 68 66 69 67 70 76 71 68 72 69 73 75 74 77 75
REMARK SMILES IDX 70 76 71 77 72 78 73 79 74 80 50 81 51 82 60 83 52 84 53 85
REMARK SMILES IDX 59 86 61 87 54 88 55 89 56 90 57 91 58 92
REMARK H PARENT 82 42 48 53
REMARK Flexibility Score: inf
ROOT
ATOM      1  C   UNL A   1      39.458  21.961  25.990  1.00  0.00     0.202 C 
ENDROOT
BRANCH   1   2
ATOM      2  O   UNL A   1      38.038  21.834  25.910  1.00  0.00    -0.374 OA
BRANCH   2   3
ATOM      3  C   UNL A   1      37.411  22.391  24.753  1.00  0.00     0.202 C 
BRANCH   3   4
ATOM      4  C   UNL A   1      36.370  23.482  25.033  1.00  0.00     0.261 C 
BRANCH   4   5
ATOM      5  O   UNL A   1      35.129  23.196  24.364  1.00  0.00    -0.458 OA
BRANCH   5   6
ATOM      6  C   UNL A   1      34.161  22.640  25.132  1.00  0.00     0.358 C 
ATOM      7  O   UNL A   1      34.132  21.490  25.551  1.00  0.00    -0.244 OA
BRANCH   6   8
ATOM      8  C   UNL A   1      33.175  23.661  25.561  1.00  0.00     0.167 A 
ATOM      9  C   UNL A   1      32.218  25.760  25.424  1.00  0.00     0.122 A 
ATOM     10  C   UNL A   1      31.326  25.384  26.429  1.00  0.00     0.147 A 
ATOM     11  N   UNL A   1      33.166  24.892  24.981  1.00  0.00    -0.231 NA
ATOM     12  N   UNL A   1      31.362  24.176  27.051  1.00  0.00    -0.259 NA
ATOM     13  C   UNL A   1      32.302  23.319  26.583  1.00  0.00     0.147 A 
BRANCH   9  14
ATOM     14  S   UNL A   1      32.092  27.281  24.524  1.00  0.00    -0.038 SA
BRANCH  14  15
ATOM     15  C   UNL A   1      32.717  28.501  25.616  1.00  0.00     0.156 A 
ATOM     16  C   UNL A   1      35.701  29.513  27.366  1.00  0.00     0.067 C 
ATOM     17  C   UNL A   1      34.309  29.448  26.851  1.00  0.00     0.050 A 
ATOM     18  C   UNL A   1      33.239  30.231  27.236  1.00  0.00     0.091 A 
ATOM     19  N   UNL A   1      34.004  28.493  25.895  1.00  0.00    -0.235 NA
ATOM     20  S   UNL A   1      31.808  29.687  26.463  1.00  0.00    -0.116 S 
ENDBRANCH  14  15
ENDBRANCH   9  14
ENDBRANCH   6   8
ENDBRANCH   5   6
ENDBRANCH   4   5
ENDBRANCH   3   4
ENDBRANCH   2   3
ENDBRANCH   1   2
BRANCH   1  21
ATOM     21  C   UNL A   1      39.986  23.091  26.880  1.00  0.00     0.261 C 
BRANCH  21  22
ATOM     22  O   UNL A   1      39.533  24.378  26.427  1.00  0.00    -0.460 OA
BRANCH  22  23
ATOM     23  C   UNL A   1      40.505  25.315  26.332  1.00  0.00     0.338 C 
ATOM     24  O   UNL A   1      41.150  25.604  25.332  1.00  0.00    -0.246 OA
BRANCH  23  25
ATOM     25  C   UNL A   1      40.591  26.097  27.579  1.00  0.00     0.060 A 
ATOM     26  C   UNL A   1      39.547  25.945  28.499  1.00  0.00     0.016 A 
ATOM     27  C   UNL A   1      41.626  27.004  27.829  1.00  0.00     0.016 A 
ATOM     28  C   UNL A   1      39.499  26.740  29.639  1.00  0.00     0.010 A 
ATOM     29  C   UNL A   1      41.575  27.805  28.977  1.00  0.00     0.010 A 
ATOM     30  C   UNL A   1      40.492  27.703  29.867  1.00  0.00    -0.014 A 
BRANCH  30  31
ATOM     31  C   UNL A   1      40.305  28.672  30.976  1.00  0.00     0.031 A 
ATOM     32  C   UNL A   1      41.178  28.576  32.197  1.00  0.00     0.074 A 
ATOM     33  C   UNL A   1      39.414  29.673  30.860  1.00  0.00     0.049 A 
ATOM     34  N   UNL A   1      41.234  29.363  33.240  1.00  0.00    -0.248 NA
ATOM     35  C   UNL A   1      42.115  27.442  32.247  1.00  0.00     0.031 C 
ATOM     36  C   UNL A   1      38.518  29.878  29.723  1.00  0.00     0.029 A 
ATOM     37  N   UNL A   1      39.121  30.709  31.711  1.00  0.00    -0.354 N 
ATOM     38  C   UNL A   1      42.217  28.830  34.066  1.00  0.00     0.074 A 
ATOM     39  C   UNL A   1      42.698  27.625  33.423  1.00  0.00     0.031 C 
ATOM     40  C   UNL A   1      37.772  30.973  29.947  1.00  0.00     0.029 A 
ATOM     41  C   UNL A   1      38.128  31.538  31.249  1.00  0.00     0.049 A 
ATOM     42  H   UNL A   1      39.580  30.846  32.571  1.00  0.00     0.167 HD
ATOM     43  C   UNL A   1      42.688  29.307  35.243  1.00  0.00     0.037 A 
ATOM     44  C   UNL A   1      37.566  32.625  31.812  1.00  0.00     0.037 A 
ATOM     45  C   UNL A   1      42.198  30.498  35.889  1.00  0.00     0.049 A 
ATOM     46  C   UNL A   1      38.082  33.122  33.135  1.00  0.00     0.074 A 
ATOM     47  C   UNL A   1      42.611  31.067  37.081  1.00  0.00     0.029 A 
ATOM     48  N   UNL A   1      41.179  31.302  35.398  1.00  0.00    -0.354 N 
ATOM     49  N   UNL A   1      39.033  32.623  33.891  1.00  0.00    -0.248 NA
ATOM     50  C   UNL A   1      37.462  34.339  33.675  1.00  0.00     0.031 C 
ATOM     51  C   UNL A   1      41.815  32.192  37.331  1.00  0.00     0.029 A 
ATOM     52  C   UNL A   1      40.937  32.352  36.271  1.00  0.00     0.049 A 
ATOM     53  H   UNL A   1      40.696  31.149  34.553  1.00  0.00     0.167 HD
ATOM     54  C   UNL A   1      39.135  33.473  34.986  1.00  0.00     0.074 A 
ATOM     55  C   UNL A   1      38.164  34.530  34.784  1.00  0.00     0.031 C 
ATOM     56  C   UNL A   1      39.956  33.388  36.064  1.00  0.00     0.037 A 
BRANCH  43  57
ATOM     57  C   UNL A   1      43.784  28.523  35.914  1.00  0.00     0.058 A 
ATOM     58  C   UNL A   1      43.499  27.447  36.770  1.00  0.00     0.135 A 
ATOM     59  C   UNL A   1      45.132  28.845  35.695  1.00  0.00     0.135 A 
ATOM     60  F   UNL A   1      42.226  27.107  37.028  1.00  0.00    -0.206 F 
ATOM     61  C   UNL A   1      44.510  26.740  37.413  1.00  0.00     0.059 A 
ATOM     62  C   UNL A   1      46.162  28.135  36.306  1.00  0.00     0.059 A 
ATOM     63  F   UNL A   1      45.462  29.864  34.886  1.00  0.00    -0.206 F 
ATOM     64  C   UNL A   1      45.840  27.095  37.179  1.00  0.00     0.060 A 
BRANCH  64  65
ATOM     65  S   UNL A   1      47.143  26.180  38.031  1.00  0.00     0.124 S 
ATOM     66  O   UNL A   1      47.349  25.056  37.124  1.00  0.00    -0.237 OA
ATOM     67  O   UNL A   1      48.226  27.156  38.086  1.00  0.00    -0.237 OA
ATOM     68  O   UNL A   1      46.538  25.847  39.317  1.00  0.00    -0.744 OA
ENDBRANCH  64  65
ENDBRANCH  43  57
BRANCH  44  69
ATOM     69  C   UNL A   1      36.452  33.319  31.115  1.00  0.00     0.058 A 
ATOM     70  C   UNL A   1      35.132  33.231  31.578  1.00  0.00     0.135 A 
ATOM     71  C   UNL A   1      36.696  34.107  29.979  1.00  0.00     0.135 A 
ATOM     72  F   UNL A   1      34.847  32.482  32.654  1.00  0.00    -0.206 F 
ATOM     73  C   UNL A   1      34.090  33.894  30.938  1.00  0.00     0.059 A 
ATOM     74  C   UNL A   1      35.675  34.798  29.336  1.00  0.00     0.059 A 
ATOM     75  F   UNL A   1      37.945  34.231  29.503  1.00  0.00    -0.206 F 
ATOM     76  C   UNL A   1      34.373  34.681  29.819  1.00  0.00     0.060 A 
BRANCH  76  77
ATOM     77  S   UNL A   1      33.027  35.595  29.037  1.00  0.00     0.124 S 
ATOM     78  O   UNL A   1      32.425  34.570  28.194  1.00  0.00    -0.237 OA
ATOM     79  O   UNL A   1      32.236  36.021  30.187  1.00  0.00    -0.237 OA
ATOM     80  O   UNL A   1      33.718  36.670  28.330  1.00  0.00    -0.744 OA
ENDBRANCH  76  77
ENDBRANCH  44  69
BRANCH  56  81
ATOM     81  C   UNL A   1      39.846  34.479  37.096  1.00  0.00     0.058 A 
ATOM     82  C   UNL A   1      39.022  34.345  38.226  1.00  0.00     0.135 A 
ATOM     83  C   UNL A   1      40.575  35.671  36.954  1.00  0.00     0.135 A 
ATOM     84  F   UNL A   1      38.303  33.226  38.408  1.00  0.00    -0.206 F 
ATOM     85  C   UNL A   1      38.890  35.373  39.155  1.00  0.00     0.059 A 
ATOM     86  C   UNL A   1      40.479  36.700  37.886  1.00  0.00     0.059 A 
ATOM     87  F   UNL A   1      41.389  35.846  35.902  1.00  0.00    -0.206 F 
ATOM     88  C   UNL A   1      39.617  36.550  38.972  1.00  0.00     0.060 A 
BRANCH  88  89
ATOM     89  S   UNL A   1      39.428  37.885  40.174  1.00  0.00     0.124 S 
ATOM     90  O   UNL A   1      38.264  38.589  39.647  1.00  0.00    -0.237 OA
ATOM     91  O   UNL A   1      39.217  37.157  41.422  1.00  0.00    -0.237 OA
ATOM     92  O   UNL A   1      40.695  38.604  40.082  1.00  0.00    -0.744 OA
ENDBRANCH  88  89
ENDBRANCH  56  81
ENDBRANCH  30  31
ENDBRANCH  23  25
ENDBRANCH  22  23
ENDBRANCH  21  22
ENDBRANCH   1  21
TORSDOF 19
ENDMDL
MODEL 3
REMARK VINA RESULT:      -9.9      1.656      3.096
REMARK SMILES Cc1csc(Sc2cncc(C(=O)OCCOCCOC(=O)c3ccc(-c4c5nc(c(-c6c(F)cc(S(=O)(=O)[O-])cc6F)c6ccc([nH]6)c(-c6c(F)cc(S(=O)(=O)[O-])cc6F)c6nc(c(-c7c(F)cc(S(=O)(=O)[O-])cc7F)c7ccc4[nH]7)C=C6)C=C5)cc3)n2)n1
REMARK SMILES IDX 18 1 17 2 16 3 15 4 14 5 12 6 13 7 11 8 7 9 8 10 89 11 9 12
REMARK SMILES IDX 10 13 6 14 5 15 1 16 2 17 3 18 90 19 4 20 19 21 20 22 21 23
REMARK SMILES IDX 22 24 23 25 24 26 88 27 25 28 87 29 26 30 27 31 28 32 81 33
REMARK SMILES IDX 29 34 86 35 80 36 82 37 30 38 85 39 79 40 78 41 31 43 65 44
REMARK SMILES IDX 44 45 64 46 45 47 48 48 63 49 83 50 46 51 47 52 62 54 84 55
REMARK SMILES IDX 49 56 32 57 33 58 42 59 34 60 35 61 41 62 43 63 36 64 37 65
REMARK SMILES IDX 38 66 39 67 40 68 66 69 67 70 76 71 68 72 69 73 75 74 77 75
REMARK SMILES IDX 70 76 71 77 72 78 73 79 74 80 50 81 51 82 60 83 52 84 53 85
REMARK SMILES IDX 59 86 61 87 54 88 55 89 56 90 57 91 58 92
REMARK H PARENT 82 42 48 53
REMARK Flexibility Score: inf
ROOT
ATOM      1  C   UNL A   1      34.784  32.483  29.925  1.00  0.00     0.202 C 
ENDROOT
BRANCH   1   2
ATOM      2  O   UNL A   1      34.353  32.223  28.588  1.00  0.00    -0.374 OA
BRANCH   2   3
ATOM      3  C   UNL A   1      33.464  33.180  28.007  1.00  0.00     0.202 C 
BRANCH   3   4
ATOM      4  C   UNL A   1      33.814  34.648  28.274  1.00  0.00     0.261 C 
BRANCH   4   5
ATOM      5  O   UNL A   1      32.812  35.277  29.092  1.00  0.00    -0.458 OA
BRANCH   5   6
ATOM      6  C   UNL A   1      33.146  36.486  29.605  1.00  0.00     0.358 C 
ATOM      7  O   UNL A   1      33.080  37.566  29.033  1.00  0.00    -0.244 OA
BRANCH   6   8
ATOM      8  C   UNL A   1      33.467  36.377  31.049  1.00  0.00     0.167 A 
ATOM      9  C   UNL A   1      34.043  35.159  32.926  1.00  0.00     0.122 A 
ATOM     10  C   UNL A   1      34.045  36.347  33.657  1.00  0.00     0.147 A 
ATOM     11  N   UNL A   1      33.744  35.164  31.600  1.00  0.00    -0.231 NA
ATOM     12  N   UNL A   1      33.717  37.556  33.127  1.00  0.00    -0.259 NA
ATOM     13  C   UNL A   1      33.440  37.542  31.801  1.00  0.00     0.147 A 
BRANCH   9  14
ATOM     14  S   UNL A   1      34.594  33.608  33.581  1.00  0.00    -0.038 SA
BRANCH  14  15
ATOM     15  C   UNL A   1      36.296  33.844  33.924  1.00  0.00     0.156 A 
ATOM     16  C   UNL A   1      39.473  34.459  32.335  1.00  0.00     0.067 C 
ATOM     17  C   UNL A   1      38.416  34.209  33.349  1.00  0.00     0.050 A 
ATOM     18  C   UNL A   1      38.592  33.979  34.699  1.00  0.00     0.091 A 
ATOM     19  N   UNL A   1      37.097  34.170  32.929  1.00  0.00    -0.235 NA
ATOM     20  S   UNL A   1      37.086  33.603  35.429  1.00  0.00    -0.116 S 
ENDBRANCH  14  15
ENDBRANCH   9  14
ENDBRANCH   6   8
ENDBRANCH   5   6
ENDBRANCH   4   5
ENDBRANCH   3   4
ENDBRANCH   2   3
ENDBRANCH   1   2
BRANCH   1  21
ATOM     21  C   UNL A   1      36.200  32.018  30.279  1.00  0.00     0.261 C 
BRANCH  21  22
ATOM     22  O   UNL A   1      36.234  30.616  30.600  1.00  0.00    -0.460 OA
BRANCH  22  23
ATOM     23  C   UNL A   1      36.447  29.802  29.540  1.00  0.00     0.338 C 
ATOM     24  O   UNL A   1      35.595  29.310  28.810  1.00  0.00    -0.246 OA
BRANCH  23  25
ATOM     25  C   UNL A   1      37.889  29.700  29.250  1.00  0.00     0.060 A 
ATOM     26  C   UNL A   1      38.269  29.715  27.902  1.00  0.00     0.016 A 
ATOM     27  C   UNL A   1      38.849  29.532  30.252  1.00  0.00     0.016 A 
ATOM     28  C   UNL A   1      39.598  29.501  27.549  1.00  0.00     0.010 A 
ATOM     29  C   UNL A   1      40.185  29.314  29.895  1.00  0.00     0.010 A 
ATOM     30  C   UNL A   1      40.558  29.260  28.541  1.00  0.00    -0.014 A 
BRANCH  30  31
ATOM     31  C   UNL A   1      41.918  28.831  28.127  1.00  0.00     0.031 A 
ATOM     32  C   UNL A   1      43.029  29.845  28.073  1.00  0.00     0.074 A 
ATOM     33  C   UNL A   1      42.175  27.536  27.874  1.00  0.00     0.049 A 
ATOM     34  N   UNL A   1      44.299  29.670  27.814  1.00  0.00    -0.248 NA
ATOM     35  C   UNL A   1      42.657  31.242  28.349  1.00  0.00     0.031 C 
ATOM     36  C   UNL A   1      41.186  26.459  27.903  1.00  0.00     0.029 A 
ATOM     37  N   UNL A   1      43.350  26.906  27.548  1.00  0.00    -0.354 N 
ATOM     38  C   UNL A   1      44.882  30.929  27.907  1.00  0.00     0.074 A 
ATOM     39  C   UNL A   1      43.817  31.865  28.200  1.00  0.00     0.031 C 
ATOM     40  C   UNL A   1      41.796  25.299  27.604  1.00  0.00     0.029 A 
ATOM     41  C   UNL A   1      43.213  25.554  27.350  1.00  0.00     0.049 A 
ATOM     42  H   UNL A   1      44.209  27.379  27.465  1.00  0.00     0.167 HD
ATOM     43  C   UNL A   1      46.186  31.272  27.778  1.00  0.00     0.037 A 
ATOM     44  C   UNL A   1      44.126  24.626  26.999  1.00  0.00     0.037 A 
ATOM     45  C   UNL A   1      47.242  30.342  27.471  1.00  0.00     0.049 A 
ATOM     46  C   UNL A   1      45.565  25.034  26.829  1.00  0.00     0.074 A 
ATOM     47  C   UNL A   1      48.596  30.589  27.322  1.00  0.00     0.029 A 
ATOM     48  N   UNL A   1      47.063  28.982  27.261  1.00  0.00    -0.354 N 
ATOM     49  N   UNL A   1      46.106  26.224  26.949  1.00  0.00    -0.248 NA
ATOM     50  C   UNL A   1      46.520  23.969  26.492  1.00  0.00     0.031 C 
ATOM     51  C   UNL A   1      49.229  29.387  26.981  1.00  0.00     0.029 A 
ATOM     52  C   UNL A   1      48.277  28.380  26.966  1.00  0.00     0.049 A 
ATOM     53  H   UNL A   1      46.199  28.512  27.312  1.00  0.00     0.167 HD
ATOM     54  C   UNL A   1      47.466  26.049  26.718  1.00  0.00     0.074 A 
ATOM     55  C   UNL A   1      47.667  24.635  26.473  1.00  0.00     0.031 C 
ATOM     56  C   UNL A   1      48.460  26.974  26.708  1.00  0.00     0.037 A 
BRANCH  43  57
ATOM     57  C   UNL A   1      46.535  32.726  27.953  1.00  0.00     0.058 A 
ATOM     58  C   UNL A   1      46.347  33.657  26.919  1.00  0.00     0.135 A 
ATOM     59  C   UNL A   1      47.057  33.196  29.169  1.00  0.00     0.135 A 
ATOM     60  F   UNL A   1      45.867  33.259  25.729  1.00  0.00    -0.206 F 
ATOM     61  C   UNL A   1      46.696  34.995  27.071  1.00  0.00     0.059 A 
ATOM     62  C   UNL A   1      47.388  34.535  29.352  1.00  0.00     0.059 A 
ATOM     63  F   UNL A   1      47.257  32.350  30.191  1.00  0.00    -0.206 F 
ATOM     64  C   UNL A   1      47.222  35.424  28.291  1.00  0.00     0.060 A 
BRANCH  64  65
ATOM     65  S   UNL A   1      47.686  37.160  28.470  1.00  0.00     0.124 S 
ATOM     66  O   UNL A   1      47.955  37.533  27.085  1.00  0.00    -0.237 OA
ATOM     67  O   UNL A   1      46.488  37.746  29.062  1.00  0.00    -0.237 OA
ATOM     68  O   UNL A   1      48.854  37.111  29.345  1.00  0.00    -0.744 OA
ENDBRANCH  64  65
ENDBRANCH  43  57
BRANCH  44  69
ATOM     69  C   UNL A   1      43.698  23.218  26.792  1.00  0.00     0.058 A 
ATOM     70  C   UNL A   1      43.329  22.400  27.868  1.00  0.00     0.135 A 
ATOM     71  C   UNL A   1      43.630  22.672  25.500  1.00  0.00     0.135 A 
ATOM     72  F   UNL A   1      43.388  22.874  29.122  1.00  0.00    -0.206 F 
ATOM     73  C   UNL A   1      42.912  21.087  27.675  1.00  0.00     0.059 A 
ATOM     74  C   UNL A   1      43.193  21.371  25.279  1.00  0.00     0.059 A 
ATOM     75  F   UNL A   1      43.963  23.419  24.436  1.00  0.00    -0.206 F 
ATOM     76  C   UNL A   1      42.842  20.582  26.375  1.00  0.00     0.060 A 
BRANCH  76  77
ATOM     77  S   UNL A   1      42.231  18.901  26.127  1.00  0.00     0.124 S 
ATOM     78  O   UNL A   1      40.837  19.144  25.774  1.00  0.00    -0.237 OA
ATOM     79  O   UNL A   1      43.088  18.419  25.049  1.00  0.00    -0.237 OA
ATOM     80  O   UNL A   1      42.453  18.270  27.425  1.00  0.00    -0.744 OA
ENDBRANCH  76  77
ENDBRANCH  44  69
BRANCH  56  81
ATOM     81  C   UNL A   1      49.854  26.476  26.439  1.00  0.00     0.058 A 
ATOM     82  C   UNL A   1      50.396  26.465  25.143  1.00  0.00     0.135 A 
ATOM     83  C   UNL A   1      50.660  26.007  27.489  1.00  0.00     0.135 A 
ATOM     84  F   UNL A   1      49.668  26.901  24.103  1.00  0.00    -0.206 F 
ATOM     85  C   UNL A   1      51.670  25.965  24.892  1.00  0.00     0.059 A 
ATOM     86  C   UNL A   1      51.947  25.528  27.264  1.00  0.00     0.059 A 
ATOM     87  F   UNL A   1      50.199  26.008  28.749  1.00  0.00    -0.206 F 
ATOM     88  C   UNL A   1      52.435  25.490  25.958  1.00  0.00     0.060 A 
BRANCH  88  89
ATOM     89  S   UNL A   1      54.081  24.828  25.621  1.00  0.00     0.124 S 
ATOM     90  O   UNL A   1      54.732  24.989  26.917  1.00  0.00    -0.237 OA
ATOM     91  O   UNL A   1      53.793  23.453  25.224  1.00  0.00    -0.237 OA
ATOM     92  O   UNL A   1      54.581  25.689  24.554  1.00  0.00    -0.744 OA
ENDBRANCH  88  89
ENDBRANCH  56  81
ENDBRANCH  30  31
ENDBRANCH  23  25
ENDBRANCH  22  23
ENDBRANCH  21  22
ENDBRANCH   1  21
TORSDOF 19
ENDMDL
