MODEL 1
REMARK VINA RESULT:     -10.0      0.000      0.000
REMARK SMILES CC(C)C[C@@H](C(=O)OCCOCCOC(=O)c1ccc(-c2c3nc(c(-c4c(F)cc(S(=O)(=O)[O-])cc4F)c4ccc([nH]4)c(-c4c(F)cc(S(=O)(=O)[O-])cc4F)c4nc(c(-c5c(F)cc(S(=O)(=O)[O-])cc5F)c5ccc2[nH]5)C=C4)C=C3)cc1)[C@@H]1CCC[C@@H](C)C1
REMARK SMILES IDX 12 1 11 2 10 3 9 4 8 5 6 6 7 7 5 8 4 9 2 10 1 11 3 12 83 13
REMARK SMILES IDX 84 14 89 15 85 16 87 17 86 18 88 19 13 20 14 21 15 22 16 23
REMARK SMILES IDX 17 24 18 25 82 26 19 27 81 28 20 29 21 30 22 31 75 32 23 33
REMARK SMILES IDX 80 34 74 35 76 36 24 37 79 38 73 39 72 40 25 42 59 43 38 44
REMARK SMILES IDX 58 45 39 46 42 47 57 48 77 49 40 50 41 51 56 53 78 54 43 55
REMARK SMILES IDX 26 56 27 57 36 58 28 59 29 60 35 61 37 62 30 63 31 64 32 65
REMARK SMILES IDX 33 66 34 67 60 68 61 69 70 70 62 71 63 72 69 73 71 74 64 75
REMARK SMILES IDX 65 76 66 77 67 78 68 79 44 80 45 81 54 82 46 83 47 84 53 85
REMARK SMILES IDX 55 86 48 87 49 88 50 89 51 90 52 91
REMARK H PARENT 76 41 42 52
REMARK Flexibility Score: inf
ROOT
ATOM      1  C   UNL A   1      40.246  21.652  26.402  1.00  0.00     0.202 C 
ENDROOT
BRANCH   1   2
ATOM      2  O   UNL A   1      38.849  21.807  26.169  1.00  0.00    -0.374 OA
BRANCH   2   3
ATOM      3  C   UNL A   1      38.215  20.842  25.334  1.00  0.00     0.202 C 
BRANCH   3   4
ATOM      4  C   UNL A   1      36.849  21.230  24.770  1.00  0.00     0.261 C 
BRANCH   4   5
ATOM      5  O   UNL A   1      36.041  21.957  25.718  1.00  0.00    -0.463 OA
BRANCH   5   6
ATOM      6  C   UNL A   1      35.806  23.257  25.404  1.00  0.00     0.309 C 
ATOM      7  O   UNL A   1      36.599  24.175  25.586  1.00  0.00    -0.252 OA
BRANCH   6   8
ATOM      8  C   UNL A   1      34.409  23.504  24.845  1.00  0.00     0.102 C 
BRANCH   8   9
ATOM      9  C   UNL A   1      34.133  22.550  23.666  1.00  0.00     0.018 C 
BRANCH   9  10
ATOM     10  C   UNL A   1      33.052  21.446  23.733  1.00  0.00    -0.017 C 
ATOM     11  C   UNL A   1      32.255  21.389  25.033  1.00  0.00     0.007 C 
ATOM     12  C   UNL A   1      32.086  21.647  22.557  1.00  0.00     0.007 C 
ENDBRANCH   9  10
ENDBRANCH   8   9
BRANCH   8  13
ATOM     13  C   UNL A   1      33.949  25.000  24.829  1.00  0.00     0.003 C 
ATOM     14  C   UNL A   1      32.810  25.289  25.842  1.00  0.00     0.004 C 
ATOM     15  C   UNL A   1      33.604  25.627  23.471  1.00  0.00     0.007 C 
ATOM     16  C   UNL A   1      31.411  24.963  25.327  1.00  0.00     0.001 C 
ATOM     17  C   UNL A   1      32.187  25.302  22.966  1.00  0.00    -0.014 C 
ATOM     18  C   UNL A   1      31.127  25.667  24.004  1.00  0.00     0.003 C 
ATOM     19  C   UNL A   1      31.922  25.975  21.622  1.00  0.00     0.007 C 
ENDBRANCH   8  13
ENDBRANCH   6   8
ENDBRANCH   5   6
ENDBRANCH   4   5
ENDBRANCH   3   4
ENDBRANCH   2   3
ENDBRANCH   1   2
BRANCH   1  20
ATOM     20  C   UNL A   1      41.068  22.941  26.522  1.00  0.00     0.261 C 
BRANCH  20  21
ATOM     21  O   UNL A   1      40.283  24.138  26.347  1.00  0.00    -0.460 OA
BRANCH  21  22
ATOM     22  C   UNL A   1      41.009  25.274  26.211  1.00  0.00     0.338 C 
ATOM     23  O   UNL A   1      41.444  25.749  25.168  1.00  0.00    -0.246 OA
BRANCH  22  24
ATOM     24  C   UNL A   1      41.110  25.999  27.491  1.00  0.00     0.060 A 
ATOM     25  C   UNL A   1      40.062  25.850  28.408  1.00  0.00     0.016 A 
ATOM     26  C   UNL A   1      42.135  26.918  27.730  1.00  0.00     0.016 A 
ATOM     27  C   UNL A   1      40.001  26.663  29.539  1.00  0.00     0.010 A 
ATOM     28  C   UNL A   1      42.066  27.740  28.863  1.00  0.00     0.010 A 
ATOM     29  C   UNL A   1      40.979  27.644  29.749  1.00  0.00    -0.014 A 
BRANCH  29  30
ATOM     30  C   UNL A   1      40.776  28.658  30.815  1.00  0.00     0.031 A 
ATOM     31  C   UNL A   1      41.664  28.633  32.032  1.00  0.00     0.074 A 
ATOM     32  C   UNL A   1      39.848  29.622  30.682  1.00  0.00     0.049 A 
ATOM     33  N   UNL A   1      41.647  29.407  33.086  1.00  0.00    -0.248 NA
ATOM     34  C   UNL A   1      42.712  27.600  32.061  1.00  0.00     0.031 C 
ATOM     35  C   UNL A   1      38.961  29.784  29.530  1.00  0.00     0.029 A 
ATOM     36  N   UNL A   1      39.500  30.649  31.523  1.00  0.00    -0.354 N 
ATOM     37  C   UNL A   1      42.680  28.959  33.902  1.00  0.00     0.074 A 
ATOM     38  C   UNL A   1      43.284  27.826  33.235  1.00  0.00     0.031 C 
ATOM     39  C   UNL A   1      38.167  30.848  29.740  1.00  0.00     0.029 A 
ATOM     40  C   UNL A   1      38.468  31.423  31.050  1.00  0.00     0.049 A 
ATOM     41  H   UNL A   1      39.947  30.815  32.384  1.00  0.00     0.167 HD
ATOM     42  C   UNL A   1      43.096  29.453  35.093  1.00  0.00     0.037 A 
ATOM     43  C   UNL A   1      37.829  32.467  31.615  1.00  0.00     0.037 A 
ATOM     44  C   UNL A   1      42.493  30.580  35.759  1.00  0.00     0.049 A 
ATOM     45  C   UNL A   1      38.262  32.958  32.971  1.00  0.00     0.074 A 
ATOM     46  C   UNL A   1      42.836  31.147  36.975  1.00  0.00     0.029 A 
ATOM     47  N   UNL A   1      41.425  31.313  35.264  1.00  0.00    -0.354 N 
ATOM     48  N   UNL A   1      39.230  32.513  33.738  1.00  0.00    -0.248 NA
ATOM     49  C   UNL A   1      37.519  34.093  33.538  1.00  0.00     0.031 C 
ATOM     50  C   UNL A   1      41.952  32.200  37.232  1.00  0.00     0.029 A 
ATOM     51  C   UNL A   1      41.087  32.318  36.156  1.00  0.00     0.049 A 
ATOM     52  H   UNL A   1      40.973  31.144  34.406  1.00  0.00     0.167 HD
ATOM     53  C   UNL A   1      39.225  33.328  34.867  1.00  0.00     0.074 A 
ATOM     54  C   UNL A   1      38.164  34.296  34.679  1.00  0.00     0.031 C 
ATOM     55  C   UNL A   1      40.029  33.278  35.957  1.00  0.00     0.037 A 
BRANCH  42  56
ATOM     56  C   UNL A   1      44.252  28.768  35.765  1.00  0.00     0.058 A 
ATOM     57  C   UNL A   1      45.577  29.166  35.533  1.00  0.00     0.135 A 
ATOM     58  C   UNL A   1      44.031  27.729  36.684  1.00  0.00     0.135 A 
ATOM     59  F   UNL A   1      45.845  30.142  34.651  1.00  0.00    -0.206 F 
ATOM     60  C   UNL A   1      46.646  28.547  36.175  1.00  0.00     0.059 A 
ATOM     61  C   UNL A   1      45.082  27.110  37.355  1.00  0.00     0.059 A 
ATOM     62  F   UNL A   1      42.782  27.309  36.940  1.00  0.00    -0.206 F 
ATOM     63  C   UNL A   1      46.387  27.519  37.084  1.00  0.00     0.060 A 
BRANCH  63  64
ATOM     64  S   UNL A   1      47.781  26.732  37.918  1.00  0.00     0.124 S 
ATOM     65  O   UNL A   1      47.297  25.363  38.066  1.00  0.00    -0.237 OA
ATOM     66  O   UNL A   1      48.867  26.920  36.960  1.00  0.00    -0.237 OA
ATOM     67  O   UNL A   1      47.907  27.490  39.159  1.00  0.00    -0.744 OA
ENDBRANCH  63  64
ENDBRANCH  42  56
BRANCH  43  68
ATOM     68  C   UNL A   1      36.704  33.116  30.895  1.00  0.00     0.058 A 
ATOM     69  C   UNL A   1      35.373  32.893  31.278  1.00  0.00     0.135 A 
ATOM     70  C   UNL A   1      36.939  33.994  29.826  1.00  0.00     0.135 A 
ATOM     71  F   UNL A   1      35.098  32.052  32.286  1.00  0.00    -0.206 F 
ATOM     72  C   UNL A   1      34.314  33.516  30.626  1.00  0.00     0.059 A 
ATOM     73  C   UNL A   1      35.899  34.645  29.172  1.00  0.00     0.059 A 
ATOM     74  F   UNL A   1      38.196  34.246  29.427  1.00  0.00    -0.206 F 
ATOM     75  C   UNL A   1      34.588  34.397  29.577  1.00  0.00     0.060 A 
BRANCH  75  76
ATOM     76  S   UNL A   1      33.213  35.261  28.788  1.00  0.00     0.124 S 
ATOM     77  O   UNL A   1      33.911  36.300  28.038  1.00  0.00    -0.237 OA
ATOM     78  O   UNL A   1      32.600  34.201  27.993  1.00  0.00    -0.237 OA
ATOM     79  O   UNL A   1      32.417  35.725  29.920  1.00  0.00    -0.744 OA
ENDBRANCH  75  76
ENDBRANCH  43  68
BRANCH  55  80
ATOM     80  C   UNL A   1      39.816  34.313  37.027  1.00  0.00     0.058 A 
ATOM     81  C   UNL A   1      39.100  34.025  38.198  1.00  0.00     0.135 A 
ATOM     82  C   UNL A   1      40.384  35.591  36.903  1.00  0.00     0.135 A 
ATOM     83  F   UNL A   1      38.533  32.819  38.364  1.00  0.00    -0.206 F 
ATOM     84  C   UNL A   1      38.938  34.974  39.202  1.00  0.00     0.059 A 
ATOM     85  C   UNL A   1      40.254  36.548  37.904  1.00  0.00     0.059 A 
ATOM     86  F   UNL A   1      41.089  35.914  35.806  1.00  0.00    -0.206 F 
ATOM     87  C   UNL A   1      39.519  36.234  39.046  1.00  0.00     0.060 A 
BRANCH  87  88
ATOM     88  S   UNL A   1      39.331  37.447  40.370  1.00  0.00     0.124 S 
ATOM     89  O   UNL A   1      38.560  38.492  39.704  1.00  0.00    -0.237 OA
ATOM     90  O   UNL A   1      38.617  36.689  41.393  1.00  0.00    -0.237 OA
ATOM     91  O   UNL A   1      40.707  37.799  40.707  1.00  0.00    -0.744 OA
ENDBRANCH  87  88
ENDBRANCH  55  80
ENDBRANCH  29  30
ENDBRANCH  22  24
ENDBRANCH  21  22
ENDBRANCH  20  21
ENDBRANCH   1  20
TORSDOF 20
ENDMDL
MODEL 2
REMARK VINA RESULT:      -9.8      4.843      9.957
REMARK SMILES CC(C)C[C@@H](C(=O)OCCOCCOC(=O)c1ccc(-c2c3nc(c(-c4c(F)cc(S(=O)(=O)[O-])cc4F)c4ccc([nH]4)c(-c4c(F)cc(S(=O)(=O)[O-])cc4F)c4nc(c(-c5c(F)cc(S(=O)(=O)[O-])cc5F)c5ccc2[nH]5)C=C4)C=C3)cc1)[C@@H]1CCC[C@@H](C)C1
REMARK SMILES IDX 12 1 11 2 10 3 9 4 8 5 6 6 7 7 5 8 4 9 2 10 1 11 3 12 83 13
REMARK SMILES IDX 84 14 89 15 85 16 87 17 86 18 88 19 13 20 14 21 15 22 16 23
REMARK SMILES IDX 17 24 18 25 82 26 19 27 81 28 20 29 21 30 22 31 75 32 23 33
REMARK SMILES IDX 80 34 74 35 76 36 24 37 79 38 73 39 72 40 25 42 59 43 38 44
REMARK SMILES IDX 58 45 39 46 42 47 57 48 77 49 40 50 41 51 56 53 78 54 43 55
REMARK SMILES IDX 26 56 27 57 36 58 28 59 29 60 35 61 37 62 30 63 31 64 32 65
REMARK SMILES IDX 33 66 34 67 60 68 61 69 70 70 62 71 63 72 69 73 71 74 64 75
REMARK SMILES IDX 65 76 66 77 67 78 68 79 44 80 45 81 54 82 46 83 47 84 53 85
REMARK SMILES IDX 55 86 48 87 49 88 50 89 51 90 52 91
REMARK H PARENT 76 41 42 52
REMARK Flexibility Score: inf
ROOT
ATOM      1  C   UNL A   1      32.072  29.589  25.887  1.00  0.00     0.202 C 
ENDROOT
BRANCH   1   2
ATOM      2  O   UNL A   1      31.792  28.937  24.652  1.00  0.00    -0.374 OA
BRANCH   2   3
ATOM      3  C   UNL A   1      31.199  27.642  24.715  1.00  0.00     0.202 C 
BRANCH   3   4
ATOM      4  C   UNL A   1      31.101  26.879  23.396  1.00  0.00     0.261 C 
BRANCH   4   5
ATOM      5  O   UNL A   1      32.259  27.064  22.557  1.00  0.00    -0.463 OA
BRANCH   5   6
ATOM      6  C   UNL A   1      32.836  25.922  22.103  1.00  0.00     0.309 C 
ATOM      7  O   UNL A   1      33.164  25.718  20.938  1.00  0.00    -0.252 OA
BRANCH   6   8
ATOM      8  C   UNL A   1      32.992  24.851  23.178  1.00  0.00     0.102 C 
BRANCH   8   9
ATOM      9  C   UNL A   1      34.420  24.890  23.759  1.00  0.00     0.018 C 
BRANCH   9  10
ATOM     10  C   UNL A   1      34.690  25.037  25.275  1.00  0.00    -0.017 C 
ATOM     11  C   UNL A   1      33.447  25.073  26.160  1.00  0.00     0.007 C 
ATOM     12  C   UNL A   1      35.593  23.877  25.718  1.00  0.00     0.007 C 
ENDBRANCH   9  10
ENDBRANCH   8   9
BRANCH   8  13
ATOM     13  C   UNL A   1      32.246  23.505  22.897  1.00  0.00     0.003 C 
ATOM     14  C   UNL A   1      30.877  23.415  23.622  1.00  0.00     0.004 C 
ATOM     15  C   UNL A   1      33.025  22.199  23.101  1.00  0.00     0.007 C 
ATOM     16  C   UNL A   1      30.962  22.943  25.071  1.00  0.00     0.001 C 
ATOM     17  C   UNL A   1      33.095  21.726  24.564  1.00  0.00    -0.014 C 
ATOM     18  C   UNL A   1      31.702  21.614  25.181  1.00  0.00     0.003 C 
ATOM     19  C   UNL A   1      33.873  20.417  24.674  1.00  0.00     0.007 C 
ENDBRANCH   8  13
ENDBRANCH   6   8
ENDBRANCH   5   6
ENDBRANCH   4   5
ENDBRANCH   3   4
ENDBRANCH   2   3
ENDBRANCH   1   2
BRANCH   1  20
ATOM     20  C   UNL A   1      33.537  29.598  26.340  1.00  0.00     0.261 C 
BRANCH  20  21
ATOM     21  O   UNL A   1      33.694  29.708  27.769  1.00  0.00    -0.460 OA
BRANCH  21  22
ATOM     22  C   UNL A   1      34.635  30.598  28.166  1.00  0.00     0.338 C 
ATOM     23  O   UNL A   1      34.448  31.757  28.522  1.00  0.00    -0.246 OA
BRANCH  22  24
ATOM     24  C   UNL A   1      35.961  29.963  28.270  1.00  0.00     0.060 A 
ATOM     25  C   UNL A   1      36.339  29.447  29.516  1.00  0.00     0.016 A 
ATOM     26  C   UNL A   1      36.873  30.001  27.213  1.00  0.00     0.016 A 
ATOM     27  C   UNL A   1      37.649  29.021  29.728  1.00  0.00     0.010 A 
ATOM     28  C   UNL A   1      38.192  29.580  27.432  1.00  0.00     0.010 A 
ATOM     29  C   UNL A   1      38.596  29.128  28.701  1.00  0.00    -0.014 A 
BRANCH  29  30
ATOM     30  C   UNL A   1      40.032  28.903  29.006  1.00  0.00     0.031 A 
ATOM     31  C   UNL A   1      40.653  27.571  28.677  1.00  0.00     0.074 A 
ATOM     32  C   UNL A   1      40.789  29.888  29.521  1.00  0.00     0.049 A 
ATOM     33  N   UNL A   1      41.877  27.155  28.877  1.00  0.00    -0.248 NA
ATOM     34  C   UNL A   1      39.778  26.577  28.034  1.00  0.00     0.031 C 
ATOM     35  C   UNL A   1      40.318  31.236  29.837  1.00  0.00     0.029 A 
ATOM     36  N   UNL A   1      42.116  29.905  29.868  1.00  0.00    -0.354 N 
ATOM     37  C   UNL A   1      41.923  25.856  28.383  1.00  0.00     0.074 A 
ATOM     38  C   UNL A   1      40.595  25.541  27.903  1.00  0.00     0.031 C 
ATOM     39  C   UNL A   1      41.342  31.949  30.334  1.00  0.00     0.029 A 
ATOM     40  C   UNL A   1      42.532  31.101  30.401  1.00  0.00     0.049 A 
ATOM     41  H   UNL A   1      42.715  29.132  29.747  1.00  0.00     0.167 HD
ATOM     42  C   UNL A   1      42.976  25.007  28.325  1.00  0.00     0.037 A 
ATOM     43  C   UNL A   1      43.730  31.467  30.898  1.00  0.00     0.037 A 
ATOM     44  C   UNL A   1      44.298  25.320  28.806  1.00  0.00     0.049 A 
ATOM     45  C   UNL A   1      44.871  30.484  30.887  1.00  0.00     0.074 A 
ATOM     46  C   UNL A   1      45.428  24.520  28.803  1.00  0.00     0.029 A 
ATOM     47  N   UNL A   1      44.668  26.530  29.374  1.00  0.00    -0.354 N 
ATOM     48  N   UNL A   1      44.894  29.253  30.432  1.00  0.00    -0.248 NA
ATOM     49  C   UNL A   1      46.149  30.939  31.453  1.00  0.00     0.031 C 
ATOM     50  C   UNL A   1      46.472  25.233  29.400  1.00  0.00     0.029 A 
ATOM     51  C   UNL A   1      46.005  26.493  29.737  1.00  0.00     0.049 A 
ATOM     52  H   UNL A   1      44.069  27.301  29.501  1.00  0.00     0.167 HD
ATOM     53  C   UNL A   1      46.192  28.796  30.638  1.00  0.00     0.074 A 
ATOM     54  C   UNL A   1      46.926  29.883  31.251  1.00  0.00     0.031 C 
ATOM     55  C   UNL A   1      46.726  27.585  30.344  1.00  0.00     0.037 A 
BRANCH  42  56
ATOM     56  C   UNL A   1      42.741  23.646  27.733  1.00  0.00     0.058 A 
ATOM     57  C   UNL A   1      42.838  23.420  26.351  1.00  0.00     0.135 A 
ATOM     58  C   UNL A   1      42.457  22.547  28.559  1.00  0.00     0.135 A 
ATOM     59  F   UNL A   1      43.089  24.440  25.516  1.00  0.00    -0.206 F 
ATOM     60  C   UNL A   1      42.644  22.154  25.806  1.00  0.00     0.059 A 
ATOM     61  C   UNL A   1      42.281  21.267  28.039  1.00  0.00     0.059 A 
ATOM     62  F   UNL A   1      42.351  22.709  29.888  1.00  0.00    -0.206 F 
ATOM     63  C   UNL A   1      42.365  21.084  26.659  1.00  0.00     0.060 A 
BRANCH  63  64
ATOM     64  S   UNL A   1      42.127  19.445  25.940  1.00  0.00     0.124 S 
ATOM     65  O   UNL A   1      40.687  19.437  25.706  1.00  0.00    -0.237 OA
ATOM     66  O   UNL A   1      42.963  19.503  24.744  1.00  0.00    -0.237 OA
ATOM     67  O   UNL A   1      42.599  18.544  26.986  1.00  0.00    -0.744 OA
ENDBRANCH  63  64
ENDBRANCH  42  56
BRANCH  43  68
ATOM     68  C   UNL A   1      43.908  32.832  31.455  1.00  0.00     0.058 A 
ATOM     69  C   UNL A   1      43.740  33.084  32.824  1.00  0.00     0.135 A 
ATOM     70  C   UNL A   1      44.276  33.907  30.631  1.00  0.00     0.135 A 
ATOM     71  F   UNL A   1      43.375  32.091  33.649  1.00  0.00    -0.206 F 
ATOM     72  C   UNL A   1      43.929  34.354  33.359  1.00  0.00     0.059 A 
ATOM     73  C   UNL A   1      44.492  35.182  31.145  1.00  0.00     0.059 A 
ATOM     74  F   UNL A   1      44.456  33.715  29.315  1.00  0.00    -0.206 F 
ATOM     75  C   UNL A   1      44.312  35.396  32.511  1.00  0.00     0.060 A 
BRANCH  75  76
ATOM     76  S   UNL A   1      44.632  37.023  33.226  1.00  0.00     0.124 S 
ATOM     77  O   UNL A   1      44.588  36.732  34.654  1.00  0.00    -0.237 OA
ATOM     78  O   UNL A   1      45.947  37.345  32.679  1.00  0.00    -0.237 OA
ATOM     79  O   UNL A   1      43.533  37.835  32.712  1.00  0.00    -0.744 OA
ENDBRANCH  75  76
ENDBRANCH  43  68
BRANCH  55  80
ATOM     80  C   UNL A   1      48.181  27.372  30.654  1.00  0.00     0.058 A 
ATOM     81  C   UNL A   1      48.602  26.825  31.875  1.00  0.00     0.135 A 
ATOM     82  C   UNL A   1      49.163  27.667  29.694  1.00  0.00     0.135 A 
ATOM     83  F   UNL A   1      47.704  26.530  32.828  1.00  0.00    -0.206 F 
ATOM     84  C   UNL A   1      49.948  26.595  32.142  1.00  0.00     0.059 A 
ATOM     85  C   UNL A   1      50.513  27.424  29.931  1.00  0.00     0.059 A 
ATOM     86  F   UNL A   1      48.813  28.182  28.504  1.00  0.00    -0.206 F 
ATOM     87  C   UNL A   1      50.896  26.898  31.163  1.00  0.00     0.060 A 
BRANCH  87  88
ATOM     88  S   UNL A   1      52.637  26.564  31.508  1.00  0.00     0.124 S 
ATOM     89  O   UNL A   1      53.029  27.766  32.236  1.00  0.00    -0.237 OA
ATOM     90  O   UNL A   1      52.572  25.338  32.298  1.00  0.00    -0.237 OA
ATOM     91  O   UNL A   1      53.224  26.414  30.180  1.00  0.00    -0.744 OA
ENDBRANCH  87  88
ENDBRANCH  55  80
ENDBRANCH  29  30
ENDBRANCH  22  24
ENDBRANCH  21  22
ENDBRANCH  20  21
ENDBRANCH   1  20
TORSDOF 20
ENDMDL
MODEL 3
REMARK VINA RESULT:      -9.8      1.082      2.166
REMARK SMILES CC(C)C[C@@H](C(=O)OCCOCCOC(=O)c1ccc(-c2c3nc(c(-c4c(F)cc(S(=O)(=O)[O-])cc4F)c4ccc([nH]4)c(-c4c(F)cc(S(=O)(=O)[O-])cc4F)c4nc(c(-c5c(F)cc(S(=O)(=O)[O-])cc5F)c5ccc2[nH]5)C=C4)C=C3)cc1)[C@@H]1CCC[C@@H](C)C1
REMARK SMILES IDX 12 1 11 2 10 3 9 4 8 5 6 6 7 7 5 8 4 9 2 10 1 11 3 12 83 13
REMARK SMILES IDX 84 14 89 15 85 16 87 17 86 18 88 19 13 20 14 21 15 22 16 23
REMARK SMILES IDX 17 24 18 25 82 26 19 27 81 28 20 29 21 30 22 31 75 32 23 33
REMARK SMILES IDX 80 34 74 35 76 36 24 37 79 38 73 39 72 40 25 42 59 43 38 44
REMARK SMILES IDX 58 45 39 46 42 47 57 48 77 49 40 50 41 51 56 53 78 54 43 55
REMARK SMILES IDX 26 56 27 57 36 58 28 59 29 60 35 61 37 62 30 63 31 64 32 65
REMARK SMILES IDX 33 66 34 67 60 68 61 69 70 70 62 71 63 72 69 73 71 74 64 75
REMARK SMILES IDX 65 76 66 77 67 78 68 79 44 80 45 81 54 82 46 83 47 84 53 85
REMARK SMILES IDX 55 86 48 87 49 88 50 89 51 90 52 91
REMARK H PARENT 76 41 42 52
REMARK Flexibility Score: inf
ROOT
ATOM      1  C   UNL A   1      38.408  22.839  25.859  1.00  0.00     0.202 C 
ENDROOT
BRANCH   1   2
ATOM      2  O   UNL A   1      37.319  21.926  25.756  1.00  0.00    -0.374 OA
BRANCH   2   3
ATOM      3  C   UNL A   1      36.631  21.867  24.508  1.00  0.00     0.202 C 
BRANCH   3   4
ATOM      4  C   UNL A   1      35.151  22.243  24.535  1.00  0.00     0.261 C 
BRANCH   4   5
ATOM      5  O   UNL A   1      34.938  23.669  24.565  1.00  0.00    -0.463 OA
BRANCH   5   6
ATOM      6  C   UNL A   1      34.293  24.182  23.486  1.00  0.00     0.309 C 
ATOM      7  O   UNL A   1      34.286  23.675  22.368  1.00  0.00    -0.252 OA
BRANCH   6   8
ATOM      8  C   UNL A   1      33.605  25.514  23.766  1.00  0.00     0.102 C 
BRANCH   8   9
ATOM      9  C   UNL A   1      32.842  25.446  25.104  1.00  0.00     0.018 C 
BRANCH   9  10
ATOM     10  C   UNL A   1      31.618  24.522  25.309  1.00  0.00    -0.017 C 
ATOM     11  C   UNL A   1      31.866  23.291  26.176  1.00  0.00     0.007 C 
ATOM     12  C   UNL A   1      30.485  25.355  25.925  1.00  0.00     0.007 C 
ENDBRANCH   9  10
ENDBRANCH   8   9
BRANCH   8  13
ATOM     13  C   UNL A   1      33.018  26.242  22.512  1.00  0.00     0.003 C 
ATOM     14  C   UNL A   1      33.733  27.584  22.206  1.00  0.00     0.004 C 
ATOM     15  C   UNL A   1      31.498  26.441  22.446  1.00  0.00     0.007 C 
ATOM     16  C   UNL A   1      33.212  28.773  23.008  1.00  0.00     0.001 C 
ATOM     17  C   UNL A   1      30.983  27.649  23.249  1.00  0.00    -0.014 C 
ATOM     18  C   UNL A   1      31.704  28.934  22.847  1.00  0.00     0.003 C 
ATOM     19  C   UNL A   1      29.468  27.782  23.119  1.00  0.00     0.007 C 
ENDBRANCH   8  13
ENDBRANCH   6   8
ENDBRANCH   5   6
ENDBRANCH   4   5
ENDBRANCH   3   4
ENDBRANCH   2   3
ENDBRANCH   1   2
BRANCH   1  20
ATOM     20  C   UNL A   1      39.684  22.311  26.527  1.00  0.00     0.261 C 
BRANCH  20  21
ATOM     21  O   UNL A   1      40.136  23.129  27.624  1.00  0.00    -0.460 OA
BRANCH  21  22
ATOM     22  C   UNL A   1      40.982  24.127  27.272  1.00  0.00     0.338 C 
ATOM     23  O   UNL A   1      41.830  24.094  26.386  1.00  0.00    -0.246 OA
BRANCH  22  24
ATOM     24  C   UNL A   1      40.673  25.371  27.999  1.00  0.00     0.060 A 
ATOM     25  C   UNL A   1      41.696  26.318  28.134  1.00  0.00     0.016 A 
ATOM     26  C   UNL A   1      39.456  25.546  28.661  1.00  0.00     0.016 A 
ATOM     27  C   UNL A   1      41.529  27.414  28.979  1.00  0.00     0.010 A 
ATOM     28  C   UNL A   1      39.293  26.644  29.517  1.00  0.00     0.010 A 
ATOM     29  C   UNL A   1      40.343  27.559  29.712  1.00  0.00    -0.014 A 
BRANCH  29  30
ATOM     30  C   UNL A   1      40.269  28.584  30.783  1.00  0.00     0.031 A 
ATOM     31  C   UNL A   1      41.211  28.492  31.955  1.00  0.00     0.074 A 
ATOM     32  C   UNL A   1      39.410  29.615  30.692  1.00  0.00     0.049 A 
ATOM     33  N   UNL A   1      41.303  29.264  33.007  1.00  0.00    -0.248 NA
ATOM     34  C   UNL A   1      42.179  27.383  31.937  1.00  0.00     0.031 C 
ATOM     35  C   UNL A   1      38.483  29.844  29.584  1.00  0.00     0.029 A 
ATOM     36  N   UNL A   1      39.181  30.665  31.546  1.00  0.00    -0.354 N 
ATOM     37  C   UNL A   1      42.338  28.740  33.773  1.00  0.00     0.074 A 
ATOM     38  C   UNL A   1      42.823  27.565  33.081  1.00  0.00     0.031 C 
ATOM     39  C   UNL A   1      37.782  30.964  29.828  1.00  0.00     0.029 A 
ATOM     40  C   UNL A   1      38.188  31.514  31.121  1.00  0.00     0.049 A 
ATOM     41  H   UNL A   1      39.681  30.796  32.383  1.00  0.00     0.167 HD
ATOM     42  C   UNL A   1      42.847  29.201  34.941  1.00  0.00     0.037 A 
ATOM     43  C   UNL A   1      37.658  32.603  31.713  1.00  0.00     0.037 A 
ATOM     44  C   UNL A   1      42.363  30.370  35.631  1.00  0.00     0.049 A 
ATOM     45  C   UNL A   1      38.192  33.059  33.045  1.00  0.00     0.074 A 
ATOM     46  C   UNL A   1      42.806  30.908  36.827  1.00  0.00     0.029 A 
ATOM     47  N   UNL A   1      41.330  31.180  35.187  1.00  0.00    -0.354 N 
ATOM     48  N   UNL A   1      39.160  32.543  33.766  1.00  0.00    -0.248 NA
ATOM     49  C   UNL A   1      37.564  34.246  33.644  1.00  0.00     0.031 C 
ATOM     50  C   UNL A   1      42.018  32.024  37.124  1.00  0.00     0.029 A 
ATOM     51  C   UNL A   1      41.112  32.207  36.092  1.00  0.00     0.049 A 
ATOM     52  H   UNL A   1      40.826  31.047  34.352  1.00  0.00     0.167 HD
ATOM     53  C   UNL A   1      39.271  33.355  34.890  1.00  0.00     0.074 A 
ATOM     54  C   UNL A   1      38.278  34.400  34.752  1.00  0.00     0.031 C 
ATOM     55  C   UNL A   1      40.121  33.244  35.941  1.00  0.00     0.037 A 
BRANCH  42  56
ATOM     56  C   UNL A   1      43.980  28.430  35.558  1.00  0.00     0.058 A 
ATOM     57  C   UNL A   1      45.318  28.716  35.247  1.00  0.00     0.135 A 
ATOM     58  C   UNL A   1      43.727  27.423  36.504  1.00  0.00     0.135 A 
ATOM     59  F   UNL A   1      45.614  29.657  34.337  1.00  0.00    -0.206 F 
ATOM     60  C   UNL A   1      46.367  28.019  35.837  1.00  0.00     0.059 A 
ATOM     61  C   UNL A   1      44.761  26.727  37.124  1.00  0.00     0.059 A 
ATOM     62  F   UNL A   1      42.465  27.109  36.835  1.00  0.00    -0.206 F 
ATOM     63  C   UNL A   1      46.078  27.025  36.775  1.00  0.00     0.060 A 
BRANCH  63  64
ATOM     64  S   UNL A   1      47.449  26.136  37.543  1.00  0.00     0.124 S 
ATOM     65  O   UNL A   1      46.876  25.780  38.837  1.00  0.00    -0.237 OA
ATOM     66  O   UNL A   1      47.661  25.027  36.617  1.00  0.00    -0.237 OA
ATOM     67  O   UNL A   1      48.518  27.128  37.581  1.00  0.00    -0.744 OA
ENDBRANCH  63  64
ENDBRANCH  42  56
BRANCH  43  68
ATOM     68  C   UNL A   1      36.550  33.335  31.047  1.00  0.00     0.058 A 
ATOM     69  C   UNL A   1      36.791  34.161  29.940  1.00  0.00     0.135 A 
ATOM     70  C   UNL A   1      35.225  33.201  31.488  1.00  0.00     0.135 A 
ATOM     71  F   UNL A   1      38.044  34.331  29.490  1.00  0.00    -0.206 F 
ATOM     72  C   UNL A   1      35.758  34.831  29.293  1.00  0.00     0.059 A 
ATOM     73  C   UNL A   1      34.172  33.843  30.846  1.00  0.00     0.059 A 
ATOM     74  F   UNL A   1      34.943  32.415  32.539  1.00  0.00    -0.206 F 
ATOM     75  C   UNL A   1      34.449  34.659  29.750  1.00  0.00     0.060 A 
BRANCH  75  76
ATOM     76  S   UNL A   1      33.105  35.470  28.857  1.00  0.00     0.124 S 
ATOM     77  O   UNL A   1      32.497  34.344  28.156  1.00  0.00    -0.237 OA
ATOM     78  O   UNL A   1      32.319  36.046  29.943  1.00  0.00    -0.237 OA
ATOM     79  O   UNL A   1      33.800  36.438  28.015  1.00  0.00    -0.744 OA
ENDBRANCH  75  76
ENDBRANCH  43  68
BRANCH  55  80
ATOM     80  C   UNL A   1      40.038  34.291  37.016  1.00  0.00     0.058 A 
ATOM     81  C   UNL A   1      40.758  35.492  36.931  1.00  0.00     0.135 A 
ATOM     82  C   UNL A   1      39.185  34.114  38.118  1.00  0.00     0.135 A 
ATOM     83  F   UNL A   1      41.591  35.709  35.901  1.00  0.00    -0.206 F 
ATOM     84  C   UNL A   1      40.648  36.475  37.910  1.00  0.00     0.059 A 
ATOM     85  C   UNL A   1      39.043  35.092  39.097  1.00  0.00     0.059 A 
ATOM     86  F   UNL A   1      38.466  32.987  38.241  1.00  0.00    -0.206 F 
ATOM     87  C   UNL A   1      39.788  36.266  38.990  1.00  0.00     0.060 A 
BRANCH  87  88
ATOM     88  S   UNL A   1      39.629  37.562  40.237  1.00  0.00     0.124 S 
ATOM     89  O   UNL A   1      40.690  38.483  39.841  1.00  0.00    -0.237 OA
ATOM     90  O   UNL A   1      38.266  38.037  40.025  1.00  0.00    -0.237 OA
ATOM     91  O   UNL A   1      39.850  36.852  41.494  1.00  0.00    -0.744 OA
ENDBRANCH  87  88
ENDBRANCH  55  80
ENDBRANCH  29  30
ENDBRANCH  22  24
ENDBRANCH  21  22
ENDBRANCH  20  21
ENDBRANCH   1  20
TORSDOF 20
ENDMDL
