MODEL 1
REMARK VINA RESULT:      -9.7      0.000      0.000
REMARK SMILES Cc1cc(OC(F)(F)F)cc2c1O[C@H](C(F)(F)F)C(C(=O)OCCOCCOC(=O)c1ccc(-c3c4nc(c(-c5c(F)cc(S(=O)(=O)[O-])cc5F)c5ccc([nH]5)c(-c5c(F)cc(S(=O)(=O)[O-])cc5F)c5nc(c(-c6c(F)cc(S(=O)(=O)[O-])cc6F)c6ccc3[nH]6)C=C5)C=C4)cc1)=C2
REMARK SMILES IDX 26 1 25 2 24 3 23 4 22 5 20 6 21 7 19 8 1 9 2 10 3 11 12 12
REMARK SMILES IDX 4 13 11 14 13 15 10 16 97 17 14 18 5 19 6 20 7 21 8 22 9 23
REMARK SMILES IDX 15 24 16 25 17 26 18 27 27 28 28 29 29 30 30 31 31 32 32 33
REMARK SMILES IDX 96 34 33 35 95 36 34 37 35 38 36 39 89 40 37 41 94 42 88 43
REMARK SMILES IDX 90 44 38 45 93 46 87 47 86 48 39 50 73 51 52 52 72 53 53 54
REMARK SMILES IDX 56 55 71 56 91 57 54 58 55 59 70 61 92 62 57 63 40 64 41 65
REMARK SMILES IDX 50 66 42 67 43 68 49 69 51 70 44 71 45 72 46 73 47 74 48 75
REMARK SMILES IDX 74 76 75 77 84 78 76 79 77 80 83 81 85 82 78 83 79 84 80 85
REMARK SMILES IDX 81 86 82 87 58 88 59 89 68 90 60 91 61 92 67 93 69 94 62 95
REMARK SMILES IDX 63 96 64 97 65 98 66 99
REMARK H PARENT 90 49 56 60
REMARK Flexibility Score: inf
ROOT
ATOM      1  C   UNL A   1      42.025  19.322  27.017  1.00  0.00     0.202 C 
ENDROOT
BRANCH   1   2
ATOM      2  O   UNL A   1      42.634  18.336  26.180  1.00  0.00    -0.374 OA
BRANCH   2   3
ATOM      3  C   UNL A   1      43.510  18.794  25.151  1.00  0.00     0.202 C 
BRANCH   3   4
ATOM      4  C   UNL A   1      44.556  19.832  25.565  1.00  0.00     0.261 C 
BRANCH   4   5
ATOM      5  O   UNL A   1      44.501  20.999  24.730  1.00  0.00    -0.460 OA
BRANCH   5   6
ATOM      6  C   UNL A   1      43.853  22.053  25.275  1.00  0.00     0.338 C 
ATOM      7  O   UNL A   1      42.686  22.370  25.096  1.00  0.00    -0.246 OA
BRANCH   6   8
ATOM      8  C   UNL A   1      44.727  22.731  26.249  1.00  0.00     0.087 C 
ATOM      9  C   UNL A   1      48.344  25.443  28.648  1.00  0.00     0.048 C 
ATOM     10  C   UNL A   1      46.949  24.984  28.974  1.00  0.00    -0.005 A 
ATOM     11  C   UNL A   1      46.335  25.400  30.172  1.00  0.00     0.054 A 
ATOM     12  C   UNL A   1      46.244  24.152  28.090  1.00  0.00     0.131 A 
ATOM     13  C   UNL A   1      45.038  24.994  30.485  1.00  0.00     0.130 A 
ATOM     14  C   UNL A   1      44.939  23.767  28.392  1.00  0.00     0.021 A 
ATOM     15  O   UNL A   1      46.896  23.739  26.961  1.00  0.00    -0.475 OA
ATOM     16  C   UNL A   1      44.349  24.170  29.594  1.00  0.00     0.058 A 
ATOM     17  C   UNL A   1      44.167  22.999  27.435  1.00  0.00     0.027 C 
ATOM     18  C   UNL A   1      46.139  23.104  25.890  1.00  0.00     0.316 C 
BRANCH  13  19
ATOM     19  O   UNL A   1      44.328  25.320  31.605  1.00  0.00    -0.406 OA
BRANCH  19  20
ATOM     20  C   UNL A   1      44.062  26.690  31.844  1.00  0.00     0.573 C 
ATOM     21  F   UNL A   1      43.713  27.323  30.705  1.00  0.00    -0.132 F 
ATOM     22  F   UNL A   1      43.090  26.847  32.767  1.00  0.00    -0.132 F 
ATOM     23  F   UNL A   1      45.187  27.271  32.318  1.00  0.00    -0.132 F 
ENDBRANCH  19  20
ENDBRANCH  13  19
BRANCH  18  24
ATOM     24  C   UNL A   1      46.213  24.003  24.647  1.00  0.00     0.430 C 
ATOM     25  F   UNL A   1      47.378  24.690  24.609  1.00  0.00    -0.167 F 
ATOM     26  F   UNL A   1      46.143  23.283  23.503  1.00  0.00    -0.167 F 
ATOM     27  F   UNL A   1      45.207  24.906  24.621  1.00  0.00    -0.167 F 
ENDBRANCH  18  24
ENDBRANCH   6   8
ENDBRANCH   5   6
ENDBRANCH   4   5
ENDBRANCH   3   4
ENDBRANCH   2   3
ENDBRANCH   1   2
BRANCH   1  28
ATOM     28  C   UNL A   1      40.730  19.965  26.506  1.00  0.00     0.261 C 
BRANCH  28  29
ATOM     29  O   UNL A   1      40.360  21.119  27.284  1.00  0.00    -0.460 OA
BRANCH  29  30
ATOM     30  C   UNL A   1      39.641  22.052  26.614  1.00  0.00     0.338 C 
ATOM     31  O   UNL A   1      38.788  21.854  25.761  1.00  0.00    -0.246 OA
BRANCH  30  32
ATOM     32  C   UNL A   1      39.896  23.384  27.182  1.00  0.00     0.060 A 
ATOM     33  C   UNL A   1      39.331  24.492  26.539  1.00  0.00     0.016 A 
ATOM     34  C   UNL A   1      40.773  23.552  28.256  1.00  0.00     0.016 A 
ATOM     35  C   UNL A   1      39.674  25.781  26.942  1.00  0.00     0.010 A 
ATOM     36  C   UNL A   1      41.132  24.845  28.646  1.00  0.00     0.010 A 
ATOM     37  C   UNL A   1      40.613  25.962  27.966  1.00  0.00    -0.014 A 
BRANCH  37  38
ATOM     38  C   UNL A   1      41.184  27.309  28.199  1.00  0.00     0.031 A 
ATOM     39  C   UNL A   1      42.592  27.583  27.749  1.00  0.00     0.074 A 
ATOM     40  C   UNL A   1      40.449  28.279  28.771  1.00  0.00     0.049 A 
ATOM     41  N   UNL A   1      43.302  28.674  27.869  1.00  0.00    -0.248 NA
ATOM     42  C   UNL A   1      43.292  26.481  27.068  1.00  0.00     0.031 C 
ATOM     43  C   UNL A   1      39.058  28.142  29.201  1.00  0.00     0.029 A 
ATOM     44  N   UNL A   1      40.776  29.571  29.093  1.00  0.00    -0.354 N 
ATOM     45  C   UNL A   1      44.526  28.395  27.274  1.00  0.00     0.074 A 
ATOM     46  C   UNL A   1      44.476  27.023  26.819  1.00  0.00     0.031 C 
ATOM     47  C   UNL A   1      38.655  29.305  29.742  1.00  0.00     0.029 A 
ATOM     48  C   UNL A   1      39.765  30.256  29.720  1.00  0.00     0.049 A 
ATOM     49  H   UNL A   1      41.654  29.970  28.892  1.00  0.00     0.167 HD
ATOM     50  C   UNL A   1      45.591  29.214  27.110  1.00  0.00     0.037 A 
ATOM     51  C   UNL A   1      39.746  31.502  30.235  1.00  0.00     0.037 A 
ATOM     52  C   UNL A   1      45.641  30.575  27.576  1.00  0.00     0.049 A 
ATOM     53  C   UNL A   1      40.977  32.363  30.125  1.00  0.00     0.074 A 
ATOM     54  C   UNL A   1      46.674  31.487  27.458  1.00  0.00     0.029 A 
ATOM     55  N   UNL A   1      44.615  31.216  28.254  1.00  0.00    -0.354 N 
ATOM     56  N   UNL A   1      42.125  32.092  29.551  1.00  0.00    -0.248 NA
ATOM     57  C   UNL A   1      40.914  33.699  30.737  1.00  0.00     0.031 C 
ATOM     58  C   UNL A   1      46.291  32.666  28.106  1.00  0.00     0.029 A 
ATOM     59  C   UNL A   1      45.000  32.503  28.585  1.00  0.00     0.049 A 
ATOM     60  H   UNL A   1      43.742  30.814  28.470  1.00  0.00     0.167 HD
ATOM     61  C   UNL A   1      42.912  33.228  29.712  1.00  0.00     0.074 A 
ATOM     62  C   UNL A   1      42.106  34.195  30.430  1.00  0.00     0.031 C 
ATOM     63  C   UNL A   1      44.184  33.454  29.300  1.00  0.00     0.037 A 
BRANCH  50  64
ATOM     64  C   UNL A   1      46.798  28.659  26.410  1.00  0.00     0.058 A 
ATOM     65  C   UNL A   1      46.763  28.312  25.050  1.00  0.00     0.135 A 
ATOM     66  C   UNL A   1      48.018  28.517  27.091  1.00  0.00     0.135 A 
ATOM     67  F   UNL A   1      45.615  28.409  24.359  1.00  0.00    -0.206 F 
ATOM     68  C   UNL A   1      47.891  27.836  24.392  1.00  0.00     0.059 A 
ATOM     69  C   UNL A   1      49.165  28.063  26.448  1.00  0.00     0.059 A 
ATOM     70  F   UNL A   1      48.103  28.827  28.395  1.00  0.00    -0.206 F 
ATOM     71  C   UNL A   1      49.090  27.718  25.099  1.00  0.00     0.060 A 
BRANCH  71  72
ATOM     72  S   UNL A   1      50.549  27.119  24.222  1.00  0.00     0.124 S 
ATOM     73  O   UNL A   1      50.900  25.941  25.010  1.00  0.00    -0.237 OA
ATOM     74  O   UNL A   1      50.023  26.855  22.887  1.00  0.00    -0.237 OA
ATOM     75  O   UNL A   1      51.486  28.235  24.316  1.00  0.00    -0.744 OA
ENDBRANCH  71  72
ENDBRANCH  50  64
BRANCH  51  76
ATOM     76  C   UNL A   1      38.521  32.008  30.907  1.00  0.00     0.058 A 
ATOM     77  C   UNL A   1      38.275  31.734  32.260  1.00  0.00     0.135 A 
ATOM     78  C   UNL A   1      37.577  32.780  30.212  1.00  0.00     0.135 A 
ATOM     79  F   UNL A   1      39.142  30.990  32.962  1.00  0.00    -0.206 F 
ATOM     80  C   UNL A   1      37.133  32.205  32.901  1.00  0.00     0.059 A 
ATOM     81  C   UNL A   1      36.439  33.279  30.836  1.00  0.00     0.059 A 
ATOM     82  F   UNL A   1      37.770  33.074  28.917  1.00  0.00    -0.206 F 
ATOM     83  C   UNL A   1      36.222  32.981  32.181  1.00  0.00     0.060 A 
BRANCH  83  84
ATOM     84  S   UNL A   1      34.772  33.630  33.039  1.00  0.00     0.124 S 
ATOM     85  O   UNL A   1      34.773  35.023  32.607  1.00  0.00    -0.237 OA
ATOM     86  O   UNL A   1      33.702  32.796  32.501  1.00  0.00    -0.237 OA
ATOM     87  O   UNL A   1      35.085  33.405  34.446  1.00  0.00    -0.744 OA
ENDBRANCH  83  84
ENDBRANCH  51  76
BRANCH  63  88
ATOM     88  C   UNL A   1      44.788  34.797  29.597  1.00  0.00     0.058 A 
ATOM     89  C   UNL A   1      44.665  35.872  28.703  1.00  0.00     0.135 A 
ATOM     90  C   UNL A   1      45.426  35.035  30.826  1.00  0.00     0.135 A 
ATOM     91  F   UNL A   1      44.068  35.695  27.513  1.00  0.00    -0.206 F 
ATOM     92  C   UNL A   1      45.162  37.133  29.012  1.00  0.00     0.059 A 
ATOM     93  C   UNL A   1      45.910  36.294  31.166  1.00  0.00     0.059 A 
ATOM     94  F   UNL A   1      45.560  34.043  31.721  1.00  0.00    -0.206 F 
ATOM     95  C   UNL A   1      45.778  37.336  30.249  1.00  0.00     0.060 A 
BRANCH  95  96
ATOM     96  S   UNL A   1      46.373  38.992  30.656  1.00  0.00     0.124 S 
ATOM     97  O   UNL A   1      47.780  38.736  30.946  1.00  0.00    -0.237 OA
ATOM     98  O   UNL A   1      46.104  39.731  29.425  1.00  0.00    -0.237 OA
ATOM     99  O   UNL A   1      45.555  39.375  31.801  1.00  0.00    -0.744 OA
ENDBRANCH  95  96
ENDBRANCH  63  88
ENDBRANCH  37  38
ENDBRANCH  30  32
ENDBRANCH  29  30
ENDBRANCH  28  29
ENDBRANCH   1  28
TORSDOF 20
ENDMDL
MODEL 2
REMARK VINA RESULT:      -9.5      4.687     11.363
REMARK SMILES Cc1cc(OC(F)(F)F)cc2c1O[C@H](C(F)(F)F)C(C(=O)OCCOCCOC(=O)c1ccc(-c3c4nc(c(-c5c(F)cc(S(=O)(=O)[O-])cc5F)c5ccc([nH]5)c(-c5c(F)cc(S(=O)(=O)[O-])cc5F)c5nc(c(-c6c(F)cc(S(=O)(=O)[O-])cc6F)c6ccc3[nH]6)C=C5)C=C4)cc1)=C2
REMARK SMILES IDX 26 1 25 2 24 3 23 4 22 5 20 6 21 7 19 8 1 9 2 10 3 11 12 12
REMARK SMILES IDX 4 13 11 14 13 15 10 16 97 17 14 18 5 19 6 20 7 21 8 22 9 23
REMARK SMILES IDX 15 24 16 25 17 26 18 27 27 28 28 29 29 30 30 31 31 32 32 33
REMARK SMILES IDX 96 34 33 35 95 36 34 37 35 38 36 39 89 40 37 41 94 42 88 43
REMARK SMILES IDX 90 44 38 45 93 46 87 47 86 48 39 50 73 51 52 52 72 53 53 54
REMARK SMILES IDX 56 55 71 56 91 57 54 58 55 59 70 61 92 62 57 63 40 64 41 65
REMARK SMILES IDX 50 66 42 67 43 68 49 69 51 70 44 71 45 72 46 73 47 74 48 75
REMARK SMILES IDX 74 76 75 77 84 78 76 79 77 80 83 81 85 82 78 83 79 84 80 85
REMARK SMILES IDX 81 86 82 87 58 88 59 89 68 90 60 91 61 92 67 93 69 94 62 95
REMARK SMILES IDX 63 96 64 97 65 98 66 99
REMARK H PARENT 90 49 56 60
REMARK Flexibility Score: inf
ROOT
ATOM      1  C   UNL A   1      34.133  29.688  27.166  1.00  0.00     0.202 C 
ENDROOT
BRANCH   1   2
ATOM      2  O   UNL A   1      32.763  29.820  26.777  1.00  0.00    -0.374 OA
BRANCH   2   3
ATOM      3  C   UNL A   1      32.461  29.720  25.386  1.00  0.00     0.202 C 
BRANCH   3   4
ATOM      4  C   UNL A   1      31.651  28.495  24.955  1.00  0.00     0.261 C 
BRANCH   4   5
ATOM      5  O   UNL A   1      32.318  27.272  25.304  1.00  0.00    -0.460 OA
BRANCH   5   6
ATOM      6  C   UNL A   1      31.594  26.437  26.083  1.00  0.00     0.338 C 
ATOM      7  O   UNL A   1      30.682  26.743  26.837  1.00  0.00    -0.246 OA
BRANCH   6   8
ATOM      8  C   UNL A   1      31.971  25.038  25.806  1.00  0.00     0.087 C 
ATOM      9  C   UNL A   1      32.447  20.277  23.992  1.00  0.00     0.048 C 
ATOM     10  C   UNL A   1      33.326  21.231  24.754  1.00  0.00    -0.005 A 
ATOM     11  C   UNL A   1      34.661  20.884  25.035  1.00  0.00     0.054 A 
ATOM     12  C   UNL A   1      32.831  22.474  25.182  1.00  0.00     0.131 A 
ATOM     13  C   UNL A   1      35.493  21.760  25.732  1.00  0.00     0.130 A 
ATOM     14  C   UNL A   1      33.670  23.360  25.856  1.00  0.00     0.021 A 
ATOM     15  O   UNL A   1      31.516  22.749  24.924  1.00  0.00    -0.475 OA
ATOM     16  C   UNL A   1      34.988  22.993  26.146  1.00  0.00     0.058 A 
ATOM     17  C   UNL A   1      33.200  24.686  26.204  1.00  0.00     0.027 C 
ATOM     18  C   UNL A   1      31.023  24.109  25.101  1.00  0.00     0.316 C 
BRANCH  13  19
ATOM     19  O   UNL A   1      36.799  21.552  26.070  1.00  0.00    -0.406 OA
BRANCH  19  20
ATOM     20  C   UNL A   1      37.797  22.091  25.222  1.00  0.00     0.573 C 
ATOM     21  F   UNL A   1      38.890  21.300  25.192  1.00  0.00    -0.132 F 
ATOM     22  F   UNL A   1      37.331  22.269  23.968  1.00  0.00    -0.132 F 
ATOM     23  F   UNL A   1      38.168  23.298  25.706  1.00  0.00    -0.132 F 
ENDBRANCH  19  20
ENDBRANCH  13  19
BRANCH  18  24
ATOM     24  C   UNL A   1      30.582  24.646  23.731  1.00  0.00     0.430 C 
ATOM     25  F   UNL A   1      30.090  23.654  22.953  1.00  0.00    -0.167 F 
ATOM     26  F   UNL A   1      29.606  25.576  23.848  1.00  0.00    -0.167 F 
ATOM     27  F   UNL A   1      31.609  25.216  23.061  1.00  0.00    -0.167 F 
ENDBRANCH  18  24
ENDBRANCH   6   8
ENDBRANCH   5   6
ENDBRANCH   4   5
ENDBRANCH   3   4
ENDBRANCH   2   3
ENDBRANCH   1   2
BRANCH   1  28
ATOM     28  C   UNL A   1      34.810  30.930  27.758  1.00  0.00     0.261 C 
BRANCH  28  29
ATOM     29  O   UNL A   1      35.469  30.639  29.006  1.00  0.00    -0.460 OA
BRANCH  29  30
ATOM     30  C   UNL A   1      36.592  31.359  29.239  1.00  0.00     0.338 C 
ATOM     31  O   UNL A   1      36.662  32.494  29.691  1.00  0.00    -0.246 OA
BRANCH  30  32
ATOM     32  C   UNL A   1      37.779  30.515  29.037  1.00  0.00     0.060 A 
ATOM     33  C   UNL A   1      38.707  30.425  30.082  1.00  0.00     0.016 A 
ATOM     34  C   UNL A   1      38.036  29.919  27.801  1.00  0.00     0.016 A 
ATOM     35  C   UNL A   1      39.921  29.771  29.882  1.00  0.00     0.010 A 
ATOM     36  C   UNL A   1      39.263  29.281  27.595  1.00  0.00     0.010 A 
ATOM     37  C   UNL A   1      40.223  29.238  28.622  1.00  0.00    -0.014 A 
BRANCH  37  38
ATOM     38  C   UNL A   1      41.607  28.800  28.331  1.00  0.00     0.031 A 
ATOM     39  C   UNL A   1      42.710  29.823  28.364  1.00  0.00     0.074 A 
ATOM     40  C   UNL A   1      41.883  27.509  28.074  1.00  0.00     0.049 A 
ATOM     41  N   UNL A   1      43.985  29.674  28.120  1.00  0.00    -0.248 NA
ATOM     42  C   UNL A   1      42.322  31.197  28.725  1.00  0.00     0.031 C 
ATOM     43  C   UNL A   1      40.903  26.424  28.065  1.00  0.00     0.029 A 
ATOM     44  N   UNL A   1      43.070  26.896  27.767  1.00  0.00    -0.354 N 
ATOM     45  C   UNL A   1      44.554  30.929  28.306  1.00  0.00     0.074 A 
ATOM     46  C   UNL A   1      43.482  31.835  28.652  1.00  0.00     0.031 C 
ATOM     47  C   UNL A   1      41.531  25.275  27.755  1.00  0.00     0.029 A 
ATOM     48  C   UNL A   1      42.947  25.551  27.518  1.00  0.00     0.049 A 
ATOM     49  H   UNL A   1      43.929  27.375  27.728  1.00  0.00     0.167 HD
ATOM     50  C   UNL A   1      45.854  31.288  28.207  1.00  0.00     0.037 A 
ATOM     51  C   UNL A   1      43.871  24.651  27.125  1.00  0.00     0.037 A 
ATOM     52  C   UNL A   1      46.916  30.384  27.849  1.00  0.00     0.049 A 
ATOM     53  C   UNL A   1      45.297  25.095  26.929  1.00  0.00     0.074 A 
ATOM     54  C   UNL A   1      48.267  30.652  27.723  1.00  0.00     0.029 A 
ATOM     55  N   UNL A   1      46.744  29.041  27.553  1.00  0.00    -0.354 N 
ATOM     56  N   UNL A   1      45.823  26.282  27.118  1.00  0.00    -0.248 NA
ATOM     57  C   UNL A   1      46.254  24.081  26.464  1.00  0.00     0.031 C 
ATOM     58  C   UNL A   1      48.907  29.480  27.307  1.00  0.00     0.029 A 
ATOM     59  C   UNL A   1      47.960  28.471  27.219  1.00  0.00     0.049 A 
ATOM     60  H   UNL A   1      45.883  28.563  27.576  1.00  0.00     0.167 HD
ATOM     61  C   UNL A   1      47.176  26.151  26.816  1.00  0.00     0.074 A 
ATOM     62  C   UNL A   1      47.388  24.769  26.441  1.00  0.00     0.031 C 
ATOM     63  C   UNL A   1      48.154  27.090  26.849  1.00  0.00     0.037 A 
BRANCH  50  64
ATOM     64  C   UNL A   1      46.205  32.723  28.477  1.00  0.00     0.058 A 
ATOM     65  C   UNL A   1      46.574  33.160  29.759  1.00  0.00     0.135 A 
ATOM     66  C   UNL A   1      46.219  33.664  27.435  1.00  0.00     0.135 A 
ATOM     67  F   UNL A   1      46.556  32.304  30.794  1.00  0.00    -0.206 F 
ATOM     68  C   UNL A   1      46.937  34.480  30.000  1.00  0.00     0.059 A 
ATOM     69  C   UNL A   1      46.599  34.985  27.648  1.00  0.00     0.059 A 
ATOM     70  F   UNL A   1      45.866  33.300  26.192  1.00  0.00    -0.206 F 
ATOM     71  C   UNL A   1      46.950  35.385  28.937  1.00  0.00     0.060 A 
BRANCH  71  72
ATOM     72  S   UNL A   1      47.445  37.090  29.266  1.00  0.00     0.124 S 
ATOM     73  O   UNL A   1      46.149  37.748  29.407  1.00  0.00    -0.237 OA
ATOM     74  O   UNL A   1      48.225  36.956  30.492  1.00  0.00    -0.237 OA
ATOM     75  O   UNL A   1      48.207  37.459  28.077  1.00  0.00    -0.744 OA
ENDBRANCH  71  72
ENDBRANCH  50  64
BRANCH  51  76
ATOM     76  C   UNL A   1      43.473  23.239  26.884  1.00  0.00     0.058 A 
ATOM     77  C   UNL A   1      43.366  22.732  25.581  1.00  0.00     0.135 A 
ATOM     78  C   UNL A   1      43.201  22.368  27.950  1.00  0.00     0.135 A 
ATOM     79  F   UNL A   1      43.604  23.529  24.530  1.00  0.00    -0.206 F 
ATOM     80  C   UNL A   1      42.998  21.411  25.343  1.00  0.00     0.059 A 
ATOM     81  C   UNL A   1      42.852  21.038  27.739  1.00  0.00     0.059 A 
ATOM     82  F   UNL A   1      43.296  22.804  29.216  1.00  0.00    -0.206 F 
ATOM     83  C   UNL A   1      42.747  20.570  26.430  1.00  0.00     0.060 A 
BRANCH  83  84
ATOM     84  S   UNL A   1      42.323  18.845  26.108  1.00  0.00     0.124 S 
ATOM     85  O   UNL A   1      42.604  18.227  27.398  1.00  0.00    -0.237 OA
ATOM     86  O   UNL A   1      40.914  18.942  25.739  1.00  0.00    -0.237 OA
ATOM     87  O   UNL A   1      43.224  18.474  25.021  1.00  0.00    -0.744 OA
ENDBRANCH  83  84
ENDBRANCH  51  76
BRANCH  63  88
ATOM     88  C   UNL A   1      49.548  26.661  26.487  1.00  0.00     0.058 A 
ATOM     89  C   UNL A   1      50.375  25.999  27.407  1.00  0.00     0.135 A 
ATOM     90  C   UNL A   1      50.032  26.843  25.180  1.00  0.00     0.135 A 
ATOM     91  F   UNL A   1      49.961  25.806  28.669  1.00  0.00    -0.206 F 
ATOM     92  C   UNL A   1      51.637  25.540  27.048  1.00  0.00     0.059 A 
ATOM     93  C   UNL A   1      51.281  26.370  24.792  1.00  0.00     0.059 A 
ATOM     94  F   UNL A   1      49.275  27.461  24.260  1.00  0.00    -0.206 F 
ATOM     95  C   UNL A   1      52.080  25.725  25.736  1.00  0.00     0.060 A 
BRANCH  95  96
ATOM     96  S   UNL A   1      53.700  25.077  25.272  1.00  0.00     0.124 S 
ATOM     97  O   UNL A   1      53.497  23.640  25.423  1.00  0.00    -0.237 OA
ATOM     98  O   UNL A   1      53.846  25.556  23.900  1.00  0.00    -0.237 OA
ATOM     99  O   UNL A   1      54.601  25.690  26.242  1.00  0.00    -0.744 OA
ENDBRANCH  95  96
ENDBRANCH  63  88
ENDBRANCH  37  38
ENDBRANCH  30  32
ENDBRANCH  29  30
ENDBRANCH  28  29
ENDBRANCH   1  28
TORSDOF 20
ENDMDL
MODEL 3
REMARK VINA RESULT:      -9.2      5.761      9.603
REMARK SMILES Cc1cc(OC(F)(F)F)cc2c1O[C@H](C(F)(F)F)C(C(=O)OCCOCCOC(=O)c1ccc(-c3c4nc(c(-c5c(F)cc(S(=O)(=O)[O-])cc5F)c5ccc([nH]5)c(-c5c(F)cc(S(=O)(=O)[O-])cc5F)c5nc(c(-c6c(F)cc(S(=O)(=O)[O-])cc6F)c6ccc3[nH]6)C=C5)C=C4)cc1)=C2
REMARK SMILES IDX 26 1 25 2 24 3 23 4 22 5 20 6 21 7 19 8 1 9 2 10 3 11 12 12
REMARK SMILES IDX 4 13 11 14 13 15 10 16 97 17 14 18 5 19 6 20 7 21 8 22 9 23
REMARK SMILES IDX 15 24 16 25 17 26 18 27 27 28 28 29 29 30 30 31 31 32 32 33
REMARK SMILES IDX 96 34 33 35 95 36 34 37 35 38 36 39 89 40 37 41 94 42 88 43
REMARK SMILES IDX 90 44 38 45 93 46 87 47 86 48 39 50 73 51 52 52 72 53 53 54
REMARK SMILES IDX 56 55 71 56 91 57 54 58 55 59 70 61 92 62 57 63 40 64 41 65
REMARK SMILES IDX 50 66 42 67 43 68 49 69 51 70 44 71 45 72 46 73 47 74 48 75
REMARK SMILES IDX 74 76 75 77 84 78 76 79 77 80 83 81 85 82 78 83 79 84 80 85
REMARK SMILES IDX 81 86 82 87 58 88 59 89 68 90 60 91 61 92 67 93 69 94 62 95
REMARK SMILES IDX 63 96 64 97 65 98 66 99
REMARK H PARENT 90 49 56 60
REMARK Flexibility Score: inf
ROOT
ATOM      1  C   UNL A   1      39.645  21.675  26.579  1.00  0.00     0.202 C 
ENDROOT
BRANCH   1   2
ATOM      2  O   UNL A   1      38.488  21.462  25.766  1.00  0.00    -0.374 OA
BRANCH   2   3
ATOM      3  C   UNL A   1      37.606  22.566  25.574  1.00  0.00     0.202 C 
BRANCH   3   4
ATOM      4  C   UNL A   1      36.204  22.232  25.057  1.00  0.00     0.261 C 
BRANCH   4   5
ATOM      5  O   UNL A   1      35.399  23.412  24.912  1.00  0.00    -0.460 OA
BRANCH   5   6
ATOM      6  C   UNL A   1      35.057  23.710  23.638  1.00  0.00     0.338 C 
ATOM      7  O   UNL A   1      35.475  23.174  22.622  1.00  0.00    -0.246 OA
BRANCH   6   8
ATOM      8  C   UNL A   1      33.980  24.717  23.629  1.00  0.00     0.087 C 
ATOM      9  C   UNL A   1      29.533  27.248  23.590  1.00  0.00     0.048 C 
ATOM     10  C   UNL A   1      30.941  27.552  24.025  1.00  0.00    -0.005 A 
ATOM     11  C   UNL A   1      31.228  28.771  24.669  1.00  0.00     0.054 A 
ATOM     12  C   UNL A   1      31.973  26.627  23.805  1.00  0.00     0.131 A 
ATOM     13  C   UNL A   1      32.525  29.066  25.089  1.00  0.00     0.130 A 
ATOM     14  C   UNL A   1      33.265  26.910  24.248  1.00  0.00     0.021 A 
ATOM     15  O   UNL A   1      31.655  25.476  23.138  1.00  0.00    -0.475 OA
ATOM     16  C   UNL A   1      33.540  28.134  24.867  1.00  0.00     0.058 A 
ATOM     17  C   UNL A   1      34.312  25.916  24.123  1.00  0.00     0.027 C 
ATOM     18  C   UNL A   1      32.609  24.375  23.116  1.00  0.00     0.316 C 
BRANCH  13  19
ATOM     19  O   UNL A   1      32.942  30.202  25.721  1.00  0.00    -0.406 OA
BRANCH  19  20
ATOM     20  C   UNL A   1      32.377  30.502  26.984  1.00  0.00     0.573 C 
ATOM     21  F   UNL A   1      33.293  31.049  27.809  1.00  0.00    -0.132 F 
ATOM     22  F   UNL A   1      31.319  31.332  26.864  1.00  0.00    -0.132 F 
ATOM     23  F   UNL A   1      31.943  29.350  27.546  1.00  0.00    -0.132 F 
ENDBRANCH  19  20
ENDBRANCH  13  19
BRANCH  18  24
ATOM     24  C   UNL A   1      31.985  23.180  23.854  1.00  0.00     0.430 C 
ATOM     25  F   UNL A   1      32.390  22.008  23.314  1.00  0.00    -0.167 F 
ATOM     26  F   UNL A   1      32.341  23.156  25.159  1.00  0.00    -0.167 F 
ATOM     27  F   UNL A   1      30.634  23.208  23.801  1.00  0.00    -0.167 F 
ENDBRANCH  18  24
ENDBRANCH   6   8
ENDBRANCH   5   6
ENDBRANCH   4   5
ENDBRANCH   3   4
ENDBRANCH   2   3
ENDBRANCH   1   2
BRANCH   1  28
ATOM     28  C   UNL A   1      40.602  22.792  26.148  1.00  0.00     0.261 C 
BRANCH  28  29
ATOM     29  O   UNL A   1      41.206  23.447  27.280  1.00  0.00    -0.460 OA
BRANCH  29  30
ATOM     30  C   UNL A   1      41.954  24.536  26.976  1.00  0.00     0.338 C 
ATOM     31  O   UNL A   1      42.794  24.631  26.093  1.00  0.00    -0.246 OA
BRANCH  30  32
ATOM     32  C   UNL A   1      41.492  25.694  27.756  1.00  0.00     0.060 A 
ATOM     33  C   UNL A   1      42.343  26.802  27.855  1.00  0.00     0.016 A 
ATOM     34  C   UNL A   1      40.297  25.645  28.478  1.00  0.00     0.016 A 
ATOM     35  C   UNL A   1      42.023  27.852  28.712  1.00  0.00     0.010 A 
ATOM     36  C   UNL A   1      39.987  26.691  29.352  1.00  0.00     0.010 A 
ATOM     37  C   UNL A   1      40.866  27.779  29.499  1.00  0.00    -0.014 A 
BRANCH  37  38
ATOM     38  C   UNL A   1      40.675  28.748  30.602  1.00  0.00     0.031 A 
ATOM     39  C   UNL A   1      41.549  28.637  31.821  1.00  0.00     0.074 A 
ATOM     40  C   UNL A   1      39.762  29.731  30.505  1.00  0.00     0.049 A 
ATOM     41  N   UNL A   1      41.544  29.356  32.912  1.00  0.00    -0.248 NA
ATOM     42  C   UNL A   1      42.569  27.574  31.804  1.00  0.00     0.031 C 
ATOM     43  C   UNL A   1      38.895  29.966  29.352  1.00  0.00     0.029 A 
ATOM     44  N   UNL A   1      39.410  30.711  31.398  1.00  0.00    -0.354 N 
ATOM     45  C   UNL A   1      42.561  28.841  33.708  1.00  0.00     0.074 A 
ATOM     46  C   UNL A   1      43.143  27.730  32.989  1.00  0.00     0.031 C 
ATOM     47  C   UNL A   1      38.101  31.020  29.613  1.00  0.00     0.029 A 
ATOM     48  C   UNL A   1      38.385  31.513  30.959  1.00  0.00     0.049 A 
ATOM     49  H   UNL A   1      39.851  30.828  32.270  1.00  0.00     0.167 HD
ATOM     50  C   UNL A   1      42.978  29.266  34.923  1.00  0.00     0.037 A 
ATOM     51  C   UNL A   1      37.740  32.519  31.584  1.00  0.00     0.037 A 
ATOM     52  C   UNL A   1      42.387  30.366  35.639  1.00  0.00     0.049 A 
ATOM     53  C   UNL A   1      38.160  32.913  32.976  1.00  0.00     0.074 A 
ATOM     54  C   UNL A   1      42.738  30.874  36.877  1.00  0.00     0.029 A 
ATOM     55  N   UNL A   1      41.316  31.121  35.185  1.00  0.00    -0.354 N 
ATOM     56  N   UNL A   1      39.129  32.425  33.713  1.00  0.00    -0.248 NA
ATOM     57  C   UNL A   1      37.397  33.990  33.623  1.00  0.00     0.031 C 
ATOM     58  C   UNL A   1      41.851  31.909  37.191  1.00  0.00     0.029 A 
ATOM     59  C   UNL A   1      40.976  32.075  36.128  1.00  0.00     0.049 A 
ATOM     60  H   UNL A   1      40.863  30.996  34.319  1.00  0.00     0.167 HD
ATOM     61  C   UNL A   1      39.107  33.150  34.901  1.00  0.00     0.074 A 
ATOM     62  C   UNL A   1      38.034  34.116  34.780  1.00  0.00     0.031 C 
ATOM     63  C   UNL A   1      39.904  33.030  35.991  1.00  0.00     0.037 A 
BRANCH  50  64
ATOM     64  C   UNL A   1      44.121  28.534  35.564  1.00  0.00     0.058 A 
ATOM     65  C   UNL A   1      45.455  28.894  35.315  1.00  0.00     0.135 A 
ATOM     66  C   UNL A   1      43.882  27.493  36.475  1.00  0.00     0.135 A 
ATOM     67  F   UNL A   1      45.738  29.868  34.435  1.00  0.00    -0.206 F 
ATOM     68  C   UNL A   1      46.512  28.241  35.939  1.00  0.00     0.059 A 
ATOM     69  C   UNL A   1      44.923  26.841  37.129  1.00  0.00     0.059 A 
ATOM     70  F   UNL A   1      42.625  27.105  36.743  1.00  0.00    -0.206 F 
ATOM     71  C   UNL A   1      46.236  27.218  36.848  1.00  0.00     0.060 A 
BRANCH  71  72
ATOM     72  S   UNL A   1      47.621  26.398  37.666  1.00  0.00     0.124 S 
ATOM     73  O   UNL A   1      46.927  25.517  38.601  1.00  0.00    -0.237 OA
ATOM     74  O   UNL A   1      48.292  25.737  36.551  1.00  0.00    -0.237 OA
ATOM     75  O   UNL A   1      48.359  27.500  38.275  1.00  0.00    -0.744 OA
ENDBRANCH  71  72
ENDBRANCH  50  64
BRANCH  51  76
ATOM     76  C   UNL A   1      36.623  33.220  30.899  1.00  0.00     0.058 A 
ATOM     77  C   UNL A   1      36.866  34.104  29.839  1.00  0.00     0.135 A 
ATOM     78  C   UNL A   1      35.289  33.012  31.285  1.00  0.00     0.135 A 
ATOM     79  F   UNL A   1      38.124  34.344  29.442  1.00  0.00    -0.206 F 
ATOM     80  C   UNL A   1      35.828  34.763  29.188  1.00  0.00     0.059 A 
ATOM     81  C   UNL A   1      34.233  33.643  30.636  1.00  0.00     0.059 A 
ATOM     82  F   UNL A   1      35.003  32.170  32.291  1.00  0.00    -0.206 F 
ATOM     83  C   UNL A   1      34.513  34.522  29.592  1.00  0.00     0.060 A 
BRANCH  83  84
ATOM     84  S   UNL A   1      33.172  35.342  28.703  1.00  0.00     0.124 S 
ATOM     85  O   UNL A   1      33.908  36.260  27.841  1.00  0.00    -0.237 OA
ATOM     86  O   UNL A   1      32.520  34.221  28.034  1.00  0.00    -0.237 OA
ATOM     87  O   UNL A   1      32.394  35.965  29.769  1.00  0.00    -0.744 OA
ENDBRANCH  83  84
ENDBRANCH  51  76
BRANCH  63  88
ATOM     88  C   UNL A   1      39.665  33.970  37.140  1.00  0.00     0.058 A 
ATOM     89  C   UNL A   1      38.882  33.596  38.243  1.00  0.00     0.135 A 
ATOM     90  C   UNL A   1      40.293  35.226  37.175  1.00  0.00     0.135 A 
ATOM     91  F   UNL A   1      38.256  32.408  38.256  1.00  0.00    -0.206 F 
ATOM     92  C   UNL A   1      38.721  34.439  39.337  1.00  0.00     0.059 A 
ATOM     93  C   UNL A   1      40.165  36.076  38.269  1.00  0.00     0.059 A 
ATOM     94  F   UNL A   1      41.061  35.626  36.150  1.00  0.00    -0.206 F 
ATOM     95  C   UNL A   1      39.371  35.675  39.343  1.00  0.00     0.060 A 
BRANCH  95  96
ATOM     96  S   UNL A   1      39.193  36.737  40.793  1.00  0.00     0.124 S 
ATOM     97  O   UNL A   1      38.505  37.893  40.229  1.00  0.00    -0.237 OA
ATOM     98  O   UNL A   1      38.401  35.904  41.693  1.00  0.00    -0.237 OA
ATOM     99  O   UNL A   1      40.571  36.970  41.215  1.00  0.00    -0.744 OA
ENDBRANCH  95  96
ENDBRANCH  63  88
ENDBRANCH  37  38
ENDBRANCH  30  32
ENDBRANCH  29  30
ENDBRANCH  28  29
ENDBRANCH   1  28
TORSDOF 20
ENDMDL
