MODEL 1
REMARK VINA RESULT:     -11.2      0.000      0.000
REMARK SMILES Cc1ccccc1OCC(=O)NCCC(=O)OCCOCCOC(=O)c1ccc(-c2c3nc(c(-c4c(F)cc(S(=O)(=O)[O-])cc4F)c4ccc([nH]4)c(-c4c(F)cc(S(=O)(=O)[O-])cc4F)c4nc(c(-c5c(F)cc(S(=O)(=O)[O-])cc5F)c5ccc2[nH]5)C=C4)C=C3)cc1
REMARK SMILES IDX 19 1 18 2 17 3 15 4 16 5 14 6 13 7 12 8 10 9 11 10 9 12 8 13
REMARK SMILES IDX 7 14 1 15 2 16 3 17 4 18 6 19 5 20 20 21 21 22 22 23 23 24
REMARK SMILES IDX 24 25 25 26 26 27 27 28 91 29 28 30 90 31 29 32 30 33 31 34
REMARK SMILES IDX 84 35 32 36 89 37 83 38 85 39 33 40 88 41 82 42 81 43 34 45
REMARK SMILES IDX 68 46 47 47 67 48 48 49 51 50 66 51 86 52 49 53 50 54 65 56
REMARK SMILES IDX 87 57 52 58 35 59 36 60 45 61 37 62 38 63 44 64 46 65 39 66
REMARK SMILES IDX 40 67 41 68 42 69 43 70 69 71 70 72 79 73 71 74 72 75 78 76
REMARK SMILES IDX 80 77 73 78 74 79 75 80 76 81 77 82 53 83 54 84 63 85 55 86
REMARK SMILES IDX 56 87 62 88 64 89 57 90 58 91 59 92 60 93 61 94
REMARK H PARENT 12 11 85 44 51 55
REMARK Flexibility Score: inf
ROOT
ATOM      1  C   UNL A   1      31.722  27.984  27.077  1.00  0.00     0.202 C 
ENDROOT
BRANCH   1   2
ATOM      2  C   UNL A   1      31.998  27.362  25.731  1.00  0.00     0.261 C 
BRANCH   2   3
ATOM      3  O   UNL A   1      31.230  27.932  24.662  1.00  0.00    -0.463 OA
BRANCH   3   4
ATOM      4  C   UNL A   1      30.236  27.181  24.113  1.00  0.00     0.307 C 
ATOM      5  O   UNL A   1      29.289  27.582  23.460  1.00  0.00    -0.252 OA
BRANCH   4   6
ATOM      6  C   UNL A   1      30.495  25.730  24.409  1.00  0.00     0.144 C 
BRANCH   6   7
ATOM      7  C   UNL A   1      30.920  24.949  23.162  1.00  0.00     0.127 C 
BRANCH   7   8
ATOM      8  N   UNL A   1      31.762  25.669  22.218  1.00  0.00    -0.353 N 
ATOM      9  C   UNL A   1      33.099  25.831  22.098  1.00  0.00     0.257 C 
ATOM     10  O   UNL A   1      33.534  26.467  21.137  1.00  0.00    -0.271 OA
ATOM     11  H   UNL A   1      31.250  26.139  21.520  1.00  0.00     0.163 HD
BRANCH   9  12
ATOM     12  C   UNL A   1      34.022  25.160  23.087  1.00  0.00     0.329 C 
BRANCH  12  13
ATOM     13  O   UNL A   1      34.599  23.937  22.704  1.00  0.00    -0.484 OA
BRANCH  13  14
ATOM     14  C   UNL A   1      34.543  22.799  23.453  1.00  0.00     0.122 A 
ATOM     15  C   UNL A   1      36.955  22.482  24.398  1.00  0.00     0.048 C 
ATOM     16  C   UNL A   1      35.516  22.106  24.188  1.00  0.00    -0.009 A 
ATOM     17  C   UNL A   1      35.119  20.936  24.883  1.00  0.00     0.007 A 
ATOM     18  C   UNL A   1      33.813  20.451  24.844  1.00  0.00     0.001 A 
ATOM     19  C   UNL A   1      33.228  22.287  23.425  1.00  0.00     0.047 A 
ATOM     20  C   UNL A   1      32.858  21.136  24.116  1.00  0.00     0.004 A 
ENDBRANCH  13  14
ENDBRANCH  12  13
ENDBRANCH   9  12
ENDBRANCH   7   8
ENDBRANCH   6   7
ENDBRANCH   4   6
ENDBRANCH   3   4
ENDBRANCH   2   3
ENDBRANCH   1   2
BRANCH   1  21
ATOM     21  O   UNL A   1      32.856  28.786  27.397  1.00  0.00    -0.374 OA
BRANCH  21  22
ATOM     22  C   UNL A   1      32.746  30.178  27.176  1.00  0.00     0.202 C 
BRANCH  22  23
ATOM     23  C   UNL A   1      34.002  31.007  27.483  1.00  0.00     0.261 C 
BRANCH  23  24
ATOM     24  O   UNL A   1      35.221  30.243  27.319  1.00  0.00    -0.460 OA
BRANCH  24  25
ATOM     25  C   UNL A   1      36.370  30.754  27.855  1.00  0.00     0.338 C 
ATOM     26  O   UNL A   1      36.529  31.944  28.099  1.00  0.00    -0.246 OA
BRANCH  25  27
ATOM     27  C   UNL A   1      37.329  29.671  28.210  1.00  0.00     0.060 A 
ATOM     28  C   UNL A   1      37.234  28.936  29.406  1.00  0.00     0.016 A 
ATOM     29  C   UNL A   1      38.449  29.516  27.405  1.00  0.00     0.016 A 
ATOM     30  C   UNL A   1      38.323  28.162  29.858  1.00  0.00     0.010 A 
ATOM     31  C   UNL A   1      39.555  28.879  27.917  1.00  0.00     0.010 A 
ATOM     32  C   UNL A   1      39.516  28.191  29.144  1.00  0.00    -0.014 A 
BRANCH  32  33
ATOM     33  C   UNL A   1      40.819  27.612  29.514  1.00  0.00     0.031 A 
ATOM     34  C   UNL A   1      41.091  26.232  29.017  1.00  0.00     0.074 A 
ATOM     35  C   UNL A   1      41.859  28.371  29.957  1.00  0.00     0.049 A 
ATOM     36  N   UNL A   1      42.171  25.578  29.251  1.00  0.00    -0.248 NA
ATOM     37  C   UNL A   1      40.152  25.454  28.208  1.00  0.00     0.031 C 
ATOM     38  C   UNL A   1      43.288  28.107  29.764  1.00  0.00     0.029 A 
ATOM     39  N   UNL A   1      41.874  29.557  30.706  1.00  0.00    -0.354 N 
ATOM     40  C   UNL A   1      42.226  24.495  28.402  1.00  0.00     0.074 A 
ATOM     41  C   UNL A   1      40.910  24.422  27.826  1.00  0.00     0.031 C 
ATOM     42  C   UNL A   1      44.009  28.874  30.597  1.00  0.00     0.029 A 
ATOM     43  C   UNL A   1      43.068  29.571  31.451  1.00  0.00     0.049 A 
ATOM     44  H   UNL A   1      41.177  30.252  30.710  1.00  0.00     0.167 HD
ATOM     45  C   UNL A   1      43.433  23.876  28.246  1.00  0.00     0.037 A 
ATOM     46  C   UNL A   1      43.053  29.618  32.808  1.00  0.00     0.037 A 
ATOM     47  C   UNL A   1      44.406  24.454  29.186  1.00  0.00     0.049 A 
ATOM     48  C   UNL A   1      43.703  28.379  33.352  1.00  0.00     0.074 A 
ATOM     49  C   UNL A   1      45.461  25.341  29.053  1.00  0.00     0.029 A 
ATOM     50  N   UNL A   1      44.142  24.363  30.550  1.00  0.00    -0.354 N 
ATOM     51  N   UNL A   1      43.827  27.289  32.644  1.00  0.00    -0.248 NA
ATOM     52  C   UNL A   1      44.355  28.268  34.651  1.00  0.00     0.031 C 
ATOM     53  C   UNL A   1      45.810  25.801  30.354  1.00  0.00     0.029 A 
ATOM     54  C   UNL A   1      44.980  25.183  31.277  1.00  0.00     0.049 A 
ATOM     55  H   UNL A   1      43.447  23.788  30.945  1.00  0.00     0.167 HD
ATOM     56  C   UNL A   1      44.594  26.380  33.308  1.00  0.00     0.074 A 
ATOM     57  C   UNL A   1      44.880  27.030  34.575  1.00  0.00     0.031 C 
ATOM     58  C   UNL A   1      44.931  25.186  32.738  1.00  0.00     0.037 A 
BRANCH  45  59
ATOM     59  C   UNL A   1      43.825  22.869  27.175  1.00  0.00     0.058 A 
ATOM     60  C   UNL A   1      43.122  21.643  27.065  1.00  0.00     0.135 A 
ATOM     61  C   UNL A   1      44.878  23.004  26.246  1.00  0.00     0.135 A 
ATOM     62  F   UNL A   1      42.079  21.356  27.855  1.00  0.00    -0.206 F 
ATOM     63  C   UNL A   1      43.455  20.642  26.145  1.00  0.00     0.059 A 
ATOM     64  C   UNL A   1      45.238  22.012  25.326  1.00  0.00     0.059 A 
ATOM     65  F   UNL A   1      45.609  24.114  26.149  1.00  0.00    -0.206 F 
ATOM     66  C   UNL A   1      44.521  20.831  25.282  1.00  0.00     0.060 A 
BRANCH  66  67
ATOM     67  S   UNL A   1      44.940  19.537  24.102  1.00  0.00     0.124 S 
ATOM     68  O   UNL A   1      46.380  19.402  24.297  1.00  0.00    -0.237 OA
ATOM     69  O   UNL A   1      44.128  18.419  24.572  1.00  0.00    -0.237 OA
ATOM     70  O   UNL A   1      44.539  20.102  22.817  1.00  0.00    -0.744 OA
ENDBRANCH  66  67
ENDBRANCH  45  59
BRANCH  46  71
ATOM     71  C   UNL A   1      41.900  30.428  33.316  1.00  0.00     0.058 A 
ATOM     72  C   UNL A   1      41.034  29.763  34.216  1.00  0.00     0.135 A 
ATOM     73  C   UNL A   1      42.011  31.821  33.461  1.00  0.00     0.135 A 
ATOM     74  F   UNL A   1      40.861  28.434  34.113  1.00  0.00    -0.206 F 
ATOM     75  C   UNL A   1      40.483  30.403  35.329  1.00  0.00     0.059 A 
ATOM     76  C   UNL A   1      41.459  32.484  34.567  1.00  0.00     0.059 A 
ATOM     77  F   UNL A   1      42.809  32.521  32.641  1.00  0.00    -0.206 F 
ATOM     78  C   UNL A   1      40.763  31.753  35.534  1.00  0.00     0.060 A 
BRANCH  78  79
ATOM     79  S   UNL A   1      40.389  32.482  37.157  1.00  0.00     0.124 S 
ATOM     80  O   UNL A   1      40.549  33.906  36.898  1.00  0.00    -0.237 OA
ATOM     81  O   UNL A   1      39.020  32.033  37.404  1.00  0.00    -0.237 OA
ATOM     82  O   UNL A   1      41.389  31.879  38.031  1.00  0.00    -0.744 OA
ENDBRANCH  78  79
ENDBRANCH  46  71
BRANCH  58  83
ATOM     83  C   UNL A   1      45.316  23.928  33.486  1.00  0.00     0.058 A 
ATOM     84  C   UNL A   1      46.585  23.703  34.044  1.00  0.00     0.135 A 
ATOM     85  C   UNL A   1      44.333  22.958  33.821  1.00  0.00     0.135 A 
ATOM     86  F   UNL A   1      47.582  24.589  33.924  1.00  0.00    -0.206 F 
ATOM     87  C   UNL A   1      46.879  22.573  34.805  1.00  0.00     0.059 A 
ATOM     88  C   UNL A   1      44.587  21.866  34.643  1.00  0.00     0.059 A 
ATOM     89  F   UNL A   1      43.069  23.039  33.381  1.00  0.00    -0.206 F 
ATOM     90  C   UNL A   1      45.874  21.662  35.101  1.00  0.00     0.060 A 
BRANCH  90  91
ATOM     91  S   UNL A   1      46.263  20.228  36.109  1.00  0.00     0.124 S 
ATOM     92  O   UNL A   1      45.519  19.181  35.416  1.00  0.00    -0.237 OA
ATOM     93  O   UNL A   1      47.717  20.149  35.996  1.00  0.00    -0.237 OA
ATOM     94  O   UNL A   1      45.762  20.593  37.430  1.00  0.00    -0.744 OA
ENDBRANCH  90  91
ENDBRANCH  58  83
ENDBRANCH  32  33
ENDBRANCH  25  27
ENDBRANCH  24  25
ENDBRANCH  23  24
ENDBRANCH  22  23
ENDBRANCH  21  22
ENDBRANCH   1  21
TORSDOF 22
ENDMDL
MODEL 2
REMARK VINA RESULT:     -10.8      4.101     10.793
REMARK SMILES Cc1ccccc1OCC(=O)NCCC(=O)OCCOCCOC(=O)c1ccc(-c2c3nc(c(-c4c(F)cc(S(=O)(=O)[O-])cc4F)c4ccc([nH]4)c(-c4c(F)cc(S(=O)(=O)[O-])cc4F)c4nc(c(-c5c(F)cc(S(=O)(=O)[O-])cc5F)c5ccc2[nH]5)C=C4)C=C3)cc1
REMARK SMILES IDX 19 1 18 2 17 3 15 4 16 5 14 6 13 7 12 8 10 9 11 10 9 12 8 13
REMARK SMILES IDX 7 14 1 15 2 16 3 17 4 18 6 19 5 20 20 21 21 22 22 23 23 24
REMARK SMILES IDX 24 25 25 26 26 27 27 28 91 29 28 30 90 31 29 32 30 33 31 34
REMARK SMILES IDX 84 35 32 36 89 37 83 38 85 39 33 40 88 41 82 42 81 43 34 45
REMARK SMILES IDX 68 46 47 47 67 48 48 49 51 50 66 51 86 52 49 53 50 54 65 56
REMARK SMILES IDX 87 57 52 58 35 59 36 60 45 61 37 62 38 63 44 64 46 65 39 66
REMARK SMILES IDX 40 67 41 68 42 69 43 70 69 71 70 72 79 73 71 74 72 75 78 76
REMARK SMILES IDX 80 77 73 78 74 79 75 80 76 81 77 82 53 83 54 84 63 85 55 86
REMARK SMILES IDX 56 87 62 88 64 89 57 90 58 91 59 92 60 93 61 94
REMARK H PARENT 12 11 85 44 51 55
REMARK Flexibility Score: inf
ROOT
ATOM      1  C   UNL A   1      35.184  22.057  24.233  1.00  0.00     0.202 C 
ENDROOT
BRANCH   1   2
ATOM      2  C   UNL A   1      34.115  22.835  24.958  1.00  0.00     0.261 C 
BRANCH   2   3
ATOM      3  O   UNL A   1      33.069  23.315  24.104  1.00  0.00    -0.463 OA
BRANCH   3   4
ATOM      4  C   UNL A   1      33.143  24.598  23.656  1.00  0.00     0.307 C 
ATOM      5  O   UNL A   1      33.954  25.445  23.987  1.00  0.00    -0.252 OA
BRANCH   4   6
ATOM      6  C   UNL A   1      32.063  24.826  22.634  1.00  0.00     0.144 C 
BRANCH   6   7
ATOM      7  C   UNL A   1      32.276  26.119  21.842  1.00  0.00     0.127 C 
BRANCH   7   8
ATOM      8  N   UNL A   1      31.140  27.028  21.792  1.00  0.00    -0.353 N 
ATOM      9  C   UNL A   1      30.872  28.215  22.379  1.00  0.00     0.257 C 
ATOM     10  O   UNL A   1      29.822  28.793  22.094  1.00  0.00    -0.271 OA
ATOM     11  H   UNL A   1      30.414  26.711  21.207  1.00  0.00     0.163 HD
BRANCH   9  12
ATOM     12  C   UNL A   1      31.896  28.841  23.296  1.00  0.00     0.329 C 
BRANCH  12  13
ATOM     13  O   UNL A   1      31.493  29.132  24.610  1.00  0.00    -0.484 OA
BRANCH  13  14
ATOM     14  C   UNL A   1      32.342  29.546  25.595  1.00  0.00     0.122 A 
ATOM     15  C   UNL A   1      31.321  31.777  26.485  1.00  0.00     0.048 C 
ATOM     16  C   UNL A   1      32.342  30.678  26.423  1.00  0.00    -0.009 A 
ATOM     17  C   UNL A   1      33.384  30.806  27.376  1.00  0.00     0.007 A 
ATOM     18  C   UNL A   1      34.403  29.862  27.500  1.00  0.00     0.001 A 
ATOM     19  C   UNL A   1      33.386  28.607  25.735  1.00  0.00     0.047 A 
ATOM     20  C   UNL A   1      34.399  28.750  26.678  1.00  0.00     0.004 A 
ENDBRANCH  13  14
ENDBRANCH  12  13
ENDBRANCH   9  12
ENDBRANCH   7   8
ENDBRANCH   6   7
ENDBRANCH   4   6
ENDBRANCH   3   4
ENDBRANCH   2   3
ENDBRANCH   1   2
BRANCH   1  21
ATOM     21  O   UNL A   1      35.560  20.982  25.089  1.00  0.00    -0.374 OA
BRANCH  21  22
ATOM     22  C   UNL A   1      36.936  20.664  25.163  1.00  0.00     0.202 C 
BRANCH  22  23
ATOM     23  C   UNL A   1      37.905  21.852  25.074  1.00  0.00     0.261 C 
BRANCH  23  24
ATOM     24  O   UNL A   1      38.364  22.288  26.376  1.00  0.00    -0.460 OA
BRANCH  24  25
ATOM     25  C   UNL A   1      39.662  22.703  26.488  1.00  0.00     0.338 C 
ATOM     26  O   UNL A   1      40.622  21.982  26.251  1.00  0.00    -0.246 OA
BRANCH  25  27
ATOM     27  C   UNL A   1      39.739  24.157  26.806  1.00  0.00     0.060 A 
ATOM     28  C   UNL A   1      40.419  25.077  25.988  1.00  0.00     0.016 A 
ATOM     29  C   UNL A   1      39.268  24.567  28.046  1.00  0.00     0.016 A 
ATOM     30  C   UNL A   1      40.749  26.359  26.476  1.00  0.00     0.010 A 
ATOM     31  C   UNL A   1      39.715  25.760  28.566  1.00  0.00     0.010 A 
ATOM     32  C   UNL A   1      40.457  26.675  27.798  1.00  0.00    -0.014 A 
BRANCH  32  33
ATOM     33  C   UNL A   1      40.858  27.868  28.563  1.00  0.00     0.031 A 
ATOM     34  C   UNL A   1      39.844  28.958  28.664  1.00  0.00     0.074 A 
ATOM     35  C   UNL A   1      41.909  27.865  29.428  1.00  0.00     0.049 A 
ATOM     36  N   UNL A   1      40.030  30.065  29.286  1.00  0.00    -0.248 NA
ATOM     37  C   UNL A   1      38.516  28.898  28.053  1.00  0.00     0.031 C 
ATOM     38  C   UNL A   1      42.050  28.662  30.650  1.00  0.00     0.029 A 
ATOM     39  N   UNL A   1      43.117  27.150  29.399  1.00  0.00    -0.354 N 
ATOM     40  C   UNL A   1      38.815  30.692  29.449  1.00  0.00     0.074 A 
ATOM     41  C   UNL A   1      37.915  29.960  28.597  1.00  0.00     0.031 C 
ATOM     42  C   UNL A   1      43.327  28.641  31.063  1.00  0.00     0.029 A 
ATOM     43  C   UNL A   1      44.086  27.933  30.052  1.00  0.00     0.049 A 
ATOM     44  H   UNL A   1      43.260  26.264  28.996  1.00  0.00     0.167 HD
ATOM     45  C   UNL A   1      38.740  31.694  30.373  1.00  0.00     0.037 A 
ATOM     46  C   UNL A   1      45.208  28.352  29.409  1.00  0.00     0.037 A 
ATOM     47  C   UNL A   1      40.084  31.979  30.897  1.00  0.00     0.049 A 
ATOM     48  C   UNL A   1      45.222  29.853  29.369  1.00  0.00     0.074 A 
ATOM     49  C   UNL A   1      40.738  31.680  32.081  1.00  0.00     0.029 A 
ATOM     50  N   UNL A   1      41.067  32.402  30.005  1.00  0.00    -0.354 N 
ATOM     51  N   UNL A   1      44.138  30.564  29.521  1.00  0.00    -0.248 NA
ATOM     52  C   UNL A   1      46.416  30.683  29.272  1.00  0.00     0.031 C 
ATOM     53  C   UNL A   1      42.130  31.904  31.879  1.00  0.00     0.029 A 
ATOM     54  C   UNL A   1      42.319  32.353  30.581  1.00  0.00     0.049 A 
ATOM     55  H   UNL A   1      40.890  32.696  29.082  1.00  0.00     0.167 HD
ATOM     56  C   UNL A   1      44.451  31.887  29.610  1.00  0.00     0.074 A 
ATOM     57  C   UNL A   1      45.891  31.914  29.422  1.00  0.00     0.031 C 
ATOM     58  C   UNL A   1      43.492  32.829  29.848  1.00  0.00     0.037 A 
BRANCH  45  59
ATOM     59  C   UNL A   1      37.483  32.335  30.944  1.00  0.00     0.058 A 
ATOM     60  C   UNL A   1      36.711  33.214  30.144  1.00  0.00     0.135 A 
ATOM     61  C   UNL A   1      36.982  32.172  32.253  1.00  0.00     0.135 A 
ATOM     62  F   UNL A   1      37.030  33.468  28.868  1.00  0.00    -0.206 F 
ATOM     63  C   UNL A   1      35.575  33.886  30.610  1.00  0.00     0.059 A 
ATOM     64  C   UNL A   1      35.857  32.842  32.746  1.00  0.00     0.059 A 
ATOM     65  F   UNL A   1      37.533  31.333  33.131  1.00  0.00    -0.206 F 
ATOM     66  C   UNL A   1      35.157  33.701  31.918  1.00  0.00     0.060 A 
BRANCH  66  67
ATOM     67  S   UNL A   1      33.695  34.569  32.507  1.00  0.00     0.124 S 
ATOM     68  O   UNL A   1      34.277  35.611  33.346  1.00  0.00    -0.237 OA
ATOM     69  O   UNL A   1      33.085  35.023  31.262  1.00  0.00    -0.237 OA
ATOM     70  O   UNL A   1      32.951  33.538  33.226  1.00  0.00    -0.744 OA
ENDBRANCH  66  67
ENDBRANCH  45  59
BRANCH  46  71
ATOM     71  C   UNL A   1      45.680  27.337  28.414  1.00  0.00     0.058 A 
ATOM     72  C   UNL A   1      46.145  26.116  28.960  1.00  0.00     0.135 A 
ATOM     73  C   UNL A   1      45.120  27.279  27.127  1.00  0.00     0.135 A 
ATOM     74  F   UNL A   1      46.717  26.107  30.175  1.00  0.00    -0.206 F 
ATOM     75  C   UNL A   1      45.874  24.883  28.362  1.00  0.00     0.059 A 
ATOM     76  C   UNL A   1      44.846  26.051  26.507  1.00  0.00     0.059 A 
ATOM     77  F   UNL A   1      44.662  28.396  26.542  1.00  0.00    -0.206 F 
ATOM     78  C   UNL A   1      45.157  24.860  27.167  1.00  0.00     0.060 A 
BRANCH  78  79
ATOM     79  S   UNL A   1      44.465  23.276  26.599  1.00  0.00     0.124 S 
ATOM     80  O   UNL A   1      43.801  22.785  27.799  1.00  0.00    -0.237 OA
ATOM     81  O   UNL A   1      43.582  23.683  25.508  1.00  0.00    -0.237 OA
ATOM     82  O   UNL A   1      45.645  22.531  26.175  1.00  0.00    -0.744 OA
ENDBRANCH  78  79
ENDBRANCH  46  71
BRANCH  58  83
ATOM     83  C   UNL A   1      43.582  34.294  29.485  1.00  0.00     0.058 A 
ATOM     84  C   UNL A   1      43.738  35.328  30.422  1.00  0.00     0.135 A 
ATOM     85  C   UNL A   1      43.694  34.696  28.126  1.00  0.00     0.135 A 
ATOM     86  F   UNL A   1      43.783  35.092  31.740  1.00  0.00    -0.206 F 
ATOM     87  C   UNL A   1      43.909  36.660  30.048  1.00  0.00     0.059 A 
ATOM     88  C   UNL A   1      43.945  36.006  27.735  1.00  0.00     0.059 A 
ATOM     89  F   UNL A   1      43.587  33.826  27.112  1.00  0.00    -0.206 F 
ATOM     90  C   UNL A   1      44.014  36.989  28.703  1.00  0.00     0.060 A 
BRANCH  90  91
ATOM     91  S   UNL A   1      44.268  38.705  28.241  1.00  0.00     0.124 S 
ATOM     92  O   UNL A   1      43.355  39.385  29.154  1.00  0.00    -0.237 OA
ATOM     93  O   UNL A   1      45.690  38.897  28.510  1.00  0.00    -0.237 OA
ATOM     94  O   UNL A   1      43.893  38.737  26.831  1.00  0.00    -0.744 OA
ENDBRANCH  90  91
ENDBRANCH  58  83
ENDBRANCH  32  33
ENDBRANCH  25  27
ENDBRANCH  24  25
ENDBRANCH  23  24
ENDBRANCH  22  23
ENDBRANCH  21  22
ENDBRANCH   1  21
TORSDOF 22
ENDMDL
MODEL 3
REMARK VINA RESULT:     -10.7      2.139      4.091
REMARK SMILES Cc1ccccc1OCC(=O)NCCC(=O)OCCOCCOC(=O)c1ccc(-c2c3nc(c(-c4c(F)cc(S(=O)(=O)[O-])cc4F)c4ccc([nH]4)c(-c4c(F)cc(S(=O)(=O)[O-])cc4F)c4nc(c(-c5c(F)cc(S(=O)(=O)[O-])cc5F)c5ccc2[nH]5)C=C4)C=C3)cc1
REMARK SMILES IDX 19 1 18 2 17 3 15 4 16 5 14 6 13 7 12 8 10 9 11 10 9 12 8 13
REMARK SMILES IDX 7 14 1 15 2 16 3 17 4 18 6 19 5 20 20 21 21 22 22 23 23 24
REMARK SMILES IDX 24 25 25 26 26 27 27 28 91 29 28 30 90 31 29 32 30 33 31 34
REMARK SMILES IDX 84 35 32 36 89 37 83 38 85 39 33 40 88 41 82 42 81 43 34 45
REMARK SMILES IDX 68 46 47 47 67 48 48 49 51 50 66 51 86 52 49 53 50 54 65 56
REMARK SMILES IDX 87 57 52 58 35 59 36 60 45 61 37 62 38 63 44 64 46 65 39 66
REMARK SMILES IDX 40 67 41 68 42 69 43 70 69 71 70 72 79 73 71 74 72 75 78 76
REMARK SMILES IDX 80 77 73 78 74 79 75 80 76 81 77 82 53 83 54 84 63 85 55 86
REMARK SMILES IDX 56 87 62 88 64 89 57 90 58 91 59 92 60 93 61 94
REMARK H PARENT 12 11 85 44 51 55
REMARK Flexibility Score: inf
ROOT
ATOM      1  C   UNL A   1      31.820  28.462  26.639  1.00  0.00     0.202 C 
ENDROOT
BRANCH   1   2
ATOM      2  C   UNL A   1      33.164  27.806  26.447  1.00  0.00     0.261 C 
BRANCH   2   3
ATOM      3  O   UNL A   1      33.376  27.299  25.123  1.00  0.00    -0.463 OA
BRANCH   3   4
ATOM      4  C   UNL A   1      33.652  25.973  24.979  1.00  0.00     0.307 C 
ATOM      5  O   UNL A   1      33.749  25.144  25.866  1.00  0.00    -0.252 OA
BRANCH   4   6
ATOM      6  C   UNL A   1      33.796  25.656  23.517  1.00  0.00     0.144 C 
BRANCH   6   7
ATOM      7  C   UNL A   1      32.510  25.080  22.918  1.00  0.00     0.127 C 
BRANCH   7   8
ATOM      8  N   UNL A   1      31.286  25.354  23.657  1.00  0.00    -0.353 N 
ATOM      9  C   UNL A   1      30.439  26.407  23.697  1.00  0.00     0.257 C 
ATOM     10  O   UNL A   1      29.428  26.326  24.396  1.00  0.00    -0.271 OA
ATOM     11  H   UNL A   1      31.021  24.619  24.256  1.00  0.00     0.163 HD
BRANCH   9  12
ATOM     12  C   UNL A   1      30.704  27.610  22.824  1.00  0.00     0.329 C 
BRANCH  12  13
ATOM     13  O   UNL A   1      29.621  28.128  22.094  1.00  0.00    -0.484 OA
BRANCH  13  14
ATOM     14  C   UNL A   1      28.911  29.234  22.462  1.00  0.00     0.122 A 
ATOM     15  C   UNL A   1      26.759  28.313  23.616  1.00  0.00     0.048 C 
ATOM     16  C   UNL A   1      27.670  29.388  23.097  1.00  0.00    -0.009 A 
ATOM     17  C   UNL A   1      27.213  30.705  23.355  1.00  0.00     0.007 A 
ATOM     18  C   UNL A   1      27.942  31.835  22.986  1.00  0.00     0.001 A 
ATOM     19  C   UNL A   1      29.629  30.392  22.094  1.00  0.00     0.047 A 
ATOM     20  C   UNL A   1      29.163  31.677  22.357  1.00  0.00     0.004 A 
ENDBRANCH  13  14
ENDBRANCH  12  13
ENDBRANCH   9  12
ENDBRANCH   7   8
ENDBRANCH   6   7
ENDBRANCH   4   6
ENDBRANCH   3   4
ENDBRANCH   2   3
ENDBRANCH   1   2
BRANCH   1  21
ATOM     21  O   UNL A   1      32.044  29.632  27.421  1.00  0.00    -0.374 OA
BRANCH  21  22
ATOM     22  C   UNL A   1      31.917  30.880  26.769  1.00  0.00     0.202 C 
BRANCH  22  23
ATOM     23  C   UNL A   1      32.999  31.920  27.095  1.00  0.00     0.261 C 
BRANCH  23  24
ATOM     24  O   UNL A   1      34.283  31.312  27.373  1.00  0.00    -0.460 OA
BRANCH  24  25
ATOM     25  C   UNL A   1      34.845  31.543  28.597  1.00  0.00     0.338 C 
ATOM     26  O   UNL A   1      34.381  32.328  29.414  1.00  0.00    -0.246 OA
BRANCH  25  27
ATOM     27  C   UNL A   1      36.001  30.635  28.842  1.00  0.00     0.060 A 
ATOM     28  C   UNL A   1      35.988  29.644  29.839  1.00  0.00     0.016 A 
ATOM     29  C   UNL A   1      37.185  30.909  28.171  1.00  0.00     0.016 A 
ATOM     30  C   UNL A   1      37.189  29.034  30.257  1.00  0.00     0.010 A 
ATOM     31  C   UNL A   1      38.366  30.419  28.678  1.00  0.00     0.010 A 
ATOM     32  C   UNL A   1      38.394  29.477  29.722  1.00  0.00    -0.014 A 
BRANCH  32  33
ATOM     33  C   UNL A   1      39.763  29.117  30.128  1.00  0.00     0.031 A 
ATOM     34  C   UNL A   1      40.311  27.854  29.552  1.00  0.00     0.074 A 
ATOM     35  C   UNL A   1      40.622  30.014  30.686  1.00  0.00     0.049 A 
ATOM     36  N   UNL A   1      41.481  27.391  29.804  1.00  0.00    -0.248 NA
ATOM     37  C   UNL A   1      39.572  26.986  28.634  1.00  0.00     0.031 C 
ATOM     38  C   UNL A   1      42.083  30.032  30.561  1.00  0.00     0.029 A 
ATOM     39  N   UNL A   1      40.381  31.119  31.517  1.00  0.00    -0.354 N 
ATOM     40  C   UNL A   1      41.776  26.409  28.885  1.00  0.00     0.074 A 
ATOM     41  C   UNL A   1      40.525  26.144  28.226  1.00  0.00     0.031 C 
ATOM     42  C   UNL A   1      42.609  30.848  31.489  1.00  0.00     0.029 A 
ATOM     43  C   UNL A   1      41.516  31.290  32.331  1.00  0.00     0.049 A 
ATOM     44  H   UNL A   1      39.568  31.673  31.528  1.00  0.00     0.167 HD
ATOM     45  C   UNL A   1      43.083  26.036  28.758  1.00  0.00     0.037 A 
ATOM     46  C   UNL A   1      41.430  31.223  33.686  1.00  0.00     0.037 A 
ATOM     47  C   UNL A   1      43.887  26.703  29.794  1.00  0.00     0.049 A 
ATOM     48  C   UNL A   1      42.274  30.083  34.178  1.00  0.00     0.074 A 
ATOM     49  C   UNL A   1      44.764  27.775  29.788  1.00  0.00     0.029 A 
ATOM     50  N   UNL A   1      43.583  26.455  31.130  1.00  0.00    -0.354 N 
ATOM     51  N   UNL A   1      42.631  29.095  33.403  1.00  0.00    -0.248 NA
ATOM     52  C   UNL A   1      42.874  29.988  35.502  1.00  0.00     0.031 C 
ATOM     53  C   UNL A   1      44.960  28.185  31.138  1.00  0.00     0.029 A 
ATOM     54  C   UNL A   1      44.218  27.353  31.962  1.00  0.00     0.049 A 
ATOM     55  H   UNL A   1      42.989  25.733  31.440  1.00  0.00     0.167 HD
ATOM     56  C   UNL A   1      43.522  28.291  34.046  1.00  0.00     0.074 A 
ATOM     57  C   UNL A   1      43.623  28.877  35.371  1.00  0.00     0.031 C 
ATOM     58  C   UNL A   1      44.103  27.228  33.414  1.00  0.00     0.037 A 
BRANCH  45  59
ATOM     59  C   UNL A   1      43.706  25.206  27.643  1.00  0.00     0.058 A 
ATOM     60  C   UNL A   1      43.437  23.818  27.560  1.00  0.00     0.135 A 
ATOM     61  C   UNL A   1      44.587  25.674  26.646  1.00  0.00     0.135 A 
ATOM     62  F   UNL A   1      42.604  23.209  28.416  1.00  0.00    -0.206 F 
ATOM     63  C   UNL A   1      44.011  22.976  26.601  1.00  0.00     0.059 A 
ATOM     64  C   UNL A   1      45.184  24.850  25.686  1.00  0.00     0.059 A 
ATOM     65  F   UNL A   1      44.906  26.962  26.520  1.00  0.00    -0.206 F 
ATOM     66  C   UNL A   1      44.892  23.499  25.669  1.00  0.00     0.060 A 
BRANCH  66  67
ATOM     67  S   UNL A   1      45.625  22.408  24.440  1.00  0.00     0.124 S 
ATOM     68  O   UNL A   1      44.451  21.739  23.888  1.00  0.00    -0.237 OA
ATOM     69  O   UNL A   1      46.295  23.351  23.552  1.00  0.00    -0.237 OA
ATOM     70  O   UNL A   1      46.512  21.554  25.225  1.00  0.00    -0.744 OA
ENDBRANCH  66  67
ENDBRANCH  45  59
BRANCH  46  71
ATOM     71  C   UNL A   1      40.124  31.766  34.179  1.00  0.00     0.058 A 
ATOM     72  C   UNL A   1      39.141  30.799  34.499  1.00  0.00     0.135 A 
ATOM     73  C   UNL A   1      40.073  32.977  34.890  1.00  0.00     0.135 A 
ATOM     74  F   UNL A   1      39.117  29.631  33.835  1.00  0.00    -0.206 F 
ATOM     75  C   UNL A   1      38.299  30.933  35.605  1.00  0.00     0.059 A 
ATOM     76  C   UNL A   1      39.229  33.133  35.999  1.00  0.00     0.059 A 
ATOM     77  F   UNL A   1      40.968  33.943  34.638  1.00  0.00    -0.206 F 
ATOM     78  C   UNL A   1      38.403  32.078  36.393  1.00  0.00     0.060 A 
BRANCH  78  79
ATOM     79  S   UNL A   1      37.608  32.081  38.029  1.00  0.00     0.124 S 
ATOM     80  O   UNL A   1      38.709  32.466  38.903  1.00  0.00    -0.237 OA
ATOM     81  O   UNL A   1      36.548  33.076  37.871  1.00  0.00    -0.237 OA
ATOM     82  O   UNL A   1      37.133  30.710  38.172  1.00  0.00    -0.744 OA
ENDBRANCH  78  79
ENDBRANCH  46  71
BRANCH  58  83
ATOM     83  C   UNL A   1      44.680  26.005  34.092  1.00  0.00     0.058 A 
ATOM     84  C   UNL A   1      43.905  25.007  34.704  1.00  0.00     0.135 A 
ATOM     85  C   UNL A   1      46.066  25.709  33.989  1.00  0.00     0.135 A 
ATOM     86  F   UNL A   1      42.569  25.081  34.765  1.00  0.00    -0.206 F 
ATOM     87  C   UNL A   1      44.463  23.847  35.240  1.00  0.00     0.059 A 
ATOM     88  C   UNL A   1      46.630  24.523  34.446  1.00  0.00     0.059 A 
ATOM     89  F   UNL A   1      46.937  26.552  33.416  1.00  0.00    -0.206 F 
ATOM     90  C   UNL A   1      45.825  23.613  35.104  1.00  0.00     0.060 A 
BRANCH  90  91
ATOM     91  S   UNL A   1      46.522  22.100  35.772  1.00  0.00     0.124 S 
ATOM     92  O   UNL A   1      47.181  21.544  34.594  1.00  0.00    -0.237 OA
ATOM     93  O   UNL A   1      47.413  22.598  36.817  1.00  0.00    -0.237 OA
ATOM     94  O   UNL A   1      45.354  21.366  36.249  1.00  0.00    -0.744 OA
ENDBRANCH  90  91
ENDBRANCH  58  83
ENDBRANCH  32  33
ENDBRANCH  25  27
ENDBRANCH  24  25
ENDBRANCH  23  24
ENDBRANCH  22  23
ENDBRANCH  21  22
ENDBRANCH   1  21
TORSDOF 22
ENDMDL
