MODEL 1
REMARK VINA RESULT:     -10.9      0.000      0.000
REMARK SMILES Cc1cccc(O[C@H](C)C(=O)N2CCC[C@@H](C(=O)OCCOCCOC(=O)c3ccc(-c4c5nc(c(-c6c(F)cc(S(=O)(=O)[O-])cc6F)c6ccc([nH]6)c(-c6c(F)cc(S(=O)(=O)[O-])cc6F)c6nc(c(-c7c(F)cc(S(=O)(=O)[O-])cc7F)c7ccc4[nH]7)C=C6)C=C5)cc3)C2)c1
REMARK SMILES IDX 21 1 20 2 19 3 17 4 18 5 16 6 12 7 13 8 94 9 14 10 15 11
REMARK SMILES IDX 10 12 11 13 8 14 9 15 7 16 6 17 1 18 2 19 3 20 95 21 4 22
REMARK SMILES IDX 5 23 22 24 23 25 24 26 25 27 26 28 27 29 28 30 29 31 93 32
REMARK SMILES IDX 30 33 92 34 31 35 32 36 33 37 86 38 34 39 91 40 85 41 87 42
REMARK SMILES IDX 35 43 90 44 84 45 83 46 36 48 70 49 49 50 69 51 50 52 53 53
REMARK SMILES IDX 68 54 88 55 51 56 52 57 67 59 89 60 54 61 37 62 38 63 47 64
REMARK SMILES IDX 39 65 40 66 46 67 48 68 41 69 42 70 43 71 44 72 45 73 71 74
REMARK SMILES IDX 72 75 81 76 73 77 74 78 80 79 82 80 75 81 76 82 77 83 78 84
REMARK SMILES IDX 79 85 55 86 56 87 65 88 57 89 58 90 64 91 66 92 59 93 60 94
REMARK SMILES IDX 61 95 62 96 63 97
REMARK H PARENT 87 47 53 58
REMARK Flexibility Score: inf
ROOT
ATOM      1  C   UNL A   1      40.097  22.544  27.004  1.00  0.00     0.202 C 
ENDROOT
BRANCH   1   2
ATOM      2  C   UNL A   1      39.431  21.792  25.886  1.00  0.00     0.261 C 
BRANCH   2   3
ATOM      3  O   UNL A   1      37.992  21.919  25.790  1.00  0.00    -0.463 OA
BRANCH   3   4
ATOM      4  C   UNL A   1      37.213  20.955  25.221  1.00  0.00     0.310 C 
ATOM      5  O   UNL A   1      37.576  19.894  24.762  1.00  0.00    -0.252 OA
BRANCH   4   6
ATOM      6  C   UNL A   1      35.788  21.423  25.187  1.00  0.00     0.119 C 
ATOM      7  N   UNL A   1      34.289  22.979  24.067  1.00  0.00    -0.339 N 
ATOM      8  C   UNL A   1      33.231  21.980  23.966  1.00  0.00     0.119 C 
ATOM      9  C   UNL A   1      35.626  22.456  24.070  1.00  0.00     0.134 C 
ATOM     10  C   UNL A   1      33.378  20.845  24.982  1.00  0.00     0.022 C 
ATOM     11  C   UNL A   1      34.799  20.277  25.010  1.00  0.00     0.019 C 
BRANCH   7  12
ATOM     12  C   UNL A   1      34.013  24.312  24.278  1.00  0.00     0.263 C 
ATOM     13  O   UNL A   1      34.403  24.881  25.304  1.00  0.00    -0.271 OA
BRANCH  12  14
ATOM     14  C   UNL A   1      33.127  25.079  23.245  1.00  0.00     0.259 C 
ATOM     15  C   UNL A   1      33.181  24.591  21.800  1.00  0.00     0.064 C 
BRANCH  14  16
ATOM     16  O   UNL A   1      31.932  25.644  23.790  1.00  0.00    -0.481 OA
BRANCH  16  17
ATOM     17  C   UNL A   1      31.510  26.931  23.815  1.00  0.00     0.120 A 
ATOM     18  C   UNL A   1      28.134  28.583  23.032  1.00  0.00     0.044 C 
ATOM     19  C   UNL A   1      29.553  28.382  23.468  1.00  0.00    -0.047 A 
ATOM     20  C   UNL A   1      30.292  29.483  23.892  1.00  0.00     0.003 A 
ATOM     21  C   UNL A   1      30.173  27.117  23.427  1.00  0.00     0.049 A 
ATOM     22  C   UNL A   1      31.609  29.308  24.287  1.00  0.00     0.004 A 
ATOM     23  C   UNL A   1      32.205  28.043  24.249  1.00  0.00     0.046 A 
ENDBRANCH  16  17
ENDBRANCH  14  16
ENDBRANCH  12  14
ENDBRANCH   7  12
ENDBRANCH   4   6
ENDBRANCH   3   4
ENDBRANCH   2   3
ENDBRANCH   1   2
BRANCH   1  24
ATOM     24  O   UNL A   1      41.430  22.857  26.664  1.00  0.00    -0.374 OA
BRANCH  24  25
ATOM     25  C   UNL A   1      42.341  21.775  26.645  1.00  0.00     0.202 C 
BRANCH  25  26
ATOM     26  C   UNL A   1      43.742  22.152  26.150  1.00  0.00     0.261 C 
BRANCH  26  27
ATOM     27  O   UNL A   1      44.128  23.486  26.555  1.00  0.00    -0.460 OA
BRANCH  27  28
ATOM     28  C   UNL A   1      45.312  23.608  27.227  1.00  0.00     0.338 C 
ATOM     29  O   UNL A   1      46.365  23.124  26.835  1.00  0.00    -0.246 OA
BRANCH  28  30
ATOM     30  C   UNL A   1      45.138  24.410  28.471  1.00  0.00     0.060 A 
ATOM     31  C   UNL A   1      46.234  24.961  29.163  1.00  0.00     0.016 A 
ATOM     32  C   UNL A   1      43.883  24.395  29.067  1.00  0.00     0.016 A 
ATOM     33  C   UNL A   1      46.094  25.363  30.505  1.00  0.00     0.010 A 
ATOM     34  C   UNL A   1      43.796  24.633  30.419  1.00  0.00     0.010 A 
ATOM     35  C   UNL A   1      44.889  25.124  31.156  1.00  0.00    -0.014 A 
BRANCH  35  36
ATOM     36  C   UNL A   1      44.564  25.342  32.572  1.00  0.00     0.031 A 
ATOM     37  C   UNL A   1      44.057  26.694  32.917  1.00  0.00     0.074 A 
ATOM     38  C   UNL A   1      44.304  24.290  33.388  1.00  0.00     0.049 A 
ATOM     39  N   UNL A   1      43.586  27.021  34.064  1.00  0.00    -0.248 NA
ATOM     40  C   UNL A   1      44.044  27.820  31.974  1.00  0.00     0.031 C 
ATOM     41  C   UNL A   1      43.280  24.177  34.435  1.00  0.00     0.029 A 
ATOM     42  N   UNL A   1      44.899  23.030  33.414  1.00  0.00    -0.354 N 
ATOM     43  C   UNL A   1      42.864  28.177  33.894  1.00  0.00     0.074 A 
ATOM     44  C   UNL A   1      43.307  28.715  32.639  1.00  0.00     0.031 C 
ATOM     45  C   UNL A   1      43.472  23.046  35.144  1.00  0.00     0.029 A 
ATOM     46  C   UNL A   1      44.727  22.468  34.687  1.00  0.00     0.049 A 
ATOM     47  H   UNL A   1      45.365  22.603  32.659  1.00  0.00     0.167 HD
ATOM     48  C   UNL A   1      41.864  28.431  34.782  1.00  0.00     0.037 A 
ATOM     49  C   UNL A   1      45.822  22.159  35.436  1.00  0.00     0.037 A 
ATOM     50  C   UNL A   1      41.981  27.525  35.939  1.00  0.00     0.049 A 
ATOM     51  C   UNL A   1      45.830  23.104  36.601  1.00  0.00     0.074 A 
ATOM     52  C   UNL A   1      41.229  26.465  36.412  1.00  0.00     0.029 A 
ATOM     53  N   UNL A   1      43.210  27.453  36.608  1.00  0.00    -0.354 N 
ATOM     54  N   UNL A   1      45.236  24.266  36.556  1.00  0.00    -0.248 NA
ATOM     55  C   UNL A   1      46.346  22.782  37.925  1.00  0.00     0.031 C 
ATOM     56  C   UNL A   1      42.076  25.678  37.254  1.00  0.00     0.029 A 
ATOM     57  C   UNL A   1      43.326  26.280  37.332  1.00  0.00     0.049 A 
ATOM     58  H   UNL A   1      43.905  28.150  36.570  1.00  0.00     0.167 HD
ATOM     59  C   UNL A   1      45.186  24.795  37.801  1.00  0.00     0.074 A 
ATOM     60  C   UNL A   1      45.940  23.860  38.621  1.00  0.00     0.031 C 
ATOM     61  C   UNL A   1      44.554  25.970  38.068  1.00  0.00     0.037 A 
BRANCH  48  62
ATOM     62  C   UNL A   1      40.688  29.362  34.531  1.00  0.00     0.058 A 
ATOM     63  C   UNL A   1      39.754  29.060  33.518  1.00  0.00     0.135 A 
ATOM     64  C   UNL A   1      40.465  30.607  35.170  1.00  0.00     0.135 A 
ATOM     65  F   UNL A   1      39.859  27.936  32.795  1.00  0.00    -0.206 F 
ATOM     66  C   UNL A   1      38.686  29.904  33.183  1.00  0.00     0.059 A 
ATOM     67  C   UNL A   1      39.378  31.441  34.888  1.00  0.00     0.059 A 
ATOM     68  F   UNL A   1      41.323  31.120  36.059  1.00  0.00    -0.206 F 
ATOM     69  C   UNL A   1      38.495  31.088  33.883  1.00  0.00     0.060 A 
BRANCH  69  70
ATOM     70  S   UNL A   1      37.104  32.156  33.461  1.00  0.00     0.124 S 
ATOM     71  O   UNL A   1      37.743  33.172  32.631  1.00  0.00    -0.237 OA
ATOM     72  O   UNL A   1      36.209  31.237  32.766  1.00  0.00    -0.237 OA
ATOM     73  O   UNL A   1      36.625  32.624  34.759  1.00  0.00    -0.744 OA
ENDBRANCH  69  70
ENDBRANCH  48  62
BRANCH  49  74
ATOM     74  C   UNL A   1      46.957  21.703  34.566  1.00  0.00     0.058 A 
ATOM     75  C   UNL A   1      48.028  22.612  34.401  1.00  0.00     0.135 A 
ATOM     76  C   UNL A   1      47.257  20.340  34.408  1.00  0.00     0.135 A 
ATOM     77  F   UNL A   1      47.811  23.933  34.534  1.00  0.00    -0.206 F 
ATOM     78  C   UNL A   1      49.351  22.185  34.276  1.00  0.00     0.059 A 
ATOM     79  C   UNL A   1      48.580  19.892  34.293  1.00  0.00     0.059 A 
ATOM     80  F   UNL A   1      46.292  19.420  34.535  1.00  0.00    -0.206 F 
ATOM     81  C   UNL A   1      49.624  20.819  34.304  1.00  0.00     0.060 A 
BRANCH  81  82
ATOM     82  S   UNL A   1      51.344  20.275  34.508  1.00  0.00     0.124 S 
ATOM     83  O   UNL A   1      51.881  20.437  33.161  1.00  0.00    -0.237 OA
ATOM     84  O   UNL A   1      51.850  21.227  35.494  1.00  0.00    -0.237 OA
ATOM     85  O   UNL A   1      51.216  18.905  34.987  1.00  0.00    -0.744 OA
ENDBRANCH  81  82
ENDBRANCH  49  74
BRANCH  61  86
ATOM     86  C   UNL A   1      45.079  26.879  39.134  1.00  0.00     0.058 A 
ATOM     87  C   UNL A   1      44.851  26.641  40.504  1.00  0.00     0.135 A 
ATOM     88  C   UNL A   1      45.961  27.931  38.825  1.00  0.00     0.135 A 
ATOM     89  F   UNL A   1      44.174  25.566  40.937  1.00  0.00    -0.206 F 
ATOM     90  C   UNL A   1      45.333  27.484  41.491  1.00  0.00     0.059 A 
ATOM     91  C   UNL A   1      46.519  28.741  39.804  1.00  0.00     0.059 A 
ATOM     92  F   UNL A   1      46.322  28.199  37.561  1.00  0.00    -0.206 F 
ATOM     93  C   UNL A   1      46.152  28.543  41.128  1.00  0.00     0.060 A 
BRANCH  93  94
ATOM     94  S   UNL A   1      46.728  29.660  42.408  1.00  0.00     0.124 S 
ATOM     95  O   UNL A   1      45.478  30.296  42.810  1.00  0.00    -0.237 OA
ATOM     96  O   UNL A   1      47.316  28.748  43.385  1.00  0.00    -0.237 OA
ATOM     97  O   UNL A   1      47.677  30.515  41.704  1.00  0.00    -0.744 OA
ENDBRANCH  93  94
ENDBRANCH  61  86
ENDBRANCH  35  36
ENDBRANCH  28  30
ENDBRANCH  27  28
ENDBRANCH  26  27
ENDBRANCH  25  26
ENDBRANCH  24  25
ENDBRANCH   1  24
TORSDOF 21
ENDMDL
MODEL 2
REMARK VINA RESULT:     -10.8      8.558     14.527
REMARK SMILES Cc1cccc(O[C@H](C)C(=O)N2CCC[C@@H](C(=O)OCCOCCOC(=O)c3ccc(-c4c5nc(c(-c6c(F)cc(S(=O)(=O)[O-])cc6F)c6ccc([nH]6)c(-c6c(F)cc(S(=O)(=O)[O-])cc6F)c6nc(c(-c7c(F)cc(S(=O)(=O)[O-])cc7F)c7ccc4[nH]7)C=C6)C=C5)cc3)C2)c1
REMARK SMILES IDX 21 1 20 2 19 3 17 4 18 5 16 6 12 7 13 8 94 9 14 10 15 11
REMARK SMILES IDX 10 12 11 13 8 14 9 15 7 16 6 17 1 18 2 19 3 20 95 21 4 22
REMARK SMILES IDX 5 23 22 24 23 25 24 26 25 27 26 28 27 29 28 30 29 31 93 32
REMARK SMILES IDX 30 33 92 34 31 35 32 36 33 37 86 38 34 39 91 40 85 41 87 42
REMARK SMILES IDX 35 43 90 44 84 45 83 46 36 48 70 49 49 50 69 51 50 52 53 53
REMARK SMILES IDX 68 54 88 55 51 56 52 57 67 59 89 60 54 61 37 62 38 63 47 64
REMARK SMILES IDX 39 65 40 66 46 67 48 68 41 69 42 70 43 71 44 72 45 73 71 74
REMARK SMILES IDX 72 75 81 76 73 77 74 78 80 79 82 80 75 81 76 82 77 83 78 84
REMARK SMILES IDX 79 85 55 86 56 87 65 88 57 89 58 90 64 91 66 92 59 93 60 94
REMARK SMILES IDX 61 95 62 96 63 97
REMARK H PARENT 87 47 53 58
REMARK Flexibility Score: inf
ROOT
ATOM      1  C   UNL A   1      38.319  31.417  35.214  1.00  0.00     0.202 C 
ENDROOT
BRANCH   1   2
ATOM      2  C   UNL A   1      37.648  31.208  33.886  1.00  0.00     0.261 C 
BRANCH   2   3
ATOM      3  O   UNL A   1      38.320  30.324  32.956  1.00  0.00    -0.463 OA
BRANCH   3   4
ATOM      4  C   UNL A   1      37.773  29.142  32.553  1.00  0.00     0.310 C 
ATOM      5  O   UNL A   1      37.455  28.204  33.251  1.00  0.00    -0.252 OA
BRANCH   4   6
ATOM      6  C   UNL A   1      37.660  29.131  31.057  1.00  0.00     0.119 C 
ATOM      7  N   UNL A   1      37.550  30.592  29.114  1.00  0.00    -0.339 N 
ATOM      8  C   UNL A   1      38.465  29.749  28.353  1.00  0.00     0.119 C 
ATOM      9  C   UNL A   1      37.736  30.568  30.537  1.00  0.00     0.134 C 
ATOM     10  C   UNL A   1      38.534  28.312  28.877  1.00  0.00     0.022 C 
ATOM     11  C   UNL A   1      38.722  28.261  30.395  1.00  0.00     0.019 C 
BRANCH   7  12
ATOM     12  C   UNL A   1      36.503  31.255  28.514  1.00  0.00     0.263 C 
ATOM     13  O   UNL A   1      35.850  30.717  27.612  1.00  0.00    -0.271 OA
BRANCH  12  14
ATOM     14  C   UNL A   1      36.199  32.731  28.926  1.00  0.00     0.259 C 
ATOM     15  C   UNL A   1      37.335  33.738  28.756  1.00  0.00     0.064 C 
BRANCH  14  16
ATOM     16  O   UNL A   1      34.834  33.126  28.766  1.00  0.00    -0.481 OA
BRANCH  16  17
ATOM     17  C   UNL A   1      34.168  34.185  29.285  1.00  0.00     0.120 A 
ATOM     18  C   UNL A   1      33.799  35.535  32.860  1.00  0.00     0.044 C 
ATOM     19  C   UNL A   1      33.704  35.406  31.370  1.00  0.00    -0.047 A 
ATOM     20  C   UNL A   1      33.003  36.370  30.653  1.00  0.00     0.003 A 
ATOM     21  C   UNL A   1      34.274  34.318  30.680  1.00  0.00     0.049 A 
ATOM     22  C   UNL A   1      32.902  36.253  29.275  1.00  0.00     0.004 A 
ATOM     23  C   UNL A   1      33.482  35.172  28.604  1.00  0.00     0.046 A 
ENDBRANCH  16  17
ENDBRANCH  14  16
ENDBRANCH  12  14
ENDBRANCH   7  12
ENDBRANCH   4   6
ENDBRANCH   3   4
ENDBRANCH   2   3
ENDBRANCH   1   2
BRANCH   1  24
ATOM     24  O   UNL A   1      37.405  31.946  36.151  1.00  0.00    -0.374 OA
BRANCH  24  25
ATOM     25  C   UNL A   1      37.459  33.345  36.356  1.00  0.00     0.202 C 
BRANCH  25  26
ATOM     26  C   UNL A   1      38.796  33.979  35.953  1.00  0.00     0.261 C 
BRANCH  26  27
ATOM     27  O   UNL A   1      38.625  35.095  35.049  1.00  0.00    -0.460 OA
BRANCH  27  28
ATOM     28  C   UNL A   1      38.332  34.795  33.748  1.00  0.00     0.338 C 
ATOM     29  O   UNL A   1      37.197  34.799  33.293  1.00  0.00    -0.246 OA
BRANCH  28  30
ATOM     30  C   UNL A   1      39.572  34.486  32.981  1.00  0.00     0.060 A 
ATOM     31  C   UNL A   1      40.844  34.902  33.421  1.00  0.00     0.016 A 
ATOM     32  C   UNL A   1      39.417  33.986  31.695  1.00  0.00     0.016 A 
ATOM     33  C   UNL A   1      41.925  34.949  32.519  1.00  0.00     0.010 A 
ATOM     34  C   UNL A   1      40.428  34.191  30.785  1.00  0.00     0.010 A 
ATOM     35  C   UNL A   1      41.692  34.666  31.178  1.00  0.00    -0.014 A 
BRANCH  35  36
ATOM     36  C   UNL A   1      42.631  34.774  30.053  1.00  0.00     0.031 A 
ATOM     37  C   UNL A   1      43.494  33.589  29.817  1.00  0.00     0.074 A 
ATOM     38  C   UNL A   1      42.405  35.660  29.051  1.00  0.00     0.049 A 
ATOM     39  N   UNL A   1      44.262  33.442  28.801  1.00  0.00    -0.248 NA
ATOM     40  C   UNL A   1      43.569  32.444  30.734  1.00  0.00     0.031 C 
ATOM     41  C   UNL A   1      42.603  35.478  27.607  1.00  0.00     0.029 A 
ATOM     42  N   UNL A   1      41.881  36.950  29.120  1.00  0.00    -0.354 N 
ATOM     43  C   UNL A   1      44.573  32.107  28.714  1.00  0.00     0.074 A 
ATOM     44  C   UNL A   1      44.262  31.564  30.006  1.00  0.00     0.031 C 
ATOM     45  C   UNL A   1      42.445  36.655  26.971  1.00  0.00     0.029 A 
ATOM     46  C   UNL A   1      42.302  37.676  27.997  1.00  0.00     0.049 A 
ATOM     47  H   UNL A   1      41.308  37.295  29.843  1.00  0.00     0.167 HD
ATOM     48  C   UNL A   1      44.906  31.616  27.488  1.00  0.00     0.037 A 
ATOM     49  C   UNL A   1      43.057  38.797  28.169  1.00  0.00     0.037 A 
ATOM     50  C   UNL A   1      45.153  32.730  26.555  1.00  0.00     0.049 A 
ATOM     51  C   UNL A   1      44.422  38.484  27.631  1.00  0.00     0.074 A 
ATOM     52  C   UNL A   1      44.492  33.219  25.443  1.00  0.00     0.029 A 
ATOM     53  N   UNL A   1      46.060  33.729  26.933  1.00  0.00    -0.354 N 
ATOM     54  N   UNL A   1      44.873  37.260  27.549  1.00  0.00    -0.248 NA
ATOM     55  C   UNL A   1      45.311  39.457  27.009  1.00  0.00     0.031 C 
ATOM     56  C   UNL A   1      44.908  34.575  25.257  1.00  0.00     0.029 A 
ATOM     57  C   UNL A   1      45.853  34.898  26.223  1.00  0.00     0.049 A 
ATOM     58  H   UNL A   1      46.758  33.614  27.618  1.00  0.00     0.167 HD
ATOM     59  C   UNL A   1      46.007  37.246  26.810  1.00  0.00     0.074 A 
ATOM     60  C   UNL A   1      46.277  38.649  26.536  1.00  0.00     0.031 C 
ATOM     61  C   UNL A   1      46.656  36.093  26.494  1.00  0.00     0.037 A 
BRANCH  48  62
ATOM     62  C   UNL A   1      44.834  30.152  27.085  1.00  0.00     0.058 A 
ATOM     63  C   UNL A   1      45.918  29.554  26.406  1.00  0.00     0.135 A 
ATOM     64  C   UNL A   1      43.711  29.303  27.241  1.00  0.00     0.135 A 
ATOM     65  F   UNL A   1      47.036  30.247  26.146  1.00  0.00    -0.206 F 
ATOM     66  C   UNL A   1      45.897  28.231  25.943  1.00  0.00     0.059 A 
ATOM     67  C   UNL A   1      43.686  27.965  26.832  1.00  0.00     0.059 A 
ATOM     68  F   UNL A   1      42.548  29.737  27.739  1.00  0.00    -0.206 F 
ATOM     69  C   UNL A   1      44.781  27.436  26.172  1.00  0.00     0.060 A 
BRANCH  69  70
ATOM     70  S   UNL A   1      44.773  25.728  25.594  1.00  0.00     0.124 S 
ATOM     71  O   UNL A   1      43.444  25.615  25.001  1.00  0.00    -0.237 OA
ATOM     72  O   UNL A   1      45.891  25.714  24.656  1.00  0.00    -0.237 OA
ATOM     73  O   UNL A   1      44.977  24.952  26.813  1.00  0.00    -0.744 OA
ENDBRANCH  69  70
ENDBRANCH  48  62
BRANCH  49  74
ATOM     74  C   UNL A   1      42.667  39.522  29.424  1.00  0.00     0.058 A 
ATOM     75  C   UNL A   1      43.637  39.568  30.451  1.00  0.00     0.135 A 
ATOM     76  C   UNL A   1      41.718  40.556  29.406  1.00  0.00     0.135 A 
ATOM     77  F   UNL A   1      44.574  38.606  30.531  1.00  0.00    -0.206 F 
ATOM     78  C   UNL A   1      43.774  40.672  31.295  1.00  0.00     0.059 A 
ATOM     79  C   UNL A   1      41.845  41.679  30.237  1.00  0.00     0.059 A 
ATOM     80  F   UNL A   1      40.759  40.574  28.471  1.00  0.00    -0.206 F 
ATOM     81  C   UNL A   1      42.920  41.760  31.123  1.00  0.00     0.060 A 
BRANCH  81  82
ATOM     82  S   UNL A   1      43.319  43.323  31.956  1.00  0.00     0.124 S 
ATOM     83  O   UNL A   1      44.699  43.106  32.376  1.00  0.00    -0.237 OA
ATOM     84  O   UNL A   1      43.147  44.295  30.879  1.00  0.00    -0.237 OA
ATOM     85  O   UNL A   1      42.330  43.406  33.022  1.00  0.00    -0.744 OA
ENDBRANCH  81  82
ENDBRANCH  49  74
BRANCH  61  86
ATOM     86  C   UNL A   1      48.146  36.081  26.371  1.00  0.00     0.058 A 
ATOM     87  C   UNL A   1      48.990  36.517  27.412  1.00  0.00     0.135 A 
ATOM     88  C   UNL A   1      48.782  35.484  25.266  1.00  0.00     0.135 A 
ATOM     89  F   UNL A   1      48.505  36.941  28.590  1.00  0.00    -0.206 F 
ATOM     90  C   UNL A   1      50.370  36.511  27.298  1.00  0.00     0.059 A 
ATOM     91  C   UNL A   1      50.164  35.396  25.165  1.00  0.00     0.059 A 
ATOM     92  F   UNL A   1      48.081  34.954  24.252  1.00  0.00    -0.206 F 
ATOM     93  C   UNL A   1      50.946  35.964  26.161  1.00  0.00     0.060 A 
BRANCH  93  94
ATOM     94  S   UNL A   1      52.732  36.008  25.999  1.00  0.00     0.124 S 
ATOM     95  O   UNL A   1      52.919  35.266  24.756  1.00  0.00    -0.237 OA
ATOM     96  O   UNL A   1      53.011  37.439  25.928  1.00  0.00    -0.237 OA
ATOM     97  O   UNL A   1      53.195  35.341  27.210  1.00  0.00    -0.744 OA
ENDBRANCH  93  94
ENDBRANCH  61  86
ENDBRANCH  35  36
ENDBRANCH  28  30
ENDBRANCH  27  28
ENDBRANCH  26  27
ENDBRANCH  25  26
ENDBRANCH  24  25
ENDBRANCH   1  24
TORSDOF 21
ENDMDL
MODEL 3
REMARK VINA RESULT:     -10.7      0.907      1.679
REMARK SMILES Cc1cccc(O[C@H](C)C(=O)N2CCC[C@@H](C(=O)OCCOCCOC(=O)c3ccc(-c4c5nc(c(-c6c(F)cc(S(=O)(=O)[O-])cc6F)c6ccc([nH]6)c(-c6c(F)cc(S(=O)(=O)[O-])cc6F)c6nc(c(-c7c(F)cc(S(=O)(=O)[O-])cc7F)c7ccc4[nH]7)C=C6)C=C5)cc3)C2)c1
REMARK SMILES IDX 21 1 20 2 19 3 17 4 18 5 16 6 12 7 13 8 94 9 14 10 15 11
REMARK SMILES IDX 10 12 11 13 8 14 9 15 7 16 6 17 1 18 2 19 3 20 95 21 4 22
REMARK SMILES IDX 5 23 22 24 23 25 24 26 25 27 26 28 27 29 28 30 29 31 93 32
REMARK SMILES IDX 30 33 92 34 31 35 32 36 33 37 86 38 34 39 91 40 85 41 87 42
REMARK SMILES IDX 35 43 90 44 84 45 83 46 36 48 70 49 49 50 69 51 50 52 53 53
REMARK SMILES IDX 68 54 88 55 51 56 52 57 67 59 89 60 54 61 37 62 38 63 47 64
REMARK SMILES IDX 39 65 40 66 46 67 48 68 41 69 42 70 43 71 44 72 45 73 71 74
REMARK SMILES IDX 72 75 81 76 73 77 74 78 80 79 82 80 75 81 76 82 77 83 78 84
REMARK SMILES IDX 79 85 55 86 56 87 65 88 57 89 58 90 64 91 66 92 59 93 60 94
REMARK SMILES IDX 61 95 62 96 63 97
REMARK H PARENT 87 47 53 58
REMARK Flexibility Score: inf
ROOT
ATOM      1  C   UNL A   1      40.170  22.980  27.028  1.00  0.00     0.202 C 
ENDROOT
BRANCH   1   2
ATOM      2  C   UNL A   1      39.058  23.466  26.141  1.00  0.00     0.261 C 
BRANCH   2   3
ATOM      3  O   UNL A   1      37.810  22.733  26.211  1.00  0.00    -0.463 OA
BRANCH   3   4
ATOM      4  C   UNL A   1      37.126  22.355  25.095  1.00  0.00     0.310 C 
ATOM      5  O   UNL A   1      37.474  21.552  24.256  1.00  0.00    -0.252 OA
BRANCH   4   6
ATOM      6  C   UNL A   1      35.849  23.139  25.005  1.00  0.00     0.119 C 
ATOM      7  N   UNL A   1      33.722  23.244  23.828  1.00  0.00    -0.339 N 
ATOM      8  C   UNL A   1      32.987  23.518  25.057  1.00  0.00     0.119 C 
ATOM      9  C   UNL A   1      34.920  22.469  23.991  1.00  0.00     0.134 C 
ATOM     10  C   UNL A   1      33.869  24.092  26.169  1.00  0.00     0.022 C 
ATOM     11  C   UNL A   1      35.157  23.288  26.355  1.00  0.00     0.019 C 
BRANCH   7  12
ATOM     12  C   UNL A   1      33.359  23.802  22.623  1.00  0.00     0.263 C 
ATOM     13  O   UNL A   1      33.752  23.313  21.558  1.00  0.00    -0.271 OA
BRANCH  12  14
ATOM     14  C   UNL A   1      32.511  25.114  22.616  1.00  0.00     0.259 C 
ATOM     15  C   UNL A   1      31.012  24.962  22.862  1.00  0.00     0.064 C 
BRANCH  14  16
ATOM     16  O   UNL A   1      33.215  26.281  23.048  1.00  0.00    -0.481 OA
BRANCH  16  17
ATOM     17  C   UNL A   1      32.796  27.317  23.813  1.00  0.00     0.120 A 
ATOM     18  C   UNL A   1      34.219  28.967  26.974  1.00  0.00     0.044 C 
ATOM     19  C   UNL A   1      33.362  28.686  25.778  1.00  0.00    -0.047 A 
ATOM     20  C   UNL A   1      32.265  29.505  25.526  1.00  0.00     0.003 A 
ATOM     21  C   UNL A   1      33.612  27.595  24.923  1.00  0.00     0.049 A 
ATOM     22  C   UNL A   1      31.460  29.246  24.428  1.00  0.00     0.004 A 
ATOM     23  C   UNL A   1      31.728  28.164  23.583  1.00  0.00     0.046 A 
ENDBRANCH  16  17
ENDBRANCH  14  16
ENDBRANCH  12  14
ENDBRANCH   7  12
ENDBRANCH   4   6
ENDBRANCH   3   4
ENDBRANCH   2   3
ENDBRANCH   1   2
BRANCH   1  24
ATOM     24  O   UNL A   1      41.421  23.397  26.524  1.00  0.00    -0.374 OA
BRANCH  24  25
ATOM     25  C   UNL A   1      42.140  22.442  25.767  1.00  0.00     0.202 C 
BRANCH  25  26
ATOM     26  C   UNL A   1      43.645  22.725  25.682  1.00  0.00     0.261 C 
BRANCH  26  27
ATOM     27  O   UNL A   1      44.312  22.546  26.953  1.00  0.00    -0.460 OA
BRANCH  27  28
ATOM     28  C   UNL A   1      45.403  23.335  27.193  1.00  0.00     0.338 C 
ATOM     29  O   UNL A   1      46.401  23.341  26.487  1.00  0.00    -0.246 OA
BRANCH  28  30
ATOM     30  C   UNL A   1      45.193  24.177  28.405  1.00  0.00     0.060 A 
ATOM     31  C   UNL A   1      46.262  24.816  29.062  1.00  0.00     0.016 A 
ATOM     32  C   UNL A   1      43.947  24.117  29.014  1.00  0.00     0.016 A 
ATOM     33  C   UNL A   1      46.111  25.266  30.388  1.00  0.00     0.010 A 
ATOM     34  C   UNL A   1      43.857  24.406  30.356  1.00  0.00     0.010 A 
ATOM     35  C   UNL A   1      44.927  24.986  31.061  1.00  0.00    -0.014 A 
BRANCH  35  36
ATOM     36  C   UNL A   1      44.601  25.244  32.470  1.00  0.00     0.031 A 
ATOM     37  C   UNL A   1      44.113  26.611  32.779  1.00  0.00     0.074 A 
ATOM     38  C   UNL A   1      44.325  24.217  33.311  1.00  0.00     0.049 A 
ATOM     39  N   UNL A   1      43.643  26.974  33.916  1.00  0.00    -0.248 NA
ATOM     40  C   UNL A   1      44.116  27.714  31.808  1.00  0.00     0.031 C 
ATOM     41  C   UNL A   1      43.298  24.145  34.358  1.00  0.00     0.029 A 
ATOM     42  N   UNL A   1      44.903  22.950  33.371  1.00  0.00    -0.354 N 
ATOM     43  C   UNL A   1      42.937  28.135  33.716  1.00  0.00     0.074 A 
ATOM     44  C   UNL A   1      43.390  28.635  32.448  1.00  0.00     0.031 C 
ATOM     45  C   UNL A   1      43.473  23.030  35.096  1.00  0.00     0.029 A 
ATOM     46  C   UNL A   1      44.720  22.423  34.657  1.00  0.00     0.049 A 
ATOM     47  H   UNL A   1      45.364  22.498  32.627  1.00  0.00     0.167 HD
ATOM     48  C   UNL A   1      41.939  28.426  34.595  1.00  0.00     0.037 A 
ATOM     49  C   UNL A   1      45.809  22.118  35.416  1.00  0.00     0.037 A 
ATOM     50  C   UNL A   1      42.042  27.547  35.773  1.00  0.00     0.049 A 
ATOM     51  C   UNL A   1      45.828  23.092  36.557  1.00  0.00     0.074 A 
ATOM     52  C   UNL A   1      41.273  26.510  36.271  1.00  0.00     0.029 A 
ATOM     53  N   UNL A   1      43.268  27.475  36.448  1.00  0.00    -0.354 N 
ATOM     54  N   UNL A   1      45.249  24.261  36.481  1.00  0.00    -0.248 NA
ATOM     55  C   UNL A   1      46.336  22.796  37.890  1.00  0.00     0.031 C 
ATOM     56  C   UNL A   1      42.108  25.732  37.135  1.00  0.00     0.029 A 
ATOM     57  C   UNL A   1      43.366  26.319  37.201  1.00  0.00     0.049 A 
ATOM     58  H   UNL A   1      43.972  28.162  36.394  1.00  0.00     0.167 HD
ATOM     59  C   UNL A   1      45.204  24.822  37.712  1.00  0.00     0.074 A 
ATOM     60  C   UNL A   1      45.943  23.897  38.558  1.00  0.00     0.031 C 
ATOM     61  C   UNL A   1      44.587  26.012  37.949  1.00  0.00     0.037 A 
BRANCH  48  62
ATOM     62  C   UNL A   1      40.777  29.366  34.317  1.00  0.00     0.058 A 
ATOM     63  C   UNL A   1      40.713  30.618  34.964  1.00  0.00     0.135 A 
ATOM     64  C   UNL A   1      39.648  29.073  33.512  1.00  0.00     0.135 A 
ATOM     65  F   UNL A   1      41.689  31.017  35.793  1.00  0.00    -0.206 F 
ATOM     66  C   UNL A   1      39.640  31.507  34.811  1.00  0.00     0.059 A 
ATOM     67  C   UNL A   1      38.590  29.966  33.304  1.00  0.00     0.059 A 
ATOM     68  F   UNL A   1      39.471  27.881  32.931  1.00  0.00    -0.206 F 
ATOM     69  C   UNL A   1      38.587  31.180  33.967  1.00  0.00     0.060 A 
BRANCH  69  70
ATOM     70  S   UNL A   1      37.222  32.341  33.758  1.00  0.00     0.124 S 
ATOM     71  O   UNL A   1      37.890  33.488  33.152  1.00  0.00    -0.237 OA
ATOM     72  O   UNL A   1      36.316  31.599  32.888  1.00  0.00    -0.237 OA
ATOM     73  O   UNL A   1      36.739  32.551  35.120  1.00  0.00    -0.744 OA
ENDBRANCH  69  70
ENDBRANCH  48  62
BRANCH  49  74
ATOM     74  C   UNL A   1      46.940  21.624  34.561  1.00  0.00     0.058 A 
ATOM     75  C   UNL A   1      48.005  22.530  34.343  1.00  0.00     0.135 A 
ATOM     76  C   UNL A   1      47.245  20.258  34.468  1.00  0.00     0.135 A 
ATOM     77  F   UNL A   1      47.782  23.854  34.412  1.00  0.00    -0.206 F 
ATOM     78  C   UNL A   1      49.329  22.103  34.228  1.00  0.00     0.059 A 
ATOM     79  C   UNL A   1      48.570  19.810  34.365  1.00  0.00     0.059 A 
ATOM     80  F   UNL A   1      46.286  19.340  34.648  1.00  0.00    -0.206 F 
ATOM     81  C   UNL A   1      49.609  20.742  34.322  1.00  0.00     0.060 A 
BRANCH  81  82
ATOM     82  S   UNL A   1      51.333  20.216  34.540  1.00  0.00     0.124 S 
ATOM     83  O   UNL A   1      51.182  18.836  34.988  1.00  0.00    -0.237 OA
ATOM     84  O   UNL A   1      51.872  20.372  33.191  1.00  0.00    -0.237 OA
ATOM     85  O   UNL A   1      51.856  21.156  35.523  1.00  0.00    -0.744 OA
ENDBRANCH  81  82
ENDBRANCH  49  74
BRANCH  61  86
ATOM     86  C   UNL A   1      45.122  26.939  38.992  1.00  0.00     0.058 A 
ATOM     87  C   UNL A   1      44.865  26.755  40.365  1.00  0.00     0.135 A 
ATOM     88  C   UNL A   1      46.042  27.954  38.663  1.00  0.00     0.135 A 
ATOM     89  F   UNL A   1      44.148  25.716  40.822  1.00  0.00    -0.206 F 
ATOM     90  C   UNL A   1      45.356  27.616  41.332  1.00  0.00     0.059 A 
ATOM     91  C   UNL A   1      46.608  28.779  39.625  1.00  0.00     0.059 A 
ATOM     92  F   UNL A   1      46.431  28.168  37.398  1.00  0.00    -0.206 F 
ATOM     93  C   UNL A   1      46.213  28.637  40.948  1.00  0.00     0.060 A 
BRANCH  93  94
ATOM     94  S   UNL A   1      46.802  29.779  42.200  1.00  0.00     0.124 S 
ATOM     95  O   UNL A   1      46.470  29.052  43.421  1.00  0.00    -0.237 OA
ATOM     96  O   UNL A   1      48.226  29.880  41.893  1.00  0.00    -0.237 OA
ATOM     97  O   UNL A   1      46.023  30.985  41.948  1.00  0.00    -0.744 OA
ENDBRANCH  93  94
ENDBRANCH  61  86
ENDBRANCH  35  36
ENDBRANCH  28  30
ENDBRANCH  27  28
ENDBRANCH  26  27
ENDBRANCH  25  26
ENDBRANCH  24  25
ENDBRANCH   1  24
TORSDOF 21
ENDMDL
