MODEL 1
REMARK VINA RESULT:     -10.0      0.000      0.000
REMARK SMILES Cc1nn(C)c(OCC(C)(C)[NH+](C)C)c1C(=O)OCCOCCOC(=O)c1ccc(-c2c3nc(c(-c4c(F)cc(S(=O)(=O)[O-])cc4F)c4ccc([nH]4)c(-c4c(F)cc(S(=O)(=O)[O-])cc4F)c4nc(c(-c5c(F)cc(S(=O)(=O)[O-])cc5F)c5ccc2[nH]5)C=C4)C=C3)cc1
REMARK SMILES IDX 20 1 19 2 18 3 16 4 17 5 15 6 1 7 2 8 3 9 4 10 6 11 5 12
REMARK SMILES IDX 7 13 8 14 9 15 10 16 11 17 12 18 13 19 14 20 21 22 22 23
REMARK SMILES IDX 23 24 24 25 25 26 26 27 27 28 28 29 92 30 29 31 91 32 30 33
REMARK SMILES IDX 31 34 32 35 85 36 33 37 90 38 84 39 86 40 34 41 89 42 83 43
REMARK SMILES IDX 82 44 35 46 69 47 48 48 68 49 49 50 52 51 67 52 87 53 50 54
REMARK SMILES IDX 51 55 66 57 88 58 53 59 36 60 37 61 46 62 38 63 39 64 45 65
REMARK SMILES IDX 47 66 40 67 41 68 42 69 43 70 44 71 70 72 71 73 80 74 72 75
REMARK SMILES IDX 73 76 79 77 81 78 74 79 75 80 76 81 77 82 78 83 54 84 55 85
REMARK SMILES IDX 64 86 56 87 57 88 63 89 65 90 58 91 59 92 60 93 61 94 62 95
REMARK H PARENT 12 21 86 45 52 56
REMARK Flexibility Score: inf
ROOT
ATOM      1  C   UNL A   1      37.620  21.587  24.933  1.00  0.00     0.202 C 
ENDROOT
BRANCH   1   2
ATOM      2  C   UNL A   1      36.640  22.494  24.142  1.00  0.00     0.261 C 
BRANCH   2   3
ATOM      3  O   UNL A   1      35.229  22.292  24.312  1.00  0.00    -0.459 OA
BRANCH   3   4
ATOM      4  C   UNL A   1      34.675  23.413  24.847  1.00  0.00     0.345 C 
ATOM      5  O   UNL A   1      35.384  24.221  25.431  1.00  0.00    -0.246 OA
BRANCH   4   6
ATOM      6  C   UNL A   1      33.264  23.641  24.653  1.00  0.00     0.144 A 
ATOM      7  C   UNL A   1      32.143  21.251  24.858  1.00  0.00     0.070 C 
ATOM      8  C   UNL A   1      32.179  22.714  24.594  1.00  0.00     0.078 A 
ATOM      9  N   UNL A   1      31.022  23.321  24.306  1.00  0.00    -0.174 NA
ATOM     10  N   UNL A   1      31.343  24.621  24.251  1.00  0.00    -0.236 N 
ATOM     11  C   UNL A   1      32.647  24.896  24.588  1.00  0.00     0.227 A 
ATOM     12  C   UNL A   1      30.321  25.578  23.895  1.00  0.00     0.178 C 
BRANCH  11  13
ATOM     13  O   UNL A   1      32.967  26.185  24.774  1.00  0.00    -0.471 OA
BRANCH  13  14
ATOM     14  C   UNL A   1      32.941  26.827  26.050  1.00  0.00     0.299 C 
BRANCH  14  15
ATOM     15  C   UNL A   1      32.376  28.321  26.135  1.00  0.00     0.126 C 
ATOM     16  C   UNL A   1      31.463  28.784  24.963  1.00  0.00     0.082 C 
ATOM     17  C   UNL A   1      31.522  28.339  27.439  1.00  0.00     0.082 C 
BRANCH  15  18
ATOM     18  N   UNL A   1      33.517  29.293  26.300  1.00  0.00    -0.333 N 
ATOM     19  C   UNL A   1      33.130  30.482  27.066  1.00  0.00     0.333 C 
ATOM     20  C   UNL A   1      34.728  28.716  26.893  1.00  0.00     0.333 C 
ATOM     21  H   UNL A   1      33.745  29.557  25.342  1.00  0.00     0.348 HD
ENDBRANCH  15  18
ENDBRANCH  14  15
ENDBRANCH  13  14
ENDBRANCH  11  13
ENDBRANCH   4   6
ENDBRANCH   3   4
ENDBRANCH   2   3
ENDBRANCH   1   2
BRANCH   1  22
ATOM     22  O   UNL A   1      38.295  21.968  26.124  1.00  0.00    -0.374 OA
BRANCH  22  23
ATOM     23  C   UNL A   1      39.707  21.882  26.273  1.00  0.00     0.202 C 
BRANCH  23  24
ATOM     24  C   UNL A   1      40.560  23.124  26.521  1.00  0.00     0.261 C 
BRANCH  24  25
ATOM     25  O   UNL A   1      39.826  24.344  26.412  1.00  0.00    -0.460 OA
BRANCH  25  26
ATOM     26  C   UNL A   1      40.616  25.431  26.243  1.00  0.00     0.338 C 
ATOM     27  O   UNL A   1      41.002  25.911  25.191  1.00  0.00    -0.246 OA
BRANCH  26  28
ATOM     28  C   UNL A   1      40.764  26.119  27.534  1.00  0.00     0.060 A 
ATOM     29  C   UNL A   1      39.688  26.046  28.430  1.00  0.00     0.016 A 
ATOM     30  C   UNL A   1      41.905  26.862  27.830  1.00  0.00     0.016 A 
ATOM     31  C   UNL A   1      39.721  26.773  29.606  1.00  0.00     0.010 A 
ATOM     32  C   UNL A   1      41.926  27.618  28.999  1.00  0.00     0.010 A 
ATOM     33  C   UNL A   1      40.812  27.611  29.857  1.00  0.00    -0.014 A 
BRANCH  33  34
ATOM     34  C   UNL A   1      40.668  28.654  30.888  1.00  0.00     0.031 A 
ATOM     35  C   UNL A   1      41.580  28.592  32.081  1.00  0.00     0.074 A 
ATOM     36  C   UNL A   1      39.787  29.653  30.724  1.00  0.00     0.049 A 
ATOM     37  N   UNL A   1      41.617  29.363  33.132  1.00  0.00    -0.248 NA
ATOM     38  C   UNL A   1      42.587  27.514  32.087  1.00  0.00     0.031 C 
ATOM     39  C   UNL A   1      38.909  29.825  29.567  1.00  0.00     0.029 A 
ATOM     40  N   UNL A   1      39.485  30.710  31.539  1.00  0.00    -0.354 N 
ATOM     41  C   UNL A   1      42.636  28.855  33.932  1.00  0.00     0.074 A 
ATOM     42  C   UNL A   1      43.177  27.699  33.257  1.00  0.00     0.031 C 
ATOM     43  C   UNL A   1      38.152  30.919  29.755  1.00  0.00     0.029 A 
ATOM     44  C   UNL A   1      38.467  31.497  31.059  1.00  0.00     0.049 A 
ATOM     45  H   UNL A   1      39.952  30.888  32.387  1.00  0.00     0.167 HD
ATOM     46  C   UNL A   1      43.077  29.325  35.121  1.00  0.00     0.037 A 
ATOM     47  C   UNL A   1      37.847  32.545  31.631  1.00  0.00     0.037 A 
ATOM     48  C   UNL A   1      42.525  30.486  35.767  1.00  0.00     0.049 A 
ATOM     49  C   UNL A   1      38.311  33.003  32.990  1.00  0.00     0.074 A 
ATOM     50  C   UNL A   1      42.902  31.063  36.965  1.00  0.00     0.029 A 
ATOM     51  N   UNL A   1      41.474  31.243  35.268  1.00  0.00    -0.354 N 
ATOM     52  N   UNL A   1      39.282  32.527  33.736  1.00  0.00    -0.248 NA
ATOM     53  C   UNL A   1      37.600  34.142  33.585  1.00  0.00     0.031 C 
ATOM     54  C   UNL A   1      42.041  32.134  37.220  1.00  0.00     0.029 A 
ATOM     55  C   UNL A   1      41.170  32.265  36.148  1.00  0.00     0.049 A 
ATOM     56  H   UNL A   1      41.014  31.076  34.414  1.00  0.00     0.167 HD
ATOM     57  C   UNL A   1      39.320  33.329  34.871  1.00  0.00     0.074 A 
ATOM     58  C   UNL A   1      38.282  34.327  34.707  1.00  0.00     0.031 C 
ATOM     59  C   UNL A   1      40.138  33.253  35.950  1.00  0.00     0.037 A 
BRANCH  46  60
ATOM     60  C   UNL A   1      44.177  28.570  35.813  1.00  0.00     0.058 A 
ATOM     61  C   UNL A   1      45.531  28.890  35.628  1.00  0.00     0.135 A 
ATOM     62  C   UNL A   1      43.866  27.542  36.718  1.00  0.00     0.135 A 
ATOM     63  F   UNL A   1      45.888  29.846  34.755  1.00  0.00    -0.206 F 
ATOM     64  C   UNL A   1      46.538  28.213  36.308  1.00  0.00     0.059 A 
ATOM     65  C   UNL A   1      44.854  26.870  37.430  1.00  0.00     0.059 A 
ATOM     66  F   UNL A   1      42.588  27.187  36.922  1.00  0.00    -0.206 F 
ATOM     67  C   UNL A   1      46.189  27.209  37.214  1.00  0.00     0.060 A 
BRANCH  67  68
ATOM     68  S   UNL A   1      47.504  26.367  38.119  1.00  0.00     0.124 S 
ATOM     69  O   UNL A   1      48.612  27.306  37.966  1.00  0.00    -0.237 OA
ATOM     70  O   UNL A   1      46.941  26.267  39.462  1.00  0.00    -0.237 OA
ATOM     71  O   UNL A   1      47.653  25.102  37.407  1.00  0.00    -0.744 OA
ENDBRANCH  67  68
ENDBRANCH  46  60
BRANCH  47  72
ATOM     72  C   UNL A   1      36.713  33.212  30.940  1.00  0.00     0.058 A 
ATOM     73  C   UNL A   1      36.928  34.066  29.849  1.00  0.00     0.135 A 
ATOM     74  C   UNL A   1      35.389  33.017  31.363  1.00  0.00     0.135 A 
ATOM     75  F   UNL A   1      38.175  34.290  29.407  1.00  0.00    -0.206 F 
ATOM     76  C   UNL A   1      35.876  34.724  29.220  1.00  0.00     0.059 A 
ATOM     77  C   UNL A   1      34.318  33.639  30.732  1.00  0.00     0.059 A 
ATOM     78  F   UNL A   1      35.125  32.196  32.393  1.00  0.00    -0.206 F 
ATOM     79  C   UNL A   1      34.573  34.504  29.670  1.00  0.00     0.060 A 
BRANCH  79  80
ATOM     80  S   UNL A   1      33.213  35.344  28.831  1.00  0.00     0.124 S 
ATOM     81  O   UNL A   1      33.919  36.404  28.121  1.00  0.00    -0.237 OA
ATOM     82  O   UNL A   1      32.661  34.278  28.003  1.00  0.00    -0.237 OA
ATOM     83  O   UNL A   1      32.359  35.781  29.931  1.00  0.00    -0.744 OA
ENDBRANCH  79  80
ENDBRANCH  47  72
BRANCH  59  84
ATOM     84  C   UNL A   1      39.976  34.303  37.016  1.00  0.00     0.058 A 
ATOM     85  C   UNL A   1      40.530  35.585  36.884  1.00  0.00     0.135 A 
ATOM     86  C   UNL A   1      39.206  34.035  38.159  1.00  0.00     0.135 A 
ATOM     87  F   UNL A   1      41.279  35.891  35.812  1.00  0.00    -0.206 F 
ATOM     88  C   UNL A   1      40.349  36.556  37.861  1.00  0.00     0.059 A 
ATOM     89  C   UNL A   1      38.982  35.001  39.132  1.00  0.00     0.059 A 
ATOM     90  F   UNL A   1      38.642  32.827  38.327  1.00  0.00    -0.206 F 
ATOM     91  C   UNL A   1      39.570  36.255  38.981  1.00  0.00     0.060 A 
BRANCH  91  92
ATOM     92  S   UNL A   1      39.316  37.538  40.225  1.00  0.00     0.124 S 
ATOM     93  O   UNL A   1      38.260  38.336  39.612  1.00  0.00    -0.237 OA
ATOM     94  O   UNL A   1      38.926  36.762  41.398  1.00  0.00    -0.237 OA
ATOM     95  O   UNL A   1      40.621  38.186  40.316  1.00  0.00    -0.744 OA
ENDBRANCH  91  92
ENDBRANCH  59  84
ENDBRANCH  33  34
ENDBRANCH  26  28
ENDBRANCH  25  26
ENDBRANCH  24  25
ENDBRANCH  23  24
ENDBRANCH  22  23
ENDBRANCH   1  22
TORSDOF 21
ENDMDL
MODEL 2
REMARK VINA RESULT:      -9.8      1.739      8.932
REMARK SMILES Cc1nn(C)c(OCC(C)(C)[NH+](C)C)c1C(=O)OCCOCCOC(=O)c1ccc(-c2c3nc(c(-c4c(F)cc(S(=O)(=O)[O-])cc4F)c4ccc([nH]4)c(-c4c(F)cc(S(=O)(=O)[O-])cc4F)c4nc(c(-c5c(F)cc(S(=O)(=O)[O-])cc5F)c5ccc2[nH]5)C=C4)C=C3)cc1
REMARK SMILES IDX 20 1 19 2 18 3 16 4 17 5 15 6 1 7 2 8 3 9 4 10 6 11 5 12
REMARK SMILES IDX 7 13 8 14 9 15 10 16 11 17 12 18 13 19 14 20 21 22 22 23
REMARK SMILES IDX 23 24 24 25 25 26 26 27 27 28 28 29 92 30 29 31 91 32 30 33
REMARK SMILES IDX 31 34 32 35 85 36 33 37 90 38 84 39 86 40 34 41 89 42 83 43
REMARK SMILES IDX 82 44 35 46 69 47 48 48 68 49 49 50 52 51 67 52 87 53 50 54
REMARK SMILES IDX 51 55 66 57 88 58 53 59 36 60 37 61 46 62 38 63 39 64 45 65
REMARK SMILES IDX 47 66 40 67 41 68 42 69 43 70 44 71 70 72 71 73 80 74 72 75
REMARK SMILES IDX 73 76 79 77 81 78 74 79 75 80 76 81 77 82 78 83 54 84 55 85
REMARK SMILES IDX 64 86 56 87 57 88 63 89 65 90 58 91 59 92 60 93 61 94 62 95
REMARK H PARENT 12 21 86 45 52 56
REMARK Flexibility Score: inf
ROOT
ATOM      1  C   UNL A   1      38.662  22.089  26.120  1.00  0.00     0.202 C 
ENDROOT
BRANCH   1   2
ATOM      2  C   UNL A   1      37.570  22.024  25.020  1.00  0.00     0.261 C 
BRANCH   2   3
ATOM      3  O   UNL A   1      36.947  23.247  24.598  1.00  0.00    -0.459 OA
BRANCH   3   4
ATOM      4  C   UNL A   1      36.068  22.983  23.595  1.00  0.00     0.345 C 
ATOM      5  O   UNL A   1      36.487  22.729  22.473  1.00  0.00    -0.246 OA
BRANCH   4   6
ATOM      6  C   UNL A   1      34.660  22.952  23.904  1.00  0.00     0.144 A 
ATOM      7  C   UNL A   1      33.652  25.111  22.749  1.00  0.00     0.070 C 
ATOM      8  C   UNL A   1      33.628  23.892  23.600  1.00  0.00     0.078 A 
ATOM      9  N   UNL A   1      32.458  23.540  24.146  1.00  0.00    -0.174 NA
ATOM     10  N   UNL A   1      32.716  22.362  24.731  1.00  0.00    -0.236 N 
ATOM     11  C   UNL A   1      33.985  21.883  24.505  1.00  0.00     0.227 A 
ATOM     12  C   UNL A   1      31.667  21.712  25.482  1.00  0.00     0.178 C 
BRANCH  11  13
ATOM     13  O   UNL A   1      34.228  20.615  24.867  1.00  0.00    -0.471 OA
BRANCH  13  14
ATOM     14  C   UNL A   1      33.622  19.486  24.235  1.00  0.00     0.299 C 
BRANCH  14  15
ATOM     15  C   UNL A   1      34.349  18.066  24.363  1.00  0.00     0.126 C 
ATOM     16  C   UNL A   1      34.291  17.143  23.112  1.00  0.00     0.082 C 
ATOM     17  C   UNL A   1      35.844  18.419  24.626  1.00  0.00     0.082 C 
BRANCH  15  18
ATOM     18  N   UNL A   1      33.816  17.324  25.562  1.00  0.00    -0.333 N 
ATOM     19  C   UNL A   1      32.528  17.855  26.019  1.00  0.00     0.333 C 
ATOM     20  C   UNL A   1      33.697  15.873  25.377  1.00  0.00     0.333 C 
ATOM     21  H   UNL A   1      34.528  17.480  26.276  1.00  0.00     0.348 HD
ENDBRANCH  15  18
ENDBRANCH  14  15
ENDBRANCH  13  14
ENDBRANCH  11  13
ENDBRANCH   4   6
ENDBRANCH   3   4
ENDBRANCH   2   3
ENDBRANCH   1   2
BRANCH   1  22
ATOM     22  O   UNL A   1      39.807  21.250  26.179  1.00  0.00    -0.374 OA
BRANCH  22  23
ATOM     23  C   UNL A   1      40.963  21.572  26.944  1.00  0.00     0.202 C 
BRANCH  23  24
ATOM     24  C   UNL A   1      41.948  22.645  26.487  1.00  0.00     0.261 C 
BRANCH  24  25
ATOM     25  O   UNL A   1      41.962  23.796  27.332  1.00  0.00    -0.460 OA
BRANCH  25  26
ATOM     26  C   UNL A   1      41.844  24.961  26.651  1.00  0.00     0.338 C 
ATOM     27  O   UNL A   1      41.926  25.128  25.446  1.00  0.00    -0.246 OA
BRANCH  26  28
ATOM     28  C   UNL A   1      41.357  26.002  27.568  1.00  0.00     0.060 A 
ATOM     29  C   UNL A   1      42.075  27.206  27.616  1.00  0.00     0.016 A 
ATOM     30  C   UNL A   1      40.261  25.778  28.398  1.00  0.00     0.016 A 
ATOM     31  C   UNL A   1      41.737  28.172  28.547  1.00  0.00     0.010 A 
ATOM     32  C   UNL A   1      39.939  26.738  29.355  1.00  0.00     0.010 A 
ATOM     33  C   UNL A   1      40.712  27.908  29.459  1.00  0.00    -0.014 A 
BRANCH  33  34
ATOM     34  C   UNL A   1      40.618  28.749  30.666  1.00  0.00     0.031 A 
ATOM     35  C   UNL A   1      39.569  29.823  30.693  1.00  0.00     0.074 A 
ATOM     36  C   UNL A   1      41.413  28.511  31.722  1.00  0.00     0.049 A 
ATOM     37  N   UNL A   1      39.320  30.712  31.615  1.00  0.00    -0.248 NA
ATOM     38  C   UNL A   1      38.679  29.907  29.520  1.00  0.00     0.031 C 
ATOM     39  C   UNL A   1      42.414  27.447  31.804  1.00  0.00     0.029 A 
ATOM     40  N   UNL A   1      41.503  29.156  32.925  1.00  0.00    -0.354 N 
ATOM     41  C   UNL A   1      38.260  31.469  31.129  1.00  0.00     0.074 A 
ATOM     42  C   UNL A   1      37.925  30.952  29.822  1.00  0.00     0.031 C 
ATOM     43  C   UNL A   1      43.030  27.523  32.996  1.00  0.00     0.029 A 
ATOM     44  C   UNL A   1      42.493  28.662  33.737  1.00  0.00     0.049 A 
ATOM     45  H   UNL A   1      40.914  29.901  33.184  1.00  0.00     0.167 HD
ATOM     46  C   UNL A   1      37.624  32.499  31.731  1.00  0.00     0.037 A 
ATOM     47  C   UNL A   1      42.930  29.106  34.930  1.00  0.00     0.037 A 
ATOM     48  C   UNL A   1      37.972  32.989  33.038  1.00  0.00     0.049 A 
ATOM     49  C   UNL A   1      42.250  30.302  35.546  1.00  0.00     0.074 A 
ATOM     50  C   UNL A   1      37.387  34.016  33.754  1.00  0.00     0.029 A 
ATOM     51  N   UNL A   1      39.001  32.485  33.822  1.00  0.00    -0.354 N 
ATOM     52  N   UNL A   1      41.240  31.006  35.087  1.00  0.00    -0.248 NA
ATOM     53  C   UNL A   1      42.764  30.764  36.842  1.00  0.00     0.031 C 
ATOM     54  C   UNL A   1      38.101  34.173  34.946  1.00  0.00     0.029 A 
ATOM     55  C   UNL A   1      39.087  33.200  35.002  1.00  0.00     0.049 A 
ATOM     56  H   UNL A   1      39.583  31.731  33.573  1.00  0.00     0.167 HD
ATOM     57  C   UNL A   1      40.977  31.971  36.054  1.00  0.00     0.074 A 
ATOM     58  C   UNL A   1      41.926  31.752  37.126  1.00  0.00     0.031 C 
ATOM     59  C   UNL A   1      40.036  32.948  36.059  1.00  0.00     0.037 A 
BRANCH  46  60
ATOM     60  C   UNL A   1      36.521  33.186  30.975  1.00  0.00     0.058 A 
ATOM     61  C   UNL A   1      35.175  33.073  31.356  1.00  0.00     0.135 A 
ATOM     62  C   UNL A   1      36.824  34.013  29.881  1.00  0.00     0.135 A 
ATOM     63  F   UNL A   1      34.824  32.275  32.377  1.00  0.00    -0.206 F 
ATOM     64  C   UNL A   1      34.167  33.749  30.675  1.00  0.00     0.059 A 
ATOM     65  C   UNL A   1      35.837  34.720  29.203  1.00  0.00     0.059 A 
ATOM     66  F   UNL A   1      38.094  34.146  29.467  1.00  0.00    -0.206 F 
ATOM     67  C   UNL A   1      34.509  34.577  29.604  1.00  0.00     0.060 A 
BRANCH  67  68
ATOM     68  S   UNL A   1      33.196  35.479  28.756  1.00  0.00     0.124 S 
ATOM     69  O   UNL A   1      33.963  36.440  27.968  1.00  0.00    -0.237 OA
ATOM     70  O   UNL A   1      32.534  34.422  27.997  1.00  0.00    -0.237 OA
ATOM     71  O   UNL A   1      32.413  36.049  29.848  1.00  0.00    -0.744 OA
ENDBRANCH  67  68
ENDBRANCH  46  60
BRANCH  47  72
ATOM     72  C   UNL A   1      44.074  28.439  35.604  1.00  0.00     0.058 A 
ATOM     73  C   UNL A   1      45.397  28.825  35.344  1.00  0.00     0.135 A 
ATOM     74  C   UNL A   1      43.868  27.393  36.517  1.00  0.00     0.135 A 
ATOM     75  F   UNL A   1      45.648  29.817  34.476  1.00  0.00    -0.206 F 
ATOM     76  C   UNL A   1      46.475  28.181  35.942  1.00  0.00     0.059 A 
ATOM     77  C   UNL A   1      44.928  26.753  37.151  1.00  0.00     0.059 A 
ATOM     78  F   UNL A   1      42.621  26.995  36.815  1.00  0.00    -0.206 F 
ATOM     79  C   UNL A   1      46.229  27.145  36.845  1.00  0.00     0.060 A 
BRANCH  79  80
ATOM     80  S   UNL A   1      47.636  26.332  37.633  1.00  0.00     0.124 S 
ATOM     81  O   UNL A   1      47.501  24.968  37.136  1.00  0.00    -0.237 OA
ATOM     82  O   UNL A   1      48.763  27.097  37.109  1.00  0.00    -0.237 OA
ATOM     83  O   UNL A   1      47.372  26.514  39.058  1.00  0.00    -0.744 OA
ENDBRANCH  79  80
ENDBRANCH  47  72
BRANCH  59  84
ATOM     84  C   UNL A   1      39.955  33.823  37.280  1.00  0.00     0.058 A 
ATOM     85  C   UNL A   1      40.745  34.973  37.422  1.00  0.00     0.135 A 
ATOM     86  C   UNL A   1      39.030  33.532  38.297  1.00  0.00     0.135 A 
ATOM     87  F   UNL A   1      41.649  35.293  36.482  1.00  0.00    -0.206 F 
ATOM     88  C   UNL A   1      40.640  35.791  38.542  1.00  0.00     0.059 A 
ATOM     89  C   UNL A   1      38.883  34.353  39.407  1.00  0.00     0.059 A 
ATOM     90  F   UNL A   1      38.240  32.450  38.203  1.00  0.00    -0.206 F 
ATOM     91  C   UNL A   1      39.703  35.474  39.528  1.00  0.00     0.060 A 
BRANCH  91  92
ATOM     92  S   UNL A   1      39.555  36.563  40.959  1.00  0.00     0.124 S 
ATOM     93  O   UNL A   1      38.525  37.495  40.513  1.00  0.00    -0.237 OA
ATOM     94  O   UNL A   1      39.160  35.638  42.016  1.00  0.00    -0.237 OA
ATOM     95  O   UNL A   1      40.895  37.127  41.097  1.00  0.00    -0.744 OA
ENDBRANCH  91  92
ENDBRANCH  59  84
ENDBRANCH  33  34
ENDBRANCH  26  28
ENDBRANCH  25  26
ENDBRANCH  24  25
ENDBRANCH  23  24
ENDBRANCH  22  23
ENDBRANCH   1  22
TORSDOF 21
ENDMDL
MODEL 3
REMARK VINA RESULT:      -9.7      1.517      3.299
REMARK SMILES Cc1nn(C)c(OCC(C)(C)[NH+](C)C)c1C(=O)OCCOCCOC(=O)c1ccc(-c2c3nc(c(-c4c(F)cc(S(=O)(=O)[O-])cc4F)c4ccc([nH]4)c(-c4c(F)cc(S(=O)(=O)[O-])cc4F)c4nc(c(-c5c(F)cc(S(=O)(=O)[O-])cc5F)c5ccc2[nH]5)C=C4)C=C3)cc1
REMARK SMILES IDX 20 1 19 2 18 3 16 4 17 5 15 6 1 7 2 8 3 9 4 10 6 11 5 12
REMARK SMILES IDX 7 13 8 14 9 15 10 16 11 17 12 18 13 19 14 20 21 22 22 23
REMARK SMILES IDX 23 24 24 25 25 26 26 27 27 28 28 29 92 30 29 31 91 32 30 33
REMARK SMILES IDX 31 34 32 35 85 36 33 37 90 38 84 39 86 40 34 41 89 42 83 43
REMARK SMILES IDX 82 44 35 46 69 47 48 48 68 49 49 50 52 51 67 52 87 53 50 54
REMARK SMILES IDX 51 55 66 57 88 58 53 59 36 60 37 61 46 62 38 63 39 64 45 65
REMARK SMILES IDX 47 66 40 67 41 68 42 69 43 70 44 71 70 72 71 73 80 74 72 75
REMARK SMILES IDX 73 76 79 77 81 78 74 79 75 80 76 81 77 82 78 83 54 84 55 85
REMARK SMILES IDX 64 86 56 87 57 88 63 89 65 90 58 91 59 92 60 93 61 94 62 95
REMARK H PARENT 12 21 86 45 52 56
REMARK Flexibility Score: inf
ROOT
ATOM      1  C   UNL A   1      37.699  22.532  25.992  1.00  0.00     0.202 C 
ENDROOT
BRANCH   1   2
ATOM      2  C   UNL A   1      36.631  23.655  26.070  1.00  0.00     0.261 C 
BRANCH   2   3
ATOM      3  O   UNL A   1      35.300  23.309  26.481  1.00  0.00    -0.459 OA
BRANCH   3   4
ATOM      4  C   UNL A   1      34.416  23.705  25.527  1.00  0.00     0.345 C 
ATOM      5  O   UNL A   1      34.808  23.918  24.387  1.00  0.00    -0.246 OA
BRANCH   4   6
ATOM      6  C   UNL A   1      33.021  23.805  25.880  1.00  0.00     0.144 A 
ATOM      7  C   UNL A   1      32.485  26.398  25.851  1.00  0.00     0.070 C 
ATOM      8  C   UNL A   1      32.201  24.957  26.083  1.00  0.00     0.078 A 
ATOM      9  N   UNL A   1      30.971  24.625  26.493  1.00  0.00    -0.174 NA
ATOM     10  N   UNL A   1      30.979  23.285  26.487  1.00  0.00    -0.236 N 
ATOM     11  C   UNL A   1      32.135  22.727  25.995  1.00  0.00     0.227 A 
ATOM     12  C   UNL A   1      29.804  22.579  26.943  1.00  0.00     0.178 C 
BRANCH  11  13
ATOM     13  O   UNL A   1      32.116  21.409  25.750  1.00  0.00    -0.471 OA
BRANCH  13  14
ATOM     14  C   UNL A   1      32.547  20.831  24.516  1.00  0.00     0.299 C 
BRANCH  14  15
ATOM     15  C   UNL A   1      32.943  19.281  24.504  1.00  0.00     0.126 C 
ATOM     16  C   UNL A   1      32.529  18.451  25.754  1.00  0.00     0.082 C 
ATOM     17  C   UNL A   1      32.187  18.697  23.272  1.00  0.00     0.082 C 
BRANCH  15  18
ATOM     18  N   UNL A   1      34.424  19.132  24.268  1.00  0.00    -0.333 N 
ATOM     19  C   UNL A   1      35.209  20.134  24.998  1.00  0.00     0.333 C 
ATOM     20  C   UNL A   1      34.958  17.798  24.566  1.00  0.00     0.333 C 
ATOM     21  H   UNL A   1      34.522  19.279  23.264  1.00  0.00     0.348 HD
ENDBRANCH  15  18
ENDBRANCH  14  15
ENDBRANCH  13  14
ENDBRANCH  11  13
ENDBRANCH   4   6
ENDBRANCH   3   4
ENDBRANCH   2   3
ENDBRANCH   1   2
BRANCH   1  22
ATOM     22  O   UNL A   1      39.100  22.748  25.913  1.00  0.00    -0.374 OA
BRANCH  22  23
ATOM     23  C   UNL A   1      40.054  21.856  26.478  1.00  0.00     0.202 C 
BRANCH  23  24
ATOM     24  C   UNL A   1      41.554  22.072  26.296  1.00  0.00     0.261 C 
BRANCH  24  25
ATOM     25  O   UNL A   1      42.085  23.089  27.145  1.00  0.00    -0.460 OA
BRANCH  25  26
ATOM     26  C   UNL A   1      42.338  24.251  26.496  1.00  0.00     0.338 C 
ATOM     27  O   UNL A   1      42.757  24.389  25.359  1.00  0.00    -0.246 OA
BRANCH  26  28
ATOM     28  C   UNL A   1      41.803  25.367  27.289  1.00  0.00     0.060 A 
ATOM     29  C   UNL A   1      42.547  26.555  27.315  1.00  0.00     0.016 A 
ATOM     30  C   UNL A   1      40.631  25.229  28.032  1.00  0.00     0.016 A 
ATOM     31  C   UNL A   1      42.157  27.594  28.141  1.00  0.00     0.010 A 
ATOM     32  C   UNL A   1      40.255  26.263  28.885  1.00  0.00     0.010 A 
ATOM     33  C   UNL A   1      41.048  27.420  28.974  1.00  0.00    -0.014 A 
BRANCH  33  34
ATOM     34  C   UNL A   1      40.873  28.350  30.105  1.00  0.00     0.031 A 
ATOM     35  C   UNL A   1      41.780  28.190  31.291  1.00  0.00     0.074 A 
ATOM     36  C   UNL A   1      39.968  29.339  30.036  1.00  0.00     0.049 A 
ATOM     37  N   UNL A   1      41.794  28.851  32.416  1.00  0.00    -0.248 NA
ATOM     38  C   UNL A   1      42.814  27.141  31.196  1.00  0.00     0.031 C 
ATOM     39  C   UNL A   1      39.092  29.605  28.895  1.00  0.00     0.029 A 
ATOM     40  N   UNL A   1      39.636  30.300  30.951  1.00  0.00    -0.354 N 
ATOM     41  C   UNL A   1      42.821  28.290  33.167  1.00  0.00     0.074 A 
ATOM     42  C   UNL A   1      43.394  27.221  32.383  1.00  0.00     0.031 C 
ATOM     43  C   UNL A   1      38.307  30.656  29.188  1.00  0.00     0.029 A 
ATOM     44  C   UNL A   1      38.602  31.106  30.546  1.00  0.00     0.049 A 
ATOM     45  H   UNL A   1      40.095  30.403  31.816  1.00  0.00     0.167 HD
ATOM     46  C   UNL A   1      43.244  28.647  34.401  1.00  0.00     0.037 A 
ATOM     47  C   UNL A   1      37.953  32.076  31.217  1.00  0.00     0.037 A 
ATOM     48  C   UNL A   1      42.661  29.723  35.157  1.00  0.00     0.049 A 
ATOM     49  C   UNL A   1      38.399  32.405  32.618  1.00  0.00     0.074 A 
ATOM     50  C   UNL A   1      43.018  30.184  36.410  1.00  0.00     0.029 A 
ATOM     51  N   UNL A   1      41.594  30.501  34.730  1.00  0.00    -0.354 N 
ATOM     52  N   UNL A   1      39.378  31.880  33.319  1.00  0.00    -0.248 NA
ATOM     53  C   UNL A   1      37.657  33.460  33.321  1.00  0.00     0.031 C 
ATOM     54  C   UNL A   1      42.129  31.203  36.765  1.00  0.00     0.029 A 
ATOM     55  C   UNL A   1      41.261  31.421  35.706  1.00  0.00     0.049 A 
ATOM     56  H   UNL A   1      41.142  30.410  33.859  1.00  0.00     0.167 HD
ATOM     57  C   UNL A   1      39.390  32.564  34.530  1.00  0.00     0.074 A 
ATOM     58  C   UNL A   1      38.329  33.547  34.460  1.00  0.00     0.031 C 
ATOM     59  C   UNL A   1      40.205  32.399  35.602  1.00  0.00     0.037 A 
BRANCH  46  60
ATOM     60  C   UNL A   1      44.360  27.853  35.021  1.00  0.00     0.058 A 
ATOM     61  C   UNL A   1      45.703  28.243  34.910  1.00  0.00     0.135 A 
ATOM     62  C   UNL A   1      44.072  26.709  35.783  1.00  0.00     0.135 A 
ATOM     63  F   UNL A   1      46.039  29.313  34.172  1.00  0.00    -0.206 F 
ATOM     64  C   UNL A   1      46.723  27.524  35.526  1.00  0.00     0.059 A 
ATOM     65  C   UNL A   1      45.071  25.991  36.431  1.00  0.00     0.059 A 
ATOM     66  F   UNL A   1      42.805  26.284  35.910  1.00  0.00    -0.206 F 
ATOM     67  C   UNL A   1      46.396  26.403  36.292  1.00  0.00     0.060 A 
BRANCH  67  68
ATOM     68  S   UNL A   1      47.725  25.504  37.118  1.00  0.00     0.124 S 
ATOM     69  O   UNL A   1      48.888  25.924  36.342  1.00  0.00    -0.237 OA
ATOM     70  O   UNL A   1      47.652  26.023  38.480  1.00  0.00    -0.237 OA
ATOM     71  O   UNL A   1      47.340  24.105  36.961  1.00  0.00    -0.744 OA
ENDBRANCH  67  68
ENDBRANCH  46  60
BRANCH  47  72
ATOM     72  C   UNL A   1      36.806  32.782  30.588  1.00  0.00     0.058 A 
ATOM     73  C   UNL A   1      35.488  32.343  30.778  1.00  0.00     0.135 A 
ATOM     74  C   UNL A   1      37.006  33.907  29.772  1.00  0.00     0.135 A 
ATOM     75  F   UNL A   1      35.243  31.269  31.545  1.00  0.00    -0.206 F 
ATOM     76  C   UNL A   1      34.413  32.975  30.163  1.00  0.00     0.059 A 
ATOM     77  C   UNL A   1      35.946  34.575  29.171  1.00  0.00     0.059 A 
ATOM     78  F   UNL A   1      38.247  34.380  29.570  1.00  0.00    -0.206 F 
ATOM     79  C   UNL A   1      34.653  34.092  29.360  1.00  0.00     0.060 A 
BRANCH  79  80
ATOM     80  S   UNL A   1      33.247  34.920  28.586  1.00  0.00     0.124 S 
ATOM     81  O   UNL A   1      32.532  35.429  29.750  1.00  0.00    -0.237 OA
ATOM     82  O   UNL A   1      33.904  35.919  27.751  1.00  0.00    -0.237 OA
ATOM     83  O   UNL A   1      32.583  33.842  27.858  1.00  0.00    -0.744 OA
ENDBRANCH  79  80
ENDBRANCH  47  72
BRANCH  59  84
ATOM     84  C   UNL A   1      40.012  33.331  36.766  1.00  0.00     0.058 A 
ATOM     85  C   UNL A   1      40.722  34.536  36.878  1.00  0.00     0.135 A 
ATOM     86  C   UNL A   1      39.059  33.037  37.756  1.00  0.00     0.135 A 
ATOM     87  F   UNL A   1      41.648  34.862  35.962  1.00  0.00    -0.206 F 
ATOM     88  C   UNL A   1      40.514  35.404  37.943  1.00  0.00     0.059 A 
ATOM     89  C   UNL A   1      38.809  33.905  38.811  1.00  0.00     0.059 A 
ATOM     90  F   UNL A   1      38.343  31.902  37.688  1.00  0.00    -0.206 F 
ATOM     91  C   UNL A   1      39.552  35.081  38.904  1.00  0.00     0.060 A 
BRANCH  91  92
ATOM     92  S   UNL A   1      39.270  36.234  40.263  1.00  0.00     0.124 S 
ATOM     93  O   UNL A   1      38.915  37.453  39.544  1.00  0.00    -0.237 OA
ATOM     94  O   UNL A   1      38.184  35.591  40.997  1.00  0.00    -0.237 OA
ATOM     95  O   UNL A   1      40.554  36.264  40.956  1.00  0.00    -0.744 OA
ENDBRANCH  91  92
ENDBRANCH  59  84
ENDBRANCH  33  34
ENDBRANCH  26  28
ENDBRANCH  25  26
ENDBRANCH  24  25
ENDBRANCH  23  24
ENDBRANCH  22  23
ENDBRANCH   1  22
TORSDOF 21
ENDMDL
