MODEL 1
REMARK VINA RESULT:     -10.0      0.000      0.000
REMARK SMILES O=C(OCCOCCOC(=O)c1cccnc1Nc1cccc(C(F)(F)F)c1)c1ccc(-c2c3nc(c(-c4c(F)cc(S(=O)(=O)[O-])cc4F)c4ccc([nH]4)c(-c4c(F)cc(S(=O)(=O)[O-])cc4F)c4nc(c(-c5c(F)cc(S(=O)(=O)[O-])cc5F)c5ccc2[nH]5)C=C4)C=C3)cc1
REMARK SMILES IDX 6 1 5 2 4 3 3 4 2 5 1 6 29 7 30 8 94 9 31 10 93 11 32 12
REMARK SMILES IDX 33 13 34 14 87 15 35 16 92 17 86 18 88 19 36 20 91 21 85 22
REMARK SMILES IDX 84 23 37 25 71 26 50 27 70 28 51 29 54 30 69 31 89 32 52 33
REMARK SMILES IDX 53 34 68 36 90 37 55 38 38 39 39 40 48 41 40 42 41 43 47 44
REMARK SMILES IDX 49 45 42 46 43 47 44 48 45 49 46 50 72 51 73 52 82 53 74 54
REMARK SMILES IDX 75 55 81 56 83 57 76 58 77 59 78 60 79 61 80 62 56 63 57 64
REMARK SMILES IDX 66 65 58 66 59 67 65 68 67 69 60 70 61 71 62 72 63 73 64 74
REMARK SMILES IDX 7 75 8 76 9 77 10 78 11 79 12 80 13 81 17 82 14 83 16 84
REMARK SMILES IDX 15 85 18 86 19 88 20 89 28 90 21 91 23 92 22 93 24 94 25 95
REMARK SMILES IDX 26 96 27 97
REMARK H PARENT 88 24 54 35 18 87
REMARK Flexibility Score: inf
ROOT
ATOM      1  O   UNL A   1      32.318  28.757  24.143  1.00  0.00    -0.374 OA
ENDROOT
BRANCH   1   2
ATOM      2  C   UNL A   1      33.006  29.451  25.174  1.00  0.00     0.202 C 
BRANCH   2   3
ATOM      3  C   UNL A   1      33.513  28.563  26.308  1.00  0.00     0.261 C 
BRANCH   3   4
ATOM      4  O   UNL A   1      33.508  29.286  27.548  1.00  0.00    -0.460 OA
BRANCH   4   5
ATOM      5  C   UNL A   1      34.412  30.224  27.930  1.00  0.00     0.338 C 
ATOM      6  O   UNL A   1      34.033  31.372  28.144  1.00  0.00    -0.246 OA
BRANCH   5   7
ATOM      7  C   UNL A   1      35.851  29.900  28.133  1.00  0.00     0.060 A 
ATOM      8  C   UNL A   1      36.829  30.101  27.160  1.00  0.00     0.016 A 
ATOM      9  C   UNL A   1      36.259  29.457  29.398  1.00  0.00     0.016 A 
ATOM     10  C   UNL A   1      38.155  29.791  27.379  1.00  0.00     0.010 A 
ATOM     11  C   UNL A   1      37.612  29.214  29.657  1.00  0.00     0.010 A 
ATOM     12  C   UNL A   1      38.561  29.376  28.639  1.00  0.00    -0.014 A 
BRANCH  12  13
ATOM     13  C   UNL A   1      39.986  29.056  28.815  1.00  0.00     0.031 A 
ATOM     14  C   UNL A   1      40.862  30.068  29.477  1.00  0.00     0.074 A 
ATOM     15  C   UNL A   1      40.423  27.820  28.507  1.00  0.00     0.049 A 
ATOM     16  N   UNL A   1      42.151  30.048  29.660  1.00  0.00    -0.248 NA
ATOM     17  C   UNL A   1      40.190  31.266  30.010  1.00  0.00     0.031 C 
ATOM     18  C   UNL A   1      39.583  26.729  27.999  1.00  0.00     0.029 A 
ATOM     19  N   UNL A   1      41.664  27.256  28.614  1.00  0.00    -0.354 N 
ATOM     20  C   UNL A   1      42.456  31.254  30.278  1.00  0.00     0.074 A 
ATOM     21  C   UNL A   1      41.217  31.977  30.449  1.00  0.00     0.031 C 
ATOM     22  C   UNL A   1      40.326  25.619  27.877  1.00  0.00     0.029 A 
ATOM     23  C   UNL A   1      41.707  25.944  28.205  1.00  0.00     0.049 A 
ATOM     24  H   UNL A   1      42.450  27.742  28.952  1.00  0.00     0.167 HD
ATOM     25  C   UNL A   1      43.676  31.710  30.643  1.00  0.00     0.037 A 
ATOM     26  C   UNL A   1      42.762  25.118  28.072  1.00  0.00     0.037 A 
ATOM     27  C   UNL A   1      44.878  30.942  30.458  1.00  0.00     0.049 A 
ATOM     28  C   UNL A   1      44.117  25.675  28.408  1.00  0.00     0.074 A 
ATOM     29  C   UNL A   1      46.187  31.301  30.713  1.00  0.00     0.029 A 
ATOM     30  N   UNL A   1      44.904  29.640  29.968  1.00  0.00    -0.354 N 
ATOM     31  N   UNL A   1      44.423  26.860  28.888  1.00  0.00    -0.248 NA
ATOM     32  C   UNL A   1      45.271  24.805  28.165  1.00  0.00     0.031 C 
ATOM     33  C   UNL A   1      47.007  30.230  30.337  1.00  0.00     0.029 A 
ATOM     34  C   UNL A   1      46.206  29.183  29.899  1.00  0.00     0.049 A 
ATOM     35  H   UNL A   1      44.111  29.119  29.708  1.00  0.00     0.167 HD
ATOM     36  C   UNL A   1      45.803  26.875  29.021  1.00  0.00     0.074 A 
ATOM     37  C   UNL A   1      46.271  25.572  28.580  1.00  0.00     0.031 C 
ATOM     38  C   UNL A   1      46.615  27.868  29.462  1.00  0.00     0.037 A 
BRANCH  25  39
ATOM     39  C   UNL A   1      43.745  33.118  31.165  1.00  0.00     0.058 A 
ATOM     40  C   UNL A   1      43.927  34.226  30.320  1.00  0.00     0.135 A 
ATOM     41  C   UNL A   1      43.719  33.352  32.549  1.00  0.00     0.135 A 
ATOM     42  F   UNL A   1      43.994  34.058  28.989  1.00  0.00    -0.206 F 
ATOM     43  C   UNL A   1      44.133  35.505  30.832  1.00  0.00     0.059 A 
ATOM     44  C   UNL A   1      43.895  34.626  33.082  1.00  0.00     0.059 A 
ATOM     45  F   UNL A   1      43.560  32.330  33.405  1.00  0.00    -0.206 F 
ATOM     46  C   UNL A   1      44.129  35.691  32.215  1.00  0.00     0.060 A 
BRANCH  46  47
ATOM     47  S   UNL A   1      44.467  37.340  32.870  1.00  0.00     0.124 S 
ATOM     48  O   UNL A   1      44.153  38.180  31.718  1.00  0.00    -0.237 OA
ATOM     49  O   UNL A   1      43.536  37.428  33.991  1.00  0.00    -0.237 OA
ATOM     50  O   UNL A   1      45.879  37.278  33.236  1.00  0.00    -0.744 OA
ENDBRANCH  46  47
ENDBRANCH  25  39
BRANCH  26  51
ATOM     51  C   UNL A   1      42.574  23.733  27.563  1.00  0.00     0.058 A 
ATOM     52  C   UNL A   1      42.628  23.448  26.191  1.00  0.00     0.135 A 
ATOM     53  C   UNL A   1      42.371  22.653  28.440  1.00  0.00     0.135 A 
ATOM     54  F   UNL A   1      42.812  24.441  25.307  1.00  0.00    -0.206 F 
ATOM     55  C   UNL A   1      42.488  22.149  25.707  1.00  0.00     0.059 A 
ATOM     56  C   UNL A   1      42.256  21.343  27.983  1.00  0.00     0.059 A 
ATOM     57  F   UNL A   1      42.320  22.863  29.766  1.00  0.00    -0.206 F 
ATOM     58  C   UNL A   1      42.308  21.102  26.613  1.00  0.00     0.060 A 
BRANCH  58  59
ATOM     59  S   UNL A   1      42.183  19.414  25.979  1.00  0.00     0.124 S 
ATOM     60  O   UNL A   1      42.680  18.637  27.110  1.00  0.00    -0.237 OA
ATOM     61  O   UNL A   1      40.754  19.296  25.702  1.00  0.00    -0.237 OA
ATOM     62  O   UNL A   1      43.042  19.432  24.800  1.00  0.00    -0.744 OA
ENDBRANCH  58  59
ENDBRANCH  26  51
BRANCH  38  63
ATOM     63  C   UNL A   1      48.081  27.559  29.529  1.00  0.00     0.058 A 
ATOM     64  C   UNL A   1      48.926  27.748  28.427  1.00  0.00     0.135 A 
ATOM     65  C   UNL A   1      48.650  27.125  30.737  1.00  0.00     0.135 A 
ATOM     66  F   UNL A   1      48.424  28.152  27.249  1.00  0.00    -0.206 F 
ATOM     67  C   UNL A   1      50.290  27.499  28.514  1.00  0.00     0.059 A 
ATOM     68  C   UNL A   1      50.015  26.898  30.854  1.00  0.00     0.059 A 
ATOM     69  F   UNL A   1      47.880  26.940  31.820  1.00  0.00    -0.206 F 
ATOM     70  C   UNL A   1      50.825  27.079  29.734  1.00  0.00     0.060 A 
BRANCH  70  71
ATOM     71  S   UNL A   1      52.604  26.806  29.849  1.00  0.00     0.124 S 
ATOM     72  O   UNL A   1      53.089  28.150  30.142  1.00  0.00    -0.237 OA
ATOM     73  O   UNL A   1      52.702  25.844  30.943  1.00  0.00    -0.237 OA
ATOM     74  O   UNL A   1      52.953  26.284  28.531  1.00  0.00    -0.744 OA
ENDBRANCH  70  71
ENDBRANCH  38  63
ENDBRANCH  12  13
ENDBRANCH   5   7
ENDBRANCH   4   5
ENDBRANCH   3   4
ENDBRANCH   2   3
ENDBRANCH   1   2
BRANCH   1  75
ATOM     75  C   UNL A   1      32.788  28.952  22.816  1.00  0.00     0.202 C 
BRANCH  75  76
ATOM     76  C   UNL A   1      33.658  27.750  22.452  1.00  0.00     0.261 C 
BRANCH  76  77
ATOM     77  O   UNL A   1      32.816  26.726  21.887  1.00  0.00    -0.460 OA
BRANCH  77  78
ATOM     78  C   UNL A   1      32.996  25.461  22.353  1.00  0.00     0.341 C 
ATOM     79  O   UNL A   1      33.698  24.580  21.886  1.00  0.00    -0.246 OA
BRANCH  78  80
ATOM     80  C   UNL A   1      32.292  25.343  23.643  1.00  0.00     0.102 A 
ATOM     81  C   UNL A   1      30.904  25.539  23.681  1.00  0.00     0.021 A 
ATOM     82  C   UNL A   1      32.993  25.081  24.832  1.00  0.00     0.144 A 
ATOM     83  C   UNL A   1      30.244  25.496  24.898  1.00  0.00     0.021 A 
ATOM     84  N   UNL A   1      32.331  25.044  26.018  1.00  0.00    -0.238 NA
ATOM     85  C   UNL A   1      30.996  25.248  26.029  1.00  0.00     0.113 A 
BRANCH  82  86
ATOM     86  N   UNL A   1      34.400  25.007  24.862  1.00  0.00    -0.340 N 
ATOM     87  H   UNL A   1      34.885  25.861  24.800  1.00  0.00     0.168 HD
BRANCH  86  88
ATOM     88  C   UNL A   1      35.187  23.845  24.974  1.00  0.00     0.040 A 
ATOM     89  C   UNL A   1      34.647  22.588  24.672  1.00  0.00     0.026 A 
ATOM     90  C   UNL A   1      36.468  23.901  25.527  1.00  0.00     0.039 A 
ATOM     91  C   UNL A   1      35.383  21.417  24.867  1.00  0.00     0.003 A 
ATOM     92  C   UNL A   1      37.221  22.733  25.737  1.00  0.00     0.058 A 
ATOM     93  C   UNL A   1      36.666  21.489  25.395  1.00  0.00     0.013 A 
BRANCH  92  94
ATOM     94  C   UNL A   1      38.606  22.800  26.321  1.00  0.00     0.416 C 
ATOM     95  F   UNL A   1      39.191  21.575  26.430  1.00  0.00    -0.166 F 
ATOM     96  F   UNL A   1      39.455  23.548  25.559  1.00  0.00    -0.166 F 
ATOM     97  F   UNL A   1      38.653  23.347  27.568  1.00  0.00    -0.166 F 
ENDBRANCH  92  94
ENDBRANCH  86  88
ENDBRANCH  82  86
ENDBRANCH  78  80
ENDBRANCH  77  78
ENDBRANCH  76  77
ENDBRANCH  75  76
ENDBRANCH   1  75
TORSDOF 20
ENDMDL
MODEL 2
REMARK VINA RESULT:      -9.9      4.321     10.654
REMARK SMILES O=C(OCCOCCOC(=O)c1cccnc1Nc1cccc(C(F)(F)F)c1)c1ccc(-c2c3nc(c(-c4c(F)cc(S(=O)(=O)[O-])cc4F)c4ccc([nH]4)c(-c4c(F)cc(S(=O)(=O)[O-])cc4F)c4nc(c(-c5c(F)cc(S(=O)(=O)[O-])cc5F)c5ccc2[nH]5)C=C4)C=C3)cc1
REMARK SMILES IDX 6 1 5 2 4 3 3 4 2 5 1 6 29 7 30 8 94 9 31 10 93 11 32 12
REMARK SMILES IDX 33 13 34 14 87 15 35 16 92 17 86 18 88 19 36 20 91 21 85 22
REMARK SMILES IDX 84 23 37 25 71 26 50 27 70 28 51 29 54 30 69 31 89 32 52 33
REMARK SMILES IDX 53 34 68 36 90 37 55 38 38 39 39 40 48 41 40 42 41 43 47 44
REMARK SMILES IDX 49 45 42 46 43 47 44 48 45 49 46 50 72 51 73 52 82 53 74 54
REMARK SMILES IDX 75 55 81 56 83 57 76 58 77 59 78 60 79 61 80 62 56 63 57 64
REMARK SMILES IDX 66 65 58 66 59 67 65 68 67 69 60 70 61 71 62 72 63 73 64 74
REMARK SMILES IDX 7 75 8 76 9 77 10 78 11 79 12 80 13 81 17 82 14 83 16 84
REMARK SMILES IDX 15 85 18 86 19 88 20 89 28 90 21 91 23 92 22 93 24 94 25 95
REMARK SMILES IDX 26 96 27 97
REMARK H PARENT 88 24 54 35 18 87
REMARK Flexibility Score: inf
ROOT
ATOM      1  O   UNL A   1      37.416  32.292  35.141  1.00  0.00    -0.374 OA
ENDROOT
BRANCH   1   2
ATOM      2  C   UNL A   1      37.678  31.941  33.791  1.00  0.00     0.202 C 
BRANCH   2   3
ATOM      3  C   UNL A   1      36.531  31.220  33.087  1.00  0.00     0.261 C 
BRANCH   3   4
ATOM      4  O   UNL A   1      36.763  31.175  31.671  1.00  0.00    -0.460 OA
BRANCH   4   5
ATOM      5  C   UNL A   1      37.013  30.061  30.938  1.00  0.00     0.338 C 
ATOM      6  O   UNL A   1      36.092  29.288  30.685  1.00  0.00    -0.246 OA
BRANCH   5   7
ATOM      7  C   UNL A   1      38.366  29.757  30.394  1.00  0.00     0.060 A 
ATOM      8  C   UNL A   1      38.697  29.878  29.045  1.00  0.00     0.016 A 
ATOM      9  C   UNL A   1      39.382  29.420  31.296  1.00  0.00     0.016 A 
ATOM     10  C   UNL A   1      39.960  29.590  28.572  1.00  0.00     0.010 A 
ATOM     11  C   UNL A   1      40.687  29.201  30.839  1.00  0.00     0.010 A 
ATOM     12  C   UNL A   1      40.971  29.280  29.469  1.00  0.00    -0.014 A 
BRANCH  12  13
ATOM     13  C   UNL A   1      42.298  28.978  28.909  1.00  0.00     0.031 A 
ATOM     14  C   UNL A   1      42.529  27.621  28.330  1.00  0.00     0.074 A 
ATOM     15  C   UNL A   1      43.207  29.966  28.807  1.00  0.00     0.049 A 
ATOM     16  N   UNL A   1      43.628  27.100  27.865  1.00  0.00    -0.248 NA
ATOM     17  C   UNL A   1      41.357  26.731  28.261  1.00  0.00     0.031 C 
ATOM     18  C   UNL A   1      42.990  31.359  29.214  1.00  0.00     0.029 A 
ATOM     19  N   UNL A   1      44.475  29.967  28.295  1.00  0.00    -0.354 N 
ATOM     20  C   UNL A   1      43.297  25.801  27.501  1.00  0.00     0.074 A 
ATOM     21  C   UNL A   1      41.893  25.617  27.787  1.00  0.00     0.031 C 
ATOM     22  C   UNL A   1      44.072  32.086  28.899  1.00  0.00     0.029 A 
ATOM     23  C   UNL A   1      45.091  31.195  28.359  1.00  0.00     0.049 A 
ATOM     24  H   UNL A   1      44.905  29.167  27.917  1.00  0.00     0.167 HD
ATOM     25  C   UNL A   1      44.115  24.851  26.993  1.00  0.00     0.037 A 
ATOM     26  C   UNL A   1      46.355  31.541  28.053  1.00  0.00     0.037 A 
ATOM     27  C   UNL A   1      45.506  25.093  26.717  1.00  0.00     0.049 A 
ATOM     28  C   UNL A   1      47.267  30.450  27.567  1.00  0.00     0.074 A 
ATOM     29  C   UNL A   1      46.470  24.211  26.271  1.00  0.00     0.029 A 
ATOM     30  N   UNL A   1      46.127  26.330  26.864  1.00  0.00    -0.354 N 
ATOM     31  N   UNL A   1      46.985  29.189  27.328  1.00  0.00    -0.248 NA
ATOM     32  C   UNL A   1      48.667  30.811  27.333  1.00  0.00     0.031 C 
ATOM     33  C   UNL A   1      47.683  24.905  26.188  1.00  0.00     0.029 A 
ATOM     34  C   UNL A   1      47.465  26.234  26.530  1.00  0.00     0.049 A 
ATOM     35  H   UNL A   1      45.679  27.154  27.162  1.00  0.00     0.167 HD
ATOM     36  C   UNL A   1      48.168  28.606  26.899  1.00  0.00     0.074 A 
ATOM     37  C   UNL A   1      49.167  29.661  26.901  1.00  0.00     0.031 C 
ATOM     38  C   UNL A   1      48.415  27.321  26.539  1.00  0.00     0.037 A 
BRANCH  25  39
ATOM     39  C   UNL A   1      43.533  23.476  26.821  1.00  0.00     0.058 A 
ATOM     40  C   UNL A   1      43.307  22.612  27.906  1.00  0.00     0.135 A 
ATOM     41  C   UNL A   1      43.280  22.981  25.531  1.00  0.00     0.135 A 
ATOM     42  F   UNL A   1      43.564  23.020  29.160  1.00  0.00    -0.206 F 
ATOM     43  C   UNL A   1      42.904  21.293  27.714  1.00  0.00     0.059 A 
ATOM     44  C   UNL A   1      42.850  21.675  25.317  1.00  0.00     0.059 A 
ATOM     45  F   UNL A   1      43.489  23.758  24.456  1.00  0.00    -0.206 F 
ATOM     46  C   UNL A   1      42.691  20.831  26.415  1.00  0.00     0.060 A 
BRANCH  46  47
ATOM     47  S   UNL A   1      42.237  19.099  26.172  1.00  0.00     0.124 S 
ATOM     48  O   UNL A   1      40.833  19.219  25.792  1.00  0.00    -0.237 OA
ATOM     49  O   UNL A   1      43.148  18.684  25.109  1.00  0.00    -0.237 OA
ATOM     50  O   UNL A   1      42.485  18.496  27.478  1.00  0.00    -0.744 OA
ENDBRANCH  46  47
ENDBRANCH  25  39
BRANCH  26  51
ATOM     51  C   UNL A   1      46.821  32.942  28.245  1.00  0.00     0.058 A 
ATOM     52  C   UNL A   1      47.280  33.391  29.491  1.00  0.00     0.135 A 
ATOM     53  C   UNL A   1      46.851  33.854  27.177  1.00  0.00     0.135 A 
ATOM     54  F   UNL A   1      47.266  32.565  30.549  1.00  0.00    -0.206 F 
ATOM     55  C   UNL A   1      47.750  34.690  29.674  1.00  0.00     0.059 A 
ATOM     56  C   UNL A   1      47.341  35.149  27.327  1.00  0.00     0.059 A 
ATOM     57  F   UNL A   1      46.433  33.478  25.957  1.00  0.00    -0.206 F 
ATOM     58  C   UNL A   1      47.781  35.560  28.582  1.00  0.00     0.060 A 
BRANCH  58  59
ATOM     59  S   UNL A   1      48.445  37.226  28.814  1.00  0.00     0.124 S 
ATOM     60  O   UNL A   1      49.362  37.337  27.686  1.00  0.00    -0.237 OA
ATOM     61  O   UNL A   1      47.240  38.048  28.742  1.00  0.00    -0.237 OA
ATOM     62  O   UNL A   1      49.070  37.159  30.131  1.00  0.00    -0.744 OA
ENDBRANCH  58  59
ENDBRANCH  26  51
BRANCH  38  63
ATOM     63  C   UNL A   1      49.806  27.008  26.075  1.00  0.00     0.058 A 
ATOM     64  C   UNL A   1      50.779  26.506  26.950  1.00  0.00     0.135 A 
ATOM     65  C   UNL A   1      50.143  27.158  24.721  1.00  0.00     0.135 A 
ATOM     66  F   UNL A   1      50.504  26.355  28.256  1.00  0.00    -0.206 F 
ATOM     67  C   UNL A   1      52.052  26.178  26.499  1.00  0.00     0.059 A 
ATOM     68  C   UNL A   1      51.400  26.810  24.244  1.00  0.00     0.059 A 
ATOM     69  F   UNL A   1      49.239  27.627  23.846  1.00  0.00    -0.206 F 
ATOM     70  C   UNL A   1      52.350  26.329  25.144  1.00  0.00     0.060 A 
BRANCH  70  71
ATOM     71  S   UNL A   1      53.990  25.855  24.561  1.00  0.00     0.124 S 
ATOM     72  O   UNL A   1      53.902  26.181  23.142  1.00  0.00    -0.237 OA
ATOM     73  O   UNL A   1      54.864  26.712  25.356  1.00  0.00    -0.237 OA
ATOM     74  O   UNL A   1      54.063  24.431  24.876  1.00  0.00    -0.744 OA
ENDBRANCH  70  71
ENDBRANCH  38  63
ENDBRANCH  12  13
ENDBRANCH   5   7
ENDBRANCH   4   5
ENDBRANCH   3   4
ENDBRANCH   2   3
ENDBRANCH   1   2
BRANCH   1  75
ATOM     75  C   UNL A   1      37.363  33.679  35.444  1.00  0.00     0.202 C 
BRANCH  75  76
ATOM     76  C   UNL A   1      35.900  34.112  35.374  1.00  0.00     0.261 C 
BRANCH  76  77
ATOM     77  O   UNL A   1      35.669  34.757  34.107  1.00  0.00    -0.460 OA
BRANCH  77  78
ATOM     78  C   UNL A   1      34.584  34.343  33.399  1.00  0.00     0.341 C 
ATOM     79  O   UNL A   1      33.963  33.300  33.515  1.00  0.00    -0.246 OA
BRANCH  78  80
ATOM     80  C   UNL A   1      34.162  35.448  32.519  1.00  0.00     0.102 A 
ATOM     81  C   UNL A   1      34.088  36.746  33.043  1.00  0.00     0.021 A 
ATOM     82  C   UNL A   1      33.793  35.213  31.183  1.00  0.00     0.144 A 
ATOM     83  C   UNL A   1      33.628  37.779  32.242  1.00  0.00     0.021 A 
ATOM     84  N   UNL A   1      33.342  36.236  30.412  1.00  0.00    -0.238 NA
ATOM     85  C   UNL A   1      33.269  37.474  30.945  1.00  0.00     0.113 A 
BRANCH  82  86
ATOM     86  N   UNL A   1      33.726  33.909  30.652  1.00  0.00    -0.340 N 
ATOM     87  H   UNL A   1      32.940  33.373  30.904  1.00  0.00     0.168 HD
BRANCH  86  88
ATOM     88  C   UNL A   1      34.659  33.291  29.798  1.00  0.00     0.040 A 
ATOM     89  C   UNL A   1      35.874  33.920  29.496  1.00  0.00     0.026 A 
ATOM     90  C   UNL A   1      34.333  32.116  29.116  1.00  0.00     0.039 A 
ATOM     91  C   UNL A   1      36.769  33.366  28.579  1.00  0.00     0.003 A 
ATOM     92  C   UNL A   1      35.218  31.548  28.184  1.00  0.00     0.058 A 
ATOM     93  C   UNL A   1      36.443  32.183  27.926  1.00  0.00     0.013 A 
BRANCH  92  94
ATOM     94  C   UNL A   1      34.869  30.274  27.463  1.00  0.00     0.416 C 
ATOM     95  F   UNL A   1      35.967  29.551  27.111  1.00  0.00    -0.166 F 
ATOM     96  F   UNL A   1      34.105  29.439  28.225  1.00  0.00    -0.166 F 
ATOM     97  F   UNL A   1      34.166  30.467  26.311  1.00  0.00    -0.166 F 
ENDBRANCH  92  94
ENDBRANCH  86  88
ENDBRANCH  82  86
ENDBRANCH  78  80
ENDBRANCH  77  78
ENDBRANCH  76  77
ENDBRANCH  75  76
ENDBRANCH   1  75
TORSDOF 20
ENDMDL
MODEL 3
REMARK VINA RESULT:      -9.9      3.460      9.400
REMARK SMILES O=C(OCCOCCOC(=O)c1cccnc1Nc1cccc(C(F)(F)F)c1)c1ccc(-c2c3nc(c(-c4c(F)cc(S(=O)(=O)[O-])cc4F)c4ccc([nH]4)c(-c4c(F)cc(S(=O)(=O)[O-])cc4F)c4nc(c(-c5c(F)cc(S(=O)(=O)[O-])cc5F)c5ccc2[nH]5)C=C4)C=C3)cc1
REMARK SMILES IDX 6 1 5 2 4 3 3 4 2 5 1 6 29 7 30 8 94 9 31 10 93 11 32 12
REMARK SMILES IDX 33 13 34 14 87 15 35 16 92 17 86 18 88 19 36 20 91 21 85 22
REMARK SMILES IDX 84 23 37 25 71 26 50 27 70 28 51 29 54 30 69 31 89 32 52 33
REMARK SMILES IDX 53 34 68 36 90 37 55 38 38 39 39 40 48 41 40 42 41 43 47 44
REMARK SMILES IDX 49 45 42 46 43 47 44 48 45 49 46 50 72 51 73 52 82 53 74 54
REMARK SMILES IDX 75 55 81 56 83 57 76 58 77 59 78 60 79 61 80 62 56 63 57 64
REMARK SMILES IDX 66 65 58 66 59 67 65 68 67 69 60 70 61 71 62 72 63 73 64 74
REMARK SMILES IDX 7 75 8 76 9 77 10 78 11 79 12 80 13 81 17 82 14 83 16 84
REMARK SMILES IDX 15 85 18 86 19 88 20 89 28 90 21 91 23 92 22 93 24 94 25 95
REMARK SMILES IDX 26 96 27 97
REMARK H PARENT 88 24 54 35 18 87
REMARK Flexibility Score: inf
ROOT
ATOM      1  O   UNL A   1      32.665  30.002  26.891  1.00  0.00    -0.374 OA
ENDROOT
BRANCH   1   2
ATOM      2  C   UNL A   1      33.899  30.626  27.210  1.00  0.00     0.202 C 
BRANCH   2   3
ATOM      3  C   UNL A   1      34.925  29.707  27.869  1.00  0.00     0.261 C 
BRANCH   3   4
ATOM      4  O   UNL A   1      35.613  30.399  28.922  1.00  0.00    -0.460 OA
BRANCH   4   5
ATOM      5  C   UNL A   1      36.484  29.848  29.804  1.00  0.00     0.338 C 
ATOM      6  O   UNL A   1      36.094  29.552  30.931  1.00  0.00    -0.246 OA
BRANCH   5   7
ATOM      7  C   UNL A   1      37.898  29.552  29.441  1.00  0.00     0.060 A 
ATOM      8  C   UNL A   1      38.402  29.678  28.147  1.00  0.00     0.016 A 
ATOM      9  C   UNL A   1      38.790  29.217  30.467  1.00  0.00     0.016 A 
ATOM     10  C   UNL A   1      39.717  29.396  27.842  1.00  0.00     0.010 A 
ATOM     11  C   UNL A   1      40.144  29.006  30.184  1.00  0.00     0.010 A 
ATOM     12  C   UNL A   1      40.605  29.090  28.863  1.00  0.00    -0.014 A 
BRANCH  12  13
ATOM     13  C   UNL A   1      41.995  28.795  28.480  1.00  0.00     0.031 A 
ATOM     14  C   UNL A   1      42.316  27.424  27.984  1.00  0.00     0.074 A 
ATOM     15  C   UNL A   1      42.893  29.797  28.454  1.00  0.00     0.049 A 
ATOM     16  N   UNL A   1      43.472  26.910  27.675  1.00  0.00    -0.248 NA
ATOM     17  C   UNL A   1      41.176  26.509  27.804  1.00  0.00     0.031 C 
ATOM     18  C   UNL A   1      42.606  31.199  28.781  1.00  0.00     0.029 A 
ATOM     19  N   UNL A   1      44.214  29.807  28.101  1.00  0.00    -0.354 N 
ATOM     20  C   UNL A   1      43.209  25.593  27.322  1.00  0.00     0.074 A 
ATOM     21  C   UNL A   1      41.783  25.391  27.441  1.00  0.00     0.031 C 
ATOM     22  C   UNL A   1      43.707  31.936  28.573  1.00  0.00     0.029 A 
ATOM     23  C   UNL A   1      44.798  31.048  28.195  1.00  0.00     0.049 A 
ATOM     24  H   UNL A   1      44.700  29.002  27.807  1.00  0.00     0.167 HD
ATOM     25  C   UNL A   1      44.098  24.642  26.952  1.00  0.00     0.037 A 
ATOM     26  C   UNL A   1      46.085  31.409  28.033  1.00  0.00     0.037 A 
ATOM     27  C   UNL A   1      45.508  24.903  26.839  1.00  0.00     0.049 A 
ATOM     28  C   UNL A   1      47.067  30.320  27.701  1.00  0.00     0.074 A 
ATOM     29  C   UNL A   1      46.533  24.025  26.546  1.00  0.00     0.029 A 
ATOM     30  N   UNL A   1      46.087  26.156  27.015  1.00  0.00    -0.354 N 
ATOM     31  N   UNL A   1      46.836  29.046  27.476  1.00  0.00    -0.248 NA
ATOM     32  C   UNL A   1      48.479  30.701  27.627  1.00  0.00     0.031 C 
ATOM     33  C   UNL A   1      47.736  24.741  26.587  1.00  0.00     0.029 A 
ATOM     34  C   UNL A   1      47.456  26.075  26.851  1.00  0.00     0.049 A 
ATOM     35  H   UNL A   1      45.593  26.981  27.227  1.00  0.00     0.167 HD
ATOM     36  C   UNL A   1      48.072  28.473  27.216  1.00  0.00     0.074 A 
ATOM     37  C   UNL A   1      49.047  29.547  27.301  1.00  0.00     0.031 C 
ATOM     38  C   UNL A   1      48.381  27.182  26.936  1.00  0.00     0.037 A 
BRANCH  25  39
ATOM     39  C   UNL A   1      43.563  23.251  26.760  1.00  0.00     0.058 A 
ATOM     40  C   UNL A   1      43.261  22.404  27.840  1.00  0.00     0.135 A 
ATOM     41  C   UNL A   1      43.435  22.724  25.465  1.00  0.00     0.135 A 
ATOM     42  F   UNL A   1      43.398  22.843  29.102  1.00  0.00    -0.206 F 
ATOM     43  C   UNL A   1      42.905  21.073  27.643  1.00  0.00     0.059 A 
ATOM     44  C   UNL A   1      43.054  21.405  25.243  1.00  0.00     0.059 A 
ATOM     45  F   UNL A   1      43.721  23.484  24.395  1.00  0.00    -0.206 F 
ATOM     46  C   UNL A   1      42.818  20.579  26.341  1.00  0.00     0.060 A 
BRANCH  46  47
ATOM     47  S   UNL A   1      42.424  18.833  26.098  1.00  0.00     0.124 S 
ATOM     48  O   UNL A   1      41.045  18.909  25.626  1.00  0.00    -0.237 OA
ATOM     49  O   UNL A   1      43.412  18.425  25.104  1.00  0.00    -0.237 OA
ATOM     50  O   UNL A   1      42.602  18.256  27.427  1.00  0.00    -0.744 OA
ENDBRANCH  46  47
ENDBRANCH  25  39
BRANCH  26  51
ATOM     51  C   UNL A   1      46.501  32.824  28.229  1.00  0.00     0.058 A 
ATOM     52  C   UNL A   1      46.976  33.277  29.468  1.00  0.00     0.135 A 
ATOM     53  C   UNL A   1      46.467  33.749  27.172  1.00  0.00     0.135 A 
ATOM     54  F   UNL A   1      47.022  32.440  30.516  1.00  0.00    -0.206 F 
ATOM     55  C   UNL A   1      47.400  34.592  29.653  1.00  0.00     0.059 A 
ATOM     56  C   UNL A   1      46.911  35.060  27.324  1.00  0.00     0.059 A 
ATOM     57  F   UNL A   1      46.031  33.370  25.959  1.00  0.00    -0.206 F 
ATOM     58  C   UNL A   1      47.369  35.474  28.572  1.00  0.00     0.060 A 
BRANCH  58  59
ATOM     59  S   UNL A   1      47.974  37.161  28.806  1.00  0.00     0.124 S 
ATOM     60  O   UNL A   1      49.059  37.223  27.834  1.00  0.00    -0.237 OA
ATOM     61  O   UNL A   1      46.790  37.957  28.493  1.00  0.00    -0.237 OA
ATOM     62  O   UNL A   1      48.381  37.182  30.207  1.00  0.00    -0.744 OA
ENDBRANCH  58  59
ENDBRANCH  26  51
BRANCH  38  63
ATOM     63  C   UNL A   1      49.823  26.881  26.657  1.00  0.00     0.058 A 
ATOM     64  C   UNL A   1      50.715  26.531  27.680  1.00  0.00     0.135 A 
ATOM     65  C   UNL A   1      50.297  26.886  25.335  1.00  0.00     0.135 A 
ATOM     66  F   UNL A   1      50.308  26.523  28.960  1.00  0.00    -0.206 F 
ATOM     67  C   UNL A   1      52.038  26.211  27.404  1.00  0.00     0.059 A 
ATOM     68  C   UNL A   1      51.608  26.542  25.034  1.00  0.00     0.059 A 
ATOM     69  F   UNL A   1      49.475  27.206  24.323  1.00  0.00    -0.206 F 
ATOM     70  C   UNL A   1      52.473  26.215  26.077  1.00  0.00     0.060 A 
BRANCH  70  71
ATOM     71  S   UNL A   1      54.181  25.752  25.726  1.00  0.00     0.124 S 
ATOM     72  O   UNL A   1      54.473  24.846  26.832  1.00  0.00    -0.237 OA
ATOM     73  O   UNL A   1      54.072  25.132  24.409  1.00  0.00    -0.237 OA
ATOM     74  O   UNL A   1      54.891  27.028  25.753  1.00  0.00    -0.744 OA
ENDBRANCH  70  71
ENDBRANCH  38  63
ENDBRANCH  12  13
ENDBRANCH   5   7
ENDBRANCH   4   5
ENDBRANCH   3   4
ENDBRANCH   2   3
ENDBRANCH   1   2
BRANCH   1  75
ATOM     75  C   UNL A   1      32.413  28.738  27.490  1.00  0.00     0.202 C 
BRANCH  75  76
ATOM     76  C   UNL A   1      31.897  27.803  26.397  1.00  0.00     0.261 C 
BRANCH  76  77
ATOM     77  O   UNL A   1      32.929  26.850  26.081  1.00  0.00    -0.460 OA
BRANCH  77  78
ATOM     78  C   UNL A   1      33.619  27.058  24.927  1.00  0.00     0.341 C 
ATOM     79  O   UNL A   1      34.151  28.086  24.543  1.00  0.00    -0.246 OA
BRANCH  78  80
ATOM     80  C   UNL A   1      33.757  25.763  24.235  1.00  0.00     0.102 A 
ATOM     81  C   UNL A   1      34.649  24.809  24.747  1.00  0.00     0.021 A 
ATOM     82  C   UNL A   1      33.046  25.490  23.055  1.00  0.00     0.144 A 
ATOM     83  C   UNL A   1      34.835  23.617  24.067  1.00  0.00     0.021 A 
ATOM     84  N   UNL A   1      33.241  24.317  22.398  1.00  0.00    -0.238 NA
ATOM     85  C   UNL A   1      34.114  23.421  22.906  1.00  0.00     0.113 A 
BRANCH  82  86
ATOM     86  N   UNL A   1      32.241  26.466  22.433  1.00  0.00    -0.340 N 
ATOM     87  H   UNL A   1      32.603  26.877  21.615  1.00  0.00     0.168 HD
BRANCH  86  88
ATOM     88  C   UNL A   1      30.975  26.915  22.853  1.00  0.00     0.040 A 
ATOM     89  C   UNL A   1      30.122  26.069  23.574  1.00  0.00     0.026 A 
ATOM     90  C   UNL A   1      30.481  28.153  22.434  1.00  0.00     0.039 A 
ATOM     91  C   UNL A   1      28.827  26.465  23.917  1.00  0.00     0.003 A 
ATOM     92  C   UNL A   1      29.178  28.566  22.763  1.00  0.00     0.058 A 
ATOM     93  C   UNL A   1      28.358  27.710  23.515  1.00  0.00     0.013 A 
BRANCH  92  94
ATOM     94  C   UNL A   1      28.658  29.906  22.321  1.00  0.00     0.416 C 
ATOM     95  F   UNL A   1      29.654  30.793  22.047  1.00  0.00    -0.166 F 
ATOM     96  F   UNL A   1      27.913  29.824  21.181  1.00  0.00    -0.166 F 
ATOM     97  F   UNL A   1      27.857  30.518  23.240  1.00  0.00    -0.166 F 
ENDBRANCH  92  94
ENDBRANCH  86  88
ENDBRANCH  82  86
ENDBRANCH  78  80
ENDBRANCH  77  78
ENDBRANCH  76  77
ENDBRANCH  75  76
ENDBRANCH   1  75
TORSDOF 20
ENDMDL
