MODEL 1
REMARK VINA RESULT:     -12.0      0.000      0.000
REMARK SMILES O=C(OCCOCCOC(=O)c1ccc(-c2c3nc(c(-c4c(F)cc(S(=O)(=O)[O-])cc4F)c4ccc([nH]4)c(-c4c(F)cc(S(=O)(=O)[O-])cc4F)c4nc(c(-c5c(F)cc(S(=O)(=O)[O-])cc5F)c5ccc2[nH]5)C=C4)C=C3)cc1)C1=Cc2cc(Cl)cc(-c3ccc(O)cc3)c2O[C@@H]1C(F)(F)F
REMARK SMILES IDX 7 1 6 2 5 3 4 4 3 5 2 6 1 7 78 8 79 9 95 10 80 11 94 12
REMARK SMILES IDX 81 13 93 14 82 15 85 16 83 17 84 18 96 19 97 20 98 21 99 22
REMARK SMILES IDX 86 23 87 24 92 25 88 26 91 27 89 28 90 29 8 31 9 32 10 33
REMARK SMILES IDX 11 34 12 35 13 36 77 37 14 38 76 39 15 40 16 41 17 42 70 43
REMARK SMILES IDX 18 44 75 45 69 46 71 47 19 48 74 49 68 50 67 51 20 53 54 54
REMARK SMILES IDX 33 55 53 56 34 57 37 58 52 59 72 60 35 61 36 62 51 64 73 65
REMARK SMILES IDX 38 66 21 67 22 68 31 69 23 70 24 71 30 72 32 73 25 74 26 75
REMARK SMILES IDX 27 76 28 77 29 78 55 79 56 80 65 81 57 82 58 83 64 84 66 85
REMARK SMILES IDX 59 86 60 87 61 88 62 89 63 90 39 91 40 92 49 93 41 94 42 95
REMARK SMILES IDX 48 96 50 97 43 98 44 99 45 100 46 101 47 102
REMARK H PARENT 90 30 71 52 37 63
REMARK Flexibility Score: inf
ROOT
ATOM      1  C   UNL A   1      39.804  20.669  26.260  1.00  0.00     0.202 C 
ENDROOT
BRANCH   1   2
ATOM      2  O   UNL A   1      38.632  20.568  25.413  1.00  0.00    -0.374 OA
BRANCH   2   3
ATOM      3  C   UNL A   1      37.745  19.333  24.816  1.00  0.00     0.202 C 
BRANCH   3   4
ATOM      4  C   UNL A   1      35.604  18.955  24.908  1.00  0.00     0.261 C 
BRANCH   4   5
ATOM      5  O   UNL A   1      34.474  20.046  24.714  1.00  0.00    -0.460 OA
BRANCH   5   6
ATOM      6  C   UNL A   1      34.689  21.174  25.401  1.00  0.00     0.338 C 
ATOM      7  O   UNL A   1      35.008  21.371  26.545  1.00  0.00    -0.246 OA
BRANCH   6   8
ATOM      8  C   UNL A   1      34.143  22.025  24.381  1.00  0.00     0.087 C 
ATOM      9  C   UNL A   1      32.704  22.209  24.622  1.00  0.00     0.027 C 
ATOM     10  C   UNL A   1      35.469  23.435  24.445  1.00  0.00     0.316 C 
ATOM     11  C   UNL A   1      31.984  23.777  25.150  1.00  0.00     0.019 A 
ATOM     12  O   UNL A   1      34.696  25.124  25.040  1.00  0.00    -0.475 OA
ATOM     13  C   UNL A   1      30.660  23.701  25.495  1.00  0.00     0.032 A 
ATOM     14  C   UNL A   1      32.921  25.227  25.472  1.00  0.00     0.135 A 
ATOM     15  C   UNL A   1      30.161  24.831  26.123  1.00  0.00     0.042 A 
ATOM     16  C   UNL A   1      32.288  26.361  26.040  1.00  0.00     0.026 A 
ATOM     17  Cl  UNL A   1      28.501  24.797  26.619  1.00  0.00    -0.084 Cl
ATOM     18  C   UNL A   1      30.920  26.031  26.385  1.00  0.00     0.033 A 
BRANCH  10  19
ATOM     19  C   UNL A   1      36.274  22.962  23.142  1.00  0.00     0.430 C 
ATOM     20  F   UNL A   1      35.550  22.941  22.007  1.00  0.00    -0.167 F 
ATOM     21  F   UNL A   1      37.238  23.907  22.894  1.00  0.00    -0.167 F 
ATOM     22  F   UNL A   1      36.979  21.815  23.255  1.00  0.00    -0.167 F 
ENDBRANCH  10  19
BRANCH  16  23
ATOM     23  C   UNL A   1      32.660  27.890  26.394  1.00  0.00    -0.014 A 
ATOM     24  C   UNL A   1      34.425  27.913  26.826  1.00  0.00     0.012 A 
ATOM     25  C   UNL A   1      31.708  29.686  26.516  1.00  0.00     0.012 A 
ATOM     26  C   UNL A   1      35.185  29.442  27.308  1.00  0.00     0.047 A 
ATOM     27  C   UNL A   1      32.628  31.162  26.958  1.00  0.00     0.047 A 
ATOM     28  C   UNL A   1      34.312  30.982  27.355  1.00  0.00     0.115 A 
BRANCH  28  29
ATOM     29  O   UNL A   1      35.022  32.106  27.671  1.00  0.00    -0.508 OA
ATOM     30  H   UNL A   1      35.536  32.535  27.017  1.00  0.00     0.293 HD
ENDBRANCH  28  29
ENDBRANCH  16  23
ENDBRANCH   6   8
ENDBRANCH   5   6
ENDBRANCH   4   5
ENDBRANCH   3   4
ENDBRANCH   2   3
ENDBRANCH   1   2
BRANCH   1  31
ATOM     31  C   UNL A   1      40.058  22.003  26.964  1.00  0.00     0.261 C 
BRANCH  31  32
ATOM     32  O   UNL A   1      39.980  23.065  26.047  1.00  0.00    -0.460 OA
BRANCH  32  33
ATOM     33  C   UNL A   1      39.062  23.977  26.405  1.00  0.00     0.338 C 
ATOM     34  O   UNL A   1      37.902  24.067  26.059  1.00  0.00    -0.246 OA
BRANCH  33  35
ATOM     35  C   UNL A   1      39.780  24.863  27.307  1.00  0.00     0.060 A 
ATOM     36  C   UNL A   1      38.994  25.150  28.872  1.00  0.00     0.016 A 
ATOM     37  C   UNL A   1      41.098  25.848  26.654  1.00  0.00     0.016 A 
ATOM     38  C   UNL A   1      39.421  26.493  29.913  1.00  0.00     0.010 A 
ATOM     39  C   UNL A   1      41.619  27.273  27.615  1.00  0.00     0.010 A 
ATOM     40  C   UNL A   1      40.704  27.649  29.395  1.00  0.00    -0.014 A 
BRANCH  40  41
ATOM     41  C   UNL A   1      40.606  28.809  30.561  1.00  0.00     0.031 A 
ATOM     42  C   UNL A   1      41.517  28.785  31.805  1.00  0.00     0.074 A 
ATOM     43  C   UNL A   1      39.853  29.931  30.454  1.00  0.00     0.049 A 
ATOM     44  N   UNL A   1      41.374  29.376  32.975  1.00  0.00    -0.248 NA
ATOM     45  C   UNL A   1      42.740  27.978  31.730  1.00  0.00     0.031 C 
ATOM     46  C   UNL A   1      39.087  30.352  29.290  1.00  0.00     0.029 A 
ATOM     47  N   UNL A   1      39.566  30.915  31.386  1.00  0.00    -0.354 N 
ATOM     48  C   UNL A   1      42.413  28.912  33.788  1.00  0.00     0.074 A 
ATOM     49  C   UNL A   1      43.136  27.941  32.996  1.00  0.00     0.031 C 
ATOM     50  C   UNL A   1      38.307  31.396  29.607  1.00  0.00     0.029 A 
ATOM     51  C   UNL A   1      38.546  31.758  30.997  1.00  0.00     0.049 A 
ATOM     52  H   UNL A   1      40.044  31.003  32.243  1.00  0.00     0.167 HD
ATOM     53  C   UNL A   1      42.788  29.284  35.042  1.00  0.00     0.037 A 
ATOM     54  C   UNL A   1      37.852  32.707  31.659  1.00  0.00     0.037 A 
ATOM     55  C   UNL A   1      42.228  30.402  35.769  1.00  0.00     0.049 A 
ATOM     56  C   UNL A   1      38.253  33.110  33.049  1.00  0.00     0.074 A 
ATOM     57  C   UNL A   1      42.619  30.911  37.000  1.00  0.00     0.029 A 
ATOM     58  N   UNL A   1      41.212  31.225  35.313  1.00  0.00    -0.354 N 
ATOM     59  N   UNL A   1      39.177  32.596  33.823  1.00  0.00    -0.248 NA
ATOM     60  C   UNL A   1      37.557  34.267  33.633  1.00  0.00     0.031 C 
ATOM     61  C   UNL A   1      41.827  32.025  37.296  1.00  0.00     0.029 A 
ATOM     62  C   UNL A   1      40.971  32.238  36.231  1.00  0.00     0.049 A 
ATOM     63  H   UNL A   1      40.732  31.110  34.461  1.00  0.00     0.167 HD
ATOM     64  C   UNL A   1      39.209  33.401  34.958  1.00  0.00     0.074 A 
ATOM     65  C   UNL A   1      38.220  34.439  34.767  1.00  0.00     0.031 C 
ATOM     66  C   UNL A   1      40.002  33.290  36.052  1.00  0.00     0.037 A 
BRANCH  53  67
ATOM     67  C   UNL A   1      43.904  28.515  35.724  1.00  0.00     0.058 A 
ATOM     68  C   UNL A   1      45.257  28.861  35.575  1.00  0.00     0.135 A 
ATOM     69  C   UNL A   1      43.606  27.453  36.601  1.00  0.00     0.135 A 
ATOM     70  F   UNL A   1      45.612  29.868  34.763  1.00  0.00    -0.206 F 
ATOM     71  C   UNL A   1      46.271  28.151  36.215  1.00  0.00     0.059 A 
ATOM     72  C   UNL A   1      44.601  26.759  37.289  1.00  0.00     0.059 A 
ATOM     73  F   UNL A   1      42.332  27.088  36.812  1.00  0.00    -0.206 F 
ATOM     74  C   UNL A   1      45.934  27.101  37.070  1.00  0.00     0.060 A 
BRANCH  74  75
ATOM     75  S   UNL A   1      47.265  26.196  37.889  1.00  0.00     0.124 S 
ATOM     76  O   UNL A   1      47.633  25.229  36.858  1.00  0.00    -0.237 OA
ATOM     77  O   UNL A   1      48.243  27.247  38.148  1.00  0.00    -0.237 OA
ATOM     78  O   UNL A   1      46.620  25.637  39.072  1.00  0.00    -0.744 OA
ENDBRANCH  74  75
ENDBRANCH  53  67
BRANCH  54  79
ATOM     79  C   UNL A   1      36.700  33.377  30.992  1.00  0.00     0.058 A 
ATOM     80  C   UNL A   1      35.378  33.102  31.372  1.00  0.00     0.135 A 
ATOM     81  C   UNL A   1      36.902  34.301  29.954  1.00  0.00     0.135 A 
ATOM     82  F   UNL A   1      35.133  32.221  32.354  1.00  0.00    -0.206 F 
ATOM     83  C   UNL A   1      34.296  33.693  30.728  1.00  0.00     0.059 A 
ATOM     84  C   UNL A   1      35.837  34.926  29.312  1.00  0.00     0.059 A 
ATOM     85  F   UNL A   1      38.148  34.613  29.564  1.00  0.00    -0.206 F 
ATOM     86  C   UNL A   1      34.536  34.606  29.699  1.00  0.00     0.060 A 
BRANCH  86  87
ATOM     87  S   UNL A   1      33.120  35.395  28.902  1.00  0.00     0.124 S 
ATOM     88  O   UNL A   1      33.764  36.466  28.151  1.00  0.00    -0.237 OA
ATOM     89  O   UNL A   1      32.570  34.300  28.110  1.00  0.00    -0.237 OA
ATOM     90  O   UNL A   1      32.295  35.821  30.028  1.00  0.00    -0.744 OA
ENDBRANCH  86  87
ENDBRANCH  54  79
BRANCH  66  91
ATOM     91  C   UNL A   1      39.881  34.355  37.112  1.00  0.00     0.058 A 
ATOM     92  C   UNL A   1      39.063  34.191  38.242  1.00  0.00     0.135 A 
ATOM     93  C   UNL A   1      40.593  35.561  36.996  1.00  0.00     0.135 A 
ATOM     94  F   UNL A   1      38.355  33.062  38.405  1.00  0.00    -0.206 F 
ATOM     95  C   UNL A   1      38.918  35.200  39.191  1.00  0.00     0.059 A 
ATOM     96  C   UNL A   1      40.490  36.571  37.951  1.00  0.00     0.059 A 
ATOM     97  F   UNL A   1      41.401  35.773  35.945  1.00  0.00    -0.206 F 
ATOM     98  C   UNL A   1      39.632  36.389  39.034  1.00  0.00     0.060 A 
BRANCH  98  99
ATOM     99  S   UNL A   1      39.429  37.689  40.270  1.00  0.00     0.124 S 
ATOM    100  O   UNL A   1      38.449  38.557  39.626  1.00  0.00    -0.237 OA
ATOM    101  O   UNL A   1      38.950  36.945  41.431  1.00  0.00    -0.237 OA
ATOM    102  O   UNL A   1      40.771  38.248  40.402  1.00  0.00    -0.744 OA
ENDBRANCH  98  99
ENDBRANCH  66  91
ENDBRANCH  40  41
ENDBRANCH  33  35
ENDBRANCH  32  33
ENDBRANCH  31  32
ENDBRANCH   1  31
TORSDOF 20
ENDMDL
MODEL 2
REMARK VINA RESULT:     -11.5      5.507      6.955
REMARK SMILES O=C(OCCOCCOC(=O)c1ccc(-c2c3nc(c(-c4c(F)cc(S(=O)(=O)[O-])cc4F)c4ccc([nH]4)c(-c4c(F)cc(S(=O)(=O)[O-])cc4F)c4nc(c(-c5c(F)cc(S(=O)(=O)[O-])cc5F)c5ccc2[nH]5)C=C4)C=C3)cc1)C1=Cc2cc(Cl)cc(-c3ccc(O)cc3)c2O[C@@H]1C(F)(F)F
REMARK SMILES IDX 7 1 6 2 5 3 4 4 3 5 2 6 1 7 78 8 79 9 95 10 80 11 94 12
REMARK SMILES IDX 81 13 93 14 82 15 85 16 83 17 84 18 96 19 97 20 98 21 99 22
REMARK SMILES IDX 86 23 87 24 92 25 88 26 91 27 89 28 90 29 8 31 9 32 10 33
REMARK SMILES IDX 11 34 12 35 13 36 77 37 14 38 76 39 15 40 16 41 17 42 70 43
REMARK SMILES IDX 18 44 75 45 69 46 71 47 19 48 74 49 68 50 67 51 20 53 54 54
REMARK SMILES IDX 33 55 53 56 34 57 37 58 52 59 72 60 35 61 36 62 51 64 73 65
REMARK SMILES IDX 38 66 21 67 22 68 31 69 23 70 24 71 30 72 32 73 25 74 26 75
REMARK SMILES IDX 27 76 28 77 29 78 55 79 56 80 65 81 57 82 58 83 64 84 66 85
REMARK SMILES IDX 59 86 60 87 61 88 62 89 63 90 39 91 40 92 49 93 41 94 42 95
REMARK SMILES IDX 48 96 50 97 43 98 44 99 45 100 46 101 47 102
REMARK H PARENT 90 30 71 52 37 63
REMARK Flexibility Score: inf
ROOT
ATOM      1  C   UNL A   1      36.330  20.722  24.694  1.00  0.00     0.202 C 
ENDROOT
BRANCH   1   2
ATOM      2  O   UNL A   1      35.050  20.143  25.048  1.00  0.00    -0.374 OA
BRANCH   2   3
ATOM      3  C   UNL A   1      33.528  20.272  24.467  1.00  0.00     0.202 C 
BRANCH   3   4
ATOM      4  C   UNL A   1      31.781  21.276  25.290  1.00  0.00     0.261 C 
BRANCH   4   5
ATOM      5  O   UNL A   1      31.050  22.519  24.637  1.00  0.00    -0.460 OA
BRANCH   5   6
ATOM      6  C   UNL A   1      31.003  23.596  25.430  1.00  0.00     0.338 C 
ATOM      7  O   UNL A   1      30.282  23.887  26.350  1.00  0.00    -0.246 OA
BRANCH   6   8
ATOM      8  C   UNL A   1      31.911  24.361  24.624  1.00  0.00     0.087 C 
ATOM      9  C   UNL A   1      31.144  25.188  23.681  1.00  0.00     0.027 C 
ATOM     10  C   UNL A   1      33.041  25.048  26.039  1.00  0.00     0.316 C 
ATOM     11  C   UNL A   1      31.044  26.986  23.800  1.00  0.00     0.019 A 
ATOM     12  O   UNL A   1      32.913  26.989  26.185  1.00  0.00    -0.475 OA
ATOM     13  C   UNL A   1      30.139  27.557  22.944  1.00  0.00     0.032 A 
ATOM     14  C   UNL A   1      31.809  27.929  25.068  1.00  0.00     0.135 A 
ATOM     15  C   UNL A   1      29.880  28.897  23.187  1.00  0.00     0.042 A 
ATOM     16  C   UNL A   1      31.538  29.316  25.174  1.00  0.00     0.026 A 
ATOM     17  Cl  UNL A   1      28.721  29.681  22.166  1.00  0.00    -0.084 Cl
ATOM     18  C   UNL A   1      30.509  29.683  24.222  1.00  0.00     0.033 A 
BRANCH  10  19
ATOM     19  C   UNL A   1      34.242  24.013  25.807  1.00  0.00     0.430 C 
ATOM     20  F   UNL A   1      34.337  23.528  24.554  1.00  0.00    -0.167 F 
ATOM     21  F   UNL A   1      35.415  24.706  25.976  1.00  0.00    -0.167 F 
ATOM     22  F   UNL A   1      34.344  23.001  26.697  1.00  0.00    -0.167 F 
ENDBRANCH  10  19
BRANCH  16  23
ATOM     23  C   UNL A   1      32.054  30.576  26.038  1.00  0.00    -0.014 A 
ATOM     24  C   UNL A   1      33.653  30.098  26.758  1.00  0.00     0.012 A 
ATOM     25  C   UNL A   1      31.394  32.437  26.535  1.00  0.00     0.012 A 
ATOM     26  C   UNL A   1      34.512  31.240  27.809  1.00  0.00     0.047 A 
ATOM     27  C   UNL A   1      32.408  33.505  27.562  1.00  0.00     0.047 A 
ATOM     28  C   UNL A   1      33.905  32.863  28.172  1.00  0.00     0.115 A 
BRANCH  28  29
ATOM     29  O   UNL A   1      34.691  33.680  28.936  1.00  0.00    -0.508 OA
ATOM     30  H   UNL A   1      34.370  34.514  29.213  1.00  0.00     0.293 HD
ENDBRANCH  28  29
ENDBRANCH  16  23
ENDBRANCH   6   8
ENDBRANCH   5   6
ENDBRANCH   4   5
ENDBRANCH   3   4
ENDBRANCH   2   3
ENDBRANCH   1   2
BRANCH   1  31
ATOM     31  C   UNL A   1      37.045  21.566  25.752  1.00  0.00     0.261 C 
BRANCH  31  32
ATOM     32  O   UNL A   1      38.313  21.959  25.292  1.00  0.00    -0.460 OA
BRANCH  32  33
ATOM     33  C   UNL A   1      39.305  21.365  25.974  1.00  0.00     0.338 C 
ATOM     34  O   UNL A   1      39.719  20.227  25.883  1.00  0.00    -0.246 OA
BRANCH  33  35
ATOM     35  C   UNL A   1      39.776  22.399  26.880  1.00  0.00     0.060 A 
ATOM     36  C   UNL A   1      39.378  24.061  26.406  1.00  0.00     0.016 A 
ATOM     37  C   UNL A   1      40.988  21.971  28.098  1.00  0.00     0.016 A 
ATOM     38  C   UNL A   1      40.200  25.459  27.070  1.00  0.00     0.010 A 
ATOM     39  C   UNL A   1      41.921  23.312  28.843  1.00  0.00     0.010 A 
ATOM     40  C   UNL A   1      41.512  25.227  28.284  1.00  0.00    -0.014 A 
BRANCH  40  41
ATOM     41  C   UNL A   1      42.098  26.759  28.448  1.00  0.00     0.031 A 
ATOM     42  C   UNL A   1      43.557  27.109  28.092  1.00  0.00     0.074 A 
ATOM     43  C   UNL A   1      41.332  27.836  28.748  1.00  0.00     0.049 A 
ATOM     44  N   UNL A   1      44.300  28.133  28.463  1.00  0.00    -0.248 NA
ATOM     45  C   UNL A   1      44.281  26.179  27.217  1.00  0.00     0.031 C 
ATOM     46  C   UNL A   1      39.883  27.856  28.887  1.00  0.00     0.029 A 
ATOM     47  N   UNL A   1      41.691  29.140  29.047  1.00  0.00    -0.354 N 
ATOM     48  C   UNL A   1      45.586  27.895  27.969  1.00  0.00     0.074 A 
ATOM     49  C   UNL A   1      45.534  26.598  27.329  1.00  0.00     0.031 C 
ATOM     50  C   UNL A   1      39.488  29.037  29.386  1.00  0.00     0.029 A 
ATOM     51  C   UNL A   1      40.654  29.888  29.565  1.00  0.00     0.049 A 
ATOM     52  H   UNL A   1      42.598  29.498  28.904  1.00  0.00     0.167 HD
ATOM     53  C   UNL A   1      46.695  28.682  27.976  1.00  0.00     0.037 A 
ATOM     54  C   UNL A   1      40.616  31.109  30.139  1.00  0.00     0.037 A 
ATOM     55  C   UNL A   1      46.720  30.064  28.404  1.00  0.00     0.049 A 
ATOM     56  C   UNL A   1      41.843  31.976  30.162  1.00  0.00     0.074 A 
ATOM     57  C   UNL A   1      47.775  30.964  28.348  1.00  0.00     0.029 A 
ATOM     58  N   UNL A   1      45.634  30.767  28.901  1.00  0.00    -0.354 N 
ATOM     59  N   UNL A   1      43.061  31.693  29.770  1.00  0.00    -0.248 NA
ATOM     60  C   UNL A   1      41.674  33.354  30.648  1.00  0.00     0.031 C 
ATOM     61  C   UNL A   1      47.335  32.201  28.829  1.00  0.00     0.029 A 
ATOM     62  C   UNL A   1      45.993  32.086  29.145  1.00  0.00     0.049 A 
ATOM     63  H   UNL A   1      44.739  30.387  29.055  1.00  0.00     0.167 HD
ATOM     64  C   UNL A   1      43.786  32.873  29.911  1.00  0.00     0.074 A 
ATOM     65  C   UNL A   1      42.871  33.872  30.415  1.00  0.00     0.031 C 
ATOM     66  C   UNL A   1      45.093  33.100  29.632  1.00  0.00     0.037 A 
BRANCH  53  67
ATOM     67  C   UNL A   1      47.999  28.106  27.456  1.00  0.00     0.058 A 
ATOM     68  C   UNL A   1      48.307  28.056  26.086  1.00  0.00     0.135 A 
ATOM     69  C   UNL A   1      48.989  27.657  28.353  1.00  0.00     0.135 A 
ATOM     70  F   UNL A   1      47.415  28.475  25.176  1.00  0.00    -0.206 F 
ATOM     71  C   UNL A   1      49.512  27.531  25.623  1.00  0.00     0.059 A 
ATOM     72  C   UNL A   1      50.220  27.172  27.914  1.00  0.00     0.059 A 
ATOM     73  F   UNL A   1      48.772  27.702  29.677  1.00  0.00    -0.206 F 
ATOM     74  C   UNL A   1      50.463  27.091  26.544  1.00  0.00     0.060 A 
BRANCH  74  75
ATOM     75  S   UNL A   1      52.017  26.415  25.922  1.00  0.00     0.124 S 
ATOM     76  O   UNL A   1      52.994  27.180  26.691  1.00  0.00    -0.237 OA
ATOM     77  O   UNL A   1      51.904  25.003  26.270  1.00  0.00    -0.237 OA
ATOM     78  O   UNL A   1      51.971  26.712  24.494  1.00  0.00    -0.744 OA
ENDBRANCH  74  75
ENDBRANCH  53  67
BRANCH  54  79
ATOM     79  C   UNL A   1      39.340  31.608  30.726  1.00  0.00     0.058 A 
ATOM     80  C   UNL A   1      38.909  31.191  31.993  1.00  0.00     0.135 A 
ATOM     81  C   UNL A   1      38.523  32.507  30.021  1.00  0.00     0.135 A 
ATOM     82  F   UNL A   1      39.653  30.328  32.702  1.00  0.00    -0.206 F 
ATOM     83  C   UNL A   1      37.701  31.621  32.531  1.00  0.00     0.059 A 
ATOM     84  C   UNL A   1      37.322  32.972  30.549  1.00  0.00     0.059 A 
ATOM     85  F   UNL A   1      38.897  32.951  28.811  1.00  0.00    -0.206 F 
ATOM     86  C   UNL A   1      36.915  32.514  31.800  1.00  0.00     0.060 A 
BRANCH  86  87
ATOM     87  S   UNL A   1      35.368  33.094  32.532  1.00  0.00     0.124 S 
ATOM     88  O   UNL A   1      35.534  32.700  33.926  1.00  0.00    -0.237 OA
ATOM     89  O   UNL A   1      35.424  34.527  32.262  1.00  0.00    -0.237 OA
ATOM     90  O   UNL A   1      34.348  32.363  31.786  1.00  0.00    -0.744 OA
ENDBRANCH  86  87
ENDBRANCH  54  79
BRANCH  66  91
ATOM     91  C   UNL A   1      45.608  34.506  29.806  1.00  0.00     0.058 A 
ATOM     92  C   UNL A   1      45.564  35.449  28.765  1.00  0.00     0.135 A 
ATOM     93  C   UNL A   1      46.156  34.919  31.032  1.00  0.00     0.135 A 
ATOM     94  F   UNL A   1      45.055  35.111  27.570  1.00  0.00    -0.206 F 
ATOM     95  C   UNL A   1      46.087  36.731  28.918  1.00  0.00     0.059 A 
ATOM     96  C   UNL A   1      46.654  36.207  31.219  1.00  0.00     0.059 A 
ATOM     97  F   UNL A   1      46.215  34.068  32.069  1.00  0.00    -0.206 F 
ATOM     98  C   UNL A   1      46.634  37.099  30.148  1.00  0.00     0.060 A 
BRANCH  98  99
ATOM     99  S   UNL A   1      47.314  38.762  30.328  1.00  0.00     0.124 S 
ATOM    100  O   UNL A   1      48.261  38.577  31.424  1.00  0.00    -0.237 OA
ATOM    101  O   UNL A   1      47.903  39.003  29.015  1.00  0.00    -0.237 OA
ATOM    102  O   UNL A   1      46.144  39.577  30.643  1.00  0.00    -0.744 OA
ENDBRANCH  98  99
ENDBRANCH  66  91
ENDBRANCH  40  41
ENDBRANCH  33  35
ENDBRANCH  32  33
ENDBRANCH  31  32
ENDBRANCH   1  31
TORSDOF 20
ENDMDL
MODEL 3
REMARK VINA RESULT:     -11.4      4.730     11.332
REMARK SMILES O=C(OCCOCCOC(=O)c1ccc(-c2c3nc(c(-c4c(F)cc(S(=O)(=O)[O-])cc4F)c4ccc([nH]4)c(-c4c(F)cc(S(=O)(=O)[O-])cc4F)c4nc(c(-c5c(F)cc(S(=O)(=O)[O-])cc5F)c5ccc2[nH]5)C=C4)C=C3)cc1)C1=Cc2cc(Cl)cc(-c3ccc(O)cc3)c2O[C@@H]1C(F)(F)F
REMARK SMILES IDX 7 1 6 2 5 3 4 4 3 5 2 6 1 7 78 8 79 9 95 10 80 11 94 12
REMARK SMILES IDX 81 13 93 14 82 15 85 16 83 17 84 18 96 19 97 20 98 21 99 22
REMARK SMILES IDX 86 23 87 24 92 25 88 26 91 27 89 28 90 29 8 31 9 32 10 33
REMARK SMILES IDX 11 34 12 35 13 36 77 37 14 38 76 39 15 40 16 41 17 42 70 43
REMARK SMILES IDX 18 44 75 45 69 46 71 47 19 48 74 49 68 50 67 51 20 53 54 54
REMARK SMILES IDX 33 55 53 56 34 57 37 58 52 59 72 60 35 61 36 62 51 64 73 65
REMARK SMILES IDX 38 66 21 67 22 68 31 69 23 70 24 71 30 72 32 73 25 74 26 75
REMARK SMILES IDX 27 76 28 77 29 78 55 79 56 80 65 81 57 82 58 83 64 84 66 85
REMARK SMILES IDX 59 86 60 87 61 88 62 89 63 90 39 91 40 92 49 93 41 94 42 95
REMARK SMILES IDX 48 96 50 97 43 98 44 99 45 100 46 101 47 102
REMARK H PARENT 90 30 71 52 37 63
REMARK Flexibility Score: inf
ROOT
ATOM      1  C   UNL A   1      49.499  24.419  38.670  1.00  0.00     0.202 C 
ENDROOT
BRANCH   1   2
ATOM      2  O   UNL A   1      50.282  24.188  37.473  1.00  0.00    -0.374 OA
BRANCH   2   3
ATOM      3  C   UNL A   1      50.128  23.221  36.165  1.00  0.00     0.202 C 
BRANCH   3   4
ATOM      4  C   UNL A   1      49.127  23.562  34.263  1.00  0.00     0.261 C 
BRANCH   4   5
ATOM      5  O   UNL A   1      47.769  24.354  34.074  1.00  0.00    -0.460 OA
BRANCH   5   6
ATOM      6  C   UNL A   1      46.741  23.833  34.754  1.00  0.00     0.338 C 
ATOM      7  O   UNL A   1      46.607  22.786  35.333  1.00  0.00    -0.246 OA
BRANCH   6   8
ATOM      8  C   UNL A   1      45.806  24.829  34.312  1.00  0.00     0.087 C 
ATOM      9  C   UNL A   1      46.542  25.984  33.778  1.00  0.00     0.027 C 
ATOM     10  C   UNL A   1      44.636  23.682  33.278  1.00  0.00     0.316 C 
ATOM     11  C   UNL A   1      46.562  26.418  32.027  1.00  0.00     0.019 A 
ATOM     12  O   UNL A   1      44.677  24.135  31.381  1.00  0.00    -0.475 OA
ATOM     13  C   UNL A   1      47.447  27.413  31.703  1.00  0.00     0.032 A 
ATOM     14  C   UNL A   1      45.747  25.492  30.777  1.00  0.00     0.135 A 
ATOM     15  C   UNL A   1      47.645  27.590  30.343  1.00  0.00     0.042 A 
ATOM     16  C   UNL A   1      45.955  25.816  29.413  1.00  0.00     0.026 A 
ATOM     17  Cl  UNL A   1      48.776  28.810  29.857  1.00  0.00    -0.084 Cl
ATOM     18  C   UNL A   1      46.974  26.841  29.308  1.00  0.00     0.033 A 
BRANCH  10  19
ATOM     19  C   UNL A   1      43.483  23.581  34.387  1.00  0.00     0.430 C 
ATOM     20  F   UNL A   1      43.911  23.242  35.618  1.00  0.00    -0.167 F 
ATOM     21  F   UNL A   1      42.970  24.842  34.557  1.00  0.00    -0.167 F 
ATOM     22  F   UNL A   1      42.400  22.841  34.061  1.00  0.00    -0.167 F 
ENDBRANCH  10  19
BRANCH  16  23
ATOM     23  C   UNL A   1      45.378  25.373  27.974  1.00  0.00    -0.014 A 
ATOM     24  C   UNL A   1      45.565  23.568  27.867  1.00  0.00     0.012 A 
ATOM     25  C   UNL A   1      44.580  26.267  26.328  1.00  0.00     0.012 A 
ATOM     26  C   UNL A   1      45.059  22.725  26.390  1.00  0.00     0.047 A 
ATOM     27  C   UNL A   1      44.055  25.271  24.930  1.00  0.00     0.047 A 
ATOM     28  C   UNL A   1      44.332  23.555  25.005  1.00  0.00     0.115 A 
BRANCH  28  29
ATOM     29  O   UNL A   1      43.914  22.789  23.953  1.00  0.00    -0.508 OA
ATOM     30  H   UNL A   1      43.790  23.178  23.110  1.00  0.00     0.293 HD
ENDBRANCH  28  29
ENDBRANCH  16  23
ENDBRANCH   6   8
ENDBRANCH   5   6
ENDBRANCH   4   5
ENDBRANCH   3   4
ENDBRANCH   2   3
ENDBRANCH   1   2
BRANCH   1  31
ATOM     31  C   UNL A   1      48.151  23.705  38.786  1.00  0.00     0.261 C 
BRANCH  31  32
ATOM     32  O   UNL A   1      47.130  24.626  39.076  1.00  0.00    -0.460 OA
BRANCH  32  33
ATOM     33  C   UNL A   1      45.992  24.342  38.423  1.00  0.00     0.338 C 
ATOM     34  O   UNL A   1      45.493  23.259  38.195  1.00  0.00    -0.246 OA
BRANCH  33  35
ATOM     35  C   UNL A   1      45.483  25.643  38.022  1.00  0.00     0.060 A 
ATOM     36  C   UNL A   1      43.722  25.747  37.845  1.00  0.00     0.016 A 
ATOM     37  C   UNL A   1      46.624  26.839  37.385  1.00  0.00     0.016 A 
ATOM     38  C   UNL A   1      42.932  27.037  36.960  1.00  0.00     0.010 A 
ATOM     39  C   UNL A   1      45.946  28.204  36.437  1.00  0.00     0.010 A 
ATOM     40  C   UNL A   1      43.929  28.323  36.183  1.00  0.00    -0.014 A 
BRANCH  40  41
ATOM     41  C   UNL A   1      42.795  29.160  35.329  1.00  0.00     0.031 A 
ATOM     42  C   UNL A   1      42.111  30.416  35.908  1.00  0.00     0.074 A 
ATOM     43  C   UNL A   1      42.492  28.919  34.031  1.00  0.00     0.049 A 
ATOM     44  N   UNL A   1      40.981  31.001  35.566  1.00  0.00    -0.248 NA
ATOM     45  C   UNL A   1      42.777  31.092  37.026  1.00  0.00     0.031 C 
ATOM     46  C   UNL A   1      43.153  27.967  33.150  1.00  0.00     0.029 A 
ATOM     47  N   UNL A   1      41.487  29.437  33.229  1.00  0.00    -0.354 N 
ATOM     48  C   UNL A   1      40.759  32.019  36.499  1.00  0.00     0.074 A 
ATOM     49  C   UNL A   1      41.839  31.925  37.456  1.00  0.00     0.031 C 
ATOM     50  C   UNL A   1      42.464  27.848  32.005  1.00  0.00     0.029 A 
ATOM     51  C   UNL A   1      41.324  28.752  32.043  1.00  0.00     0.049 A 
ATOM     52  H   UNL A   1      40.942  30.218  33.483  1.00  0.00     0.167 HD
ATOM     53  C   UNL A   1      39.801  32.985  36.542  1.00  0.00     0.037 A 
ATOM     54  C   UNL A   1      40.374  28.809  31.087  1.00  0.00     0.037 A 
ATOM     55  C   UNL A   1      38.846  33.243  35.487  1.00  0.00     0.049 A 
ATOM     56  C   UNL A   1      39.306  29.864  31.139  1.00  0.00     0.074 A 
ATOM     57  C   UNL A   1      37.911  34.265  35.404  1.00  0.00     0.029 A 
ATOM     58  N   UNL A   1      38.746  32.527  34.305  1.00  0.00    -0.354 N 
ATOM     59  N   UNL A   1      39.068  30.752  32.073  1.00  0.00    -0.248 NA
ATOM     60  C   UNL A   1      38.415  29.966  29.973  1.00  0.00     0.031 C 
ATOM     61  C   UNL A   1      37.232  34.154  34.186  1.00  0.00     0.029 A 
ATOM     62  C   UNL A   1      37.774  33.089  33.489  1.00  0.00     0.049 A 
ATOM     63  H   UNL A   1      39.287  31.736  34.077  1.00  0.00     0.167 HD
ATOM     64  C   UNL A   1      38.039  31.549  31.582  1.00  0.00     0.074 A 
ATOM     65  C   UNL A   1      37.706  31.046  30.268  1.00  0.00     0.031 C 
ATOM     66  C   UNL A   1      37.438  32.613  32.171  1.00  0.00     0.037 A 
BRANCH  53  67
ATOM     67  C   UNL A   1      39.744  33.897  37.753  1.00  0.00     0.058 A 
ATOM     68  C   UNL A   1      40.365  35.157  37.777  1.00  0.00     0.135 A 
ATOM     69  C   UNL A   1      38.994  33.530  38.888  1.00  0.00     0.135 A 
ATOM     70  F   UNL A   1      41.087  35.575  36.727  1.00  0.00    -0.206 F 
ATOM     71  C   UNL A   1      40.297  35.988  38.893  1.00  0.00     0.059 A 
ATOM     72  C   UNL A   1      38.873  34.367  39.998  1.00  0.00     0.059 A 
ATOM     73  F   UNL A   1      38.352  32.352  38.922  1.00  0.00    -0.206 F 
ATOM     74  C   UNL A   1      39.549  35.584  39.999  1.00  0.00     0.060 A 
BRANCH  74  75
ATOM     75  S   UNL A   1      39.475  36.678  41.435  1.00  0.00     0.124 S 
ATOM     76  O   UNL A   1      38.950  37.903  40.838  1.00  0.00    -0.237 OA
ATOM     77  O   UNL A   1      38.563  35.965  42.322  1.00  0.00    -0.237 OA
ATOM     78  O   UNL A   1      40.861  36.744  41.885  1.00  0.00    -0.744 OA
ENDBRANCH  74  75
ENDBRANCH  53  67
BRANCH  54  79
ATOM     79  C   UNL A   1      40.405  27.836  29.958  1.00  0.00     0.058 A 
ATOM     80  C   UNL A   1      41.356  27.939  28.933  1.00  0.00     0.135 A 
ATOM     81  C   UNL A   1      39.473  26.787  29.881  1.00  0.00     0.135 A 
ATOM     82  F   UNL A   1      42.262  28.929  28.959  1.00  0.00    -0.206 F 
ATOM     83  C   UNL A   1      41.367  27.059  27.857  1.00  0.00     0.059 A 
ATOM     84  C   UNL A   1      39.480  25.878  28.828  1.00  0.00     0.059 A 
ATOM     85  F   UNL A   1      38.552  26.634  30.846  1.00  0.00    -0.206 F 
ATOM     86  C   UNL A   1      40.424  26.030  27.814  1.00  0.00     0.060 A 
BRANCH  86  87
ATOM     87  S   UNL A   1      40.479  24.871  26.429  1.00  0.00     0.124 S 
ATOM     88  O   UNL A   1      39.106  24.381  26.400  1.00  0.00    -0.237 OA
ATOM     89  O   UNL A   1      40.871  25.740  25.323  1.00  0.00    -0.237 OA
ATOM     90  O   UNL A   1      41.488  23.901  26.842  1.00  0.00    -0.744 OA
ENDBRANCH  86  87
ENDBRANCH  54  79
BRANCH  66  91
ATOM     91  C   UNL A   1      36.393  33.351  31.375  1.00  0.00     0.058 A 
ATOM     92  C   UNL A   1      35.024  33.260  31.678  1.00  0.00     0.135 A 
ATOM     93  C   UNL A   1      36.764  34.163  30.290  1.00  0.00     0.135 A 
ATOM     94  F   UNL A   1      34.609  32.496  32.701  1.00  0.00    -0.206 F 
ATOM     95  C   UNL A   1      34.061  33.906  30.907  1.00  0.00     0.059 A 
ATOM     96  C   UNL A   1      35.820  34.847  29.525  1.00  0.00     0.059 A 
ATOM     97  F   UNL A   1      38.057  34.301  29.958  1.00  0.00    -0.206 F 
ATOM     98  C   UNL A   1      34.469  34.694  29.829  1.00  0.00     0.060 A 
BRANCH  98  99
ATOM     99  S   UNL A   1      33.207  35.520  28.836  1.00  0.00     0.124 S 
ATOM    100  O   UNL A   1      32.569  34.389  28.170  1.00  0.00    -0.237 OA
ATOM    101  O   UNL A   1      32.402  36.194  29.850  1.00  0.00    -0.237 OA
ATOM    102  O   UNL A   1      33.980  36.403  27.968  1.00  0.00    -0.744 OA
ENDBRANCH  98  99
ENDBRANCH  66  91
ENDBRANCH  40  41
ENDBRANCH  33  35
ENDBRANCH  32  33
ENDBRANCH  31  32
ENDBRANCH   1  31
TORSDOF 20
ENDMDL
