MODEL 1
REMARK VINA RESULT:     -10.8      0.000      0.000
REMARK SMILES C[N@@H+]([C@@H]1CCOC2(CCCC2)C1)C(C)(C)C(=O)OCCOCCOC(=O)c1ccc(-c2c3nc(c(-c4c(F)cc(S(=O)(=O)[O-])cc4F)c4ccc([nH]4)c(-c4c(F)cc(S(=O)(=O)[O-])cc4F)c4nc(c(-c5c(F)cc(S(=O)(=O)[O-])cc5F)c5ccc2[nH]5)C=C4)C=C3)cc1
REMARK SMILES IDX 22 1 21 2 20 3 19 4 18 5 16 6 17 7 13 8 14 9 15 10 2 11 1 12
REMARK SMILES IDX 3 14 4 15 12 16 5 17 7 18 6 19 8 20 11 21 9 22 10 23 23 24
REMARK SMILES IDX 24 25 25 26 26 27 27 28 28 29 92 30 29 31 91 32 30 33 31 34
REMARK SMILES IDX 32 35 85 36 33 37 90 38 84 39 86 40 34 41 89 42 83 43 82 44
REMARK SMILES IDX 35 46 69 47 48 48 68 49 49 50 52 51 67 52 87 53 50 54 51 55
REMARK SMILES IDX 66 57 88 58 53 59 36 60 37 61 46 62 38 63 39 64 45 65 47 66
REMARK SMILES IDX 40 67 41 68 42 69 43 70 44 71 70 72 71 73 80 74 72 75 73 76
REMARK SMILES IDX 79 77 81 78 74 79 75 80 76 81 77 82 78 83 54 84 55 85 64 86
REMARK SMILES IDX 56 87 57 88 63 89 65 90 58 91 59 92 60 93 61 94 62 95
REMARK H PARENT 2 13 86 45 52 56
REMARK Flexibility Score: inf
ROOT
ATOM      1  C   UNL A   1      39.345  21.859  26.137  1.00  0.00     0.202 C 
ENDROOT
BRANCH   1   2
ATOM      2  O   UNL A   1      38.197  22.380  25.462  1.00  0.00    -0.374 OA
BRANCH   2   3
ATOM      3  C   UNL A   1      37.435  21.412  24.734  1.00  0.00     0.202 C 
BRANCH   3   4
ATOM      4  C   UNL A   1      35.945  21.260  25.089  1.00  0.00     0.261 C 
BRANCH   4   5
ATOM      5  O   UNL A   1      35.107  22.326  24.598  1.00  0.00    -0.459 OA
BRANCH   5   6
ATOM      6  C   UNL A   1      33.774  22.022  24.611  1.00  0.00     0.367 C 
ATOM      7  O   UNL A   1      33.374  20.969  24.140  1.00  0.00    -0.245 OA
BRANCH   6   8
ATOM      8  C   UNL A   1      32.911  23.071  25.379  1.00  0.00     0.190 C 
ATOM      9  C   UNL A   1      33.739  23.635  26.549  1.00  0.00     0.092 C 
ATOM     10  C   UNL A   1      31.743  22.231  25.983  1.00  0.00     0.092 C 
BRANCH   8  11
ATOM     11  N   UNL A   1      32.325  24.169  24.471  1.00  0.00    -0.321 N 
ATOM     12  C   UNL A   1      32.449  23.808  23.051  1.00  0.00     0.333 C 
ATOM     13  H   UNL A   1      32.915  24.973  24.687  1.00  0.00     0.349 HD
BRANCH  11  14
ATOM     14  C   UNL A   1      30.950  24.697  24.793  1.00  0.00     0.189 C 
ATOM     15  C   UNL A   1      30.188  25.424  23.639  1.00  0.00     0.093 C 
ATOM     16  C   UNL A   1      30.852  25.754  25.914  1.00  0.00     0.100 C 
ATOM     17  C   UNL A   1      30.690  26.848  23.357  1.00  0.00     0.167 C 
ATOM     18  C   UNL A   1      31.589  27.067  25.582  1.00  0.00     0.074 C 
ATOM     19  O   UNL A   1      30.815  27.675  24.524  1.00  0.00    -0.375 OA
ATOM     20  C   UNL A   1      31.582  28.004  26.819  1.00  0.00     0.036 C 
ATOM     21  C   UNL A   1      33.073  27.019  25.153  1.00  0.00     0.036 C 
ATOM     22  C   UNL A   1      33.047  28.251  27.178  1.00  0.00     0.003 C 
ATOM     23  C   UNL A   1      33.751  28.195  25.842  1.00  0.00     0.003 C 
ENDBRANCH  11  14
ENDBRANCH   8  11
ENDBRANCH   6   8
ENDBRANCH   5   6
ENDBRANCH   4   5
ENDBRANCH   3   4
ENDBRANCH   2   3
ENDBRANCH   1   2
BRANCH   1  24
ATOM     24  C   UNL A   1      40.063  22.894  26.998  1.00  0.00     0.261 C 
BRANCH  24  25
ATOM     25  O   UNL A   1      39.495  24.171  26.704  1.00  0.00    -0.460 OA
BRANCH  25  26
ATOM     26  C   UNL A   1      40.433  25.109  26.418  1.00  0.00     0.338 C 
ATOM     27  O   UNL A   1      40.987  25.288  25.357  1.00  0.00    -0.246 OA
BRANCH  26  28
ATOM     28  C   UNL A   1      40.483  26.047  27.563  1.00  0.00     0.060 A 
ATOM     29  C   UNL A   1      39.469  25.937  28.523  1.00  0.00     0.016 A 
ATOM     30  C   UNL A   1      41.545  26.942  27.747  1.00  0.00     0.016 A 
ATOM     31  C   UNL A   1      39.494  26.746  29.655  1.00  0.00     0.010 A 
ATOM     32  C   UNL A   1      41.565  27.758  28.875  1.00  0.00     0.010 A 
ATOM     33  C   UNL A   1      40.522  27.683  29.812  1.00  0.00    -0.014 A 
BRANCH  33  34
ATOM     34  C   UNL A   1      40.393  28.744  30.827  1.00  0.00     0.031 A 
ATOM     35  C   UNL A   1      41.279  28.654  32.037  1.00  0.00     0.074 A 
ATOM     36  C   UNL A   1      39.512  29.747  30.677  1.00  0.00     0.049 A 
ATOM     37  N   UNL A   1      41.310  29.410  33.099  1.00  0.00    -0.248 NA
ATOM     38  C   UNL A   1      42.260  27.554  32.045  1.00  0.00     0.031 C 
ATOM     39  C   UNL A   1      38.643  29.943  29.518  1.00  0.00     0.029 A 
ATOM     40  N   UNL A   1      39.198  30.784  31.516  1.00  0.00    -0.354 N 
ATOM     41  C   UNL A   1      42.313  28.882  33.902  1.00  0.00     0.074 A 
ATOM     42  C   UNL A   1      42.842  27.720  33.222  1.00  0.00     0.031 C 
ATOM     43  C   UNL A   1      37.882  31.033  29.726  1.00  0.00     0.029 A 
ATOM     44  C   UNL A   1      38.187  31.585  31.045  1.00  0.00     0.049 A 
ATOM     45  H   UNL A   1      39.654  30.939  32.375  1.00  0.00     0.167 HD
ATOM     46  C   UNL A   1      42.758  29.332  35.097  1.00  0.00     0.037 A 
ATOM     47  C   UNL A   1      37.569  32.629  31.632  1.00  0.00     0.037 A 
ATOM     48  C   UNL A   1      42.203  30.473  35.769  1.00  0.00     0.049 A 
ATOM     49  C   UNL A   1      38.008  33.050  33.012  1.00  0.00     0.074 A 
ATOM     50  C   UNL A   1      42.567  31.021  36.984  1.00  0.00     0.029 A 
ATOM     51  N   UNL A   1      41.147  31.234  35.283  1.00  0.00    -0.354 N 
ATOM     52  N   UNL A   1      38.971  32.556  33.757  1.00  0.00    -0.248 NA
ATOM     53  C   UNL A   1      37.273  34.158  33.635  1.00  0.00     0.031 C 
ATOM     54  C   UNL A   1      41.699  32.083  37.256  1.00  0.00     0.029 A 
ATOM     55  C   UNL A   1      40.825  32.229  36.188  1.00  0.00     0.049 A 
ATOM     56  H   UNL A   1      40.694  31.087  34.422  1.00  0.00     0.167 HD
ATOM     57  C   UNL A   1      38.972  33.309  34.927  1.00  0.00     0.074 A 
ATOM     58  C   UNL A   1      37.918  34.295  34.787  1.00  0.00     0.031 C 
ATOM     59  C   UNL A   1      39.770  33.199  36.018  1.00  0.00     0.037 A 
BRANCH  46  60
ATOM     60  C   UNL A   1      43.869  28.561  35.750  1.00  0.00     0.058 A 
ATOM     61  C   UNL A   1      43.609  27.513  36.648  1.00  0.00     0.135 A 
ATOM     62  C   UNL A   1      45.210  28.886  35.494  1.00  0.00     0.135 A 
ATOM     63  F   UNL A   1      42.344  27.177  36.949  1.00  0.00    -0.206 F 
ATOM     64  C   UNL A   1      44.639  26.837  37.295  1.00  0.00     0.059 A 
ATOM     65  C   UNL A   1      46.257  28.206  36.108  1.00  0.00     0.059 A 
ATOM     66  F   UNL A   1      45.514  29.887  34.652  1.00  0.00    -0.206 F 
ATOM     67  C   UNL A   1      45.961  27.196  37.022  1.00  0.00     0.060 A 
BRANCH  67  68
ATOM     68  S   UNL A   1      47.286  26.324  37.884  1.00  0.00     0.124 S 
ATOM     69  O   UNL A   1      47.242  26.957  39.199  1.00  0.00    -0.237 OA
ATOM     70  O   UNL A   1      46.834  24.938  37.832  1.00  0.00    -0.237 OA
ATOM     71  O   UNL A   1      48.468  26.625  37.082  1.00  0.00    -0.744 OA
ENDBRANCH  67  68
ENDBRANCH  46  60
BRANCH  47  72
ATOM     72  C   UNL A   1      36.466  33.334  30.927  1.00  0.00     0.058 A 
ATOM     73  C   UNL A   1      35.127  33.120  31.283  1.00  0.00     0.135 A 
ATOM     74  C   UNL A   1      36.728  34.249  29.894  1.00  0.00     0.135 A 
ATOM     75  F   UNL A   1      34.824  32.245  32.255  1.00  0.00    -0.206 F 
ATOM     76  C   UNL A   1      34.085  33.782  30.641  1.00  0.00     0.059 A 
ATOM     77  C   UNL A   1      35.706  34.941  29.252  1.00  0.00     0.059 A 
ATOM     78  F   UNL A   1      37.993  34.497  29.519  1.00  0.00    -0.206 F 
ATOM     79  C   UNL A   1      34.386  34.697  29.630  1.00  0.00     0.060 A 
BRANCH  79  80
ATOM     80  S   UNL A   1      33.031  35.601  28.848  1.00  0.00     0.124 S 
ATOM     81  O   UNL A   1      32.342  34.536  28.129  1.00  0.00    -0.237 OA
ATOM     82  O   UNL A   1      32.327  36.153  30.002  1.00  0.00    -0.237 OA
ATOM     83  O   UNL A   1      33.719  36.583  28.016  1.00  0.00    -0.744 OA
ENDBRANCH  79  80
ENDBRANCH  47  72
BRANCH  59  84
ATOM     84  C   UNL A   1      39.553  34.175  37.140  1.00  0.00     0.058 A 
ATOM     85  C   UNL A   1      38.883  33.803  38.315  1.00  0.00     0.135 A 
ATOM     86  C   UNL A   1      40.100  35.466  37.073  1.00  0.00     0.135 A 
ATOM     87  F   UNL A   1      38.336  32.583  38.424  1.00  0.00    -0.206 F 
ATOM     88  C   UNL A   1      38.758  34.682  39.385  1.00  0.00     0.059 A 
ATOM     89  C   UNL A   1      40.010  36.352  38.140  1.00  0.00     0.059 A 
ATOM     90  F   UNL A   1      40.759  35.865  35.972  1.00  0.00    -0.206 F 
ATOM     91  C   UNL A   1      39.332  35.952  39.291  1.00  0.00     0.060 A 
BRANCH  91  92
ATOM     92  S   UNL A   1      39.219  37.059  40.713  1.00  0.00     0.124 S 
ATOM     93  O   UNL A   1      40.623  37.382  40.945  1.00  0.00    -0.237 OA
ATOM     94  O   UNL A   1      38.395  38.147  40.196  1.00  0.00    -0.237 OA
ATOM     95  O   UNL A   1      38.587  36.234  41.738  1.00  0.00    -0.744 OA
ENDBRANCH  91  92
ENDBRANCH  59  84
ENDBRANCH  33  34
ENDBRANCH  26  28
ENDBRANCH  25  26
ENDBRANCH  24  25
ENDBRANCH   1  24
TORSDOF 19
ENDMDL
MODEL 2
REMARK VINA RESULT:     -10.8      0.777      1.213
REMARK SMILES C[N@@H+]([C@@H]1CCOC2(CCCC2)C1)C(C)(C)C(=O)OCCOCCOC(=O)c1ccc(-c2c3nc(c(-c4c(F)cc(S(=O)(=O)[O-])cc4F)c4ccc([nH]4)c(-c4c(F)cc(S(=O)(=O)[O-])cc4F)c4nc(c(-c5c(F)cc(S(=O)(=O)[O-])cc5F)c5ccc2[nH]5)C=C4)C=C3)cc1
REMARK SMILES IDX 22 1 21 2 20 3 19 4 18 5 16 6 17 7 13 8 14 9 15 10 2 11 1 12
REMARK SMILES IDX 3 14 4 15 12 16 5 17 7 18 6 19 8 20 11 21 9 22 10 23 23 24
REMARK SMILES IDX 24 25 25 26 26 27 27 28 28 29 92 30 29 31 91 32 30 33 31 34
REMARK SMILES IDX 32 35 85 36 33 37 90 38 84 39 86 40 34 41 89 42 83 43 82 44
REMARK SMILES IDX 35 46 69 47 48 48 68 49 49 50 52 51 67 52 87 53 50 54 51 55
REMARK SMILES IDX 66 57 88 58 53 59 36 60 37 61 46 62 38 63 39 64 45 65 47 66
REMARK SMILES IDX 40 67 41 68 42 69 43 70 44 71 70 72 71 73 80 74 72 75 73 76
REMARK SMILES IDX 79 77 81 78 74 79 75 80 76 81 77 82 78 83 54 84 55 85 64 86
REMARK SMILES IDX 56 87 57 88 63 89 65 90 58 91 59 92 60 93 61 94 62 95
REMARK H PARENT 2 13 86 45 52 56
REMARK Flexibility Score: inf
ROOT
ATOM      1  C   UNL A   1      39.868  21.886  26.235  1.00  0.00     0.202 C 
ENDROOT
BRANCH   1   2
ATOM      2  O   UNL A   1      38.524  22.330  26.030  1.00  0.00    -0.374 OA
BRANCH   2   3
ATOM      3  C   UNL A   1      37.759  21.534  25.119  1.00  0.00     0.202 C 
BRANCH   3   4
ATOM      4  C   UNL A   1      36.952  22.267  24.032  1.00  0.00     0.261 C 
BRANCH   4   5
ATOM      5  O   UNL A   1      36.193  23.394  24.516  1.00  0.00    -0.459 OA
BRANCH   5   6
ATOM      6  C   UNL A   1      34.945  23.488  23.967  1.00  0.00     0.367 C 
ATOM      7  O   UNL A   1      34.807  23.688  22.771  1.00  0.00    -0.245 OA
BRANCH   6   8
ATOM      8  C   UNL A   1      33.801  23.189  24.986  1.00  0.00     0.190 C 
ATOM      9  C   UNL A   1      34.379  23.245  26.413  1.00  0.00     0.092 C 
ATOM     10  C   UNL A   1      33.408  21.708  24.690  1.00  0.00     0.092 C 
BRANCH   8  11
ATOM     11  N   UNL A   1      32.562  24.085  24.802  1.00  0.00    -0.321 N 
ATOM     12  C   UNL A   1      31.381  23.291  24.429  1.00  0.00     0.333 C 
ATOM     13  H   UNL A   1      32.841  24.692  24.030  1.00  0.00     0.349 HD
BRANCH  11  14
ATOM     14  C   UNL A   1      32.241  25.085  25.883  1.00  0.00     0.189 C 
ATOM     15  C   UNL A   1      30.754  25.549  25.994  1.00  0.00     0.093 C 
ATOM     16  C   UNL A   1      32.963  26.448  25.810  1.00  0.00     0.100 C 
ATOM     17  C   UNL A   1      30.328  26.553  24.913  1.00  0.00     0.167 C 
ATOM     18  C   UNL A   1      32.602  27.264  24.554  1.00  0.00     0.074 C 
ATOM     19  O   UNL A   1      31.225  27.661  24.745  1.00  0.00    -0.375 OA
ATOM     20  C   UNL A   1      33.490  28.535  24.475  1.00  0.00     0.036 C 
ATOM     21  C   UNL A   1      32.747  26.617  23.158  1.00  0.00     0.036 C 
ATOM     22  C   UNL A   1      34.269  28.435  23.164  1.00  0.00     0.003 C 
ATOM     23  C   UNL A   1      33.322  27.694  22.248  1.00  0.00     0.003 C 
ENDBRANCH  11  14
ENDBRANCH   8  11
ENDBRANCH   6   8
ENDBRANCH   5   6
ENDBRANCH   4   5
ENDBRANCH   3   4
ENDBRANCH   2   3
ENDBRANCH   1   2
BRANCH   1  24
ATOM     24  C   UNL A   1      40.828  23.012  26.606  1.00  0.00     0.261 C 
BRANCH  24  25
ATOM     25  O   UNL A   1      40.082  24.230  26.619  1.00  0.00    -0.460 OA
BRANCH  25  26
ATOM     26  C   UNL A   1      40.835  25.309  26.288  1.00  0.00     0.338 C 
ATOM     27  O   UNL A   1      41.258  25.596  25.191  1.00  0.00    -0.246 OA
BRANCH  26  28
ATOM     28  C   UNL A   1      40.842  26.218  27.457  1.00  0.00     0.060 A 
ATOM     29  C   UNL A   1      39.834  26.038  28.412  1.00  0.00     0.016 A 
ATOM     30  C   UNL A   1      41.863  27.154  27.667  1.00  0.00     0.016 A 
ATOM     31  C   UNL A   1      39.822  26.817  29.565  1.00  0.00     0.010 A 
ATOM     32  C   UNL A   1      41.846  27.940  28.816  1.00  0.00     0.010 A 
ATOM     33  C   UNL A   1      40.808  27.794  29.748  1.00  0.00    -0.014 A 
BRANCH  33  34
ATOM     34  C   UNL A   1      40.630  28.822  30.791  1.00  0.00     0.031 A 
ATOM     35  C   UNL A   1      41.503  28.726  32.010  1.00  0.00     0.074 A 
ATOM     36  C   UNL A   1      39.719  29.799  30.657  1.00  0.00     0.049 A 
ATOM     37  N   UNL A   1      41.496  29.452  33.093  1.00  0.00    -0.248 NA
ATOM     38  C   UNL A   1      42.519  27.659  32.001  1.00  0.00     0.031 C 
ATOM     39  C   UNL A   1      38.859  30.001  29.492  1.00  0.00     0.029 A 
ATOM     40  N   UNL A   1      39.361  30.801  31.520  1.00  0.00    -0.354 N 
ATOM     41  C   UNL A   1      42.506  28.934  33.894  1.00  0.00     0.074 A 
ATOM     42  C   UNL A   1      43.080  27.810  33.190  1.00  0.00     0.031 C 
ATOM     43  C   UNL A   1      38.061  31.059  29.720  1.00  0.00     0.029 A 
ATOM     44  C   UNL A   1      38.330  31.583  31.058  1.00  0.00     0.049 A 
ATOM     45  H   UNL A   1      39.800  30.947  32.389  1.00  0.00     0.167 HD
ATOM     46  C   UNL A   1      42.920  29.365  35.107  1.00  0.00     0.037 A 
ATOM     47  C   UNL A   1      37.670  32.589  31.665  1.00  0.00     0.037 A 
ATOM     48  C   UNL A   1      42.319  30.468  35.803  1.00  0.00     0.049 A 
ATOM     49  C   UNL A   1      38.078  32.985  33.061  1.00  0.00     0.074 A 
ATOM     50  C   UNL A   1      42.649  30.993  37.038  1.00  0.00     0.029 A 
ATOM     51  N   UNL A   1      41.245  31.207  35.325  1.00  0.00    -0.354 N 
ATOM     52  N   UNL A   1      39.046  32.502  33.806  1.00  0.00    -0.248 NA
ATOM     53  C   UNL A   1      37.299  34.051  33.705  1.00  0.00     0.031 C 
ATOM     54  C   UNL A   1      41.743  32.018  37.328  1.00  0.00     0.029 A 
ATOM     55  C   UNL A   1      40.880  32.165  36.252  1.00  0.00     0.049 A 
ATOM     56  H   UNL A   1      40.808  31.070  34.453  1.00  0.00     0.167 HD
ATOM     57  C   UNL A   1      39.008  33.220  34.996  1.00  0.00     0.074 A 
ATOM     58  C   UNL A   1      37.925  34.175  34.869  1.00  0.00     0.031 C 
ATOM     59  C   UNL A   1      39.795  33.105  36.095  1.00  0.00     0.037 A 
BRANCH  46  60
ATOM     60  C   UNL A   1      44.047  28.612  35.755  1.00  0.00     0.058 A 
ATOM     61  C   UNL A   1      43.810  27.546  36.637  1.00  0.00     0.135 A 
ATOM     62  C   UNL A   1      45.380  28.972  35.507  1.00  0.00     0.135 A 
ATOM     63  F   UNL A   1      42.552  27.176  36.929  1.00  0.00    -0.206 F 
ATOM     64  C   UNL A   1      44.853  26.886  37.279  1.00  0.00     0.059 A 
ATOM     65  C   UNL A   1      46.441  28.310  36.116  1.00  0.00     0.059 A 
ATOM     66  F   UNL A   1      45.663  29.991  34.680  1.00  0.00    -0.206 F 
ATOM     67  C   UNL A   1      46.167  27.280  37.016  1.00  0.00     0.060 A 
BRANCH  67  68
ATOM     68  S   UNL A   1      47.510  26.429  37.870  1.00  0.00     0.124 S 
ATOM     69  O   UNL A   1      48.681  27.063  37.273  1.00  0.00    -0.237 OA
ATOM     70  O   UNL A   1      47.252  26.762  39.267  1.00  0.00    -0.237 OA
ATOM     71  O   UNL A   1      47.304  25.028  37.515  1.00  0.00    -0.744 OA
ENDBRANCH  67  68
ENDBRANCH  46  60
BRANCH  47  72
ATOM     72  C   UNL A   1      36.555  33.278  30.964  1.00  0.00     0.058 A 
ATOM     73  C   UNL A   1      35.222  33.065  31.345  1.00  0.00     0.135 A 
ATOM     74  C   UNL A   1      36.797  34.175  29.911  1.00  0.00     0.135 A 
ATOM     75  F   UNL A   1      34.937  32.208  32.337  1.00  0.00    -0.206 F 
ATOM     76  C   UNL A   1      34.168  33.713  30.707  1.00  0.00     0.059 A 
ATOM     77  C   UNL A   1      35.763  34.852  29.273  1.00  0.00     0.059 A 
ATOM     78  F   UNL A   1      38.055  34.420  29.512  1.00  0.00    -0.206 F 
ATOM     79  C   UNL A   1      34.450  34.610  29.676  1.00  0.00     0.060 A 
BRANCH  79  80
ATOM     80  S   UNL A   1      33.080  35.496  28.899  1.00  0.00     0.124 S 
ATOM     81  O   UNL A   1      32.453  34.440  28.114  1.00  0.00    -0.237 OA
ATOM     82  O   UNL A   1      32.325  35.967  30.057  1.00  0.00    -0.237 OA
ATOM     83  O   UNL A   1      33.749  36.542  28.131  1.00  0.00    -0.744 OA
ENDBRANCH  79  80
ENDBRANCH  47  72
BRANCH  59  84
ATOM     84  C   UNL A   1      39.532  34.041  37.240  1.00  0.00     0.058 A 
ATOM     85  C   UNL A   1      38.825  33.626  38.378  1.00  0.00     0.135 A 
ATOM     86  C   UNL A   1      40.070  35.338  37.235  1.00  0.00     0.135 A 
ATOM     87  F   UNL A   1      38.284  32.399  38.428  1.00  0.00    -0.206 F 
ATOM     88  C   UNL A   1      38.657  34.468  39.472  1.00  0.00     0.059 A 
ATOM     89  C   UNL A   1      39.937  36.187  38.328  1.00  0.00     0.059 A 
ATOM     90  F   UNL A   1      40.763  35.778  36.172  1.00  0.00    -0.206 F 
ATOM     91  C   UNL A   1      39.223  35.744  39.441  1.00  0.00     0.060 A 
BRANCH  91  92
ATOM     92  S   UNL A   1      39.052  36.802  40.894  1.00  0.00     0.124 S 
ATOM     93  O   UNL A   1      38.144  36.016  41.723  1.00  0.00    -0.237 OA
ATOM     94  O   UNL A   1      40.427  36.895  41.374  1.00  0.00    -0.237 OA
ATOM     95  O   UNL A   1      38.498  38.038  40.352  1.00  0.00    -0.744 OA
ENDBRANCH  91  92
ENDBRANCH  59  84
ENDBRANCH  33  34
ENDBRANCH  26  28
ENDBRANCH  25  26
ENDBRANCH  24  25
ENDBRANCH   1  24
TORSDOF 19
ENDMDL
MODEL 3
REMARK VINA RESULT:     -10.7      4.820     10.581
REMARK SMILES C[N@@H+]([C@@H]1CCOC2(CCCC2)C1)C(C)(C)C(=O)OCCOCCOC(=O)c1ccc(-c2c3nc(c(-c4c(F)cc(S(=O)(=O)[O-])cc4F)c4ccc([nH]4)c(-c4c(F)cc(S(=O)(=O)[O-])cc4F)c4nc(c(-c5c(F)cc(S(=O)(=O)[O-])cc5F)c5ccc2[nH]5)C=C4)C=C3)cc1
REMARK SMILES IDX 22 1 21 2 20 3 19 4 18 5 16 6 17 7 13 8 14 9 15 10 2 11 1 12
REMARK SMILES IDX 3 14 4 15 12 16 5 17 7 18 6 19 8 20 11 21 9 22 10 23 23 24
REMARK SMILES IDX 24 25 25 26 26 27 27 28 28 29 92 30 29 31 91 32 30 33 31 34
REMARK SMILES IDX 32 35 85 36 33 37 90 38 84 39 86 40 34 41 89 42 83 43 82 44
REMARK SMILES IDX 35 46 69 47 48 48 68 49 49 50 52 51 67 52 87 53 50 54 51 55
REMARK SMILES IDX 66 57 88 58 53 59 36 60 37 61 46 62 38 63 39 64 45 65 47 66
REMARK SMILES IDX 40 67 41 68 42 69 43 70 44 71 70 72 71 73 80 74 72 75 73 76
REMARK SMILES IDX 79 77 81 78 74 79 75 80 76 81 77 82 78 83 54 84 55 85 64 86
REMARK SMILES IDX 56 87 57 88 63 89 65 90 58 91 59 92 60 93 61 94 62 95
REMARK H PARENT 2 13 86 45 52 56
REMARK Flexibility Score: inf
ROOT
ATOM      1  C   UNL A   1      32.488  28.769  26.266  1.00  0.00     0.202 C 
ENDROOT
BRANCH   1   2
ATOM      2  O   UNL A   1      32.562  29.698  25.182  1.00  0.00    -0.374 OA
BRANCH   2   3
ATOM      3  C   UNL A   1      33.112  29.169  23.970  1.00  0.00     0.202 C 
BRANCH   3   4
ATOM      4  C   UNL A   1      32.205  28.276  23.104  1.00  0.00     0.261 C 
BRANCH   4   5
ATOM      5  O   UNL A   1      32.566  26.879  23.113  1.00  0.00    -0.459 OA
BRANCH   5   6
ATOM      6  C   UNL A   1      31.545  26.055  23.497  1.00  0.00     0.367 C 
ATOM      7  O   UNL A   1      30.411  26.489  23.623  1.00  0.00    -0.245 OA
BRANCH   6   8
ATOM      8  C   UNL A   1      31.974  24.558  23.610  1.00  0.00     0.190 C 
ATOM      9  C   UNL A   1      32.925  24.224  22.446  1.00  0.00     0.092 C 
ATOM     10  C   UNL A   1      30.648  23.767  23.383  1.00  0.00     0.092 C 
BRANCH   8  11
ATOM     11  N   UNL A   1      32.552  24.186  24.988  1.00  0.00    -0.321 N 
ATOM     12  C   UNL A   1      32.071  25.104  26.033  1.00  0.00     0.333 C 
ATOM     13  H   UNL A   1      33.556  24.304  24.846  1.00  0.00     0.349 HD
BRANCH  11  14
ATOM     14  C   UNL A   1      32.467  22.748  25.430  1.00  0.00     0.189 C 
ATOM     15  C   UNL A   1      32.539  22.477  26.966  1.00  0.00     0.093 C 
ATOM     16  C   UNL A   1      33.568  21.794  24.918  1.00  0.00     0.100 C 
ATOM     17  C   UNL A   1      33.950  22.595  27.558  1.00  0.00     0.167 C 
ATOM     18  C   UNL A   1      34.977  22.161  25.423  1.00  0.00     0.074 C 
ATOM     19  O   UNL A   1      34.958  21.870  26.838  1.00  0.00    -0.375 OA
ATOM     20  C   UNL A   1      36.038  21.261  24.733  1.00  0.00     0.036 C 
ATOM     21  C   UNL A   1      35.510  23.597  25.213  1.00  0.00     0.036 C 
ATOM     22  C   UNL A   1      36.974  22.202  23.976  1.00  0.00     0.003 C 
ATOM     23  C   UNL A   1      36.975  23.454  24.824  1.00  0.00     0.003 C 
ENDBRANCH  11  14
ENDBRANCH   8  11
ENDBRANCH   6   8
ENDBRANCH   5   6
ENDBRANCH   4   5
ENDBRANCH   3   4
ENDBRANCH   2   3
ENDBRANCH   1   2
BRANCH   1  24
ATOM     24  C   UNL A   1      33.378  29.143  27.446  1.00  0.00     0.261 C 
BRANCH  24  25
ATOM     25  O   UNL A   1      34.168  30.266  27.054  1.00  0.00    -0.460 OA
BRANCH  25  26
ATOM     26  C   UNL A   1      34.755  30.888  28.108  1.00  0.00     0.338 C 
ATOM     27  O   UNL A   1      34.229  31.633  28.903  1.00  0.00    -0.246 OA
BRANCH  26  28
ATOM     28  C   UNL A   1      36.104  30.298  28.273  1.00  0.00     0.060 A 
ATOM     29  C   UNL A   1      36.408  29.738  29.520  1.00  0.00     0.016 A 
ATOM     30  C   UNL A   1      37.011  30.203  27.209  1.00  0.00     0.016 A 
ATOM     31  C   UNL A   1      37.634  29.111  29.720  1.00  0.00     0.010 A 
ATOM     32  C   UNL A   1      38.242  29.585  27.411  1.00  0.00     0.010 A 
ATOM     33  C   UNL A   1      38.566  29.069  28.676  1.00  0.00    -0.014 A 
BRANCH  33  34
ATOM     34  C   UNL A   1      39.964  28.696  28.961  1.00  0.00     0.031 A 
ATOM     35  C   UNL A   1      40.845  29.743  29.580  1.00  0.00     0.074 A 
ATOM     36  C   UNL A   1      40.430  27.470  28.672  1.00  0.00     0.049 A 
ATOM     37  N   UNL A   1      42.118  29.696  29.860  1.00  0.00    -0.248 NA
ATOM     38  C   UNL A   1      40.194  31.020  29.926  1.00  0.00     0.031 C 
ATOM     39  C   UNL A   1      39.640  26.374  28.113  1.00  0.00     0.029 A 
ATOM     40  N   UNL A   1      41.690  26.948  28.801  1.00  0.00    -0.354 N 
ATOM     41  C   UNL A   1      42.422  30.932  30.416  1.00  0.00     0.074 A 
ATOM     42  C   UNL A   1      41.211  31.721  30.401  1.00  0.00     0.031 C 
ATOM     43  C   UNL A   1      40.441  25.309  27.936  1.00  0.00     0.029 A 
ATOM     44  C   UNL A   1      41.803  25.661  28.334  1.00  0.00     0.049 A 
ATOM     45  H   UNL A   1      42.443  27.448  29.192  1.00  0.00     0.167 HD
ATOM     46  C   UNL A   1      43.608  31.365  30.902  1.00  0.00     0.037 A 
ATOM     47  C   UNL A   1      42.892  24.876  28.224  1.00  0.00     0.037 A 
ATOM     48  C   UNL A   1      44.807  30.576  30.884  1.00  0.00     0.049 A 
ATOM     49  C   UNL A   1      44.226  25.416  28.674  1.00  0.00     0.074 A 
ATOM     50  C   UNL A   1      46.067  30.909  31.344  1.00  0.00     0.029 A 
ATOM     51  N   UNL A   1      44.894  29.292  30.360  1.00  0.00    -0.354 N 
ATOM     52  N   UNL A   1      44.503  26.581  29.216  1.00  0.00    -0.248 NA
ATOM     53  C   UNL A   1      45.394  24.547  28.488  1.00  0.00     0.031 C 
ATOM     54  C   UNL A   1      46.928  29.845  31.052  1.00  0.00     0.029 A 
ATOM     55  C   UNL A   1      46.194  28.830  30.457  1.00  0.00     0.049 A 
ATOM     56  H   UNL A   1      44.143  28.786  29.976  1.00  0.00     0.167 HD
ATOM     57  C   UNL A   1      45.872  26.573  29.457  1.00  0.00     0.074 A 
ATOM     58  C   UNL A   1      46.366  25.287  29.007  1.00  0.00     0.031 C 
ATOM     59  C   UNL A   1      46.654  27.539  30.001  1.00  0.00     0.037 A 
BRANCH  46  60
ATOM     60  C   UNL A   1      43.654  32.762  31.453  1.00  0.00     0.058 A 
ATOM     61  C   UNL A   1      43.917  33.870  30.632  1.00  0.00     0.135 A 
ATOM     62  C   UNL A   1      43.453  32.995  32.822  1.00  0.00     0.135 A 
ATOM     63  F   UNL A   1      44.142  33.701  29.318  1.00  0.00    -0.206 F 
ATOM     64  C   UNL A   1      44.015  35.156  31.153  1.00  0.00     0.059 A 
ATOM     65  C   UNL A   1      43.519  34.276  33.362  1.00  0.00     0.059 A 
ATOM     66  F   UNL A   1      43.209  31.971  33.654  1.00  0.00    -0.206 F 
ATOM     67  C   UNL A   1      43.819  35.348  32.523  1.00  0.00     0.060 A 
BRANCH  67  68
ATOM     68  S   UNL A   1      43.969  37.018  33.189  1.00  0.00     0.124 S 
ATOM     69  O   UNL A   1      45.205  36.913  33.960  1.00  0.00    -0.237 OA
ATOM     70  O   UNL A   1      44.043  37.832  31.981  1.00  0.00    -0.237 OA
ATOM     71  O   UNL A   1      42.750  37.180  33.976  1.00  0.00    -0.744 OA
ENDBRANCH  67  68
ENDBRANCH  46  60
BRANCH  47  72
ATOM     72  C   UNL A   1      42.769  23.508  27.655  1.00  0.00     0.058 A 
ATOM     73  C   UNL A   1      42.461  22.410  28.471  1.00  0.00     0.135 A 
ATOM     74  C   UNL A   1      42.941  23.270  26.281  1.00  0.00     0.135 A 
ATOM     75  F   UNL A   1      42.300  22.583  29.793  1.00  0.00    -0.206 F 
ATOM     76  C   UNL A   1      42.329  21.127  27.951  1.00  0.00     0.059 A 
ATOM     77  C   UNL A   1      42.792  22.000  25.733  1.00  0.00     0.059 A 
ATOM     78  F   UNL A   1      43.230  24.287  25.453  1.00  0.00    -0.206 F 
ATOM     79  C   UNL A   1      42.491  20.933  26.578  1.00  0.00     0.060 A 
BRANCH  79  80
ATOM     80  S   UNL A   1      42.252  19.274  25.903  1.00  0.00     0.124 S 
ATOM     81  O   UNL A   1      40.807  19.239  25.712  1.00  0.00    -0.237 OA
ATOM     82  O   UNL A   1      43.057  19.321  24.686  1.00  0.00    -0.237 OA
ATOM     83  O   UNL A   1      42.771  18.405  26.955  1.00  0.00    -0.744 OA
ENDBRANCH  79  80
ENDBRANCH  47  72
BRANCH  59  84
ATOM     84  C   UNL A   1      48.118  27.242  30.159  1.00  0.00     0.058 A 
ATOM     85  C   UNL A   1      49.067  27.725  29.246  1.00  0.00     0.135 A 
ATOM     86  C   UNL A   1      48.583  26.544  31.286  1.00  0.00     0.135 A 
ATOM     87  F   UNL A   1      48.673  28.391  28.149  1.00  0.00    -0.206 F 
ATOM     88  C   UNL A   1      50.429  27.520  29.441  1.00  0.00     0.059 A 
ATOM     89  C   UNL A   1      49.940  26.351  31.515  1.00  0.00     0.059 A 
ATOM     90  F   UNL A   1      47.714  26.071  32.194  1.00  0.00    -0.206 F 
ATOM     91  C   UNL A   1      50.856  26.839  30.582  1.00  0.00     0.060 A 
BRANCH  91  92
ATOM     92  S   UNL A   1      52.629  26.638  30.857  1.00  0.00     0.124 S 
ATOM     93  O   UNL A   1      52.656  25.520  31.794  1.00  0.00    -0.237 OA
ATOM     94  O   UNL A   1      53.121  26.351  29.513  1.00  0.00    -0.237 OA
ATOM     95  O   UNL A   1      53.037  27.928  31.405  1.00  0.00    -0.744 OA
ENDBRANCH  91  92
ENDBRANCH  59  84
ENDBRANCH  33  34
ENDBRANCH  26  28
ENDBRANCH  25  26
ENDBRANCH  24  25
ENDBRANCH   1  24
TORSDOF 19
ENDMDL
