MODEL 1
REMARK VINA RESULT:     -11.5      0.000      0.000
REMARK SMILES COC(=O)c1cc(F)cc(-c2ccc(C(=O)OCCOCCOC(=O)c3ccc(-c4c5nc(c(-c6c(F)cc(S(=O)(=O)[O-])cc6F)c6ccc([nH]6)c(-c6c(F)cc(S(=O)(=O)[O-])cc6F)c6nc(c(-c7c(F)cc(S(=O)(=O)[O-])cc7F)c7ccc4[nH]7)C=C6)C=C5)cc3)cc2C)c1
REMARK SMILES IDX 20 1 19 2 18 3 17 4 15 5 16 6 14 7 11 8 12 9 93 10 13 11
REMARK SMILES IDX 92 12 94 13 10 14 5 15 6 16 95 17 7 18 8 19 9 20 3 21 4 22
REMARK SMILES IDX 2 23 1 24 21 25 22 26 23 27 24 28 25 29 26 30 27 31 91 32
REMARK SMILES IDX 28 33 90 34 29 35 30 36 31 37 84 38 32 39 89 40 83 41 85 42
REMARK SMILES IDX 33 43 88 44 82 45 81 46 34 48 68 49 47 50 67 51 48 52 51 53
REMARK SMILES IDX 66 54 86 55 49 56 50 57 65 59 87 60 52 61 35 62 36 63 45 64
REMARK SMILES IDX 37 65 38 66 44 67 46 68 39 69 40 70 41 71 42 72 43 73 69 74
REMARK SMILES IDX 70 75 79 76 71 77 72 78 78 79 80 80 73 81 74 82 75 83 76 84
REMARK SMILES IDX 77 85 53 86 54 87 63 88 55 89 56 90 62 91 64 92 57 93 58 94
REMARK SMILES IDX 59 95 60 96 61 97
REMARK H PARENT 85 47 51 58
REMARK Flexibility Score: inf
ROOT
ATOM      1  O   UNL A   1      43.764  21.841  24.705  1.00  0.00    -0.374 OA
ENDROOT
BRANCH   1   2
ATOM      2  C   UNL A   1      44.178  20.593  25.253  1.00  0.00     0.202 C 
BRANCH   2   3
ATOM      3  C   UNL A   1      42.914  19.894  25.751  1.00  0.00     0.261 C 
BRANCH   3   4
ATOM      4  O   UNL A   1      41.852  20.860  25.733  1.00  0.00    -0.460 OA
BRANCH   4   5
ATOM      5  C   UNL A   1      40.911  20.698  26.695  1.00  0.00     0.338 C 
ATOM      6  O   UNL A   1      41.102  20.593  27.899  1.00  0.00    -0.246 OA
BRANCH   5   7
ATOM      7  C   UNL A   1      39.570  20.836  26.071  1.00  0.00     0.060 A 
ATOM      8  C   UNL A   1      36.989  21.128  24.984  1.00  0.00    -0.015 A 
ATOM      9  C   UNL A   1      37.714  19.933  24.821  1.00  0.00     0.010 A 
ATOM     10  C   UNL A   1      37.618  22.231  25.600  1.00  0.00    -0.042 A 
ATOM     11  C   UNL A   1      38.984  19.783  25.364  1.00  0.00     0.016 A 
ATOM     12  C   UNL A   1      38.911  22.071  26.134  1.00  0.00     0.019 A 
ATOM     13  C   UNL A   1      36.972  23.587  25.707  1.00  0.00     0.045 C 
BRANCH   8  14
ATOM     14  C   UNL A   1      35.549  21.077  24.712  1.00  0.00    -0.014 A 
ATOM     15  C   UNL A   1      33.521  19.712  24.740  1.00  0.00     0.063 A 
ATOM     16  C   UNL A   1      32.783  20.789  24.255  1.00  0.00     0.055 A 
ATOM     17  C   UNL A   1      34.887  19.864  24.977  1.00  0.00     0.024 A 
ATOM     18  C   UNL A   1      33.434  21.994  24.002  1.00  0.00     0.124 A 
ATOM     19  F   UNL A   1      32.722  23.035  23.547  1.00  0.00    -0.207 F 
ATOM     20  C   UNL A   1      34.804  22.149  24.214  1.00  0.00     0.048 A 
BRANCH  15  21
ATOM     21  C   UNL A   1      32.931  18.387  25.030  1.00  0.00     0.337 C 
ATOM     22  O   UNL A   1      32.462  18.082  26.116  1.00  0.00    -0.246 OA
BRANCH  21  23
ATOM     23  O   UNL A   1      33.082  17.565  23.964  1.00  0.00    -0.465 OA
ATOM     24  C   UNL A   1      32.523  18.100  22.763  1.00  0.00     0.282 C 
ENDBRANCH  21  23
ENDBRANCH  15  21
ENDBRANCH   8  14
ENDBRANCH   5   7
ENDBRANCH   4   5
ENDBRANCH   3   4
ENDBRANCH   2   3
ENDBRANCH   1   2
BRANCH   1  25
ATOM     25  C   UNL A   1      44.560  22.968  25.006  1.00  0.00     0.202 C 
BRANCH  25  26
ATOM     26  C   UNL A   1      44.389  23.513  26.421  1.00  0.00     0.261 C 
BRANCH  26  27
ATOM     27  O   UNL A   1      43.030  23.647  26.877  1.00  0.00    -0.460 OA
BRANCH  27  28
ATOM     28  C   UNL A   1      42.183  24.667  26.571  1.00  0.00     0.338 C 
ATOM     29  O   UNL A   1      41.847  24.854  25.404  1.00  0.00    -0.246 OA
BRANCH  28  30
ATOM     30  C   UNL A   1      41.955  25.760  27.558  1.00  0.00     0.060 A 
ATOM     31  C   UNL A   1      40.843  25.624  28.410  1.00  0.00     0.016 A 
ATOM     32  C   UNL A   1      42.773  26.883  27.685  1.00  0.00     0.016 A 
ATOM     33  C   UNL A   1      40.523  26.620  29.340  1.00  0.00     0.010 A 
ATOM     34  C   UNL A   1      42.424  27.905  28.579  1.00  0.00     0.010 A 
ATOM     35  C   UNL A   1      41.312  27.773  29.428  1.00  0.00    -0.014 A 
BRANCH  35  36
ATOM     36  C   UNL A   1      41.191  28.686  30.592  1.00  0.00     0.031 A 
ATOM     37  C   UNL A   1      41.970  28.517  31.860  1.00  0.00     0.074 A 
ATOM     38  C   UNL A   1      40.252  29.646  30.485  1.00  0.00     0.049 A 
ATOM     39  N   UNL A   1      41.925  29.238  32.952  1.00  0.00    -0.248 NA
ATOM     40  C   UNL A   1      42.922  27.401  31.921  1.00  0.00     0.031 C 
ATOM     41  C   UNL A   1      39.427  29.870  29.293  1.00  0.00     0.029 A 
ATOM     42  N   UNL A   1      39.797  30.571  31.385  1.00  0.00    -0.354 N 
ATOM     43  C   UNL A   1      42.846  28.675  33.829  1.00  0.00     0.074 A 
ATOM     44  C   UNL A   1      43.424  27.536  33.145  1.00  0.00     0.031 C 
ATOM     45  C   UNL A   1      38.528  30.826  29.555  1.00  0.00     0.029 A 
ATOM     46  C   UNL A   1      38.715  31.283  30.928  1.00  0.00     0.049 A 
ATOM     47  H   UNL A   1      40.205  30.713  32.270  1.00  0.00     0.167 HD
ATOM     48  C   UNL A   1      43.166  29.079  35.084  1.00  0.00     0.037 A 
ATOM     49  C   UNL A   1      37.943  32.193  31.545  1.00  0.00     0.037 A 
ATOM     50  C   UNL A   1      42.534  30.196  35.749  1.00  0.00     0.049 A 
ATOM     51  C   UNL A   1      38.298  32.610  32.938  1.00  0.00     0.074 A 
ATOM     52  C   UNL A   1      42.832  30.742  36.987  1.00  0.00     0.029 A 
ATOM     53  N   UNL A   1      41.456  30.916  35.250  1.00  0.00    -0.354 N 
ATOM     54  N   UNL A   1      39.251  32.148  33.711  1.00  0.00    -0.248 NA
ATOM     55  C   UNL A   1      37.500  33.686  33.534  1.00  0.00     0.031 C 
ATOM     56  C   UNL A   1      41.894  31.742  37.264  1.00  0.00     0.029 A 
ATOM     57  C   UNL A   1      41.051  31.870  36.171  1.00  0.00     0.049 A 
ATOM     58  H   UNL A   1      41.040  30.770  34.369  1.00  0.00     0.167 HD
ATOM     59  C   UNL A   1      39.185  32.890  34.881  1.00  0.00     0.074 A 
ATOM     60  C   UNL A   1      38.101  33.839  34.708  1.00  0.00     0.031 C 
ATOM     61  C   UNL A   1      39.956  32.797  35.992  1.00  0.00     0.037 A 
BRANCH  48  62
ATOM     62  C   UNL A   1      44.235  28.326  35.839  1.00  0.00     0.058 A 
ATOM     63  C   UNL A   1      43.893  27.318  36.757  1.00  0.00     0.135 A 
ATOM     64  C   UNL A   1      45.593  28.674  35.739  1.00  0.00     0.135 A 
ATOM     65  F   UNL A   1      42.612  26.944  36.903  1.00  0.00    -0.206 F 
ATOM     66  C   UNL A   1      44.850  26.696  37.556  1.00  0.00     0.059 A 
ATOM     67  C   UNL A   1      46.571  28.047  36.512  1.00  0.00     0.059 A 
ATOM     68  F   UNL A   1      45.984  29.627  34.878  1.00  0.00    -0.206 F 
ATOM     69  C   UNL A   1      46.188  27.069  37.428  1.00  0.00     0.060 A 
BRANCH  69  70
ATOM     70  S   UNL A   1      47.420  26.242  38.460  1.00  0.00     0.124 S 
ATOM     71  O   UNL A   1      48.467  27.252  38.552  1.00  0.00    -0.237 OA
ATOM     72  O   UNL A   1      46.672  25.988  39.687  1.00  0.00    -0.237 OA
ATOM     73  O   UNL A   1      47.763  25.050  37.688  1.00  0.00    -0.744 OA
ENDBRANCH  69  70
ENDBRANCH  48  62
BRANCH  49  74
ATOM     74  C   UNL A   1      36.807  32.784  30.795  1.00  0.00     0.058 A 
ATOM     75  C   UNL A   1      37.017  33.794  29.842  1.00  0.00     0.135 A 
ATOM     76  C   UNL A   1      35.486  32.453  31.123  1.00  0.00     0.135 A 
ATOM     77  F   UNL A   1      38.265  34.165  29.516  1.00  0.00    -0.206 F 
ATOM     78  C   UNL A   1      35.955  34.483  29.268  1.00  0.00     0.059 A 
ATOM     79  C   UNL A   1      34.406  33.113  30.546  1.00  0.00     0.059 A 
ATOM     80  F   UNL A   1      35.241  31.497  32.031  1.00  0.00    -0.206 F 
ATOM     81  C   UNL A   1      34.652  34.142  29.637  1.00  0.00     0.060 A 
BRANCH  81  82
ATOM     82  S   UNL A   1      33.288  35.091  28.933  1.00  0.00     0.124 S 
ATOM     83  O   UNL A   1      32.473  35.357  30.115  1.00  0.00    -0.237 OA
ATOM     84  O   UNL A   1      33.980  36.244  28.367  1.00  0.00    -0.237 OA
ATOM     85  O   UNL A   1      32.703  34.173  27.961  1.00  0.00    -0.744 OA
ENDBRANCH  81  82
ENDBRANCH  49  74
BRANCH  61  86
ATOM     86  C   UNL A   1      39.660  33.748  37.119  1.00  0.00     0.058 A 
ATOM     87  C   UNL A   1      40.345  34.970  37.217  1.00  0.00     0.135 A 
ATOM     88  C   UNL A   1      38.754  33.418  38.138  1.00  0.00     0.135 A 
ATOM     89  F   UNL A   1      41.222  35.334  36.269  1.00  0.00    -0.206 F 
ATOM     90  C   UNL A   1      40.159  35.820  38.301  1.00  0.00     0.059 A 
ATOM     91  C   UNL A   1      38.531  34.268  39.217  1.00  0.00     0.059 A 
ATOM     92  F   UNL A   1      38.061  32.269  38.081  1.00  0.00    -0.206 F 
ATOM     93  C   UNL A   1      39.253  35.458  39.299  1.00  0.00     0.060 A 
BRANCH  93  94
ATOM     94  S   UNL A   1      39.026  36.576  40.698  1.00  0.00     0.124 S 
ATOM     95  O   UNL A   1      40.404  36.926  41.029  1.00  0.00    -0.237 OA
ATOM     96  O   UNL A   1      38.222  37.643  40.111  1.00  0.00    -0.237 OA
ATOM     97  O   UNL A   1      38.334  35.750  41.684  1.00  0.00    -0.744 OA
ENDBRANCH  93  94
ENDBRANCH  61  86
ENDBRANCH  35  36
ENDBRANCH  28  30
ENDBRANCH  27  28
ENDBRANCH  26  27
ENDBRANCH  25  26
ENDBRANCH   1  25
TORSDOF 20
ENDMDL
MODEL 2
REMARK VINA RESULT:     -11.4      1.640      2.645
REMARK SMILES COC(=O)c1cc(F)cc(-c2ccc(C(=O)OCCOCCOC(=O)c3ccc(-c4c5nc(c(-c6c(F)cc(S(=O)(=O)[O-])cc6F)c6ccc([nH]6)c(-c6c(F)cc(S(=O)(=O)[O-])cc6F)c6nc(c(-c7c(F)cc(S(=O)(=O)[O-])cc7F)c7ccc4[nH]7)C=C6)C=C5)cc3)cc2C)c1
REMARK SMILES IDX 20 1 19 2 18 3 17 4 15 5 16 6 14 7 11 8 12 9 93 10 13 11
REMARK SMILES IDX 92 12 94 13 10 14 5 15 6 16 95 17 7 18 8 19 9 20 3 21 4 22
REMARK SMILES IDX 2 23 1 24 21 25 22 26 23 27 24 28 25 29 26 30 27 31 91 32
REMARK SMILES IDX 28 33 90 34 29 35 30 36 31 37 84 38 32 39 89 40 83 41 85 42
REMARK SMILES IDX 33 43 88 44 82 45 81 46 34 48 68 49 47 50 67 51 48 52 51 53
REMARK SMILES IDX 66 54 86 55 49 56 50 57 65 59 87 60 52 61 35 62 36 63 45 64
REMARK SMILES IDX 37 65 38 66 44 67 46 68 39 69 40 70 41 71 42 72 43 73 69 74
REMARK SMILES IDX 70 75 79 76 71 77 72 78 78 79 80 80 73 81 74 82 75 83 76 84
REMARK SMILES IDX 77 85 53 86 54 87 63 88 55 89 56 90 62 91 64 92 57 93 58 94
REMARK SMILES IDX 59 95 60 96 61 97
REMARK H PARENT 85 47 51 58
REMARK Flexibility Score: inf
ROOT
ATOM      1  O   UNL A   1      43.915  21.635  24.877  1.00  0.00    -0.374 OA
ENDROOT
BRANCH   1   2
ATOM      2  C   UNL A   1      43.405  21.187  26.130  1.00  0.00     0.202 C 
BRANCH   2   3
ATOM      3  C   UNL A   1      42.184  20.322  25.820  1.00  0.00     0.261 C 
BRANCH   3   4
ATOM      4  O   UNL A   1      41.067  21.205  25.631  1.00  0.00    -0.460 OA
BRANCH   4   5
ATOM      5  C   UNL A   1      40.317  21.425  26.738  1.00  0.00     0.338 C 
ATOM      6  O   UNL A   1      40.672  21.307  27.902  1.00  0.00    -0.246 OA
BRANCH   5   7
ATOM      7  C   UNL A   1      39.015  22.006  26.316  1.00  0.00     0.060 A 
ATOM      8  C   UNL A   1      36.565  23.062  25.420  1.00  0.00    -0.015 A 
ATOM      9  C   UNL A   1      37.547  23.892  25.991  1.00  0.00     0.010 A 
ATOM     10  C   UNL A   1      36.771  21.666  25.409  1.00  0.00    -0.042 A 
ATOM     11  C   UNL A   1      38.761  23.376  26.425  1.00  0.00     0.016 A 
ATOM     12  C   UNL A   1      38.000  21.153  25.866  1.00  0.00     0.019 A 
ATOM     13  C   UNL A   1      35.729  20.687  24.937  1.00  0.00     0.045 C 
BRANCH   8  14
ATOM     14  C   UNL A   1      35.492  23.718  24.664  1.00  0.00    -0.014 A 
ATOM     15  C   UNL A   1      33.909  25.579  24.581  1.00  0.00     0.063 A 
ATOM     16  C   UNL A   1      33.426  25.120  23.358  1.00  0.00     0.055 A 
ATOM     17  C   UNL A   1      34.940  24.889  25.217  1.00  0.00     0.024 A 
ATOM     18  C   UNL A   1      33.979  23.969  22.803  1.00  0.00     0.124 A 
ATOM     19  F   UNL A   1      33.524  23.533  21.620  1.00  0.00    -0.207 F 
ATOM     20  C   UNL A   1      34.995  23.258  23.443  1.00  0.00     0.048 A 
BRANCH  15  21
ATOM     21  C   UNL A   1      33.384  26.783  25.262  1.00  0.00     0.337 C 
ATOM     22  O   UNL A   1      33.721  27.120  26.386  1.00  0.00    -0.246 OA
BRANCH  21  23
ATOM     23  O   UNL A   1      32.429  27.370  24.502  1.00  0.00    -0.465 OA
ATOM     24  C   UNL A   1      31.514  28.157  25.267  1.00  0.00     0.282 C 
ENDBRANCH  21  23
ENDBRANCH  15  21
ENDBRANCH   8  14
ENDBRANCH   5   7
ENDBRANCH   4   5
ENDBRANCH   3   4
ENDBRANCH   2   3
ENDBRANCH   1   2
BRANCH   1  25
ATOM     25  C   UNL A   1      43.710  22.993  24.551  1.00  0.00     0.202 C 
BRANCH  25  26
ATOM     26  C   UNL A   1      43.472  23.909  25.748  1.00  0.00     0.261 C 
BRANCH  26  27
ATOM     27  O   UNL A   1      42.121  24.379  25.916  1.00  0.00    -0.460 OA
BRANCH  27  28
ATOM     28  C   UNL A   1      41.726  25.681  25.932  1.00  0.00     0.338 C 
ATOM     29  O   UNL A   1      41.699  26.325  24.886  1.00  0.00    -0.246 OA
BRANCH  28  30
ATOM     30  C   UNL A   1      41.680  26.422  27.223  1.00  0.00     0.060 A 
ATOM     31  C   UNL A   1      42.552  27.520  27.357  1.00  0.00     0.016 A 
ATOM     32  C   UNL A   1      40.833  26.098  28.284  1.00  0.00     0.016 A 
ATOM     33  C   UNL A   1      42.613  28.251  28.549  1.00  0.00     0.010 A 
ATOM     34  C   UNL A   1      40.930  26.795  29.496  1.00  0.00     0.010 A 
ATOM     35  C   UNL A   1      41.802  27.889  29.631  1.00  0.00    -0.014 A 
BRANCH  35  36
ATOM     36  C   UNL A   1      41.614  28.813  30.778  1.00  0.00     0.031 A 
ATOM     37  C   UNL A   1      42.373  28.697  32.065  1.00  0.00     0.074 A 
ATOM     38  C   UNL A   1      40.636  29.728  30.637  1.00  0.00     0.049 A 
ATOM     39  N   UNL A   1      42.271  29.431  33.144  1.00  0.00    -0.248 NA
ATOM     40  C   UNL A   1      43.372  27.627  32.163  1.00  0.00     0.031 C 
ATOM     41  C   UNL A   1      39.827  29.896  29.425  1.00  0.00     0.029 A 
ATOM     42  N   UNL A   1      40.120  30.644  31.512  1.00  0.00    -0.354 N 
ATOM     43  C   UNL A   1      43.198  28.923  34.049  1.00  0.00     0.074 A 
ATOM     44  C   UNL A   1      43.841  27.801  33.395  1.00  0.00     0.031 C 
ATOM     45  C   UNL A   1      38.880  30.815  29.653  1.00  0.00     0.029 A 
ATOM     46  C   UNL A   1      39.017  31.299  31.022  1.00  0.00     0.049 A 
ATOM     47  H   UNL A   1      40.502  30.817  32.404  1.00  0.00     0.167 HD
ATOM     48  C   UNL A   1      43.472  29.360  35.304  1.00  0.00     0.037 A 
ATOM     49  C   UNL A   1      38.191  32.182  31.609  1.00  0.00     0.037 A 
ATOM     50  C   UNL A   1      42.776  30.456  35.939  1.00  0.00     0.049 A 
ATOM     51  C   UNL A   1      38.497  32.634  33.002  1.00  0.00     0.074 A 
ATOM     52  C   UNL A   1      43.022  31.032  37.174  1.00  0.00     0.029 A 
ATOM     53  N   UNL A   1      41.678  31.119  35.406  1.00  0.00    -0.354 N 
ATOM     54  N   UNL A   1      39.453  32.227  33.803  1.00  0.00    -0.248 NA
ATOM     55  C   UNL A   1      37.639  33.682  33.565  1.00  0.00     0.031 C 
ATOM     56  C   UNL A   1      42.034  31.993  37.416  1.00  0.00     0.029 A 
ATOM     57  C   UNL A   1      41.210  32.067  36.303  1.00  0.00     0.049 A 
ATOM     58  H   UNL A   1      41.288  30.942  34.519  1.00  0.00     0.167 HD
ATOM     59  C   UNL A   1      39.328  32.983  34.960  1.00  0.00     0.074 A 
ATOM     60  C   UNL A   1      38.207  33.879  34.750  1.00  0.00     0.031 C 
ATOM     61  C   UNL A   1      40.079  32.941  36.087  1.00  0.00     0.037 A 
BRANCH  48  62
ATOM     62  C   UNL A   1      44.557  28.666  36.093  1.00  0.00     0.058 A 
ATOM     63  C   UNL A   1      45.904  29.042  35.949  1.00  0.00     0.135 A 
ATOM     64  C   UNL A   1      44.280  27.556  36.908  1.00  0.00     0.135 A 
ATOM     65  F   UNL A   1      46.235  30.090  35.179  1.00  0.00    -0.206 F 
ATOM     66  C   UNL A   1      46.934  28.337  36.569  1.00  0.00     0.059 A 
ATOM     67  C   UNL A   1      45.294  26.851  37.559  1.00  0.00     0.059 A 
ATOM     68  F   UNL A   1      43.014  27.150  37.089  1.00  0.00    -0.206 F 
ATOM     69  C   UNL A   1      46.619  27.241  37.371  1.00  0.00     0.060 A 
BRANCH  69  70
ATOM     70  S   UNL A   1      47.965  26.346  38.182  1.00  0.00     0.124 S 
ATOM     71  O   UNL A   1      48.009  25.106  37.418  1.00  0.00    -0.237 OA
ATOM     72  O   UNL A   1      49.093  27.252  37.992  1.00  0.00    -0.237 OA
ATOM     73  O   UNL A   1      47.502  26.219  39.562  1.00  0.00    -0.744 OA
ENDBRANCH  69  70
ENDBRANCH  48  62
BRANCH  49  74
ATOM     74  C   UNL A   1      37.047  32.710  30.827  1.00  0.00     0.058 A 
ATOM     75  C   UNL A   1      37.228  33.729  29.878  1.00  0.00     0.135 A 
ATOM     76  C   UNL A   1      35.736  32.308  31.118  1.00  0.00     0.135 A 
ATOM     77  F   UNL A   1      38.463  34.167  29.586  1.00  0.00    -0.206 F 
ATOM     78  C   UNL A   1      36.146  34.359  29.274  1.00  0.00     0.059 A 
ATOM     79  C   UNL A   1      34.639  32.908  30.510  1.00  0.00     0.059 A 
ATOM     80  F   UNL A   1      35.519  31.340  32.022  1.00  0.00    -0.206 F 
ATOM     81  C   UNL A   1      34.854  33.948  29.607  1.00  0.00     0.060 A 
BRANCH  81  82
ATOM     82  S   UNL A   1      33.460  34.822  28.862  1.00  0.00     0.124 S 
ATOM     83  O   UNL A   1      33.038  33.877  27.833  1.00  0.00    -0.237 OA
ATOM     84  O   UNL A   1      32.555  34.972  29.996  1.00  0.00    -0.237 OA
ATOM     85  O   UNL A   1      34.060  36.059  28.372  1.00  0.00    -0.744 OA
ENDBRANCH  81  82
ENDBRANCH  49  74
BRANCH  61  86
ATOM     86  C   UNL A   1      39.716  33.894  37.193  1.00  0.00     0.058 A 
ATOM     87  C   UNL A   1      40.229  35.201  37.203  1.00  0.00     0.135 A 
ATOM     88  C   UNL A   1      38.923  33.489  38.278  1.00  0.00     0.135 A 
ATOM     89  F   UNL A   1      40.992  35.637  36.190  1.00  0.00    -0.206 F 
ATOM     90  C   UNL A   1      39.986  36.067  38.262  1.00  0.00     0.059 A 
ATOM     91  C   UNL A   1      38.643  34.350  39.335  1.00  0.00     0.059 A 
ATOM     92  F   UNL A   1      38.395  32.255  38.308  1.00  0.00    -0.206 F 
ATOM     93  C   UNL A   1      39.196  35.630  39.328  1.00  0.00     0.060 A 
BRANCH  93  94
ATOM     94  S   UNL A   1      38.893  36.771  40.694  1.00  0.00     0.124 S 
ATOM     95  O   UNL A   1      40.241  36.981  41.213  1.00  0.00    -0.237 OA
ATOM     96  O   UNL A   1      38.289  37.911  40.014  1.00  0.00    -0.237 OA
ATOM     97  O   UNL A   1      37.994  36.021  41.568  1.00  0.00    -0.744 OA
ENDBRANCH  93  94
ENDBRANCH  61  86
ENDBRANCH  35  36
ENDBRANCH  28  30
ENDBRANCH  27  28
ENDBRANCH  26  27
ENDBRANCH  25  26
ENDBRANCH   1  25
TORSDOF 20
ENDMDL
MODEL 3
REMARK VINA RESULT:     -11.3      1.658      8.443
REMARK SMILES COC(=O)c1cc(F)cc(-c2ccc(C(=O)OCCOCCOC(=O)c3ccc(-c4c5nc(c(-c6c(F)cc(S(=O)(=O)[O-])cc6F)c6ccc([nH]6)c(-c6c(F)cc(S(=O)(=O)[O-])cc6F)c6nc(c(-c7c(F)cc(S(=O)(=O)[O-])cc7F)c7ccc4[nH]7)C=C6)C=C5)cc3)cc2C)c1
REMARK SMILES IDX 20 1 19 2 18 3 17 4 15 5 16 6 14 7 11 8 12 9 93 10 13 11
REMARK SMILES IDX 92 12 94 13 10 14 5 15 6 16 95 17 7 18 8 19 9 20 3 21 4 22
REMARK SMILES IDX 2 23 1 24 21 25 22 26 23 27 24 28 25 29 26 30 27 31 91 32
REMARK SMILES IDX 28 33 90 34 29 35 30 36 31 37 84 38 32 39 89 40 83 41 85 42
REMARK SMILES IDX 33 43 88 44 82 45 81 46 34 48 68 49 47 50 67 51 48 52 51 53
REMARK SMILES IDX 66 54 86 55 49 56 50 57 65 59 87 60 52 61 35 62 36 63 45 64
REMARK SMILES IDX 37 65 38 66 44 67 46 68 39 69 40 70 41 71 42 72 43 73 69 74
REMARK SMILES IDX 70 75 79 76 71 77 72 78 78 79 80 80 73 81 74 82 75 83 76 84
REMARK SMILES IDX 77 85 53 86 54 87 63 88 55 89 56 90 62 91 64 92 57 93 58 94
REMARK SMILES IDX 59 95 60 96 61 97
REMARK H PARENT 85 47 51 58
REMARK Flexibility Score: inf
ROOT
ATOM      1  O   UNL A   1      43.147  22.222  24.696  1.00  0.00    -0.374 OA
ENDROOT
BRANCH   1   2
ATOM      2  C   UNL A   1      43.533  21.433  25.819  1.00  0.00     0.202 C 
BRANCH   2   3
ATOM      3  C   UNL A   1      42.247  20.852  26.406  1.00  0.00     0.261 C 
BRANCH   3   4
ATOM      4  O   UNL A   1      41.155  21.653  25.928  1.00  0.00    -0.460 OA
BRANCH   4   5
ATOM      5  C   UNL A   1      40.620  22.499  26.842  1.00  0.00     0.338 C 
ATOM      6  O   UNL A   1      41.217  23.103  27.722  1.00  0.00    -0.246 OA
BRANCH   5   7
ATOM      7  C   UNL A   1      39.190  22.716  26.502  1.00  0.00     0.060 A 
ATOM      8  C   UNL A   1      36.503  23.102  25.756  1.00  0.00    -0.015 A 
ATOM      9  C   UNL A   1      37.221  24.108  26.428  1.00  0.00     0.010 A 
ATOM     10  C   UNL A   1      37.109  21.842  25.563  1.00  0.00    -0.042 A 
ATOM     11  C   UNL A   1      38.550  23.925  26.789  1.00  0.00     0.016 A 
ATOM     12  C   UNL A   1      38.452  21.663  25.947  1.00  0.00     0.019 A 
ATOM     13  C   UNL A   1      36.381  20.665  24.970  1.00  0.00     0.045 C 
BRANCH   8  14
ATOM     14  C   UNL A   1      35.256  23.499  25.094  1.00  0.00    -0.014 A 
ATOM     15  C   UNL A   1      32.997  24.391  25.381  1.00  0.00     0.063 A 
ATOM     16  C   UNL A   1      32.788  24.316  24.006  1.00  0.00     0.055 A 
ATOM     17  C   UNL A   1      34.225  23.998  25.912  1.00  0.00     0.024 A 
ATOM     18  C   UNL A   1      33.810  23.834  23.193  1.00  0.00     0.124 A 
ATOM     19  F   UNL A   1      33.615  23.772  21.868  1.00  0.00    -0.207 F 
ATOM     20  C   UNL A   1      35.034  23.416  23.718  1.00  0.00     0.048 A 
BRANCH  15  21
ATOM     21  C   UNL A   1      31.975  24.877  26.333  1.00  0.00     0.337 C 
ATOM     22  O   UNL A   1      31.480  24.177  27.202  1.00  0.00    -0.246 OA
BRANCH  21  23
ATOM     23  O   UNL A   1      31.619  26.148  26.029  1.00  0.00    -0.465 OA
ATOM     24  C   UNL A   1      32.591  27.112  26.437  1.00  0.00     0.282 C 
ENDBRANCH  21  23
ENDBRANCH  15  21
ENDBRANCH   8  14
ENDBRANCH   5   7
ENDBRANCH   4   5
ENDBRANCH   3   4
ENDBRANCH   2   3
ENDBRANCH   1   2
BRANCH   1  25
ATOM     25  C   UNL A   1      43.793  23.468  24.538  1.00  0.00     0.202 C 
BRANCH  25  26
ATOM     26  C   UNL A   1      43.438  24.511  25.593  1.00  0.00     0.261 C 
BRANCH  26  27
ATOM     27  O   UNL A   1      42.186  25.196  25.396  1.00  0.00    -0.460 OA
BRANCH  27  28
ATOM     28  C   UNL A   1      41.983  26.536  25.516  1.00  0.00     0.338 C 
ATOM     29  O   UNL A   1      42.313  27.290  24.604  1.00  0.00    -0.246 OA
BRANCH  28  30
ATOM     30  C   UNL A   1      41.711  27.123  26.858  1.00  0.00     0.060 A 
ATOM     31  C   UNL A   1      42.447  28.270  27.211  1.00  0.00     0.016 A 
ATOM     32  C   UNL A   1      40.781  26.610  27.764  1.00  0.00     0.016 A 
ATOM     33  C   UNL A   1      42.292  28.867  28.468  1.00  0.00     0.010 A 
ATOM     34  C   UNL A   1      40.663  27.174  29.042  1.00  0.00     0.010 A 
ATOM     35  C   UNL A   1      41.399  28.319  29.395  1.00  0.00    -0.014 A 
BRANCH  35  36
ATOM     36  C   UNL A   1      40.986  29.089  30.594  1.00  0.00     0.031 A 
ATOM     37  C   UNL A   1      39.875  30.095  30.588  1.00  0.00     0.074 A 
ATOM     38  C   UNL A   1      41.739  28.905  31.696  1.00  0.00     0.049 A 
ATOM     39  N   UNL A   1      39.445  30.847  31.570  1.00  0.00    -0.248 NA
ATOM     40  C   UNL A   1      39.149  30.288  29.328  1.00  0.00     0.031 C 
ATOM     41  C   UNL A   1      42.859  27.962  31.785  1.00  0.00     0.029 A 
ATOM     42  N   UNL A   1      41.721  29.518  32.918  1.00  0.00    -0.354 N 
ATOM     43  C   UNL A   1      38.392  31.596  31.055  1.00  0.00     0.074 A 
ATOM     44  C   UNL A   1      38.262  31.220  29.662  1.00  0.00     0.031 C 
ATOM     45  C   UNL A   1      43.457  28.102  32.975  1.00  0.00     0.029 A 
ATOM     46  C   UNL A   1      42.762  29.139  33.729  1.00  0.00     0.049 A 
ATOM     47  H   UNL A   1      41.030  30.166  33.190  1.00  0.00     0.167 HD
ATOM     48  C   UNL A   1      37.621  32.510  31.694  1.00  0.00     0.037 A 
ATOM     49  C   UNL A   1      43.134  29.584  34.942  1.00  0.00     0.037 A 
ATOM     50  C   UNL A   1      37.812  32.892  33.075  1.00  0.00     0.049 A 
ATOM     51  C   UNL A   1      42.282  30.609  35.622  1.00  0.00     0.074 A 
ATOM     52  C   UNL A   1      37.044  33.749  33.847  1.00  0.00     0.029 A 
ATOM     53  N   UNL A   1      38.862  32.470  33.881  1.00  0.00    -0.354 N 
ATOM     54  N   UNL A   1      41.218  31.223  35.163  1.00  0.00    -0.248 NA
ATOM     55  C   UNL A   1      42.657  30.985  36.989  1.00  0.00     0.031 C 
ATOM     56  C   UNL A   1      37.666  33.897  35.091  1.00  0.00     0.029 A 
ATOM     57  C   UNL A   1      38.786  33.080  35.124  1.00  0.00     0.049 A 
ATOM     58  H   UNL A   1      39.560  31.831  33.609  1.00  0.00     0.167 HD
ATOM     59  C   UNL A   1      40.779  32.044  36.192  1.00  0.00     0.074 A 
ATOM     60  C   UNL A   1      41.690  31.840  37.302  1.00  0.00     0.031 C 
ATOM     61  C   UNL A   1      39.713  32.882  36.214  1.00  0.00     0.037 A 
BRANCH  48  62
ATOM     62  C   UNL A   1      36.502  33.177  30.931  1.00  0.00     0.058 A 
ATOM     63  C   UNL A   1      36.774  34.170  29.974  1.00  0.00     0.135 A 
ATOM     64  C   UNL A   1      35.152  32.915  31.222  1.00  0.00     0.135 A 
ATOM     65  F   UNL A   1      38.043  34.471  29.656  1.00  0.00    -0.206 F 
ATOM     66  C   UNL A   1      35.757  34.887  29.348  1.00  0.00     0.059 A 
ATOM     67  C   UNL A   1      34.117  33.603  30.589  1.00  0.00     0.059 A 
ATOM     68  F   UNL A   1      34.826  31.976  32.123  1.00  0.00    -0.206 F 
ATOM     69  C   UNL A   1      34.429  34.598  29.664  1.00  0.00     0.060 A 
BRANCH  69  70
ATOM     70  S   UNL A   1      33.120  35.525  28.831  1.00  0.00     0.124 S 
ATOM     71  O   UNL A   1      32.533  34.511  27.964  1.00  0.00    -0.237 OA
ATOM     72  O   UNL A   1      32.293  35.960  29.952  1.00  0.00    -0.237 OA
ATOM     73  O   UNL A   1      33.844  36.594  28.147  1.00  0.00    -0.744 OA
ENDBRANCH  69  70
ENDBRANCH  48  62
BRANCH  49  74
ATOM     74  C   UNL A   1      44.340  28.995  35.574  1.00  0.00     0.058 A 
ATOM     75  C   UNL A   1      44.237  27.902  36.451  1.00  0.00     0.135 A 
ATOM     76  C   UNL A   1      45.593  29.604  35.427  1.00  0.00     0.135 A 
ATOM     77  F   UNL A   1      43.051  27.303  36.646  1.00  0.00    -0.206 F 
ATOM     78  C   UNL A   1      45.327  27.459  37.189  1.00  0.00     0.059 A 
ATOM     79  C   UNL A   1      46.704  29.164  36.138  1.00  0.00     0.059 A 
ATOM     80  F   UNL A   1      45.734  30.653  34.602  1.00  0.00    -0.206 F 
ATOM     81  C   UNL A   1      46.555  28.106  37.035  1.00  0.00     0.060 A 
BRANCH  81  82
ATOM     82  S   UNL A   1      47.944  27.560  38.050  1.00  0.00     0.124 S 
ATOM     83  O   UNL A   1      47.274  26.708  39.028  1.00  0.00    -0.237 OA
ATOM     84  O   UNL A   1      48.781  26.870  37.075  1.00  0.00    -0.237 OA
ATOM     85  O   UNL A   1      48.491  28.807  38.574  1.00  0.00    -0.744 OA
ENDBRANCH  81  82
ENDBRANCH  49  74
BRANCH  61  86
ATOM     86  C   UNL A   1      39.469  33.651  37.484  1.00  0.00     0.058 A 
ATOM     87  C   UNL A   1      40.209  34.810  37.768  1.00  0.00     0.135 A 
ATOM     88  C   UNL A   1      38.555  33.200  38.449  1.00  0.00     0.135 A 
ATOM     89  F   UNL A   1      41.094  35.283  36.878  1.00  0.00    -0.206 F 
ATOM     90  C   UNL A   1      40.069  35.482  38.976  1.00  0.00     0.059 A 
ATOM     91  C   UNL A   1      38.378  33.875  39.654  1.00  0.00     0.059 A 
ATOM     92  F   UNL A   1      37.811  32.107  38.219  1.00  0.00    -0.206 F 
ATOM     93  C   UNL A   1      39.154  35.003  39.916  1.00  0.00     0.060 A 
BRANCH  93  94
ATOM     94  S   UNL A   1      38.987  35.890  41.480  1.00  0.00     0.124 S 
ATOM     95  O   UNL A   1      37.723  35.368  41.987  1.00  0.00    -0.237 OA
ATOM     96  O   UNL A   1      40.184  35.468  42.201  1.00  0.00    -0.237 OA
ATOM     97  O   UNL A   1      38.970  37.293  41.074  1.00  0.00    -0.744 OA
ENDBRANCH  93  94
ENDBRANCH  61  86
ENDBRANCH  35  36
ENDBRANCH  28  30
ENDBRANCH  27  28
ENDBRANCH  26  27
ENDBRANCH  25  26
ENDBRANCH   1  25
TORSDOF 20
ENDMDL
