MODEL 1
REMARK VINA RESULT:     -12.0      0.000      0.000
REMARK SMILES Cc1cccc(-c2cccc(O)c2)c1C(=O)OCCOCCOC(=O)c1ccc(-c2c3nc(c(-c4c(F)cc(S(=O)(=O)[O-])cc4F)c4ccc([nH]4)c(-c4c(F)cc(S(=O)(=O)[O-])cc4F)c4nc(c(-c5c(F)cc(S(=O)(=O)[O-])cc5F)c5ccc2[nH]5)C=C4)C=C3)cc1
REMARK SMILES IDX 21 1 20 2 19 3 18 4 17 5 15 6 16 7 14 8 1 9 2 10 3 11 4 12
REMARK SMILES IDX 6 13 5 14 7 15 8 16 13 17 9 18 11 19 10 20 12 21 22 23 23 24
REMARK SMILES IDX 24 25 25 26 26 27 27 28 91 29 28 30 90 31 29 32 30 33 31 34
REMARK SMILES IDX 84 35 32 36 89 37 83 38 85 39 33 40 88 41 82 42 81 43 34 45
REMARK SMILES IDX 68 46 47 47 67 48 48 49 51 50 66 51 86 52 49 53 50 54 65 56
REMARK SMILES IDX 87 57 52 58 35 59 36 60 45 61 37 62 38 63 44 64 46 65 39 66
REMARK SMILES IDX 40 67 41 68 42 69 43 70 69 71 70 72 79 73 71 74 72 75 78 76
REMARK SMILES IDX 80 77 73 78 74 79 75 80 76 81 77 82 53 83 54 84 63 85 55 86
REMARK SMILES IDX 56 87 62 88 64 89 57 90 58 91 59 92 60 93 61 94
REMARK H PARENT 12 22 85 44 51 55
REMARK Flexibility Score: inf
ROOT
ATOM      1  C   UNL A   1      32.001  29.618  25.752  1.00  0.00     0.202 C 
ENDROOT
BRANCH   1   2
ATOM      2  O   UNL A   1      33.125  29.413  24.943  1.00  0.00    -0.374 OA
BRANCH   2   3
ATOM      3  C   UNL A   1      33.755  28.142  25.073  1.00  0.00     0.202 C 
BRANCH   3   4
ATOM      4  C   UNL A   1      32.939  27.474  26.116  1.00  0.00     0.261 C 
BRANCH   4   5
ATOM      5  O   UNL A   1      33.339  26.094  26.170  1.00  0.00    -0.460 OA
BRANCH   5   6
ATOM      6  C   UNL A   1      32.468  25.060  26.108  1.00  0.00     0.339 C 
ATOM      7  O   UNL A   1      31.545  24.841  26.850  1.00  0.00    -0.246 OA
BRANCH   6   8
ATOM      8  C   UNL A   1      32.824  24.273  24.887  1.00  0.00     0.070 A 
ATOM      9  C   UNL A   1      34.581  22.755  26.139  1.00  0.00     0.045 C 
ATOM     10  C   UNL A   1      33.827  23.255  24.922  1.00  0.00    -0.036 A 
ATOM     11  C   UNL A   1      34.222  22.661  23.715  1.00  0.00     0.004 A 
ATOM     12  C   UNL A   1      33.622  23.006  22.513  1.00  0.00     0.001 A 
ATOM     13  C   UNL A   1      32.185  24.617  23.657  1.00  0.00    -0.003 A 
ATOM     14  C   UNL A   1      32.606  23.957  22.487  1.00  0.00     0.009 A 
BRANCH  13  15
ATOM     15  C   UNL A   1      31.147  25.664  23.500  1.00  0.00    -0.014 A 
ATOM     16  C   UNL A   1      31.443  26.880  22.861  1.00  0.00     0.009 A 
ATOM     17  C   UNL A   1      29.831  25.470  23.952  1.00  0.00     0.055 A 
ATOM     18  C   UNL A   1      30.484  27.892  22.737  1.00  0.00     0.004 A 
ATOM     19  C   UNL A   1      28.872  26.475  23.805  1.00  0.00     0.116 A 
ATOM     20  C   UNL A   1      29.193  27.694  23.218  1.00  0.00     0.046 A 
BRANCH  19  21
ATOM     21  O   UNL A   1      27.607  26.217  24.248  1.00  0.00    -0.508 OA
ATOM     22  H   UNL A   1      26.921  26.837  24.094  1.00  0.00     0.293 HD
ENDBRANCH  19  21
ENDBRANCH  13  15
ENDBRANCH   6   8
ENDBRANCH   5   6
ENDBRANCH   4   5
ENDBRANCH   3   4
ENDBRANCH   2   3
ENDBRANCH   1   2
BRANCH   1  23
ATOM     23  C   UNL A   1      32.217  30.759  26.738  1.00  0.00     0.261 C 
BRANCH  23  24
ATOM     24  O   UNL A   1      33.241  30.419  27.705  1.00  0.00    -0.460 OA
BRANCH  24  25
ATOM     25  C   UNL A   1      34.399  31.149  27.673  1.00  0.00     0.338 C 
ATOM     26  O   UNL A   1      34.434  32.335  27.394  1.00  0.00    -0.246 OA
BRANCH  25  27
ATOM     27  C   UNL A   1      35.568  30.355  28.159  1.00  0.00     0.060 A 
ATOM     28  C   UNL A   1      35.582  29.758  29.435  1.00  0.00     0.016 A 
ATOM     29  C   UNL A   1      36.724  30.348  27.387  1.00  0.00     0.016 A 
ATOM     30  C   UNL A   1      36.791  29.291  29.992  1.00  0.00     0.010 A 
ATOM     31  C   UNL A   1      37.918  29.991  27.976  1.00  0.00     0.010 A 
ATOM     32  C   UNL A   1      37.975  29.480  29.285  1.00  0.00    -0.014 A 
BRANCH  32  33
ATOM     33  C   UNL A   1      39.347  29.247  29.764  1.00  0.00     0.031 A 
ATOM     34  C   UNL A   1      39.971  27.955  29.379  1.00  0.00     0.074 A 
ATOM     35  C   UNL A   1      40.124  30.269  30.215  1.00  0.00     0.049 A 
ATOM     36  N   UNL A   1      41.159  27.606  29.715  1.00  0.00    -0.248 NA
ATOM     37  C   UNL A   1      39.299  26.913  28.597  1.00  0.00     0.031 C 
ATOM     38  C   UNL A   1      41.584  30.402  30.160  1.00  0.00     0.029 A 
ATOM     39  N   UNL A   1      39.753  31.491  30.793  1.00  0.00    -0.354 N 
ATOM     40  C   UNL A   1      41.526  26.528  28.946  1.00  0.00     0.074 A 
ATOM     41  C   UNL A   1      40.297  26.053  28.368  1.00  0.00     0.031 C 
ATOM     42  C   UNL A   1      41.981  31.432  30.934  1.00  0.00     0.029 A 
ATOM     43  C   UNL A   1      40.797  31.935  31.613  1.00  0.00     0.049 A 
ATOM     44  H   UNL A   1      38.900  31.960  30.646  1.00  0.00     0.167 HD
ATOM     45  C   UNL A   1      42.857  26.266  28.823  1.00  0.00     0.037 A 
ATOM     46  C   UNL A   1      40.594  32.077  32.950  1.00  0.00     0.037 A 
ATOM     47  C   UNL A   1      43.608  27.100  29.775  1.00  0.00     0.049 A 
ATOM     48  C   UNL A   1      41.435  31.033  33.624  1.00  0.00     0.074 A 
ATOM     49  C   UNL A   1      44.416  28.214  29.646  1.00  0.00     0.029 A 
ATOM     50  N   UNL A   1      43.282  27.011  31.130  1.00  0.00    -0.354 N 
ATOM     51  N   UNL A   1      41.766  29.916  33.029  1.00  0.00    -0.248 NA
ATOM     52  C   UNL A   1      42.126  31.225  34.894  1.00  0.00     0.031 C 
ATOM     53  C   UNL A   1      44.463  28.861  30.922  1.00  0.00     0.029 A 
ATOM     54  C   UNL A   1      43.712  28.123  31.830  1.00  0.00     0.049 A 
ATOM     55  H   UNL A   1      42.805  26.252  31.538  1.00  0.00     0.167 HD
ATOM     56  C   UNL A   1      42.778  29.328  33.717  1.00  0.00     0.074 A 
ATOM     57  C   UNL A   1      42.930  30.146  34.910  1.00  0.00     0.031 C 
ATOM     58  C   UNL A   1      43.460  28.239  33.265  1.00  0.00     0.037 A 
BRANCH  45  59
ATOM     59  C   UNL A   1      43.513  25.382  27.777  1.00  0.00     0.058 A 
ATOM     60  C   UNL A   1      43.610  25.828  26.440  1.00  0.00     0.135 A 
ATOM     61  C   UNL A   1      43.989  24.066  27.982  1.00  0.00     0.135 A 
ATOM     62  F   UNL A   1      43.172  27.044  26.081  1.00  0.00    -0.206 F 
ATOM     63  C   UNL A   1      44.140  25.048  25.406  1.00  0.00     0.059 A 
ATOM     64  C   UNL A   1      44.565  23.285  26.973  1.00  0.00     0.059 A 
ATOM     65  F   UNL A   1      43.874  23.436  29.156  1.00  0.00    -0.206 F 
ATOM     66  C   UNL A   1      44.627  23.778  25.682  1.00  0.00     0.060 A 
BRANCH  66  67
ATOM     67  S   UNL A   1      45.321  22.785  24.347  1.00  0.00     0.124 S 
ATOM     68  O   UNL A   1      44.147  22.522  23.522  1.00  0.00    -0.237 OA
ATOM     69  O   UNL A   1      46.315  23.686  23.774  1.00  0.00    -0.237 OA
ATOM     70  O   UNL A   1      45.866  21.618  25.037  1.00  0.00    -0.744 OA
ENDBRANCH  66  67
ENDBRANCH  45  59
BRANCH  46  71
ATOM     71  C   UNL A   1      39.220  32.593  33.262  1.00  0.00     0.058 A 
ATOM     72  C   UNL A   1      38.920  33.901  32.813  1.00  0.00     0.135 A 
ATOM     73  C   UNL A   1      38.124  31.738  33.464  1.00  0.00     0.135 A 
ATOM     74  F   UNL A   1      39.919  34.771  32.577  1.00  0.00    -0.206 F 
ATOM     75  C   UNL A   1      37.631  34.294  32.441  1.00  0.00     0.059 A 
ATOM     76  C   UNL A   1      36.822  32.105  33.076  1.00  0.00     0.059 A 
ATOM     77  F   UNL A   1      38.319  30.481  33.885  1.00  0.00    -0.206 F 
ATOM     78  C   UNL A   1      36.596  33.365  32.515  1.00  0.00     0.060 A 
BRANCH  78  79
ATOM     79  S   UNL A   1      35.057  33.709  31.600  1.00  0.00     0.124 S 
ATOM     80  O   UNL A   1      35.506  33.667  30.215  1.00  0.00    -0.237 OA
ATOM     81  O   UNL A   1      34.185  32.611  32.015  1.00  0.00    -0.237 OA
ATOM     82  O   UNL A   1      34.660  35.017  32.106  1.00  0.00    -0.744 OA
ENDBRANCH  78  79
ENDBRANCH  46  71
BRANCH  58  83
ATOM     83  C   UNL A   1      43.982  27.207  34.220  1.00  0.00     0.058 A 
ATOM     84  C   UNL A   1      45.347  27.111  34.557  1.00  0.00     0.135 A 
ATOM     85  C   UNL A   1      43.104  26.393  34.968  1.00  0.00     0.135 A 
ATOM     86  F   UNL A   1      46.268  27.939  34.040  1.00  0.00    -0.206 F 
ATOM     87  C   UNL A   1      45.821  26.181  35.468  1.00  0.00     0.059 A 
ATOM     88  C   UNL A   1      43.551  25.513  35.944  1.00  0.00     0.059 A 
ATOM     89  F   UNL A   1      41.777  26.434  34.790  1.00  0.00    -0.206 F 
ATOM     90  C   UNL A   1      44.916  25.376  36.146  1.00  0.00     0.060 A 
BRANCH  90  91
ATOM     91  S   UNL A   1      45.544  24.147  37.288  1.00  0.00     0.124 S 
ATOM     92  O   UNL A   1      46.945  24.544  37.388  1.00  0.00    -0.237 OA
ATOM     93  O   UNL A   1      44.735  24.378  38.482  1.00  0.00    -0.237 OA
ATOM     94  O   UNL A   1      45.290  22.885  36.601  1.00  0.00    -0.744 OA
ENDBRANCH  90  91
ENDBRANCH  58  83
ENDBRANCH  32  33
ENDBRANCH  25  27
ENDBRANCH  24  25
ENDBRANCH  23  24
ENDBRANCH   1  23
TORSDOF 19
ENDMDL
MODEL 2
REMARK VINA RESULT:     -11.8      1.192      3.056
REMARK SMILES Cc1cccc(-c2cccc(O)c2)c1C(=O)OCCOCCOC(=O)c1ccc(-c2c3nc(c(-c4c(F)cc(S(=O)(=O)[O-])cc4F)c4ccc([nH]4)c(-c4c(F)cc(S(=O)(=O)[O-])cc4F)c4nc(c(-c5c(F)cc(S(=O)(=O)[O-])cc5F)c5ccc2[nH]5)C=C4)C=C3)cc1
REMARK SMILES IDX 21 1 20 2 19 3 18 4 17 5 15 6 16 7 14 8 1 9 2 10 3 11 4 12
REMARK SMILES IDX 6 13 5 14 7 15 8 16 13 17 9 18 11 19 10 20 12 21 22 23 23 24
REMARK SMILES IDX 24 25 25 26 26 27 27 28 91 29 28 30 90 31 29 32 30 33 31 34
REMARK SMILES IDX 84 35 32 36 89 37 83 38 85 39 33 40 88 41 82 42 81 43 34 45
REMARK SMILES IDX 68 46 47 47 67 48 48 49 51 50 66 51 86 52 49 53 50 54 65 56
REMARK SMILES IDX 87 57 52 58 35 59 36 60 45 61 37 62 38 63 44 64 46 65 39 66
REMARK SMILES IDX 40 67 41 68 42 69 43 70 69 71 70 72 79 73 71 74 72 75 78 76
REMARK SMILES IDX 80 77 73 78 74 79 75 80 76 81 77 82 53 83 54 84 63 85 55 86
REMARK SMILES IDX 56 87 62 88 64 89 57 90 58 91 59 92 60 93 61 94
REMARK H PARENT 12 22 85 44 51 55
REMARK Flexibility Score: inf
ROOT
ATOM      1  C   UNL A   1      31.782  28.968  25.872  1.00  0.00     0.202 C 
ENDROOT
BRANCH   1   2
ATOM      2  O   UNL A   1      32.130  28.233  24.733  1.00  0.00    -0.374 OA
BRANCH   2   3
ATOM      3  C   UNL A   1      33.457  27.714  24.716  1.00  0.00     0.202 C 
BRANCH   3   4
ATOM      4  C   UNL A   1      33.520  27.012  23.410  1.00  0.00     0.261 C 
BRANCH   4   5
ATOM      5  O   UNL A   1      34.084  25.709  23.639  1.00  0.00    -0.460 OA
BRANCH   5   6
ATOM      6  C   UNL A   1      33.476  24.556  23.273  1.00  0.00     0.339 C 
ATOM      7  O   UNL A   1      33.552  24.001  22.207  1.00  0.00    -0.246 OA
BRANCH   6   8
ATOM      8  C   UNL A   1      32.747  24.056  24.478  1.00  0.00     0.070 A 
ATOM      9  C   UNL A   1      30.475  25.231  23.834  1.00  0.00     0.045 C 
ATOM     10  C   UNL A   1      31.387  24.417  24.731  1.00  0.00    -0.036 A 
ATOM     11  C   UNL A   1      30.809  24.042  25.952  1.00  0.00     0.004 A 
ATOM     12  C   UNL A   1      31.513  23.288  26.880  1.00  0.00     0.001 A 
ATOM     13  C   UNL A   1      33.470  23.259  25.417  1.00  0.00    -0.003 A 
ATOM     14  C   UNL A   1      32.818  22.887  26.608  1.00  0.00     0.009 A 
BRANCH  13  15
ATOM     15  C   UNL A   1      34.885  22.838  25.268  1.00  0.00    -0.014 A 
ATOM     16  C   UNL A   1      35.207  21.567  24.764  1.00  0.00     0.009 A 
ATOM     17  C   UNL A   1      35.947  23.700  25.592  1.00  0.00     0.055 A 
ATOM     18  C   UNL A   1      36.537  21.143  24.651  1.00  0.00     0.004 A 
ATOM     19  C   UNL A   1      37.272  23.279  25.455  1.00  0.00     0.116 A 
ATOM     20  C   UNL A   1      37.576  21.999  25.006  1.00  0.00     0.046 A 
BRANCH  19  21
ATOM     21  O   UNL A   1      38.257  24.170  25.768  1.00  0.00    -0.508 OA
ATOM     22  H   UNL A   1      38.061  25.083  25.827  1.00  0.00     0.293 HD
ENDBRANCH  19  21
ENDBRANCH  13  15
ENDBRANCH   6   8
ENDBRANCH   5   6
ENDBRANCH   4   5
ENDBRANCH   3   4
ENDBRANCH   2   3
ENDBRANCH   1   2
BRANCH   1  23
ATOM     23  C   UNL A   1      32.968  29.145  26.812  1.00  0.00     0.261 C 
BRANCH  23  24
ATOM     24  O   UNL A   1      33.695  30.360  26.503  1.00  0.00    -0.460 OA
BRANCH  24  25
ATOM     25  C   UNL A   1      34.298  31.012  27.546  1.00  0.00     0.338 C 
ATOM     26  O   UNL A   1      33.857  32.036  28.038  1.00  0.00    -0.246 OA
BRANCH  25  27
ATOM     27  C   UNL A   1      35.458  30.240  28.084  1.00  0.00     0.060 A 
ATOM     28  C   UNL A   1      35.498  29.792  29.419  1.00  0.00     0.016 A 
ATOM     29  C   UNL A   1      36.588  30.108  27.284  1.00  0.00     0.016 A 
ATOM     30  C   UNL A   1      36.710  29.352  29.989  1.00  0.00     0.010 A 
ATOM     31  C   UNL A   1      37.790  29.781  27.874  1.00  0.00     0.010 A 
ATOM     32  C   UNL A   1      37.876  29.420  29.231  1.00  0.00    -0.014 A 
BRANCH  32  33
ATOM     33  C   UNL A   1      39.256  29.200  29.692  1.00  0.00     0.031 A 
ATOM     34  C   UNL A   1      39.904  27.936  29.254  1.00  0.00     0.074 A 
ATOM     35  C   UNL A   1      40.013  30.220  30.177  1.00  0.00     0.049 A 
ATOM     36  N   UNL A   1      41.102  27.600  29.569  1.00  0.00    -0.248 NA
ATOM     37  C   UNL A   1      39.248  26.911  28.437  1.00  0.00     0.031 C 
ATOM     38  C   UNL A   1      41.471  30.386  30.118  1.00  0.00     0.029 A 
ATOM     39  N   UNL A   1      39.621  31.411  30.804  1.00  0.00    -0.354 N 
ATOM     40  C   UNL A   1      41.485  26.561  28.757  1.00  0.00     0.074 A 
ATOM     41  C   UNL A   1      40.263  26.082  28.169  1.00  0.00     0.031 C 
ATOM     42  C   UNL A   1      41.850  31.394  30.928  1.00  0.00     0.029 A 
ATOM     43  C   UNL A   1      40.661  31.845  31.634  1.00  0.00     0.049 A 
ATOM     44  H   UNL A   1      38.757  31.866  30.680  1.00  0.00     0.167 HD
ATOM     45  C   UNL A   1      42.821  26.332  28.615  1.00  0.00     0.037 A 
ATOM     46  C   UNL A   1      40.465  31.931  32.977  1.00  0.00     0.037 A 
ATOM     47  C   UNL A   1      43.561  27.145  29.595  1.00  0.00     0.049 A 
ATOM     48  C   UNL A   1      41.332  30.880  33.605  1.00  0.00     0.074 A 
ATOM     49  C   UNL A   1      44.344  28.280  29.503  1.00  0.00     0.029 A 
ATOM     50  N   UNL A   1      43.246  26.997  30.947  1.00  0.00    -0.354 N 
ATOM     51  N   UNL A   1      41.682  29.794  32.966  1.00  0.00    -0.248 NA
ATOM     52  C   UNL A   1      42.028  31.038  34.876  1.00  0.00     0.031 C 
ATOM     53  C   UNL A   1      44.386  28.878  30.802  1.00  0.00     0.029 A 
ATOM     54  C   UNL A   1      43.657  28.091  31.686  1.00  0.00     0.049 A 
ATOM     55  H   UNL A   1      42.789  26.213  31.328  1.00  0.00     0.167 HD
ATOM     56  C   UNL A   1      42.712  29.202  33.624  1.00  0.00     0.074 A 
ATOM     57  C   UNL A   1      42.855  29.977  34.847  1.00  0.00     0.031 C 
ATOM     58  C   UNL A   1      43.413  28.146  33.126  1.00  0.00     0.037 A 
BRANCH  45  59
ATOM     59  C   UNL A   1      43.488  25.503  27.532  1.00  0.00     0.058 A 
ATOM     60  C   UNL A   1      43.621  24.106  27.699  1.00  0.00     0.135 A 
ATOM     61  C   UNL A   1      44.091  26.004  26.355  1.00  0.00     0.135 A 
ATOM     62  F   UNL A   1      43.128  23.486  28.781  1.00  0.00    -0.206 F 
ATOM     63  C   UNL A   1      44.280  23.282  26.779  1.00  0.00     0.059 A 
ATOM     64  C   UNL A   1      44.715  25.194  25.399  1.00  0.00     0.059 A 
ATOM     65  F   UNL A   1      44.164  27.312  26.087  1.00  0.00    -0.206 F 
ATOM     66  C   UNL A   1      44.816  23.832  25.623  1.00  0.00     0.060 A 
BRANCH  66  67
ATOM     67  S   UNL A   1      45.651  22.762  24.436  1.00  0.00     0.124 S 
ATOM     68  O   UNL A   1      46.628  23.670  23.844  1.00  0.00    -0.237 OA
ATOM     69  O   UNL A   1      46.193  21.712  25.292  1.00  0.00    -0.237 OA
ATOM     70  O   UNL A   1      44.577  22.340  23.541  1.00  0.00    -0.744 OA
ENDBRANCH  66  67
ENDBRANCH  45  59
BRANCH  46  71
ATOM     71  C   UNL A   1      39.082  32.405  33.316  1.00  0.00     0.058 A 
ATOM     72  C   UNL A   1      38.786  33.756  33.014  1.00  0.00     0.135 A 
ATOM     73  C   UNL A   1      37.985  31.531  33.395  1.00  0.00     0.135 A 
ATOM     74  F   UNL A   1      39.786  34.649  32.901  1.00  0.00    -0.206 F 
ATOM     75  C   UNL A   1      37.503  34.187  32.663  1.00  0.00     0.059 A 
ATOM     76  C   UNL A   1      36.691  31.938  33.025  1.00  0.00     0.059 A 
ATOM     77  F   UNL A   1      38.177  30.234  33.673  1.00  0.00    -0.206 F 
ATOM     78  C   UNL A   1      36.471  33.253  32.608  1.00  0.00     0.060 A 
BRANCH  78  79
ATOM     79  S   UNL A   1      34.950  33.698  31.706  1.00  0.00     0.124 S 
ATOM     80  O   UNL A   1      35.475  34.190  30.440  1.00  0.00    -0.237 OA
ATOM     81  O   UNL A   1      34.234  32.425  31.640  1.00  0.00    -0.237 OA
ATOM     82  O   UNL A   1      34.332  34.692  32.575  1.00  0.00    -0.744 OA
ENDBRANCH  78  79
ENDBRANCH  46  71
BRANCH  58  83
ATOM     83  C   UNL A   1      43.964  27.090  34.038  1.00  0.00     0.058 A 
ATOM     84  C   UNL A   1      43.137  26.230  34.786  1.00  0.00     0.135 A 
ATOM     85  C   UNL A   1      45.343  26.787  34.054  1.00  0.00     0.135 A 
ATOM     86  F   UNL A   1      41.798  26.305  34.731  1.00  0.00    -0.206 F 
ATOM     87  C   UNL A   1      43.649  25.231  35.598  1.00  0.00     0.059 A 
ATOM     88  C   UNL A   1      45.867  25.738  34.796  1.00  0.00     0.059 A 
ATOM     89  F   UNL A   1      46.230  27.487  33.335  1.00  0.00    -0.206 F 
ATOM     90  C   UNL A   1      45.017  25.002  35.607  1.00  0.00     0.060 A 
BRANCH  90  91
ATOM     91  S   UNL A   1      45.672  23.737  36.695  1.00  0.00     0.124 S 
ATOM     92  O   UNL A   1      44.953  24.030  37.931  1.00  0.00    -0.237 OA
ATOM     93  O   UNL A   1      45.286  22.502  36.017  1.00  0.00    -0.237 OA
ATOM     94  O   UNL A   1      47.104  24.014  36.712  1.00  0.00    -0.744 OA
ENDBRANCH  90  91
ENDBRANCH  58  83
ENDBRANCH  32  33
ENDBRANCH  25  27
ENDBRANCH  24  25
ENDBRANCH  23  24
ENDBRANCH   1  23
TORSDOF 19
ENDMDL
MODEL 3
REMARK VINA RESULT:     -11.7      3.486      9.770
REMARK SMILES Cc1cccc(-c2cccc(O)c2)c1C(=O)OCCOCCOC(=O)c1ccc(-c2c3nc(c(-c4c(F)cc(S(=O)(=O)[O-])cc4F)c4ccc([nH]4)c(-c4c(F)cc(S(=O)(=O)[O-])cc4F)c4nc(c(-c5c(F)cc(S(=O)(=O)[O-])cc5F)c5ccc2[nH]5)C=C4)C=C3)cc1
REMARK SMILES IDX 21 1 20 2 19 3 18 4 17 5 15 6 16 7 14 8 1 9 2 10 3 11 4 12
REMARK SMILES IDX 6 13 5 14 7 15 8 16 13 17 9 18 11 19 10 20 12 21 22 23 23 24
REMARK SMILES IDX 24 25 25 26 26 27 27 28 91 29 28 30 90 31 29 32 30 33 31 34
REMARK SMILES IDX 84 35 32 36 89 37 83 38 85 39 33 40 88 41 82 42 81 43 34 45
REMARK SMILES IDX 68 46 47 47 67 48 48 49 51 50 66 51 86 52 49 53 50 54 65 56
REMARK SMILES IDX 87 57 52 58 35 59 36 60 45 61 37 62 38 63 44 64 46 65 39 66
REMARK SMILES IDX 40 67 41 68 42 69 43 70 69 71 70 72 79 73 71 74 72 75 78 76
REMARK SMILES IDX 80 77 73 78 74 79 75 80 76 81 77 82 53 83 54 84 63 85 55 86
REMARK SMILES IDX 56 87 62 88 64 89 57 90 58 91 59 92 60 93 61 94
REMARK H PARENT 12 22 85 44 51 55
REMARK Flexibility Score: inf
ROOT
ATOM      1  C   UNL A   1      36.040  20.921  25.105  1.00  0.00     0.202 C 
ENDROOT
BRANCH   1   2
ATOM      2  O   UNL A   1      35.388  21.423  26.237  1.00  0.00    -0.374 OA
BRANCH   2   3
ATOM      3  C   UNL A   1      34.123  22.034  26.000  1.00  0.00     0.202 C 
BRANCH   3   4
ATOM      4  C   UNL A   1      34.156  23.218  26.893  1.00  0.00     0.261 C 
BRANCH   4   5
ATOM      5  O   UNL A   1      33.677  24.348  26.143  1.00  0.00    -0.460 OA
BRANCH   5   6
ATOM      6  C   UNL A   1      32.369  24.681  26.046  1.00  0.00     0.339 C 
ATOM      7  O   UNL A   1      31.540  24.635  26.919  1.00  0.00    -0.246 OA
BRANCH   6   8
ATOM      8  C   UNL A   1      32.159  25.193  24.657  1.00  0.00     0.070 A 
ATOM      9  C   UNL A   1      31.702  22.804  23.635  1.00  0.00     0.045 C 
ATOM     10  C   UNL A   1      31.899  24.306  23.566  1.00  0.00    -0.036 A 
ATOM     11  C   UNL A   1      31.865  24.832  22.267  1.00  0.00     0.004 A 
ATOM     12  C   UNL A   1      32.022  26.192  22.037  1.00  0.00     0.001 A 
ATOM     13  C   UNL A   1      32.298  26.596  24.431  1.00  0.00    -0.003 A 
ATOM     14  C   UNL A   1      32.217  27.063  23.105  1.00  0.00     0.009 A 
BRANCH  13  15
ATOM     15  C   UNL A   1      32.582  27.604  25.481  1.00  0.00    -0.014 A 
ATOM     16  C   UNL A   1      31.567  28.052  26.343  1.00  0.00     0.009 A 
ATOM     17  C   UNL A   1      33.875  28.123  25.672  1.00  0.00     0.055 A 
ATOM     18  C   UNL A   1      31.813  29.029  27.314  1.00  0.00     0.004 A 
ATOM     19  C   UNL A   1      34.118  29.081  26.658  1.00  0.00     0.116 A 
ATOM     20  C   UNL A   1      33.093  29.554  27.469  1.00  0.00     0.046 A 
BRANCH  19  21
ATOM     21  O   UNL A   1      35.399  29.530  26.806  1.00  0.00    -0.508 OA
ATOM     22  H   UNL A   1      36.091  28.923  26.976  1.00  0.00     0.293 HD
ENDBRANCH  19  21
ENDBRANCH  13  15
ENDBRANCH   6   8
ENDBRANCH   5   6
ENDBRANCH   4   5
ENDBRANCH   3   4
ENDBRANCH   2   3
ENDBRANCH   1   2
BRANCH   1  23
ATOM     23  C   UNL A   1      37.434  21.516  24.948  1.00  0.00     0.261 C 
BRANCH  23  24
ATOM     24  O   UNL A   1      37.739  22.412  26.044  1.00  0.00    -0.460 OA
BRANCH  24  25
ATOM     25  C   UNL A   1      39.061  22.590  26.358  1.00  0.00     0.338 C 
ATOM     26  O   UNL A   1      39.893  21.703  26.276  1.00  0.00    -0.246 OA
BRANCH  25  27
ATOM     27  C   UNL A   1      39.369  24.020  26.664  1.00  0.00     0.060 A 
ATOM     28  C   UNL A   1      40.149  24.813  25.801  1.00  0.00     0.016 A 
ATOM     29  C   UNL A   1      39.005  24.518  27.911  1.00  0.00     0.016 A 
ATOM     30  C   UNL A   1      40.686  26.039  26.248  1.00  0.00     0.010 A 
ATOM     31  C   UNL A   1      39.619  25.660  28.379  1.00  0.00     0.010 A 
ATOM     32  C   UNL A   1      40.480  26.423  27.570  1.00  0.00    -0.014 A 
BRANCH  32  33
ATOM     33  C   UNL A   1      41.107  27.549  28.280  1.00  0.00     0.031 A 
ATOM     34  C   UNL A   1      40.221  28.695  28.613  1.00  0.00     0.074 A 
ATOM     35  C   UNL A   1      42.306  27.413  28.907  1.00  0.00     0.049 A 
ATOM     36  N   UNL A   1      40.616  29.748  29.232  1.00  0.00    -0.248 NA
ATOM     37  C   UNL A   1      38.803  28.776  28.251  1.00  0.00     0.031 C 
ATOM     38  C   UNL A   1      42.802  28.114  30.097  1.00  0.00     0.029 A 
ATOM     39  N   UNL A   1      43.366  26.535  28.638  1.00  0.00    -0.354 N 
ATOM     40  C   UNL A   1      39.507  30.443  29.649  1.00  0.00     0.074 A 
ATOM     41  C   UNL A   1      38.415  29.877  28.905  1.00  0.00     0.031 C 
ATOM     42  C   UNL A   1      44.122  27.884  30.248  1.00  0.00     0.029 A 
ATOM     43  C   UNL A   1      44.556  27.114  29.092  1.00  0.00     0.049 A 
ATOM     44  H   UNL A   1      43.285  25.656  28.201  1.00  0.00     0.167 HD
ATOM     45  C   UNL A   1      39.669  31.335  30.667  1.00  0.00     0.037 A 
ATOM     46  C   UNL A   1      45.544  27.415  28.208  1.00  0.00     0.037 A 
ATOM     47  C   UNL A   1      41.106  31.516  30.932  1.00  0.00     0.049 A 
ATOM     48  C   UNL A   1      45.643  28.912  28.168  1.00  0.00     0.074 A 
ATOM     49  C   UNL A   1      41.955  31.105  31.942  1.00  0.00     0.029 A 
ATOM     50  N   UNL A   1      41.925  31.923  29.877  1.00  0.00    -0.354 N 
ATOM     51  N   UNL A   1      44.624  29.684  28.447  1.00  0.00    -0.248 NA
ATOM     52  C   UNL A   1      46.891  29.652  28.023  1.00  0.00     0.031 C 
ATOM     53  C   UNL A   1      43.289  31.153  31.428  1.00  0.00     0.029 A 
ATOM     54  C   UNL A   1      43.252  31.622  30.120  1.00  0.00     0.049 A 
ATOM     55  H   UNL A   1      41.600  32.368  29.061  1.00  0.00     0.167 HD
ATOM     56  C   UNL A   1      45.069  30.948  28.661  1.00  0.00     0.074 A 
ATOM     57  C   UNL A   1      46.484  30.898  28.323  1.00  0.00     0.031 C 
ATOM     58  C   UNL A   1      44.280  31.952  29.134  1.00  0.00     0.037 A 
BRANCH  45  59
ATOM     59  C   UNL A   1      38.571  31.944  31.520  1.00  0.00     0.058 A 
ATOM     60  C   UNL A   1      37.812  33.027  31.021  1.00  0.00     0.135 A 
ATOM     61  C   UNL A   1      38.259  31.586  32.853  1.00  0.00     0.135 A 
ATOM     62  F   UNL A   1      38.013  33.502  29.783  1.00  0.00    -0.206 F 
ATOM     63  C   UNL A   1      36.828  33.685  31.769  1.00  0.00     0.059 A 
ATOM     64  C   UNL A   1      37.249  32.199  33.603  1.00  0.00     0.059 A 
ATOM     65  F   UNL A   1      38.950  30.661  33.528  1.00  0.00    -0.206 F 
ATOM     66  C   UNL A   1      36.543  33.257  33.058  1.00  0.00     0.060 A 
BRANCH  66  67
ATOM     67  S   UNL A   1      35.265  34.101  34.010  1.00  0.00     0.124 S 
ATOM     68  O   UNL A   1      35.436  35.487  33.584  1.00  0.00    -0.237 OA
ATOM     69  O   UNL A   1      34.049  33.438  33.552  1.00  0.00    -0.237 OA
ATOM     70  O   UNL A   1      35.636  33.830  35.396  1.00  0.00    -0.744 OA
ENDBRANCH  66  67
ENDBRANCH  45  59
BRANCH  46  71
ATOM     71  C   UNL A   1      45.662  26.387  27.121  1.00  0.00     0.058 A 
ATOM     72  C   UNL A   1      46.251  25.152  27.482  1.00  0.00     0.135 A 
ATOM     73  C   UNL A   1      44.802  26.365  26.010  1.00  0.00     0.135 A 
ATOM     74  F   UNL A   1      47.069  25.089  28.548  1.00  0.00    -0.206 F 
ATOM     75  C   UNL A   1      45.896  23.942  26.878  1.00  0.00     0.059 A 
ATOM     76  C   UNL A   1      44.415  25.157  25.403  1.00  0.00     0.059 A 
ATOM     77  F   UNL A   1      44.199  27.491  25.603  1.00  0.00    -0.206 F 
ATOM     78  C   UNL A   1      44.925  23.947  25.879  1.00  0.00     0.060 A 
BRANCH  78  79
ATOM     79  S   UNL A   1      44.128  22.367  25.441  1.00  0.00     0.124 S 
ATOM     80  O   UNL A   1      43.172  22.192  26.525  1.00  0.00    -0.237 OA
ATOM     81  O   UNL A   1      43.549  22.655  24.129  1.00  0.00    -0.237 OA
ATOM     82  O   UNL A   1      45.246  21.432  25.413  1.00  0.00    -0.744 OA
ENDBRANCH  78  79
ENDBRANCH  46  71
BRANCH  58  83
ATOM     83  C   UNL A   1      44.490  33.370  28.692  1.00  0.00     0.058 A 
ATOM     84  C   UNL A   1      44.229  33.799  27.376  1.00  0.00     0.135 A 
ATOM     85  C   UNL A   1      44.790  34.388  29.624  1.00  0.00     0.135 A 
ATOM     86  F   UNL A   1      43.777  32.960  26.431  1.00  0.00    -0.206 F 
ATOM     87  C   UNL A   1      44.388  35.118  26.981  1.00  0.00     0.059 A 
ATOM     88  C   UNL A   1      44.873  35.726  29.265  1.00  0.00     0.059 A 
ATOM     89  F   UNL A   1      44.997  34.122  30.921  1.00  0.00    -0.206 F 
ATOM     90  C   UNL A   1      44.725  36.071  27.931  1.00  0.00     0.060 A 
BRANCH  90  91
ATOM     91  S   UNL A   1      44.972  37.765  27.400  1.00  0.00     0.124 S 
ATOM     92  O   UNL A   1      46.018  37.596  26.396  1.00  0.00    -0.237 OA
ATOM     93  O   UNL A   1      43.656  38.134  26.885  1.00  0.00    -0.237 OA
ATOM     94  O   UNL A   1      45.374  38.448  28.625  1.00  0.00    -0.744 OA
ENDBRANCH  90  91
ENDBRANCH  58  83
ENDBRANCH  32  33
ENDBRANCH  25  27
ENDBRANCH  24  25
ENDBRANCH  23  24
ENDBRANCH   1  23
TORSDOF 19
ENDMDL
