MODEL 1
REMARK VINA RESULT:     -10.7      0.000      0.000
REMARK SMILES C=Cc1cncc(-c2ccc([C@@H](C)C(=O)OCCOCCOC(=O)c3ccc(-c4c5nc(c(-c6c(F)cc(S(=O)(=O)[O-])cc6F)c6ccc([nH]6)c(-c6c(F)cc(S(=O)(=O)[O-])cc6F)c6nc(c(-c7c(F)cc(S(=O)(=O)[O-])cc7F)c7ccc4[nH]7)C=C6)C=C5)cc3)cc2)c1
REMARK SMILES IDX 19 1 18 2 17 3 16 4 14 5 15 6 12 7 13 8 11 9 8 10 9 11 92 12
REMARK SMILES IDX 10 13 91 14 7 15 3 16 4 17 93 18 5 19 6 20 2 21 1 22 20 23
REMARK SMILES IDX 21 24 22 25 23 26 24 27 25 28 26 29 90 30 27 31 89 32 28 33
REMARK SMILES IDX 29 34 30 35 83 36 31 37 88 38 82 39 84 40 32 41 87 42 81 43
REMARK SMILES IDX 80 44 33 46 67 47 46 48 66 49 47 50 50 51 65 52 85 53 48 54
REMARK SMILES IDX 49 55 64 57 86 58 51 59 34 60 35 61 44 62 36 63 37 64 43 65
REMARK SMILES IDX 45 66 38 67 39 68 40 69 41 70 42 71 68 72 69 73 78 74 70 75
REMARK SMILES IDX 71 76 77 77 79 78 72 79 73 80 74 81 75 82 76 83 52 84 53 85
REMARK SMILES IDX 62 86 54 87 55 88 61 89 63 90 56 91 57 92 58 93 59 94 60 95
REMARK H PARENT 84 45 50 56
REMARK Flexibility Score: inf
ROOT
ATOM      1  O   UNL A   1      37.937  22.145  25.620  1.00  0.00    -0.374 OA
ENDROOT
BRANCH   1   2
ATOM      2  C   UNL A   1      37.181  21.512  24.587  1.00  0.00     0.202 C 
BRANCH   2   3
ATOM      3  C   UNL A   1      35.894  20.806  25.025  1.00  0.00     0.261 C 
BRANCH   3   4
ATOM      4  O   UNL A   1      34.725  21.555  24.647  1.00  0.00    -0.463 OA
BRANCH   4   5
ATOM      5  C   UNL A   1      33.538  20.903  24.745  1.00  0.00     0.313 C 
ATOM      6  O   UNL A   1      33.408  19.753  25.159  1.00  0.00    -0.252 OA
BRANCH   5   7
ATOM      7  C   UNL A   1      32.349  21.715  24.256  1.00  0.00     0.126 C 
ATOM      8  C   UNL A   1      32.148  21.472  22.762  1.00  0.00     0.025 C 
BRANCH   7   9
ATOM      9  C   UNL A   1      32.314  23.198  24.611  1.00  0.00    -0.034 A 
ATOM     10  C   UNL A   1      32.472  25.976  25.232  1.00  0.00    -0.017 A 
ATOM     11  C   UNL A   1      32.191  25.024  26.224  1.00  0.00     0.009 A 
ATOM     12  C   UNL A   1      32.632  25.519  23.917  1.00  0.00     0.009 A 
ATOM     13  C   UNL A   1      32.112  23.657  25.920  1.00  0.00     0.005 A 
ATOM     14  C   UNL A   1      32.555  24.155  23.610  1.00  0.00     0.005 A 
BRANCH  10  15
ATOM     15  C   UNL A   1      32.658  27.395  25.564  1.00  0.00     0.001 A 
ATOM     16  C   UNL A   1      33.834  29.206  26.697  1.00  0.00    -0.007 A 
ATOM     17  C   UNL A   1      32.862  30.068  26.199  1.00  0.00     0.119 A 
ATOM     18  C   UNL A   1      33.709  27.847  26.376  1.00  0.00     0.020 A 
ATOM     19  N   UNL A   1      31.828  29.684  25.417  1.00  0.00    -0.263 NA
ATOM     20  C   UNL A   1      31.759  28.366  25.115  1.00  0.00     0.119 A 
BRANCH  16  21
ATOM     21  C   UNL A   1      34.893  29.728  27.567  1.00  0.00     0.002 C 
ATOM     22  C   UNL A   1      34.948  30.995  27.998  1.00  0.00     0.009 C 
ENDBRANCH  16  21
ENDBRANCH  10  15
ENDBRANCH   7   9
ENDBRANCH   5   7
ENDBRANCH   4   5
ENDBRANCH   3   4
ENDBRANCH   2   3
ENDBRANCH   1   2
BRANCH   1  23
ATOM     23  C   UNL A   1      39.107  21.467  26.078  1.00  0.00     0.202 C 
BRANCH  23  24
ATOM     24  C   UNL A   1      40.391  22.300  26.174  1.00  0.00     0.261 C 
BRANCH  24  25
ATOM     25  O   UNL A   1      40.153  23.615  26.704  1.00  0.00    -0.460 OA
BRANCH  25  26
ATOM     26  C   UNL A   1      41.250  24.404  26.799  1.00  0.00     0.338 C 
ATOM     27  O   UNL A   1      42.270  24.333  26.128  1.00  0.00    -0.246 OA
BRANCH  26  28
ATOM     28  C   UNL A   1      40.988  25.517  27.728  1.00  0.00     0.060 A 
ATOM     29  C   UNL A   1      42.005  26.461  27.913  1.00  0.00     0.016 A 
ATOM     30  C   UNL A   1      39.795  25.610  28.449  1.00  0.00     0.016 A 
ATOM     31  C   UNL A   1      41.846  27.490  28.840  1.00  0.00     0.010 A 
ATOM     32  C   UNL A   1      39.641  26.636  29.388  1.00  0.00     0.010 A 
ATOM     33  C   UNL A   1      40.673  27.568  29.604  1.00  0.00    -0.014 A 
BRANCH  33  34
ATOM     34  C   UNL A   1      40.564  28.579  30.686  1.00  0.00     0.031 A 
ATOM     35  C   UNL A   1      41.444  28.463  31.899  1.00  0.00     0.074 A 
ATOM     36  C   UNL A   1      39.697  29.600  30.575  1.00  0.00     0.049 A 
ATOM     37  N   UNL A   1      41.476  29.210  32.972  1.00  0.00    -0.248 NA
ATOM     38  C   UNL A   1      42.418  27.360  31.904  1.00  0.00     0.031 C 
ATOM     39  C   UNL A   1      38.818  29.840  29.431  1.00  0.00     0.029 A 
ATOM     40  N   UNL A   1      39.403  30.622  31.444  1.00  0.00    -0.354 N 
ATOM     41  C   UNL A   1      42.468  28.670  33.782  1.00  0.00     0.074 A 
ATOM     42  C   UNL A   1      42.998  27.516  33.086  1.00  0.00     0.031 C 
ATOM     43  C   UNL A   1      38.071  30.931  29.675  1.00  0.00     0.029 A 
ATOM     44  C   UNL A   1      38.394  31.445  31.005  1.00  0.00     0.049 A 
ATOM     45  H   UNL A   1      39.870  30.752  32.300  1.00  0.00     0.167 HD
ATOM     46  C   UNL A   1      42.901  29.101  34.991  1.00  0.00     0.037 A 
ATOM     47  C   UNL A   1      37.779  32.476  31.616  1.00  0.00     0.037 A 
ATOM     48  C   UNL A   1      42.366  30.247  35.681  1.00  0.00     0.049 A 
ATOM     49  C   UNL A   1      38.221  32.887  32.997  1.00  0.00     0.074 A 
ATOM     50  C   UNL A   1      42.758  30.780  36.896  1.00  0.00     0.029 A 
ATOM     51  N   UNL A   1      41.315  31.029  35.224  1.00  0.00    -0.354 N 
ATOM     52  N   UNL A   1      39.181  32.386  33.738  1.00  0.00    -0.248 NA
ATOM     53  C   UNL A   1      37.496  33.999  33.626  1.00  0.00     0.031 C 
ATOM     54  C   UNL A   1      41.913  31.852  37.199  1.00  0.00     0.029 A 
ATOM     55  C   UNL A   1      41.023  32.018  36.150  1.00  0.00     0.049 A 
ATOM     56  H   UNL A   1      40.846  30.899  34.369  1.00  0.00     0.167 HD
ATOM     57  C   UNL A   1      39.182  33.129  34.914  1.00  0.00     0.074 A 
ATOM     58  C   UNL A   1      38.140  34.127  34.777  1.00  0.00     0.031 C 
ATOM     59  C   UNL A   1      39.975  32.998  36.007  1.00  0.00     0.037 A 
BRANCH  46  60
ATOM     60  C   UNL A   1      43.992  28.313  35.662  1.00  0.00     0.058 A 
ATOM     61  C   UNL A   1      43.707  27.269  36.556  1.00  0.00     0.135 A 
ATOM     62  C   UNL A   1      45.341  28.582  35.376  1.00  0.00     0.135 A 
ATOM     63  F   UNL A   1      42.436  26.981  36.875  1.00  0.00    -0.206 F 
ATOM     64  C   UNL A   1      44.722  26.532  37.159  1.00  0.00     0.059 A 
ATOM     65  C   UNL A   1      46.371  27.843  35.949  1.00  0.00     0.059 A 
ATOM     66  F   UNL A   1      45.668  29.571  34.529  1.00  0.00    -0.206 F 
ATOM     67  C   UNL A   1      46.051  26.827  36.850  1.00  0.00     0.060 A 
BRANCH  67  68
ATOM     68  S   UNL A   1      47.356  25.860  37.639  1.00  0.00     0.124 S 
ATOM     69  O   UNL A   1      46.620  25.196  38.709  1.00  0.00    -0.237 OA
ATOM     70  O   UNL A   1      47.807  24.997  36.551  1.00  0.00    -0.237 OA
ATOM     71  O   UNL A   1      48.316  26.871  38.071  1.00  0.00    -0.744 OA
ENDBRANCH  67  68
ENDBRANCH  46  60
BRANCH  47  72
ATOM     72  C   UNL A   1      36.657  33.177  30.939  1.00  0.00     0.058 A 
ATOM     73  C   UNL A   1      36.885  34.031  29.852  1.00  0.00     0.135 A 
ATOM     74  C   UNL A   1      35.331  32.999  31.365  1.00  0.00     0.135 A 
ATOM     75  F   UNL A   1      38.135  34.244  29.416  1.00  0.00    -0.206 F 
ATOM     76  C   UNL A   1      35.839  34.690  29.212  1.00  0.00     0.059 A 
ATOM     77  C   UNL A   1      34.267  33.628  30.727  1.00  0.00     0.059 A 
ATOM     78  F   UNL A   1      35.060  32.184  32.397  1.00  0.00    -0.206 F 
ATOM     79  C   UNL A   1      34.533  34.478  29.656  1.00  0.00     0.060 A 
BRANCH  79  80
ATOM     80  S   UNL A   1      33.176  35.290  28.782  1.00  0.00     0.124 S 
ATOM     81  O   UNL A   1      32.387  35.817  29.889  1.00  0.00    -0.237 OA
ATOM     82  O   UNL A   1      33.882  36.278  27.971  1.00  0.00    -0.237 OA
ATOM     83  O   UNL A   1      32.562  34.198  28.031  1.00  0.00    -0.744 OA
ENDBRANCH  79  80
ENDBRANCH  47  72
BRANCH  59  84
ATOM     84  C   UNL A   1      39.753  33.961  37.142  1.00  0.00     0.058 A 
ATOM     85  C   UNL A   1      38.970  33.615  38.254  1.00  0.00     0.135 A 
ATOM     86  C   UNL A   1      40.371  35.222  37.142  1.00  0.00     0.135 A 
ATOM     87  F   UNL A   1      38.351  32.424  38.300  1.00  0.00    -0.206 F 
ATOM     88  C   UNL A   1      38.790  34.493  39.318  1.00  0.00     0.059 A 
ATOM     89  C   UNL A   1      40.226  36.107  38.207  1.00  0.00     0.059 A 
ATOM     90  F   UNL A   1      41.139  35.599  36.107  1.00  0.00    -0.206 F 
ATOM     91  C   UNL A   1      39.424  35.737  39.286  1.00  0.00     0.060 A 
BRANCH  91  92
ATOM     92  S   UNL A   1      39.210  36.854  40.688  1.00  0.00     0.124 S 
ATOM     93  O   UNL A   1      38.418  36.035  41.599  1.00  0.00    -0.237 OA
ATOM     94  O   UNL A   1      40.587  37.109  41.099  1.00  0.00    -0.237 OA
ATOM     95  O   UNL A   1      38.514  37.999  40.107  1.00  0.00    -0.744 OA
ENDBRANCH  91  92
ENDBRANCH  59  84
ENDBRANCH  33  34
ENDBRANCH  26  28
ENDBRANCH  25  26
ENDBRANCH  24  25
ENDBRANCH  23  24
ENDBRANCH   1  23
TORSDOF 20
ENDMDL
MODEL 2
REMARK VINA RESULT:     -10.6      6.595     12.296
REMARK SMILES C=Cc1cncc(-c2ccc([C@@H](C)C(=O)OCCOCCOC(=O)c3ccc(-c4c5nc(c(-c6c(F)cc(S(=O)(=O)[O-])cc6F)c6ccc([nH]6)c(-c6c(F)cc(S(=O)(=O)[O-])cc6F)c6nc(c(-c7c(F)cc(S(=O)(=O)[O-])cc7F)c7ccc4[nH]7)C=C6)C=C5)cc3)cc2)c1
REMARK SMILES IDX 19 1 18 2 17 3 16 4 14 5 15 6 12 7 13 8 11 9 8 10 9 11 92 12
REMARK SMILES IDX 10 13 91 14 7 15 3 16 4 17 93 18 5 19 6 20 2 21 1 22 20 23
REMARK SMILES IDX 21 24 22 25 23 26 24 27 25 28 26 29 90 30 27 31 89 32 28 33
REMARK SMILES IDX 29 34 30 35 83 36 31 37 88 38 82 39 84 40 32 41 87 42 81 43
REMARK SMILES IDX 80 44 33 46 67 47 46 48 66 49 47 50 50 51 65 52 85 53 48 54
REMARK SMILES IDX 49 55 64 57 86 58 51 59 34 60 35 61 44 62 36 63 37 64 43 65
REMARK SMILES IDX 45 66 38 67 39 68 40 69 41 70 42 71 68 72 69 73 78 74 70 75
REMARK SMILES IDX 71 76 77 77 79 78 72 79 73 80 74 81 75 82 76 83 52 84 53 85
REMARK SMILES IDX 62 86 54 87 55 88 61 89 63 90 56 91 57 92 58 93 59 94 60 95
REMARK H PARENT 84 45 50 56
REMARK Flexibility Score: inf
ROOT
ATOM      1  O   UNL A   1      34.227  31.940  27.448  1.00  0.00    -0.374 OA
ENDROOT
BRANCH   1   2
ATOM      2  C   UNL A   1      33.013  31.190  27.387  1.00  0.00     0.202 C 
BRANCH   2   3
ATOM      3  C   UNL A   1      33.083  29.846  26.654  1.00  0.00     0.261 C 
BRANCH   3   4
ATOM      4  O   UNL A   1      32.711  29.979  25.270  1.00  0.00    -0.463 OA
BRANCH   4   5
ATOM      5  C   UNL A   1      32.468  28.822  24.601  1.00  0.00     0.313 C 
ATOM      6  O   UNL A   1      31.348  28.389  24.342  1.00  0.00    -0.252 OA
BRANCH   5   7
ATOM      7  C   UNL A   1      33.728  28.061  24.215  1.00  0.00     0.126 C 
ATOM      8  C   UNL A   1      34.132  28.438  22.793  1.00  0.00     0.025 C 
BRANCH   7   9
ATOM      9  C   UNL A   1      33.735  26.551  24.439  1.00  0.00    -0.034 A 
ATOM     10  C   UNL A   1      33.555  23.723  24.742  1.00  0.00    -0.017 A 
ATOM     11  C   UNL A   1      33.430  24.582  25.844  1.00  0.00     0.009 A 
ATOM     12  C   UNL A   1      33.814  24.301  23.491  1.00  0.00     0.009 A 
ATOM     13  C   UNL A   1      33.518  25.974  25.697  1.00  0.00     0.005 A 
ATOM     14  C   UNL A   1      33.903  25.691  23.341  1.00  0.00     0.005 A 
BRANCH  10  15
ATOM     15  C   UNL A   1      33.359  22.272  24.874  1.00  0.00     0.001 A 
ATOM     16  C   UNL A   1      34.170  19.974  24.799  1.00  0.00    -0.007 A 
ATOM     17  C   UNL A   1      32.864  19.569  25.054  1.00  0.00     0.119 A 
ATOM     18  C   UNL A   1      34.404  21.352  24.697  1.00  0.00     0.020 A 
ATOM     19  N   UNL A   1      31.822  20.412  25.228  1.00  0.00    -0.263 NA
ATOM     20  C   UNL A   1      32.098  21.735  25.143  1.00  0.00     0.119 A 
BRANCH  16  21
ATOM     21  C   UNL A   1      35.216  18.968  24.592  1.00  0.00     0.002 C 
ATOM     22  C   UNL A   1      34.983  17.651  24.522  1.00  0.00     0.009 C 
ENDBRANCH  16  21
ENDBRANCH  10  15
ENDBRANCH   7   9
ENDBRANCH   5   7
ENDBRANCH   4   5
ENDBRANCH   3   4
ENDBRANCH   2   3
ENDBRANCH   1   2
BRANCH   1  23
ATOM     23  C   UNL A   1      34.413  32.783  28.585  1.00  0.00     0.202 C 
BRANCH  23  24
ATOM     24  C   UNL A   1      35.156  32.171  29.779  1.00  0.00     0.261 C 
BRANCH  24  25
ATOM     25  O   UNL A   1      35.856  30.964  29.430  1.00  0.00    -0.460 OA
BRANCH  25  26
ATOM     26  C   UNL A   1      36.490  30.349  30.456  1.00  0.00     0.338 C 
ATOM     27  O   UNL A   1      35.980  29.888  31.468  1.00  0.00    -0.246 OA
BRANCH  26  28
ATOM     28  C   UNL A   1      37.908  30.137  30.115  1.00  0.00     0.060 A 
ATOM     29  C   UNL A   1      38.254  30.124  28.758  1.00  0.00     0.016 A 
ATOM     30  C   UNL A   1      38.874  29.899  31.095  1.00  0.00     0.016 A 
ATOM     31  C   UNL A   1      39.564  29.847  28.372  1.00  0.00     0.010 A 
ATOM     32  C   UNL A   1      40.187  29.609  30.705  1.00  0.00     0.010 A 
ATOM     33  C   UNL A   1      40.534  29.560  29.343  1.00  0.00    -0.014 A 
BRANCH  33  34
ATOM     34  C   UNL A   1      41.891  29.130  28.923  1.00  0.00     0.031 A 
ATOM     35  C   UNL A   1      43.010  30.133  28.892  1.00  0.00     0.074 A 
ATOM     36  C   UNL A   1      42.123  27.848  28.588  1.00  0.00     0.049 A 
ATOM     37  N   UNL A   1      44.253  29.975  28.516  1.00  0.00    -0.248 NA
ATOM     38  C   UNL A   1      42.687  31.495  29.348  1.00  0.00     0.031 C 
ATOM     39  C   UNL A   1      41.128  26.777  28.615  1.00  0.00     0.029 A 
ATOM     40  N   UNL A   1      43.268  27.233  28.148  1.00  0.00    -0.354 N 
ATOM     41  C   UNL A   1      44.861  31.213  28.685  1.00  0.00     0.074 A 
ATOM     42  C   UNL A   1      43.845  32.119  29.176  1.00  0.00     0.031 C 
ATOM     43  C   UNL A   1      41.703  25.637  28.193  1.00  0.00     0.029 A 
ATOM     44  C   UNL A   1      43.094  25.906  27.834  1.00  0.00     0.049 A 
ATOM     45  H   UNL A   1      44.131  27.697  28.064  1.00  0.00     0.167 HD
ATOM     46  C   UNL A   1      46.151  31.560  28.457  1.00  0.00     0.037 A 
ATOM     47  C   UNL A   1      43.949  25.017  27.291  1.00  0.00     0.037 A 
ATOM     48  C   UNL A   1      47.157  30.654  27.964  1.00  0.00     0.049 A 
ATOM     49  C   UNL A   1      45.356  25.448  26.968  1.00  0.00     0.074 A 
ATOM     50  C   UNL A   1      48.498  30.904  27.729  1.00  0.00     0.029 A 
ATOM     51  N   UNL A   1      46.932  29.331  27.615  1.00  0.00    -0.354 N 
ATOM     52  N   UNL A   1      45.927  26.613  27.162  1.00  0.00    -0.248 NA
ATOM     53  C   UNL A   1      46.235  24.444  26.351  1.00  0.00     0.031 C 
ATOM     54  C   UNL A   1      49.073  29.748  27.192  1.00  0.00     0.029 A 
ATOM     55  C   UNL A   1      48.101  28.762  27.136  1.00  0.00     0.049 A 
ATOM     56  H   UNL A   1      46.069  28.865  27.697  1.00  0.00     0.167 HD
ATOM     57  C   UNL A   1      47.233  26.479  26.702  1.00  0.00     0.074 A 
ATOM     58  C   UNL A   1      47.374  25.114  26.239  1.00  0.00     0.031 C 
ATOM     59  C   UNL A   1      48.225  27.403  26.667  1.00  0.00     0.037 A 
BRANCH  46  60
ATOM     60  C   UNL A   1      46.544  32.988  28.714  1.00  0.00     0.058 A 
ATOM     61  C   UNL A   1      47.032  33.408  29.961  1.00  0.00     0.135 A 
ATOM     62  C   UNL A   1      46.471  33.941  27.684  1.00  0.00     0.135 A 
ATOM     63  F   UNL A   1      47.108  32.540  30.983  1.00  0.00    -0.206 F 
ATOM     64  C   UNL A   1      47.412  34.727  30.187  1.00  0.00     0.059 A 
ATOM     65  C   UNL A   1      46.868  35.261  27.881  1.00  0.00     0.059 A 
ATOM     66  F   UNL A   1      46.011  33.593  26.473  1.00  0.00    -0.206 F 
ATOM     67  C   UNL A   1      47.325  35.647  29.140  1.00  0.00     0.060 A 
BRANCH  67  68
ATOM     68  S   UNL A   1      47.825  37.354  29.448  1.00  0.00     0.124 S 
ATOM     69  O   UNL A   1      49.233  37.318  29.068  1.00  0.00    -0.237 OA
ATOM     70  O   UNL A   1      46.947  38.104  28.555  1.00  0.00    -0.237 OA
ATOM     71  O   UNL A   1      47.565  37.534  30.873  1.00  0.00    -0.744 OA
ENDBRANCH  67  68
ENDBRANCH  46  60
BRANCH  47  72
ATOM     72  C   UNL A   1      43.490  23.636  26.990  1.00  0.00     0.058 A 
ATOM     73  C   UNL A   1      43.282  23.210  25.672  1.00  0.00     0.135 A 
ATOM     74  C   UNL A   1      43.256  22.712  28.021  1.00  0.00     0.135 A 
ATOM     75  F   UNL A   1      43.480  24.060  24.653  1.00  0.00    -0.206 F 
ATOM     76  C   UNL A   1      42.853  21.918  25.382  1.00  0.00     0.059 A 
ATOM     77  C   UNL A   1      42.850  21.408  27.757  1.00  0.00     0.059 A 
ATOM     78  F   UNL A   1      43.448  23.068  29.301  1.00  0.00    -0.206 F 
ATOM     79  C   UNL A   1      42.643  21.023  26.433  1.00  0.00     0.060 A 
BRANCH  79  80
ATOM     80  S   UNL A   1      42.145  19.331  26.046  1.00  0.00     0.124 S 
ATOM     81  O   UNL A   1      42.625  18.608  27.217  1.00  0.00    -0.237 OA
ATOM     82  O   UNL A   1      40.696  19.459  25.922  1.00  0.00    -0.237 OA
ATOM     83  O   UNL A   1      42.850  19.053  24.797  1.00  0.00    -0.744 OA
ENDBRANCH  79  80
ENDBRANCH  47  72
BRANCH  59  84
ATOM     84  C   UNL A   1      49.557  26.969  26.116  1.00  0.00     0.058 A 
ATOM     85  C   UNL A   1      50.512  26.334  26.923  1.00  0.00     0.135 A 
ATOM     86  C   UNL A   1      49.859  27.144  24.756  1.00  0.00     0.135 A 
ATOM     87  F   UNL A   1      50.276  26.150  28.232  1.00  0.00    -0.206 F 
ATOM     88  C   UNL A   1      51.731  25.905  26.407  1.00  0.00     0.059 A 
ATOM     89  C   UNL A   1      51.061  26.700  24.212  1.00  0.00     0.059 A 
ATOM     90  F   UNL A   1      48.975  27.737  23.937  1.00  0.00    -0.206 F 
ATOM     91  C   UNL A   1      51.995  26.091  25.048  1.00  0.00     0.060 A 
BRANCH  91  92
ATOM     92  S   UNL A   1      53.566  25.500  24.383  1.00  0.00     0.124 S 
ATOM     93  O   UNL A   1      53.443  25.857  22.974  1.00  0.00    -0.237 OA
ATOM     94  O   UNL A   1      54.541  26.270  25.150  1.00  0.00    -0.237 OA
ATOM     95  O   UNL A   1      53.541  24.069  24.672  1.00  0.00    -0.744 OA
ENDBRANCH  91  92
ENDBRANCH  59  84
ENDBRANCH  33  34
ENDBRANCH  26  28
ENDBRANCH  25  26
ENDBRANCH  24  25
ENDBRANCH  23  24
ENDBRANCH   1  23
TORSDOF 20
ENDMDL
MODEL 3
REMARK VINA RESULT:     -10.5      4.758     11.839
REMARK SMILES C=Cc1cncc(-c2ccc([C@@H](C)C(=O)OCCOCCOC(=O)c3ccc(-c4c5nc(c(-c6c(F)cc(S(=O)(=O)[O-])cc6F)c6ccc([nH]6)c(-c6c(F)cc(S(=O)(=O)[O-])cc6F)c6nc(c(-c7c(F)cc(S(=O)(=O)[O-])cc7F)c7ccc4[nH]7)C=C6)C=C5)cc3)cc2)c1
REMARK SMILES IDX 19 1 18 2 17 3 16 4 14 5 15 6 12 7 13 8 11 9 8 10 9 11 92 12
REMARK SMILES IDX 10 13 91 14 7 15 3 16 4 17 93 18 5 19 6 20 2 21 1 22 20 23
REMARK SMILES IDX 21 24 22 25 23 26 24 27 25 28 26 29 90 30 27 31 89 32 28 33
REMARK SMILES IDX 29 34 30 35 83 36 31 37 88 38 82 39 84 40 32 41 87 42 81 43
REMARK SMILES IDX 80 44 33 46 67 47 46 48 66 49 47 50 50 51 65 52 85 53 48 54
REMARK SMILES IDX 49 55 64 57 86 58 51 59 34 60 35 61 44 62 36 63 37 64 43 65
REMARK SMILES IDX 45 66 38 67 39 68 40 69 41 70 42 71 68 72 69 73 78 74 70 75
REMARK SMILES IDX 71 76 77 77 79 78 72 79 73 80 74 81 75 82 76 83 52 84 53 85
REMARK SMILES IDX 62 86 54 87 55 88 61 89 63 90 56 91 57 92 58 93 59 94 60 95
REMARK H PARENT 84 45 50 56
REMARK Flexibility Score: inf
ROOT
ATOM      1  O   UNL A   1      32.589  34.147  28.846  1.00  0.00    -0.374 OA
ENDROOT
BRANCH   1   2
ATOM      2  C   UNL A   1      33.026  35.481  29.105  1.00  0.00     0.202 C 
BRANCH   2   3
ATOM      3  C   UNL A   1      33.999  35.660  30.275  1.00  0.00     0.261 C 
BRANCH   3   4
ATOM      4  O   UNL A   1      33.938  34.548  31.187  1.00  0.00    -0.463 OA
BRANCH   4   5
ATOM      5  C   UNL A   1      34.980  33.678  31.140  1.00  0.00     0.313 C 
ATOM      6  O   UNL A   1      35.844  33.673  30.266  1.00  0.00    -0.252 OA
BRANCH   5   7
ATOM      7  C   UNL A   1      34.978  32.656  32.267  1.00  0.00     0.126 C 
ATOM      8  C   UNL A   1      34.123  33.174  33.420  1.00  0.00     0.025 C 
BRANCH   7   9
ATOM      9  C   UNL A   1      36.329  32.126  32.739  1.00  0.00    -0.034 A 
ATOM     10  C   UNL A   1      38.742  31.037  33.795  1.00  0.00    -0.017 A 
ATOM     11  C   UNL A   1      38.509  32.421  33.790  1.00  0.00     0.009 A 
ATOM     12  C   UNL A   1      37.765  30.210  33.224  1.00  0.00     0.009 A 
ATOM     13  C   UNL A   1      37.322  32.958  33.271  1.00  0.00     0.005 A 
ATOM     14  C   UNL A   1      36.578  30.743  32.705  1.00  0.00     0.005 A 
BRANCH  10  15
ATOM     15  C   UNL A   1      39.936  30.463  34.431  1.00  0.00     0.001 A 
ATOM     16  C   UNL A   1      41.917  29.042  34.406  1.00  0.00    -0.007 A 
ATOM     17  C   UNL A   1      42.095  29.370  35.747  1.00  0.00     0.119 A 
ATOM     18  C   UNL A   1      40.807  29.596  33.754  1.00  0.00     0.020 A 
ATOM     19  N   UNL A   1      41.285  30.195  36.446  1.00  0.00    -0.263 NA
ATOM     20  C   UNL A   1      40.237  30.724  35.771  1.00  0.00     0.119 A 
BRANCH  16  21
ATOM     21  C   UNL A   1      42.841  28.107  33.757  1.00  0.00     0.002 C 
ATOM     22  C   UNL A   1      44.145  28.020  34.050  1.00  0.00     0.009 C 
ENDBRANCH  16  21
ENDBRANCH  10  15
ENDBRANCH   7   9
ENDBRANCH   5   7
ENDBRANCH   4   5
ENDBRANCH   3   4
ENDBRANCH   2   3
ENDBRANCH   1   2
BRANCH   1  23
ATOM     23  C   UNL A   1      33.249  33.439  27.796  1.00  0.00     0.202 C 
BRANCH  23  24
ATOM     24  C   UNL A   1      33.235  31.908  27.886  1.00  0.00     0.261 C 
BRANCH  24  25
ATOM     25  O   UNL A   1      34.385  31.311  27.262  1.00  0.00    -0.460 OA
BRANCH  25  26
ATOM     26  C   UNL A   1      34.602  30.012  27.577  1.00  0.00     0.338 C 
ATOM     27  O   UNL A   1      33.856  29.066  27.359  1.00  0.00    -0.246 OA
BRANCH  26  28
ATOM     28  C   UNL A   1      35.977  29.839  28.076  1.00  0.00     0.060 A 
ATOM     29  C   UNL A   1      37.027  30.081  27.182  1.00  0.00     0.016 A 
ATOM     30  C   UNL A   1      36.239  29.397  29.375  1.00  0.00     0.016 A 
ATOM     31  C   UNL A   1      38.346  29.857  27.574  1.00  0.00     0.010 A 
ATOM     32  C   UNL A   1      37.563  29.160  29.762  1.00  0.00     0.010 A 
ATOM     33  C   UNL A   1      38.621  29.368  28.858  1.00  0.00    -0.014 A 
BRANCH  33  34
ATOM     34  C   UNL A   1      40.011  28.998  29.224  1.00  0.00     0.031 A 
ATOM     35  C   UNL A   1      40.880  29.995  29.937  1.00  0.00     0.074 A 
ATOM     36  C   UNL A   1      40.486  27.773  28.933  1.00  0.00     0.049 A 
ATOM     37  N   UNL A   1      42.131  29.889  30.305  1.00  0.00    -0.248 NA
ATOM     38  C   UNL A   1      40.256  31.282  30.286  1.00  0.00     0.031 C 
ATOM     39  C   UNL A   1      39.727  26.709  28.277  1.00  0.00     0.029 A 
ATOM     40  N   UNL A   1      41.726  27.223  29.141  1.00  0.00    -0.354 N 
ATOM     41  C   UNL A   1      42.448  31.092  30.924  1.00  0.00     0.074 A 
ATOM     42  C   UNL A   1      41.265  31.923  30.862  1.00  0.00     0.031 C 
ATOM     43  C   UNL A   1      40.524  25.637  28.122  1.00  0.00     0.029 A 
ATOM     44  C   UNL A   1      41.856  25.951  28.635  1.00  0.00     0.049 A 
ATOM     45  H   UNL A   1      42.453  27.694  29.608  1.00  0.00     0.167 HD
ATOM     46  C   UNL A   1      43.618  31.466  31.497  1.00  0.00     0.037 A 
ATOM     47  C   UNL A   1      42.933  25.144  28.567  1.00  0.00     0.037 A 
ATOM     48  C   UNL A   1      44.794  30.635  31.552  1.00  0.00     0.049 A 
ATOM     49  C   UNL A   1      44.246  25.614  29.137  1.00  0.00     0.074 A 
ATOM     50  C   UNL A   1      46.017  30.914  32.137  1.00  0.00     0.029 A 
ATOM     51  N   UNL A   1      44.900  29.371  30.990  1.00  0.00    -0.354 N 
ATOM     52  N   UNL A   1      44.524  26.742  29.747  1.00  0.00    -0.248 NA
ATOM     53  C   UNL A   1      45.392  24.703  29.008  1.00  0.00     0.031 C 
ATOM     54  C   UNL A   1      46.879  29.841  31.886  1.00  0.00     0.029 A 
ATOM     55  C   UNL A   1      46.178  28.872  31.185  1.00  0.00     0.049 A 
ATOM     56  H   UNL A   1      44.175  28.900  30.522  1.00  0.00     0.167 HD
ATOM     57  C   UNL A   1      45.871  26.671  30.084  1.00  0.00     0.074 A 
ATOM     58  C   UNL A   1      46.348  25.381  29.628  1.00  0.00     0.031 C 
ATOM     59  C   UNL A   1      46.644  27.591  30.715  1.00  0.00     0.037 A 
BRANCH  46  60
ATOM     60  C   UNL A   1      43.694  32.845  32.090  1.00  0.00     0.058 A 
ATOM     61  C   UNL A   1      43.987  33.972  31.306  1.00  0.00     0.135 A 
ATOM     62  C   UNL A   1      43.429  33.047  33.455  1.00  0.00     0.135 A 
ATOM     63  F   UNL A   1      44.263  33.832  30.000  1.00  0.00    -0.206 F 
ATOM     64  C   UNL A   1      44.038  35.248  31.858  1.00  0.00     0.059 A 
ATOM     65  C   UNL A   1      43.451  34.317  34.024  1.00  0.00     0.059 A 
ATOM     66  F   UNL A   1      43.143  32.004  34.250  1.00  0.00    -0.206 F 
ATOM     67  C   UNL A   1      43.769  35.411  33.219  1.00  0.00     0.060 A 
BRANCH  67  68
ATOM     68  S   UNL A   1      43.835  37.073  33.919  1.00  0.00     0.124 S 
ATOM     69  O   UNL A   1      42.417  37.381  34.073  1.00  0.00    -0.237 OA
ATOM     70  O   UNL A   1      44.576  36.862  35.159  1.00  0.00    -0.237 OA
ATOM     71  O   UNL A   1      44.536  37.846  32.898  1.00  0.00    -0.744 OA
ENDBRANCH  67  68
ENDBRANCH  46  60
BRANCH  47  72
ATOM     72  C   UNL A   1      42.823  23.817  27.906  1.00  0.00     0.058 A 
ATOM     73  C   UNL A   1      42.565  22.656  28.647  1.00  0.00     0.135 A 
ATOM     74  C   UNL A   1      42.968  23.688  26.515  1.00  0.00     0.135 A 
ATOM     75  F   UNL A   1      42.432  22.726  29.980  1.00  0.00    -0.206 F 
ATOM     76  C   UNL A   1      42.461  21.410  28.035  1.00  0.00     0.059 A 
ATOM     77  C   UNL A   1      42.844  22.458  25.878  1.00  0.00     0.059 A 
ATOM     78  F   UNL A   1      43.207  24.772  25.761  1.00  0.00    -0.206 F 
ATOM     79  C   UNL A   1      42.598  21.323  26.649  1.00  0.00     0.060 A 
BRANCH  79  80
ATOM     80  S   UNL A   1      42.400  19.712  25.857  1.00  0.00     0.124 S 
ATOM     81  O   UNL A   1      40.989  19.736  25.491  1.00  0.00    -0.237 OA
ATOM     82  O   UNL A   1      43.349  19.796  24.751  1.00  0.00    -0.237 OA
ATOM     83  O   UNL A   1      42.764  18.773  26.915  1.00  0.00    -0.744 OA
ENDBRANCH  79  80
ENDBRANCH  47  72
BRANCH  59  84
ATOM     84  C   UNL A   1      48.086  27.235  30.957  1.00  0.00     0.058 A 
ATOM     85  C   UNL A   1      48.488  26.555  32.116  1.00  0.00     0.135 A 
ATOM     86  C   UNL A   1      49.067  27.532  29.997  1.00  0.00     0.135 A 
ATOM     87  F   UNL A   1      47.591  26.254  33.070  1.00  0.00    -0.206 F 
ATOM     88  C   UNL A   1      49.817  26.198  32.326  1.00  0.00     0.059 A 
ATOM     89  C   UNL A   1      50.397  27.163  30.174  1.00  0.00     0.059 A 
ATOM     90  F   UNL A   1      48.733  28.172  28.865  1.00  0.00    -0.206 F 
ATOM     91  C   UNL A   1      50.764  26.505  31.347  1.00  0.00     0.060 A 
BRANCH  91  92
ATOM     92  S   UNL A   1      52.479  26.008  31.616  1.00  0.00     0.124 S 
ATOM     93  O   UNL A   1      53.055  26.208  30.291  1.00  0.00    -0.237 OA
ATOM     94  O   UNL A   1      52.918  26.944  32.647  1.00  0.00    -0.237 OA
ATOM     95  O   UNL A   1      52.366  24.618  32.048  1.00  0.00    -0.744 OA
ENDBRANCH  91  92
ENDBRANCH  59  84
ENDBRANCH  33  34
ENDBRANCH  26  28
ENDBRANCH  25  26
ENDBRANCH  24  25
ENDBRANCH  23  24
ENDBRANCH   1  23
TORSDOF 20
ENDMDL
