MODEL 1
REMARK VINA RESULT:     -11.3      0.000      0.000
REMARK SMILES O=C(Cn1c2ccccc2c(=O)c2ccccc21)N[C@@H](Cc1ccccc1)C(=O)OCCOCCOC(=O)c1ccc(-c2c3nc(c(-c4c(F)cc(S(=O)(=O)[O-])cc4F)c4ccc([nH]4)c(-c4c(F)cc(S(=O)(=O)[O-])cc4F)c4nc(c(-c5c(F)cc(S(=O)(=O)[O-])cc5F)c5ccc2[nH]5)C=C4)C=C3)cc1
REMARK SMILES IDX 33 1 32 2 31 3 30 4 28 5 29 6 20 7 19 8 1 9 2 10 3 12 4 13
REMARK SMILES IDX 5 14 18 15 6 16 10 17 13 18 17 19 7 20 9 21 11 22 14 23
REMARK SMILES IDX 16 24 8 25 12 26 15 27 21 28 22 29 23 30 27 31 24 32 26 33
REMARK SMILES IDX 25 34 34 35 35 36 36 37 37 38 38 39 39 40 40 41 104 42 41 43
REMARK SMILES IDX 103 44 42 45 43 46 44 47 97 48 45 49 102 50 96 51 98 52
REMARK SMILES IDX 46 53 101 54 95 55 94 56 47 58 81 59 60 60 80 61 61 62 64 63
REMARK SMILES IDX 79 64 99 65 62 66 63 67 78 69 100 70 65 71 48 72 49 73 58 74
REMARK SMILES IDX 50 75 51 76 57 77 59 78 52 79 53 80 54 81 55 82 56 83 82 84
REMARK SMILES IDX 83 85 92 86 84 87 85 88 91 89 93 90 86 91 87 92 88 93 89 94
REMARK SMILES IDX 90 95 66 96 67 97 76 98 68 99 69 100 75 101 77 102 70 103
REMARK SMILES IDX 71 104 72 105 73 106 74 107
REMARK H PARENT 19 11 98 57 64 68
REMARK Flexibility Score: inf
ROOT
ATOM      1  O   UNL A   1      43.848  20.240  24.952  1.00  0.00    -0.374 OA
ENDROOT
BRANCH   1   2
ATOM      2  C   UNL A   1      42.748  19.976  25.815  1.00  0.00     0.202 C 
BRANCH   2   3
ATOM      3  C   UNL A   1      41.585  20.957  26.099  1.00  0.00     0.261 C 
BRANCH   3   4
ATOM      4  O   UNL A   1      40.371  20.415  26.628  1.00  0.00    -0.462 OA
BRANCH   4   5
ATOM      5  C   UNL A   1      39.221  20.800  26.010  1.00  0.00     0.329 C 
ATOM      6  O   UNL A   1      38.540  20.064  25.302  1.00  0.00    -0.250 OA
BRANCH   5   7
ATOM      7  C   UNL A   1      38.932  22.308  26.148  1.00  0.00     0.196 C 
BRANCH   7   8
ATOM      8  N   UNL A   1      37.550  22.763  26.375  1.00  0.00    -0.341 N 
ATOM      9  O   UNL A   1      37.046  23.345  24.221  1.00  0.00    -0.273 OA
ATOM     10  C   UNL A   1      36.735  23.317  25.409  1.00  0.00     0.240 C 
ATOM     11  H   UNL A   1      37.180  22.664  27.281  1.00  0.00     0.164 HD
BRANCH  10  12
ATOM     12  C   UNL A   1      35.452  23.963  25.971  1.00  0.00     0.222 C 
BRANCH  12  13
ATOM     13  N   UNL A   1      34.303  24.072  25.051  1.00  0.00    -0.331 N 
ATOM     14  C   UNL A   1      33.795  25.365  24.742  1.00  0.00     0.053 A 
ATOM     15  C   UNL A   1      33.720  22.926  24.494  1.00  0.00     0.053 A 
ATOM     16  C   UNL A   1      34.044  26.468  25.589  1.00  0.00     0.027 A 
ATOM     17  C   UNL A   1      32.946  25.600  23.625  1.00  0.00     0.046 A 
ATOM     18  C   UNL A   1      32.931  23.180  22.894  1.00  0.00     0.046 A 
ATOM     19  C   UNL A   1      33.696  21.302  25.257  1.00  0.00     0.027 A 
ATOM     20  C   UNL A   1      33.433  27.712  25.389  1.00  0.00     0.002 A 
ATOM     21  C   UNL A   1      32.307  26.842  23.456  1.00  0.00     0.014 A 
ATOM     22  C   UNL A   1      32.694  24.578  22.563  1.00  0.00     0.197 A 
ATOM     23  C   UNL A   1      32.160  21.807  22.015  1.00  0.00     0.014 A 
ATOM     24  C   UNL A   1      32.903  19.912  24.401  1.00  0.00     0.002 A 
ATOM     25  C   UNL A   1      32.539  27.890  24.342  1.00  0.00     0.001 A 
ATOM     26  O   UNL A   1      32.274  24.875  21.451  1.00  0.00    -0.288 OA
ATOM     27  C   UNL A   1      32.151  20.156  22.772  1.00  0.00     0.001 A 
ENDBRANCH  12  13
ENDBRANCH  10  12
ENDBRANCH   7   8
BRANCH   7  28
ATOM     28  C   UNL A   1      39.862  22.859  27.259  1.00  0.00     0.072 C 
BRANCH  28  29
ATOM     29  C   UNL A   1      40.103  24.356  27.164  1.00  0.00    -0.045 A 
ATOM     30  C   UNL A   1      40.920  24.872  26.143  1.00  0.00     0.004 A 
ATOM     31  C   UNL A   1      39.467  25.249  28.036  1.00  0.00     0.004 A 
ATOM     32  C   UNL A   1      41.068  26.250  25.980  1.00  0.00     0.000 A 
ATOM     33  C   UNL A   1      39.625  26.628  27.874  1.00  0.00     0.000 A 
ATOM     34  C   UNL A   1      40.419  27.128  26.843  1.00  0.00     0.000 A 
ENDBRANCH  28  29
ENDBRANCH   7  28
ENDBRANCH   5   7
ENDBRANCH   4   5
ENDBRANCH   3   4
ENDBRANCH   2   3
ENDBRANCH   1   2
BRANCH   1  35
ATOM     35  C   UNL A   1      44.667  21.398  25.090  1.00  0.00     0.202 C 
BRANCH  35  36
ATOM     36  C   UNL A   1      43.986  22.883  25.216  1.00  0.00     0.261 C 
BRANCH  36  37
ATOM     37  O   UNL A   1      44.419  24.380  26.493  1.00  0.00    -0.460 OA
BRANCH  37  38
ATOM     38  C   UNL A   1      44.998  25.486  27.152  1.00  0.00     0.338 C 
ATOM     39  O   UNL A   1      46.164  25.857  27.122  1.00  0.00    -0.246 OA
BRANCH  38  40
ATOM     40  C   UNL A   1      44.027  26.280  27.923  1.00  0.00     0.060 A 
ATOM     41  C   UNL A   1      43.268  25.637  28.900  1.00  0.00     0.016 A 
ATOM     42  C   UNL A   1      44.060  27.678  27.835  1.00  0.00     0.016 A 
ATOM     43  C   UNL A   1      42.570  26.405  29.830  1.00  0.00     0.010 A 
ATOM     44  C   UNL A   1      43.363  28.445  28.764  1.00  0.00     0.010 A 
ATOM     45  C   UNL A   1      42.661  27.810  29.796  1.00  0.00    -0.014 A 
BRANCH  45  46
ATOM     46  C   UNL A   1      42.255  28.588  30.987  1.00  0.00     0.031 A 
ATOM     47  C   UNL A   1      43.036  28.550  32.257  1.00  0.00     0.074 A 
ATOM     48  C   UNL A   1      41.132  29.324  30.889  1.00  0.00     0.049 A 
ATOM     49  N   UNL A   1      42.900  29.298  33.319  1.00  0.00    -0.248 NA
ATOM     50  C   UNL A   1      44.096  27.537  32.358  1.00  0.00     0.031 C 
ATOM     51  C   UNL A   1      40.255  29.361  29.713  1.00  0.00     0.029 A 
ATOM     52  N   UNL A   1      40.542  30.189  31.771  1.00  0.00    -0.354 N 
ATOM     53  C   UNL A   1      43.877  28.876  34.207  1.00  0.00     0.074 A 
ATOM     54  C   UNL A   1      44.561  27.762  33.581  1.00  0.00     0.031 C 
ATOM     55  C   UNL A   1      39.265  30.238  29.931  1.00  0.00     0.029 A 
ATOM     56  C   UNL A   1      39.435  30.822  31.256  1.00  0.00     0.049 A 
ATOM     57  H   UNL A   1      40.878  30.343  32.684  1.00  0.00     0.167 HD
ATOM     58  C   UNL A   1      44.184  29.396  35.420  1.00  0.00     0.037 A 
ATOM     59  C   UNL A   1      38.664  31.791  31.782  1.00  0.00     0.037 A 
ATOM     60  C   UNL A   1      43.463  30.479  36.038  1.00  0.00     0.049 A 
ATOM     61  C   UNL A   1      39.022  32.347  33.128  1.00  0.00     0.074 A 
ATOM     62  C   UNL A   1      43.713  31.108  37.246  1.00  0.00     0.029 A 
ATOM     63  N   UNL A   1      42.332  31.085  35.502  1.00  0.00    -0.354 N 
ATOM     64  N   UNL A   1      40.019  32.018  33.913  1.00  0.00    -0.248 NA
ATOM     65  C   UNL A   1      38.160  33.412  33.656  1.00  0.00     0.031 C 
ATOM     66  C   UNL A   1      42.714  32.066  37.456  1.00  0.00     0.029 A 
ATOM     67  C   UNL A   1      41.861  32.062  36.363  1.00  0.00     0.049 A 
ATOM     68  H   UNL A   1      41.925  30.852  34.636  1.00  0.00     0.167 HD
ATOM     69  C   UNL A   1      39.915  32.844  35.025  1.00  0.00     0.074 A 
ATOM     70  C   UNL A   1      38.764  33.697  34.802  1.00  0.00     0.031 C 
ATOM     71  C   UNL A   1      40.702  32.890  36.128  1.00  0.00     0.037 A 
BRANCH  58  72
ATOM     72  C   UNL A   1      45.364  28.806  36.141  1.00  0.00     0.058 A 
ATOM     73  C   UNL A   1      45.204  27.732  37.031  1.00  0.00     0.135 A 
ATOM     74  C   UNL A   1      46.663  29.296  35.931  1.00  0.00     0.135 A 
ATOM     75  F   UNL A   1      43.980  27.236  37.279  1.00  0.00    -0.206 F 
ATOM     76  C   UNL A   1      46.283  27.185  37.714  1.00  0.00     0.059 A 
ATOM     77  C   UNL A   1      47.763  28.749  36.589  1.00  0.00     0.059 A 
ATOM     78  F   UNL A   1      46.873  30.321  35.091  1.00  0.00    -0.206 F 
ATOM     79  C   UNL A   1      47.559  27.705  37.490  1.00  0.00     0.060 A 
BRANCH  79  80
ATOM     80  S   UNL A   1      48.944  27.001  38.410  1.00  0.00     0.124 S 
ATOM     81  O   UNL A   1      48.634  25.576  38.352  1.00  0.00    -0.237 OA
ATOM     82  O   UNL A   1      50.094  27.430  37.619  1.00  0.00    -0.237 OA
ATOM     83  O   UNL A   1      48.827  27.615  39.728  1.00  0.00    -0.744 OA
ENDBRANCH  79  80
ENDBRANCH  58  72
BRANCH  59  84
ATOM     84  C   UNL A   1      37.544  32.343  30.980  1.00  0.00     0.058 A 
ATOM     85  C   UNL A   1      36.239  31.862  31.155  1.00  0.00     0.135 A 
ATOM     86  C   UNL A   1      37.738  33.408  30.088  1.00  0.00     0.135 A 
ATOM     87  F   UNL A   1      36.006  30.847  32.001  1.00  0.00    -0.206 F 
ATOM     88  C   UNL A   1      35.163  32.416  30.472  1.00  0.00     0.059 A 
ATOM     89  C   UNL A   1      36.675  33.991  29.406  1.00  0.00     0.059 A 
ATOM     90  F   UNL A   1      38.968  33.915  29.905  1.00  0.00    -0.206 F 
ATOM     91  C   UNL A   1      35.390  33.486  29.603  1.00  0.00     0.060 A 
BRANCH  91  92
ATOM     92  S   UNL A   1      33.972  34.240  28.776  1.00  0.00     0.124 S 
ATOM     93  O   UNL A   1      33.512  33.146  27.927  1.00  0.00    -0.237 OA
ATOM     94  O   UNL A   1      33.108  34.582  29.902  1.00  0.00    -0.237 OA
ATOM     95  O   UNL A   1      34.558  35.379  28.075  1.00  0.00    -0.744 OA
ENDBRANCH  91  92
ENDBRANCH  59  84
BRANCH  71  96
ATOM     96  C   UNL A   1      40.337  33.892  37.185  1.00  0.00     0.058 A 
ATOM     97  C   UNL A   1      40.931  35.163  37.220  1.00  0.00     0.135 A 
ATOM     98  C   UNL A   1      39.343  33.602  38.133  1.00  0.00     0.135 A 
ATOM     99  F   UNL A   1      41.894  35.484  36.341  1.00  0.00    -0.206 F 
ATOM    100  C   UNL A   1      40.559  36.111  38.167  1.00  0.00     0.059 A 
ATOM    101  C   UNL A   1      38.939  34.543  39.076  1.00  0.00     0.059 A 
ATOM    102  F   UNL A   1      38.742  32.402  38.138  1.00  0.00    -0.206 F 
ATOM    103  C   UNL A   1      39.558  35.793  39.088  1.00  0.00     0.060 A 
BRANCH 103 104
ATOM    104  S   UNL A   1      39.046  37.052  40.276  1.00  0.00     0.124 S 
ATOM    105  O   UNL A   1      38.138  36.297  41.133  1.00  0.00    -0.237 OA
ATOM    106  O   UNL A   1      40.314  37.442  40.884  1.00  0.00    -0.237 OA
ATOM    107  O   UNL A   1      38.419  38.072  39.440  1.00  0.00    -0.744 OA
ENDBRANCH 103 104
ENDBRANCH  71  96
ENDBRANCH  45  46
ENDBRANCH  38  40
ENDBRANCH  37  38
ENDBRANCH  36  37
ENDBRANCH  35  36
ENDBRANCH   1  35
TORSDOF 22
ENDMDL
MODEL 2
REMARK VINA RESULT:     -11.1      5.712     10.703
REMARK SMILES O=C(Cn1c2ccccc2c(=O)c2ccccc21)N[C@@H](Cc1ccccc1)C(=O)OCCOCCOC(=O)c1ccc(-c2c3nc(c(-c4c(F)cc(S(=O)(=O)[O-])cc4F)c4ccc([nH]4)c(-c4c(F)cc(S(=O)(=O)[O-])cc4F)c4nc(c(-c5c(F)cc(S(=O)(=O)[O-])cc5F)c5ccc2[nH]5)C=C4)C=C3)cc1
REMARK SMILES IDX 33 1 32 2 31 3 30 4 28 5 29 6 20 7 19 8 1 9 2 10 3 12 4 13
REMARK SMILES IDX 5 14 18 15 6 16 10 17 13 18 17 19 7 20 9 21 11 22 14 23
REMARK SMILES IDX 16 24 8 25 12 26 15 27 21 28 22 29 23 30 27 31 24 32 26 33
REMARK SMILES IDX 25 34 34 35 35 36 36 37 37 38 38 39 39 40 40 41 104 42 41 43
REMARK SMILES IDX 103 44 42 45 43 46 44 47 97 48 45 49 102 50 96 51 98 52
REMARK SMILES IDX 46 53 101 54 95 55 94 56 47 58 81 59 60 60 80 61 61 62 64 63
REMARK SMILES IDX 79 64 99 65 62 66 63 67 78 69 100 70 65 71 48 72 49 73 58 74
REMARK SMILES IDX 50 75 51 76 57 77 59 78 52 79 53 80 54 81 55 82 56 83 82 84
REMARK SMILES IDX 83 85 92 86 84 87 85 88 91 89 93 90 86 91 87 92 88 93 89 94
REMARK SMILES IDX 90 95 66 96 67 97 76 98 68 99 69 100 75 101 77 102 70 103
REMARK SMILES IDX 71 104 72 105 73 106 74 107
REMARK H PARENT 19 11 98 57 64 68
REMARK Flexibility Score: inf
ROOT
ATOM      1  O   UNL A   1      32.544  35.026  30.003  1.00  0.00    -0.374 OA
ENDROOT
BRANCH   1   2
ATOM      2  C   UNL A   1      33.281  34.838  28.801  1.00  0.00     0.202 C 
BRANCH   2   3
ATOM      3  C   UNL A   1      33.429  33.492  28.050  1.00  0.00     0.261 C 
BRANCH   3   4
ATOM      4  O   UNL A   1      34.008  32.393  28.761  1.00  0.00    -0.462 OA
BRANCH   4   5
ATOM      5  C   UNL A   1      35.143  31.864  28.228  1.00  0.00     0.329 C 
ATOM      6  O   UNL A   1      35.845  32.433  27.397  1.00  0.00    -0.250 OA
BRANCH   5   7
ATOM      7  C   UNL A   1      35.385  30.399  28.647  1.00  0.00     0.196 C 
BRANCH   7   8
ATOM      8  N   UNL A   1      34.410  29.365  28.261  1.00  0.00    -0.341 N 
ATOM      9  O   UNL A   1      34.902  29.278  26.029  1.00  0.00    -0.273 OA
ATOM     10  C   UNL A   1      34.189  28.935  26.969  1.00  0.00     0.240 C 
ATOM     11  H   UNL A   1      33.878  28.950  28.976  1.00  0.00     0.164 HD
BRANCH  10  12
ATOM     12  C   UNL A   1      32.928  28.061  26.809  1.00  0.00     0.222 C 
BRANCH  12  13
ATOM     13  N   UNL A   1      32.739  27.397  25.505  1.00  0.00    -0.331 N 
ATOM     14  C   UNL A   1      32.023  28.085  24.486  1.00  0.00     0.053 A 
ATOM     15  C   UNL A   1      33.250  26.113  25.273  1.00  0.00     0.053 A 
ATOM     16  C   UNL A   1      31.139  29.142  24.801  1.00  0.00     0.027 A 
ATOM     17  C   UNL A   1      32.088  27.697  23.119  1.00  0.00     0.046 A 
ATOM     18  C   UNL A   1      33.647  25.756  23.553  1.00  0.00     0.046 A 
ATOM     19  C   UNL A   1      33.497  24.856  26.529  1.00  0.00     0.027 A 
ATOM     20  C   UNL A   1      30.313  29.733  23.836  1.00  0.00     0.002 A 
ATOM     21  C   UNL A   1      31.225  28.270  22.166  1.00  0.00     0.014 A 
ATOM     22  C   UNL A   1      33.067  26.693  22.601  1.00  0.00     0.197 A 
ATOM     23  C   UNL A   1      34.347  24.163  23.077  1.00  0.00     0.014 A 
ATOM     24  C   UNL A   1      34.177  23.238  26.068  1.00  0.00     0.002 A 
ATOM     25  C   UNL A   1      30.331  29.275  22.526  1.00  0.00     0.001 A 
ATOM     26  O   UNL A   1      33.370  26.619  21.416  1.00  0.00    -0.288 OA
ATOM     27  C   UNL A   1      34.621  22.894  24.347  1.00  0.00     0.001 A 
ENDBRANCH  12  13
ENDBRANCH  10  12
ENDBRANCH   7   8
BRANCH   7  28
ATOM     28  C   UNL A   1      36.801  30.005  28.156  1.00  0.00     0.072 C 
BRANCH  28  29
ATOM     29  C   UNL A   1      37.582  29.172  29.158  1.00  0.00    -0.045 A 
ATOM     30  C   UNL A   1      37.300  29.278  30.531  1.00  0.00     0.004 A 
ATOM     31  C   UNL A   1      38.537  28.238  28.736  1.00  0.00     0.004 A 
ATOM     32  C   UNL A   1      37.935  28.446  31.454  1.00  0.00     0.000 A 
ATOM     33  C   UNL A   1      39.177  27.412  29.664  1.00  0.00     0.000 A 
ATOM     34  C   UNL A   1      38.871  27.511  31.020  1.00  0.00     0.000 A 
ENDBRANCH  28  29
ENDBRANCH   7  28
ENDBRANCH   5   7
ENDBRANCH   4   5
ENDBRANCH   3   4
ENDBRANCH   2   3
ENDBRANCH   1   2
BRANCH   1  35
ATOM     35  C   UNL A   1      33.163  35.047  31.286  1.00  0.00     0.202 C 
BRANCH  35  36
ATOM     36  C   UNL A   1      34.757  34.697  31.440  1.00  0.00     0.261 C 
BRANCH  36  37
ATOM     37  O   UNL A   1      35.666  33.425  32.711  1.00  0.00    -0.460 OA
BRANCH  37  38
ATOM     38  C   UNL A   1      36.604  32.710  33.486  1.00  0.00     0.338 C 
ATOM     39  O   UNL A   1      36.528  32.402  34.669  1.00  0.00    -0.246 OA
BRANCH  38  40
ATOM     40  C   UNL A   1      37.780  32.268  32.719  1.00  0.00     0.060 A 
ATOM     41  C   UNL A   1      37.885  32.651  31.382  1.00  0.00     0.016 A 
ATOM     42  C   UNL A   1      38.866  31.695  33.396  1.00  0.00     0.016 A 
ATOM     43  C   UNL A   1      39.107  32.501  30.729  1.00  0.00     0.010 A 
ATOM     44  C   UNL A   1      40.086  31.546  32.743  1.00  0.00     0.010 A 
ATOM     45  C   UNL A   1      40.223  31.999  31.424  1.00  0.00    -0.014 A 
BRANCH  45  46
ATOM     46  C   UNL A   1      41.576  32.208  30.863  1.00  0.00     0.031 A 
ATOM     47  C   UNL A   1      42.254  31.170  30.033  1.00  0.00     0.074 A 
ATOM     48  C   UNL A   1      42.187  33.373  31.147  1.00  0.00     0.049 A 
ATOM     49  N   UNL A   1      43.358  31.275  29.343  1.00  0.00    -0.248 NA
ATOM     50  C   UNL A   1      41.627  29.843  29.982  1.00  0.00     0.031 C 
ATOM     51  C   UNL A   1      41.637  34.417  32.018  1.00  0.00     0.029 A 
ATOM     52  N   UNL A   1      43.386  33.887  30.731  1.00  0.00    -0.354 N 
ATOM     53  C   UNL A   1      43.545  30.040  28.741  1.00  0.00     0.074 A 
ATOM     54  C   UNL A   1      42.471  29.182  29.200  1.00  0.00     0.031 C 
ATOM     55  C   UNL A   1      42.475  35.463  32.035  1.00  0.00     0.029 A 
ATOM     56  C   UNL A   1      43.618  35.165  31.181  1.00  0.00     0.049 A 
ATOM     57  H   UNL A   1      44.020  33.389  30.164  1.00  0.00     0.167 HD
ATOM     58  C   UNL A   1      44.513  29.675  27.866  1.00  0.00     0.037 A 
ATOM     59  C   UNL A   1      44.624  36.015  30.906  1.00  0.00     0.037 A 
ATOM     60  C   UNL A   1      45.594  30.536  27.456  1.00  0.00     0.049 A 
ATOM     61  C   UNL A   1      45.687  35.586  29.938  1.00  0.00     0.074 A 
ATOM     62  C   UNL A   1      46.606  30.280  26.547  1.00  0.00     0.029 A 
ATOM     63  N   UNL A   1      45.815  31.818  27.947  1.00  0.00    -0.354 N 
ATOM     64  N   UNL A   1      45.794  34.454  29.285  1.00  0.00    -0.248 NA
ATOM     65  C   UNL A   1      46.759  36.551  29.660  1.00  0.00     0.031 C 
ATOM     66  C   UNL A   1      47.457  31.392  26.516  1.00  0.00     0.029 A 
ATOM     67  C   UNL A   1      46.957  32.356  27.377  1.00  0.00     0.049 A 
ATOM     68  H   UNL A   1      45.242  32.276  28.605  1.00  0.00     0.167 HD
ATOM     69  C   UNL A   1      46.937  34.573  28.506  1.00  0.00     0.074 A 
ATOM     70  C   UNL A   1      47.479  35.893  28.761  1.00  0.00     0.031 C 
ATOM     71  C   UNL A   1      47.488  33.669  27.658  1.00  0.00     0.037 A 
BRANCH  58  72
ATOM     72  C   UNL A   1      44.428  28.293  27.284  1.00  0.00     0.058 A 
ATOM     73  C   UNL A   1      45.247  27.256  27.760  1.00  0.00     0.135 A 
ATOM     74  C   UNL A   1      43.513  27.988  26.263  1.00  0.00     0.135 A 
ATOM     75  F   UNL A   1      46.149  27.496  28.725  1.00  0.00    -0.206 F 
ATOM     76  C   UNL A   1      45.187  25.975  27.223  1.00  0.00     0.059 A 
ATOM     77  C   UNL A   1      43.421  26.707  25.724  1.00  0.00     0.059 A 
ATOM     78  F   UNL A   1      42.706  28.942  25.771  1.00  0.00    -0.206 F 
ATOM     79  C   UNL A   1      44.274  25.712  26.201  1.00  0.00     0.060 A 
BRANCH  79  80
ATOM     80  S   UNL A   1      44.233  24.051  25.495  1.00  0.00     0.124 S 
ATOM     81  O   UNL A   1      42.868  23.989  24.983  1.00  0.00    -0.237 OA
ATOM     82  O   UNL A   1      45.286  24.114  24.486  1.00  0.00    -0.237 OA
ATOM     83  O   UNL A   1      44.514  23.188  26.638  1.00  0.00    -0.744 OA
ENDBRANCH  79  80
ENDBRANCH  58  72
BRANCH  59  84
ATOM     84  C   UNL A   1      44.606  37.377  31.494  1.00  0.00     0.058 A 
ATOM     85  C   UNL A   1      43.981  38.436  30.820  1.00  0.00     0.135 A 
ATOM     86  C   UNL A   1      45.138  37.631  32.767  1.00  0.00     0.135 A 
ATOM     87  F   UNL A   1      43.455  38.237  29.602  1.00  0.00    -0.206 F 
ATOM     88  C   UNL A   1      43.884  39.701  31.386  1.00  0.00     0.059 A 
ATOM     89  C   UNL A   1      45.038  38.885  33.362  1.00  0.00     0.059 A 
ATOM     90  F   UNL A   1      45.727  36.643  33.459  1.00  0.00    -0.206 F 
ATOM     91  C   UNL A   1      44.410  39.915  32.661  1.00  0.00     0.060 A 
BRANCH  91  92
ATOM     92  S   UNL A   1      44.215  41.547  33.411  1.00  0.00     0.124 S 
ATOM     93  O   UNL A   1      45.522  42.143  33.160  1.00  0.00    -0.237 OA
ATOM     94  O   UNL A   1      43.102  42.103  32.648  1.00  0.00    -0.237 OA
ATOM     95  O   UNL A   1      43.919  41.242  34.808  1.00  0.00    -0.744 OA
ENDBRANCH  91  92
ENDBRANCH  59  84
BRANCH  71  96
ATOM     96  C   UNL A   1      48.747  34.077  26.949  1.00  0.00     0.058 A 
ATOM     97  C   UNL A   1      48.708  34.681  25.684  1.00  0.00     0.135 A 
ATOM     98  C   UNL A   1      49.998  33.917  27.566  1.00  0.00     0.135 A 
ATOM     99  F   UNL A   1      47.536  34.845  25.049  1.00  0.00    -0.206 F 
ATOM    100  C   UNL A   1      49.869  35.105  25.047  1.00  0.00     0.059 A 
ATOM    101  C   UNL A   1      51.170  34.354  26.957  1.00  0.00     0.059 A 
ATOM    102  F   UNL A   1      50.088  33.348  28.779  1.00  0.00    -0.206 F 
ATOM    103  C   UNL A   1      51.096  34.942  25.694  1.00  0.00     0.060 A 
BRANCH 103 104
ATOM    104  S   UNL A   1      52.589  35.547  24.880  1.00  0.00     0.124 S 
ATOM    105  O   UNL A   1      53.635  34.991  25.733  1.00  0.00    -0.237 OA
ATOM    106  O   UNL A   1      52.478  34.961  23.548  1.00  0.00    -0.237 OA
ATOM    107  O   UNL A   1      52.440  36.998  24.933  1.00  0.00    -0.744 OA
ENDBRANCH 103 104
ENDBRANCH  71  96
ENDBRANCH  45  46
ENDBRANCH  38  40
ENDBRANCH  37  38
ENDBRANCH  36  37
ENDBRANCH  35  36
ENDBRANCH   1  35
TORSDOF 22
ENDMDL
MODEL 3
REMARK VINA RESULT:     -11.0      5.769     10.879
REMARK SMILES O=C(Cn1c2ccccc2c(=O)c2ccccc21)N[C@@H](Cc1ccccc1)C(=O)OCCOCCOC(=O)c1ccc(-c2c3nc(c(-c4c(F)cc(S(=O)(=O)[O-])cc4F)c4ccc([nH]4)c(-c4c(F)cc(S(=O)(=O)[O-])cc4F)c4nc(c(-c5c(F)cc(S(=O)(=O)[O-])cc5F)c5ccc2[nH]5)C=C4)C=C3)cc1
REMARK SMILES IDX 33 1 32 2 31 3 30 4 28 5 29 6 20 7 19 8 1 9 2 10 3 12 4 13
REMARK SMILES IDX 5 14 18 15 6 16 10 17 13 18 17 19 7 20 9 21 11 22 14 23
REMARK SMILES IDX 16 24 8 25 12 26 15 27 21 28 22 29 23 30 27 31 24 32 26 33
REMARK SMILES IDX 25 34 34 35 35 36 36 37 37 38 38 39 39 40 40 41 104 42 41 43
REMARK SMILES IDX 103 44 42 45 43 46 44 47 97 48 45 49 102 50 96 51 98 52
REMARK SMILES IDX 46 53 101 54 95 55 94 56 47 58 81 59 60 60 80 61 61 62 64 63
REMARK SMILES IDX 79 64 99 65 62 66 63 67 78 69 100 70 65 71 48 72 49 73 58 74
REMARK SMILES IDX 50 75 51 76 57 77 59 78 52 79 53 80 54 81 55 82 56 83 82 84
REMARK SMILES IDX 83 85 92 86 84 87 85 88 91 89 93 90 86 91 87 92 88 93 89 94
REMARK SMILES IDX 90 95 66 96 67 97 76 98 68 99 69 100 75 101 77 102 70 103
REMARK SMILES IDX 71 104 72 105 73 106 74 107
REMARK H PARENT 19 11 98 57 64 68
REMARK Flexibility Score: inf
ROOT
ATOM      1  O   UNL A   1      32.555  35.101  30.109  1.00  0.00    -0.374 OA
ENDROOT
BRANCH   1   2
ATOM      2  C   UNL A   1      33.274  34.990  28.886  1.00  0.00     0.202 C 
BRANCH   2   3
ATOM      3  C   UNL A   1      33.488  33.675  28.098  1.00  0.00     0.261 C 
BRANCH   3   4
ATOM      4  O   UNL A   1      34.075  32.570  28.794  1.00  0.00    -0.462 OA
BRANCH   4   5
ATOM      5  C   UNL A   1      35.201  32.042  28.242  1.00  0.00     0.329 C 
ATOM      6  O   UNL A   1      35.856  32.587  27.357  1.00  0.00    -0.250 OA
BRANCH   5   7
ATOM      7  C   UNL A   1      35.497  30.606  28.720  1.00  0.00     0.196 C 
BRANCH   7   8
ATOM      8  N   UNL A   1      34.518  29.539  28.455  1.00  0.00    -0.341 N 
ATOM      9  O   UNL A   1      34.613  29.574  26.171  1.00  0.00    -0.273 OA
ATOM     10  C   UNL A   1      34.092  29.153  27.201  1.00  0.00     0.240 C 
ATOM     11  H   UNL A   1      34.139  29.065  29.230  1.00  0.00     0.164 HD
BRANCH  10  12
ATOM     12  C   UNL A   1      32.865  28.221  27.217  1.00  0.00     0.222 C 
BRANCH  12  13
ATOM     13  N   UNL A   1      32.389  27.723  25.912  1.00  0.00    -0.331 N 
ATOM     14  C   UNL A   1      32.914  26.497  25.415  1.00  0.00     0.053 A 
ATOM     15  C   UNL A   1      31.441  28.443  25.172  1.00  0.00     0.053 A 
ATOM     16  C   UNL A   1      34.146  25.987  25.885  1.00  0.00     0.027 A 
ATOM     17  C   UNL A   1      32.282  25.769  24.369  1.00  0.00     0.046 A 
ATOM     18  C   UNL A   1      30.408  27.442  24.087  1.00  0.00     0.046 A 
ATOM     19  C   UNL A   1      31.223  30.223  25.223  1.00  0.00     0.027 A 
ATOM     20  C   UNL A   1      34.755  24.866  25.308  1.00  0.00     0.002 A 
ATOM     21  C   UNL A   1      32.922  24.668  23.771  1.00  0.00     0.014 A 
ATOM     22  C   UNL A   1      30.917  26.097  23.856  1.00  0.00     0.197 A 
ATOM     23  C   UNL A   1      29.113  28.199  23.086  1.00  0.00     0.014 A 
ATOM     24  C   UNL A   1      29.942  31.008  24.206  1.00  0.00     0.002 A 
ATOM     25  C   UNL A   1      34.160  24.227  24.229  1.00  0.00     0.001 A 
ATOM     26  O   UNL A   1      30.236  25.290  23.234  1.00  0.00    -0.288 OA
ATOM     27  C   UNL A   1      28.873  29.998  23.151  1.00  0.00     0.001 A 
ENDBRANCH  12  13
ENDBRANCH  10  12
ENDBRANCH   7   8
BRANCH   7  28
ATOM     28  C   UNL A   1      36.885  30.206  28.157  1.00  0.00     0.072 C 
BRANCH  28  29
ATOM     29  C   UNL A   1      37.662  29.268  29.064  1.00  0.00    -0.045 A 
ATOM     30  C   UNL A   1      37.414  29.264  30.448  1.00  0.00     0.004 A 
ATOM     31  C   UNL A   1      38.578  28.347  28.541  1.00  0.00     0.004 A 
ATOM     32  C   UNL A   1      38.044  28.338  31.280  1.00  0.00     0.000 A 
ATOM     33  C   UNL A   1      39.213  27.426  29.378  1.00  0.00     0.000 A 
ATOM     34  C   UNL A   1      38.941  27.418  30.745  1.00  0.00     0.000 A 
ENDBRANCH  28  29
ENDBRANCH   7  28
ENDBRANCH   5   7
ENDBRANCH   4   5
ENDBRANCH   3   4
ENDBRANCH   2   3
ENDBRANCH   1   2
BRANCH   1  35
ATOM     35  C   UNL A   1      33.189  35.007  31.381  1.00  0.00     0.202 C 
BRANCH  35  36
ATOM     36  C   UNL A   1      34.781  34.630  31.486  1.00  0.00     0.261 C 
BRANCH  36  37
ATOM     37  O   UNL A   1      35.712  33.372  32.753  1.00  0.00    -0.460 OA
BRANCH  37  38
ATOM     38  C   UNL A   1      36.663  32.671  33.526  1.00  0.00     0.338 C 
ATOM     39  O   UNL A   1      36.597  32.369  34.711  1.00  0.00    -0.246 OA
BRANCH  38  40
ATOM     40  C   UNL A   1      37.840  32.240  32.755  1.00  0.00     0.060 A 
ATOM     41  C   UNL A   1      37.935  32.620  31.416  1.00  0.00     0.016 A 
ATOM     42  C   UNL A   1      38.935  31.682  33.428  1.00  0.00     0.016 A 
ATOM     43  C   UNL A   1      39.155  32.482  30.757  1.00  0.00     0.010 A 
ATOM     44  C   UNL A   1      40.154  31.544  32.769  1.00  0.00     0.010 A 
ATOM     45  C   UNL A   1      40.280  31.994  31.448  1.00  0.00    -0.014 A 
BRANCH  45  46
ATOM     46  C   UNL A   1      41.627  32.216  30.880  1.00  0.00     0.031 A 
ATOM     47  C   UNL A   1      42.309  31.187  30.042  1.00  0.00     0.074 A 
ATOM     48  C   UNL A   1      42.231  33.385  31.165  1.00  0.00     0.049 A 
ATOM     49  N   UNL A   1      43.408  31.303  29.345  1.00  0.00    -0.248 NA
ATOM     50  C   UNL A   1      41.691  29.856  29.988  1.00  0.00     0.031 C 
ATOM     51  C   UNL A   1      41.678  34.421  32.044  1.00  0.00     0.029 A 
ATOM     52  N   UNL A   1      43.423  33.910  30.743  1.00  0.00    -0.354 N 
ATOM     53  C   UNL A   1      43.601  30.072  28.736  1.00  0.00     0.074 A 
ATOM     54  C   UNL A   1      42.536  29.204  29.198  1.00  0.00     0.031 C 
ATOM     55  C   UNL A   1      42.508  35.473  32.060  1.00  0.00     0.029 A 
ATOM     56  C   UNL A   1      43.648  35.188  31.198  1.00  0.00     0.049 A 
ATOM     57  H   UNL A   1      44.057  33.419  30.171  1.00  0.00     0.167 HD
ATOM     58  C   UNL A   1      44.566  29.719  27.854  1.00  0.00     0.037 A 
ATOM     59  C   UNL A   1      44.646  36.047  30.921  1.00  0.00     0.037 A 
ATOM     60  C   UNL A   1      45.637  30.590  27.442  1.00  0.00     0.049 A 
ATOM     61  C   UNL A   1      45.706  35.631  29.944  1.00  0.00     0.074 A 
ATOM     62  C   UNL A   1      46.646  30.347  26.525  1.00  0.00     0.029 A 
ATOM     63  N   UNL A   1      45.852  31.872  27.936  1.00  0.00    -0.354 N 
ATOM     64  N   UNL A   1      45.818  34.502  29.286  1.00  0.00    -0.248 NA
ATOM     65  C   UNL A   1      46.768  36.605  29.664  1.00  0.00     0.031 C 
ATOM     66  C   UNL A   1      47.488  31.465  26.493  1.00  0.00     0.029 A 
ATOM     67  C   UNL A   1      46.986  32.421  27.362  1.00  0.00     0.049 A 
ATOM     68  H   UNL A   1      45.279  32.322  28.599  1.00  0.00     0.167 HD
ATOM     69  C   UNL A   1      46.955  34.633  28.500  1.00  0.00     0.074 A 
ATOM     70  C   UNL A   1      47.488  35.957  28.757  1.00  0.00     0.031 C 
ATOM     71  C   UNL A   1      47.508  33.738  27.645  1.00  0.00     0.037 A 
BRANCH  58  72
ATOM     72  C   UNL A   1      44.488  28.338  27.267  1.00  0.00     0.058 A 
ATOM     73  C   UNL A   1      45.324  27.308  27.728  1.00  0.00     0.135 A 
ATOM     74  C   UNL A   1      43.564  28.029  26.256  1.00  0.00     0.135 A 
ATOM     75  F   UNL A   1      46.235  27.554  28.683  1.00  0.00    -0.206 F 
ATOM     76  C   UNL A   1      45.271  26.030  27.186  1.00  0.00     0.059 A 
ATOM     77  C   UNL A   1      43.479  26.749  25.712  1.00  0.00     0.059 A 
ATOM     78  F   UNL A   1      42.741  28.976  25.778  1.00  0.00    -0.206 F 
ATOM     79  C   UNL A   1      44.349  25.761  26.174  1.00  0.00     0.060 A 
BRANCH  79  80
ATOM     80  S   UNL A   1      44.316  24.103  25.461  1.00  0.00     0.124 S 
ATOM     81  O   UNL A   1      43.002  24.088  24.826  1.00  0.00    -0.237 OA
ATOM     82  O   UNL A   1      45.458  24.131  24.553  1.00  0.00    -0.237 OA
ATOM     83  O   UNL A   1      44.462  23.230  26.621  1.00  0.00    -0.744 OA
ENDBRANCH  79  80
ENDBRANCH  58  72
BRANCH  59  84
ATOM     84  C   UNL A   1      44.620  37.406  31.515  1.00  0.00     0.058 A 
ATOM     85  C   UNL A   1      44.004  38.468  30.837  1.00  0.00     0.135 A 
ATOM     86  C   UNL A   1      45.136  37.655  32.795  1.00  0.00     0.135 A 
ATOM     87  F   UNL A   1      43.494  38.275  29.611  1.00  0.00    -0.206 F 
ATOM     88  C   UNL A   1      43.900  39.731  31.407  1.00  0.00     0.059 A 
ATOM     89  C   UNL A   1      45.028  38.906  33.394  1.00  0.00     0.059 A 
ATOM     90  F   UNL A   1      45.715  36.663  33.490  1.00  0.00    -0.206 F 
ATOM     91  C   UNL A   1      44.410  39.939  32.690  1.00  0.00     0.060 A 
BRANCH  91  92
ATOM     92  S   UNL A   1      44.206  41.567  33.445  1.00  0.00     0.124 S 
ATOM     93  O   UNL A   1      45.452  42.225  33.066  1.00  0.00    -0.237 OA
ATOM     94  O   UNL A   1      42.999  42.060  32.788  1.00  0.00    -0.237 OA
ATOM     95  O   UNL A   1      44.059  41.264  34.866  1.00  0.00    -0.744 OA
ENDBRANCH  91  92
ENDBRANCH  59  84
BRANCH  71  96
ATOM     96  C   UNL A   1      48.759  34.158  26.930  1.00  0.00     0.058 A 
ATOM     97  C   UNL A   1      48.708  34.760  25.664  1.00  0.00     0.135 A 
ATOM     98  C   UNL A   1      50.015  34.013  27.541  1.00  0.00     0.135 A 
ATOM     99  F   UNL A   1      47.532  34.911  25.035  1.00  0.00    -0.206 F 
ATOM    100  C   UNL A   1      49.861  35.196  25.022  1.00  0.00     0.059 A 
ATOM    101  C   UNL A   1      51.179  34.462  26.927  1.00  0.00     0.059 A 
ATOM    102  F   UNL A   1      50.115  33.447  28.755  1.00  0.00    -0.206 F 
ATOM    103  C   UNL A   1      51.092  35.047  25.664  1.00  0.00     0.060 A 
BRANCH 103 104
ATOM    104  S   UNL A   1      52.576  35.668  24.842  1.00  0.00     0.124 S 
ATOM    105  O   UNL A   1      53.360  34.447  24.689  1.00  0.00    -0.237 OA
ATOM    106  O   UNL A   1      52.037  36.234  23.610  1.00  0.00    -0.237 OA
ATOM    107  O   UNL A   1      53.107  36.642  25.791  1.00  0.00    -0.744 OA
ENDBRANCH 103 104
ENDBRANCH  71  96
ENDBRANCH  45  46
ENDBRANCH  38  40
ENDBRANCH  37  38
ENDBRANCH  36  37
ENDBRANCH  35  36
ENDBRANCH   1  35
TORSDOF 22
ENDMDL
