MODEL 1
REMARK VINA RESULT:     -10.2      0.000      0.000
REMARK SMILES O=C(OCCOCCOC(=O)[C@@H](Cc1ccccc1Br)CC(F)(F)F)c1ccc(-c2c3nc(c(-c4c(F)cc(S(=O)(=O)[O-])cc4F)c4ccc([nH]4)c(-c4c(F)cc(S(=O)(=O)[O-])cc4F)c4nc(c(-c5c(F)cc(S(=O)(=O)[O-])cc5F)c5ccc2[nH]5)C=C4)C=C3)cc1
REMARK SMILES IDX 5 1 4 2 3 3 2 4 1 5 26 6 27 7 91 8 28 9 90 10 29 11 30 12
REMARK SMILES IDX 31 13 84 14 32 15 89 16 83 17 85 18 33 19 88 20 82 21 81 22
REMARK SMILES IDX 34 24 68 25 47 26 67 27 48 28 51 29 66 30 86 31 49 32 50 33
REMARK SMILES IDX 65 35 87 36 52 37 35 38 36 39 45 40 37 41 38 42 44 43 46 44
REMARK SMILES IDX 39 45 40 46 41 47 42 48 43 49 69 50 70 51 79 52 71 53 72 54
REMARK SMILES IDX 78 55 80 56 73 57 74 58 75 59 76 60 77 61 53 62 54 63 63 64
REMARK SMILES IDX 55 65 56 66 62 67 64 68 57 69 58 70 59 71 60 72 61 73 6 74
REMARK SMILES IDX 7 75 8 76 9 77 10 78 11 79 12 80 13 81 14 82 15 83 19 84
REMARK SMILES IDX 16 85 18 86 20 87 17 88 21 89 22 90 23 91 24 92 25 93
REMARK H PARENT 85 23 51 34
REMARK Flexibility Score: inf
ROOT
ATOM      1  C   UNL A   1      31.773  29.134  26.359  1.00  0.00     0.202 C 
ENDROOT
BRANCH   1   2
ATOM      2  C   UNL A   1      32.904  30.139  26.584  1.00  0.00     0.261 C 
BRANCH   2   3
ATOM      3  O   UNL A   1      33.707  29.745  27.710  1.00  0.00    -0.460 OA
BRANCH   3   4
ATOM      4  C   UNL A   1      34.655  30.489  28.330  1.00  0.00     0.338 C 
ATOM      5  O   UNL A   1      34.360  31.593  28.780  1.00  0.00    -0.246 OA
BRANCH   4   6
ATOM      6  C   UNL A   1      36.062  30.018  28.462  1.00  0.00     0.060 A 
ATOM      7  C   UNL A   1      36.978  30.069  27.415  1.00  0.00     0.016 A 
ATOM      8  C   UNL A   1      36.521  29.606  29.718  1.00  0.00     0.016 A 
ATOM      9  C   UNL A   1      38.294  29.717  27.559  1.00  0.00     0.010 A 
ATOM     10  C   UNL A   1      37.871  29.284  29.897  1.00  0.00     0.010 A 
ATOM     11  C   UNL A   1      38.752  29.365  28.812  1.00  0.00    -0.014 A 
BRANCH  11  12
ATOM     12  C   UNL A   1      40.176  29.047  28.882  1.00  0.00     0.031 A 
ATOM     13  C   UNL A   1      41.096  30.106  29.376  1.00  0.00     0.074 A 
ATOM     14  C   UNL A   1      40.555  27.770  28.689  1.00  0.00     0.049 A 
ATOM     15  N   UNL A   1      42.393  30.092  29.433  1.00  0.00    -0.248 NA
ATOM     16  C   UNL A   1      40.474  31.340  29.892  1.00  0.00     0.031 C 
ATOM     17  C   UNL A   1      39.645  26.650  28.408  1.00  0.00     0.029 A 
ATOM     18  N   UNL A   1      41.789  27.187  28.732  1.00  0.00    -0.354 N 
ATOM     19  C   UNL A   1      42.750  31.337  29.926  1.00  0.00     0.074 A 
ATOM     20  C   UNL A   1      41.536  32.070  30.196  1.00  0.00     0.031 C 
ATOM     21  C   UNL A   1      40.358  25.520  28.294  1.00  0.00     0.029 A 
ATOM     22  C   UNL A   1      41.770  25.855  28.393  1.00  0.00     0.049 A 
ATOM     23  H   UNL A   1      42.608  27.672  28.979  1.00  0.00     0.167 HD
ATOM     24  C   UNL A   1      44.001  31.813  30.090  1.00  0.00     0.037 A 
ATOM     25  C   UNL A   1      42.798  25.033  28.111  1.00  0.00     0.037 A 
ATOM     26  C   UNL A   1      45.166  31.020  29.816  1.00  0.00     0.049 A 
ATOM     27  C   UNL A   1      44.179  25.627  28.195  1.00  0.00     0.074 A 
ATOM     28  C   UNL A   1      46.495  31.381  29.899  1.00  0.00     0.029 A 
ATOM     29  N   UNL A   1      45.128  29.696  29.394  1.00  0.00    -0.354 N 
ATOM     30  N   UNL A   1      44.531  26.829  28.593  1.00  0.00    -0.248 NA
ATOM     31  C   UNL A   1      45.295  24.783  27.762  1.00  0.00     0.031 C 
ATOM     32  C   UNL A   1      47.260  30.294  29.466  1.00  0.00     0.029 A 
ATOM     33  C   UNL A   1      46.409  29.235  29.171  1.00  0.00     0.049 A 
ATOM     34  H   UNL A   1      44.308  29.165  29.272  1.00  0.00     0.167 HD
ATOM     35  C   UNL A   1      45.910  26.886  28.463  1.00  0.00     0.074 A 
ATOM     36  C   UNL A   1      46.330  25.583  27.980  1.00  0.00     0.031 C 
ATOM     37  C   UNL A   1      46.759  27.916  28.701  1.00  0.00     0.037 A 
BRANCH  24  38
ATOM     38  C   UNL A   1      44.156  33.254  30.467  1.00  0.00     0.058 A 
ATOM     39  C   UNL A   1      44.127  34.290  29.523  1.00  0.00     0.135 A 
ATOM     40  C   UNL A   1      44.325  33.597  31.818  1.00  0.00     0.135 A 
ATOM     41  F   UNL A   1      44.018  34.012  28.214  1.00  0.00    -0.206 F 
ATOM     42  C   UNL A   1      44.248  35.622  29.908  1.00  0.00     0.059 A 
ATOM     43  C   UNL A   1      44.426  34.922  32.228  1.00  0.00     0.059 A 
ATOM     44  F   UNL A   1      44.395  32.639  32.755  1.00  0.00    -0.206 F 
ATOM     45  C   UNL A   1      44.385  35.927  31.265  1.00  0.00     0.060 A 
BRANCH  45  46
ATOM     46  S   UNL A   1      44.481  37.662  31.755  1.00  0.00     0.124 S 
ATOM     47  O   UNL A   1      45.924  37.872  31.810  1.00  0.00    -0.237 OA
ATOM     48  O   UNL A   1      43.785  38.329  30.659  1.00  0.00    -0.237 OA
ATOM     49  O   UNL A   1      43.793  37.691  33.042  1.00  0.00    -0.744 OA
ENDBRANCH  45  46
ENDBRANCH  24  38
BRANCH  25  50
ATOM     50  C   UNL A   1      42.563  23.651  27.605  1.00  0.00     0.058 A 
ATOM     51  C   UNL A   1      42.492  22.552  28.473  1.00  0.00     0.135 A 
ATOM     52  C   UNL A   1      42.452  23.394  26.226  1.00  0.00     0.135 A 
ATOM     53  F   UNL A   1      42.594  22.737  29.798  1.00  0.00    -0.206 F 
ATOM     54  C   UNL A   1      42.362  21.250  27.994  1.00  0.00     0.059 A 
ATOM     55  C   UNL A   1      42.286  22.106  25.727  1.00  0.00     0.059 A 
ATOM     56  F   UNL A   1      42.501  24.404  25.344  1.00  0.00    -0.206 F 
ATOM     57  C   UNL A   1      42.269  21.038  26.617  1.00  0.00     0.060 A 
BRANCH  57  58
ATOM     58  S   UNL A   1      42.132  19.345  26.003  1.00  0.00     0.124 S 
ATOM     59  O   UNL A   1      42.613  18.580  27.147  1.00  0.00    -0.237 OA
ATOM     60  O   UNL A   1      40.705  19.236  25.716  1.00  0.00    -0.237 OA
ATOM     61  O   UNL A   1      43.002  19.342  24.831  1.00  0.00    -0.744 OA
ENDBRANCH  57  58
ENDBRANCH  25  50
BRANCH  37  62
ATOM     62  C   UNL A   1      48.214  27.659  28.456  1.00  0.00     0.058 A 
ATOM     63  C   UNL A   1      48.815  27.993  27.234  1.00  0.00     0.135 A 
ATOM     64  C   UNL A   1      49.027  27.165  29.487  1.00  0.00     0.135 A 
ATOM     65  F   UNL A   1      48.071  28.458  26.218  1.00  0.00    -0.206 F 
ATOM     66  C   UNL A   1      50.181  27.841  27.041  1.00  0.00     0.059 A 
ATOM     67  C   UNL A   1      50.399  27.036  29.327  1.00  0.00     0.059 A 
ATOM     68  F   UNL A   1      48.491  26.842  30.676  1.00  0.00    -0.206 F 
ATOM     69  C   UNL A   1      50.965  27.373  28.097  1.00  0.00     0.060 A 
BRANCH  69  70
ATOM     70  S   UNL A   1      52.747  27.254  27.856  1.00  0.00     0.124 S 
ATOM     71  O   UNL A   1      52.900  25.854  27.476  1.00  0.00    -0.237 OA
ATOM     72  O   UNL A   1      52.982  28.230  26.795  1.00  0.00    -0.237 OA
ATOM     73  O   UNL A   1      53.292  27.615  29.161  1.00  0.00    -0.744 OA
ENDBRANCH  69  70
ENDBRANCH  37  62
ENDBRANCH  11  12
ENDBRANCH   4   6
ENDBRANCH   3   4
ENDBRANCH   2   3
ENDBRANCH   1   2
BRANCH   1  74
ATOM     74  O   UNL A   1      31.696  28.527  25.075  1.00  0.00    -0.374 OA
BRANCH  74  75
ATOM     75  C   UNL A   1      31.909  29.345  23.925  1.00  0.00     0.202 C 
BRANCH  75  76
ATOM     76  C   UNL A   1      32.306  28.428  22.766  1.00  0.00     0.261 C 
BRANCH  76  77
ATOM     77  O   UNL A   1      33.275  27.487  23.255  1.00  0.00    -0.463 OA
BRANCH  77  78
ATOM     78  C   UNL A   1      33.567  26.450  22.435  1.00  0.00     0.309 C 
ATOM     79  O   UNL A   1      33.677  26.504  21.221  1.00  0.00    -0.252 OA
BRANCH  78  80
ATOM     80  C   UNL A   1      33.686  25.156  23.216  1.00  0.00     0.112 C 
BRANCH  80  81
ATOM     81  C   UNL A   1      33.875  25.261  24.754  1.00  0.00     0.052 C 
BRANCH  81  82
ATOM     82  C   UNL A   1      33.792  24.115  25.757  1.00  0.00    -0.033 A 
ATOM     83  C   UNL A   1      32.625  23.797  26.467  1.00  0.00     0.005 A 
ATOM     84  C   UNL A   1      34.920  23.295  26.008  1.00  0.00     0.021 A 
ATOM     85  C   UNL A   1      32.606  22.805  27.458  1.00  0.00     0.000 A 
ATOM     86  C   UNL A   1      34.889  22.271  26.968  1.00  0.00     0.016 A 
ATOM     87  Br  UNL A   1      36.561  23.496  25.059  1.00  0.00    -0.051 Br
ATOM     88  C   UNL A   1      33.739  22.043  27.712  1.00  0.00     0.001 A 
ENDBRANCH  81  82
ENDBRANCH  80  81
BRANCH  80  89
ATOM     89  C   UNL A   1      32.634  24.132  22.799  1.00  0.00     0.131 C 
BRANCH  89  90
ATOM     90  C   UNL A   1      33.218  22.753  22.566  1.00  0.00     0.389 C 
ATOM     91  F   UNL A   1      32.743  22.203  21.431  1.00  0.00    -0.171 F 
ATOM     92  F   UNL A   1      34.561  22.842  22.447  1.00  0.00    -0.171 F 
ATOM     93  F   UNL A   1      32.960  21.920  23.592  1.00  0.00    -0.171 F 
ENDBRANCH  89  90
ENDBRANCH  80  89
ENDBRANCH  78  80
ENDBRANCH  77  78
ENDBRANCH  76  77
ENDBRANCH  75  76
ENDBRANCH  74  75
ENDBRANCH   1  74
TORSDOF 21
ENDMDL
MODEL 2
REMARK VINA RESULT:      -9.7      1.745      8.568
REMARK SMILES O=C(OCCOCCOC(=O)[C@@H](Cc1ccccc1Br)CC(F)(F)F)c1ccc(-c2c3nc(c(-c4c(F)cc(S(=O)(=O)[O-])cc4F)c4ccc([nH]4)c(-c4c(F)cc(S(=O)(=O)[O-])cc4F)c4nc(c(-c5c(F)cc(S(=O)(=O)[O-])cc5F)c5ccc2[nH]5)C=C4)C=C3)cc1
REMARK SMILES IDX 5 1 4 2 3 3 2 4 1 5 26 6 27 7 91 8 28 9 90 10 29 11 30 12
REMARK SMILES IDX 31 13 84 14 32 15 89 16 83 17 85 18 33 19 88 20 82 21 81 22
REMARK SMILES IDX 34 24 68 25 47 26 67 27 48 28 51 29 66 30 86 31 49 32 50 33
REMARK SMILES IDX 65 35 87 36 52 37 35 38 36 39 45 40 37 41 38 42 44 43 46 44
REMARK SMILES IDX 39 45 40 46 41 47 42 48 43 49 69 50 70 51 79 52 71 53 72 54
REMARK SMILES IDX 78 55 80 56 73 57 74 58 75 59 76 60 77 61 53 62 54 63 63 64
REMARK SMILES IDX 55 65 56 66 62 67 64 68 57 69 58 70 59 71 60 72 61 73 6 74
REMARK SMILES IDX 7 75 8 76 9 77 10 78 11 79 12 80 13 81 14 82 15 83 19 84
REMARK SMILES IDX 16 85 18 86 20 87 17 88 21 89 22 90 23 91 24 92 25 93
REMARK H PARENT 85 23 51 34
REMARK Flexibility Score: inf
ROOT
ATOM      1  C   UNL A   1      31.794  29.054  26.245  1.00  0.00     0.202 C 
ENDROOT
BRANCH   1   2
ATOM      2  C   UNL A   1      33.207  29.637  26.200  1.00  0.00     0.261 C 
BRANCH   2   3
ATOM      3  O   UNL A   1      33.903  29.357  27.427  1.00  0.00    -0.460 OA
BRANCH   3   4
ATOM      4  C   UNL A   1      34.772  30.173  28.071  1.00  0.00     0.338 C 
ATOM      5  O   UNL A   1      34.394  31.278  28.453  1.00  0.00    -0.246 OA
BRANCH   4   6
ATOM      6  C   UNL A   1      36.188  29.780  28.313  1.00  0.00     0.060 A 
ATOM      7  C   UNL A   1      37.191  29.942  27.360  1.00  0.00     0.016 A 
ATOM      8  C   UNL A   1      36.557  29.331  29.585  1.00  0.00     0.016 A 
ATOM      9  C   UNL A   1      38.508  29.662  27.610  1.00  0.00     0.010 A 
ATOM     10  C   UNL A   1      37.903  29.081  29.874  1.00  0.00     0.010 A 
ATOM     11  C   UNL A   1      38.872  29.273  28.883  1.00  0.00    -0.014 A 
BRANCH  11  12
ATOM     12  C   UNL A   1      40.301  29.037  29.071  1.00  0.00     0.031 A 
ATOM     13  C   UNL A   1      40.857  27.747  28.586  1.00  0.00     0.074 A 
ATOM     14  C   UNL A   1      41.068  30.063  29.487  1.00  0.00     0.049 A 
ATOM     15  N   UNL A   1      42.060  27.277  28.727  1.00  0.00    -0.248 NA
ATOM     16  C   UNL A   1      39.945  26.874  27.823  1.00  0.00     0.031 C 
ATOM     17  C   UNL A   1      40.582  31.422  29.774  1.00  0.00     0.029 A 
ATOM     18  N   UNL A   1      42.412  30.142  29.708  1.00  0.00    -0.354 N 
ATOM     19  C   UNL A   1      42.035  26.026  28.133  1.00  0.00     0.074 A 
ATOM     20  C   UNL A   1      40.713  25.822  27.588  1.00  0.00     0.031 C 
ATOM     21  C   UNL A   1      41.617  32.191  30.143  1.00  0.00     0.029 A 
ATOM     22  C   UNL A   1      42.808  31.358  30.214  1.00  0.00     0.049 A 
ATOM     23  H   UNL A   1      43.036  29.404  29.525  1.00  0.00     0.167 HD
ATOM     24  C   UNL A   1      43.040  25.128  28.097  1.00  0.00     0.037 A 
ATOM     25  C   UNL A   1      43.988  31.714  30.753  1.00  0.00     0.037 A 
ATOM     26  C   UNL A   1      44.337  25.405  28.646  1.00  0.00     0.049 A 
ATOM     27  C   UNL A   1      45.055  30.652  30.801  1.00  0.00     0.074 A 
ATOM     28  C   UNL A   1      45.439  24.579  28.717  1.00  0.00     0.029 A 
ATOM     29  N   UNL A   1      44.696  26.615  29.229  1.00  0.00    -0.354 N 
ATOM     30  N   UNL A   1      45.022  29.436  30.304  1.00  0.00    -0.248 NA
ATOM     31  C   UNL A   1      46.295  30.985  31.504  1.00  0.00     0.031 C 
ATOM     32  C   UNL A   1      46.446  25.268  29.400  1.00  0.00     0.029 A 
ATOM     33  C   UNL A   1      45.990  26.546  29.702  1.00  0.00     0.049 A 
ATOM     34  H   UNL A   1      44.112  27.406  29.295  1.00  0.00     0.167 HD
ATOM     35  C   UNL A   1      46.239  28.857  30.631  1.00  0.00     0.074 A 
ATOM     36  C   UNL A   1      46.997  29.872  31.340  1.00  0.00     0.031 C 
ATOM     37  C   UNL A   1      46.693  27.603  30.390  1.00  0.00     0.037 A 
BRANCH  24  38
ATOM     38  C   UNL A   1      42.739  23.763  27.560  1.00  0.00     0.058 A 
ATOM     39  C   UNL A   1      42.732  23.473  26.189  1.00  0.00     0.135 A 
ATOM     40  C   UNL A   1      42.463  22.717  28.456  1.00  0.00     0.135 A 
ATOM     41  F   UNL A   1      42.941  24.448  25.289  1.00  0.00    -0.206 F 
ATOM     42  C   UNL A   1      42.473  22.187  25.723  1.00  0.00     0.059 A 
ATOM     43  C   UNL A   1      42.222  21.421  28.015  1.00  0.00     0.059 A 
ATOM     44  F   UNL A   1      42.421  22.953  29.777  1.00  0.00    -0.206 F 
ATOM     45  C   UNL A   1      42.232  21.166  26.645  1.00  0.00     0.060 A 
BRANCH  45  46
ATOM     46  S   UNL A   1      41.958  19.492  26.029  1.00  0.00     0.124 S 
ATOM     47  O   UNL A   1      42.343  18.686  27.184  1.00  0.00    -0.237 OA
ATOM     48  O   UNL A   1      40.533  19.510  25.716  1.00  0.00    -0.237 OA
ATOM     49  O   UNL A   1      42.849  19.402  24.877  1.00  0.00    -0.744 OA
ENDBRANCH  45  46
ENDBRANCH  24  38
BRANCH  25  50
ATOM     50  C   UNL A   1      44.171  33.045  31.397  1.00  0.00     0.058 A 
ATOM     51  C   UNL A   1      43.841  33.264  32.741  1.00  0.00     0.135 A 
ATOM     52  C   UNL A   1      44.642  34.147  30.659  1.00  0.00     0.135 A 
ATOM     53  F   UNL A   1      43.385  32.250  33.493  1.00  0.00    -0.206 F 
ATOM     54  C   UNL A   1      43.928  34.529  33.319  1.00  0.00     0.059 A 
ATOM     55  C   UNL A   1      44.772  35.412  31.224  1.00  0.00     0.059 A 
ATOM     56  F   UNL A   1      44.986  34.002  29.370  1.00  0.00    -0.206 F 
ATOM     57  C   UNL A   1      44.387  35.599  32.548  1.00  0.00     0.060 A 
BRANCH  57  58
ATOM     58  S   UNL A   1      44.469  37.241  33.295  1.00  0.00     0.124 S 
ATOM     59  O   UNL A   1      44.033  38.086  32.190  1.00  0.00    -0.237 OA
ATOM     60  O   UNL A   1      43.537  37.117  34.412  1.00  0.00    -0.237 OA
ATOM     61  O   UNL A   1      45.874  37.369  33.672  1.00  0.00    -0.744 OA
ENDBRANCH  57  58
ENDBRANCH  25  50
BRANCH  37  62
ATOM     62  C   UNL A   1      48.069  27.278  30.883  1.00  0.00     0.058 A 
ATOM     63  C   UNL A   1      49.205  27.569  30.115  1.00  0.00     0.135 A 
ATOM     64  C   UNL A   1      48.251  26.762  32.175  1.00  0.00     0.135 A 
ATOM     65  F   UNL A   1      49.073  28.054  28.869  1.00  0.00    -0.206 F 
ATOM     66  C   UNL A   1      50.482  27.354  30.611  1.00  0.00     0.059 A 
ATOM     67  C   UNL A   1      49.520  26.569  32.703  1.00  0.00     0.059 A 
ATOM     68  F   UNL A   1      47.190  26.478  32.947  1.00  0.00    -0.206 F 
ATOM     69  C   UNL A   1      50.628  26.865  31.910  1.00  0.00     0.060 A 
BRANCH  69  70
ATOM     70  S   UNL A   1      52.295  26.663  32.569  1.00  0.00     0.124 S 
ATOM     71  O   UNL A   1      52.089  26.953  33.983  1.00  0.00    -0.237 OA
ATOM     72  O   UNL A   1      52.590  25.271  32.242  1.00  0.00    -0.237 OA
ATOM     73  O   UNL A   1      53.074  27.653  31.830  1.00  0.00    -0.744 OA
ENDBRANCH  69  70
ENDBRANCH  37  62
ENDBRANCH  11  12
ENDBRANCH   4   6
ENDBRANCH   3   4
ENDBRANCH   2   3
ENDBRANCH   1   2
BRANCH   1  74
ATOM     74  O   UNL A   1      31.310  28.446  25.053  1.00  0.00    -0.374 OA
BRANCH  74  75
ATOM     75  C   UNL A   1      31.366  29.195  23.839  1.00  0.00     0.202 C 
BRANCH  75  76
ATOM     76  C   UNL A   1      32.127  28.358  22.809  1.00  0.00     0.261 C 
BRANCH  76  77
ATOM     77  O   UNL A   1      32.924  27.396  23.519  1.00  0.00    -0.463 OA
BRANCH  77  78
ATOM     78  C   UNL A   1      33.439  26.385  22.780  1.00  0.00     0.309 C 
ATOM     79  O   UNL A   1      33.658  26.412  21.580  1.00  0.00    -0.252 OA
BRANCH  78  80
ATOM     80  C   UNL A   1      33.662  25.149  23.630  1.00  0.00     0.112 C 
BRANCH  80  81
ATOM     81  C   UNL A   1      34.501  23.996  23.014  1.00  0.00     0.052 C 
BRANCH  81  82
ATOM     82  C   UNL A   1      35.286  22.937  23.781  1.00  0.00    -0.033 A 
ATOM     83  C   UNL A   1      36.663  23.029  24.028  1.00  0.00     0.005 A 
ATOM     84  C   UNL A   1      34.632  21.793  24.300  1.00  0.00     0.021 A 
ATOM     85  C   UNL A   1      37.378  21.991  24.645  1.00  0.00     0.000 A 
ATOM     86  C   UNL A   1      35.338  20.774  24.958  1.00  0.00     0.016 A 
ATOM     87  Br  UNL A   1      32.747  21.544  24.167  1.00  0.00    -0.051 Br
ATOM     88  C   UNL A   1      36.716  20.862  25.108  1.00  0.00     0.001 A 
ENDBRANCH  81  82
ENDBRANCH  80  81
BRANCH  80  89
ATOM     89  C   UNL A   1      34.062  25.498  25.060  1.00  0.00     0.131 C 
BRANCH  89  90
ATOM     90  C   UNL A   1      33.076  24.977  26.088  1.00  0.00     0.389 C 
ATOM     91  F   UNL A   1      32.623  25.969  26.881  1.00  0.00    -0.171 F 
ATOM     92  F   UNL A   1      32.008  24.435  25.460  1.00  0.00    -0.171 F 
ATOM     93  F   UNL A   1      33.618  24.017  26.861  1.00  0.00    -0.171 F 
ENDBRANCH  89  90
ENDBRANCH  80  89
ENDBRANCH  78  80
ENDBRANCH  77  78
ENDBRANCH  76  77
ENDBRANCH  75  76
ENDBRANCH  74  75
ENDBRANCH   1  74
TORSDOF 21
ENDMDL
MODEL 3
REMARK VINA RESULT:      -9.6      3.250      4.003
REMARK SMILES O=C(OCCOCCOC(=O)[C@@H](Cc1ccccc1Br)CC(F)(F)F)c1ccc(-c2c3nc(c(-c4c(F)cc(S(=O)(=O)[O-])cc4F)c4ccc([nH]4)c(-c4c(F)cc(S(=O)(=O)[O-])cc4F)c4nc(c(-c5c(F)cc(S(=O)(=O)[O-])cc5F)c5ccc2[nH]5)C=C4)C=C3)cc1
REMARK SMILES IDX 5 1 4 2 3 3 2 4 1 5 26 6 27 7 91 8 28 9 90 10 29 11 30 12
REMARK SMILES IDX 31 13 84 14 32 15 89 16 83 17 85 18 33 19 88 20 82 21 81 22
REMARK SMILES IDX 34 24 68 25 47 26 67 27 48 28 51 29 66 30 86 31 49 32 50 33
REMARK SMILES IDX 65 35 87 36 52 37 35 38 36 39 45 40 37 41 38 42 44 43 46 44
REMARK SMILES IDX 39 45 40 46 41 47 42 48 43 49 69 50 70 51 79 52 71 53 72 54
REMARK SMILES IDX 78 55 80 56 73 57 74 58 75 59 76 60 77 61 53 62 54 63 63 64
REMARK SMILES IDX 55 65 56 66 62 67 64 68 57 69 58 70 59 71 60 72 61 73 6 74
REMARK SMILES IDX 7 75 8 76 9 77 10 78 11 79 12 80 13 81 14 82 15 83 19 84
REMARK SMILES IDX 16 85 18 86 20 87 17 88 21 89 22 90 23 91 24 92 25 93
REMARK H PARENT 85 23 51 34
REMARK Flexibility Score: inf
ROOT
ATOM      1  C   UNL A   1      31.745  29.659  25.774  1.00  0.00     0.202 C 
ENDROOT
BRANCH   1   2
ATOM      2  C   UNL A   1      33.223  29.867  25.443  1.00  0.00     0.261 C 
BRANCH   2   3
ATOM      3  O   UNL A   1      34.045  29.486  26.560  1.00  0.00    -0.460 OA
BRANCH   3   4
ATOM      4  C   UNL A   1      34.735  30.316  27.379  1.00  0.00     0.338 C 
ATOM      5  O   UNL A   1      34.313  31.450  27.587  1.00  0.00    -0.246 OA
BRANCH   4   6
ATOM      6  C   UNL A   1      36.014  29.901  28.021  1.00  0.00     0.060 A 
ATOM      7  C   UNL A   1      37.256  30.074  27.414  1.00  0.00     0.016 A 
ATOM      8  C   UNL A   1      35.986  29.418  29.333  1.00  0.00     0.016 A 
ATOM      9  C   UNL A   1      38.437  29.773  28.037  1.00  0.00     0.010 A 
ATOM     10  C   UNL A   1      37.183  29.146  30.004  1.00  0.00     0.010 A 
ATOM     11  C   UNL A   1      38.404  29.350  29.351  1.00  0.00    -0.014 A 
BRANCH  11  12
ATOM     12  C   UNL A   1      39.712  29.094  29.949  1.00  0.00     0.031 A 
ATOM     13  C   UNL A   1      40.089  29.888  31.148  1.00  0.00     0.074 A 
ATOM     14  C   UNL A   1      40.416  28.032  29.515  1.00  0.00     0.049 A 
ATOM     15  N   UNL A   1      41.220  29.908  31.787  1.00  0.00    -0.248 NA
ATOM     16  C   UNL A   1      39.049  30.765  31.719  1.00  0.00     0.031 C 
ATOM     17  C   UNL A   1      39.977  27.094  28.471  1.00  0.00     0.029 A 
ATOM     18  N   UNL A   1      41.626  27.539  29.910  1.00  0.00    -0.354 N 
ATOM     19  C   UNL A   1      41.055  30.847  32.792  1.00  0.00     0.074 A 
ATOM     20  C   UNL A   1      39.703  31.346  32.714  1.00  0.00     0.031 C 
ATOM     21  C   UNL A   1      40.912  26.147  28.306  1.00  0.00     0.029 A 
ATOM     22  C   UNL A   1      42.049  26.471  29.154  1.00  0.00     0.049 A 
ATOM     23  H   UNL A   1      42.143  27.911  30.660  1.00  0.00     0.167 HD
ATOM     24  C   UNL A   1      41.991  31.264  33.669  1.00  0.00     0.037 A 
ATOM     25  C   UNL A   1      43.260  25.887  29.106  1.00  0.00     0.037 A 
ATOM     26  C   UNL A   1      43.315  30.709  33.701  1.00  0.00     0.049 A 
ATOM     27  C   UNL A   1      44.317  26.452  30.019  1.00  0.00     0.074 A 
ATOM     28  C   UNL A   1      44.378  31.060  34.507  1.00  0.00     0.029 A 
ATOM     29  N   UNL A   1      43.752  29.683  32.871  1.00  0.00    -0.354 N 
ATOM     30  N   UNL A   1      44.195  27.391  30.930  1.00  0.00    -0.248 NA
ATOM     31  C   UNL A   1      45.673  25.914  29.881  1.00  0.00     0.031 C 
ATOM     32  C   UNL A   1      45.478  30.287  34.121  1.00  0.00     0.029 A 
ATOM     33  C   UNL A   1      45.083  29.413  33.115  1.00  0.00     0.049 A 
ATOM     34  H   UNL A   1      43.194  29.216  32.207  1.00  0.00     0.167 HD
ATOM     35  C   UNL A   1      45.458  27.556  31.479  1.00  0.00     0.074 A 
ATOM     36  C   UNL A   1      46.321  26.594  30.817  1.00  0.00     0.031 C 
ATOM     37  C   UNL A   1      45.882  28.428  32.426  1.00  0.00     0.037 A 
BRANCH  24  38
ATOM     38  C   UNL A   1      41.650  32.420  34.556  1.00  0.00     0.058 A 
ATOM     39  C   UNL A   1      41.794  33.754  34.151  1.00  0.00     0.135 A 
ATOM     40  C   UNL A   1      41.150  32.174  35.846  1.00  0.00     0.135 A 
ATOM     41  F   UNL A   1      42.314  34.044  32.947  1.00  0.00    -0.206 F 
ATOM     42  C   UNL A   1      41.444  34.807  34.991  1.00  0.00     0.059 A 
ATOM     43  C   UNL A   1      40.773  33.209  36.694  1.00  0.00     0.059 A 
ATOM     44  F   UNL A   1      41.028  30.914  36.293  1.00  0.00    -0.206 F 
ATOM     45  C   UNL A   1      40.922  34.523  36.255  1.00  0.00     0.060 A 
BRANCH  45  46
ATOM     46  S   UNL A   1      40.416  35.898  37.310  1.00  0.00     0.124 S 
ATOM     47  O   UNL A   1      39.734  36.765  36.354  1.00  0.00    -0.237 OA
ATOM     48  O   UNL A   1      39.559  35.235  38.288  1.00  0.00    -0.237 OA
ATOM     49  O   UNL A   1      41.679  36.410  37.832  1.00  0.00    -0.744 OA
ENDBRANCH  45  46
ENDBRANCH  24  38
BRANCH  25  50
ATOM     50  C   UNL A   1      43.570  24.835  28.098  1.00  0.00     0.058 A 
ATOM     51  C   UNL A   1      44.088  25.156  26.835  1.00  0.00     0.135 A 
ATOM     52  C   UNL A   1      43.307  23.478  28.363  1.00  0.00     0.135 A 
ATOM     53  F   UNL A   1      44.355  26.434  26.526  1.00  0.00    -0.206 F 
ATOM     54  C   UNL A   1      44.294  24.182  25.861  1.00  0.00     0.059 A 
ATOM     55  C   UNL A   1      43.539  22.484  27.418  1.00  0.00     0.059 A 
ATOM     56  F   UNL A   1      42.822  23.104  29.557  1.00  0.00    -0.206 F 
ATOM     57  C   UNL A   1      44.007  22.849  26.160  1.00  0.00     0.060 A 
BRANCH  57  58
ATOM     58  S   UNL A   1      44.248  21.596  24.881  1.00  0.00     0.124 S 
ATOM     59  O   UNL A   1      43.173  20.660  25.184  1.00  0.00    -0.237 OA
ATOM     60  O   UNL A   1      44.093  22.373  23.656  1.00  0.00    -0.237 OA
ATOM     61  O   UNL A   1      45.601  21.109  25.139  1.00  0.00    -0.744 OA
ENDBRANCH  57  58
ENDBRANCH  25  50
BRANCH  37  62
ATOM     62  C   UNL A   1      47.329  28.361  32.804  1.00  0.00     0.058 A 
ATOM     63  C   UNL A   1      48.282  29.181  32.184  1.00  0.00     0.135 A 
ATOM     64  C   UNL A   1      47.745  27.538  33.862  1.00  0.00     0.135 A 
ATOM     65  F   UNL A   1      47.928  29.974  31.160  1.00  0.00    -0.206 F 
ATOM     66  C   UNL A   1      49.606  29.185  32.599  1.00  0.00     0.059 A 
ATOM     67  C   UNL A   1      49.056  27.550  34.315  1.00  0.00     0.059 A 
ATOM     68  F   UNL A   1      46.862  26.744  34.490  1.00  0.00    -0.206 F 
ATOM     69  C   UNL A   1      49.980  28.374  33.672  1.00  0.00     0.060 A 
BRANCH  69  70
ATOM     70  S   UNL A   1      51.686  28.448  34.249  1.00  0.00     0.124 S 
ATOM     71  O   UNL A   1      51.713  27.363  35.225  1.00  0.00    -0.237 OA
ATOM     72  O   UNL A   1      52.439  28.215  33.020  1.00  0.00    -0.237 OA
ATOM     73  O   UNL A   1      51.800  29.794  34.802  1.00  0.00    -0.744 OA
ENDBRANCH  69  70
ENDBRANCH  37  62
ENDBRANCH  11  12
ENDBRANCH   4   6
ENDBRANCH   3   4
ENDBRANCH   2   3
ENDBRANCH   1   2
BRANCH   1  74
ATOM     74  O   UNL A   1      30.898  29.242  24.709  1.00  0.00    -0.374 OA
BRANCH  74  75
ATOM     75  C   UNL A   1      30.941  27.874  24.305  1.00  0.00     0.202 C 
BRANCH  75  76
ATOM     76  C   UNL A   1      31.706  27.802  22.981  1.00  0.00     0.261 C 
BRANCH  76  77
ATOM     77  O   UNL A   1      31.634  26.450  22.500  1.00  0.00    -0.463 OA
BRANCH  77  78
ATOM     78  C   UNL A   1      32.812  25.870  22.170  1.00  0.00     0.309 C 
ATOM     79  O   UNL A   1      33.429  26.039  21.132  1.00  0.00    -0.252 OA
BRANCH  78  80
ATOM     80  C   UNL A   1      33.263  24.904  23.249  1.00  0.00     0.112 C 
BRANCH  80  81
ATOM     81  C   UNL A   1      33.899  23.563  22.791  1.00  0.00     0.052 C 
BRANCH  81  82
ATOM     82  C   UNL A   1      34.869  22.700  23.591  1.00  0.00    -0.033 A 
ATOM     83  C   UNL A   1      36.263  22.789  23.466  1.00  0.00     0.005 A 
ATOM     84  C   UNL A   1      34.385  21.756  24.530  1.00  0.00     0.021 A 
ATOM     85  C   UNL A   1      37.127  21.913  24.137  1.00  0.00     0.000 A 
ATOM     86  C   UNL A   1      35.251  20.908  25.238  1.00  0.00     0.016 A 
ATOM     87  Br  UNL A   1      32.530  21.567  24.926  1.00  0.00    -0.051 Br
ATOM     88  C   UNL A   1      36.622  20.969  25.022  1.00  0.00     0.001 A 
ENDBRANCH  81  82
ENDBRANCH  80  81
BRANCH  80  89
ATOM     89  C   UNL A   1      34.044  25.601  24.358  1.00  0.00     0.131 C 
BRANCH  89  90
ATOM     90  C   UNL A   1      33.434  25.385  25.729  1.00  0.00     0.389 C 
ATOM     91  F   UNL A   1      33.416  26.527  26.445  1.00  0.00    -0.171 F 
ATOM     92  F   UNL A   1      32.157  24.963  25.598  1.00  0.00    -0.171 F 
ATOM     93  F   UNL A   1      34.098  24.446  26.430  1.00  0.00    -0.171 F 
ENDBRANCH  89  90
ENDBRANCH  80  89
ENDBRANCH  78  80
ENDBRANCH  77  78
ENDBRANCH  76  77
ENDBRANCH  75  76
ENDBRANCH  74  75
ENDBRANCH   1  74
TORSDOF 21
ENDMDL
