MODEL 1
REMARK VINA RESULT:      -9.4      0.000      0.000
REMARK SMILES C[C@@H](C(=O)OCCOCCOC(=O)c1ccc(-c2c3nc(c(-c4c(F)cc(S(=O)(=O)[O-])cc4F)c4ccc([nH]4)c(-c4c(F)cc(S(=O)(=O)[O-])cc4F)c4nc(c(-c5c(F)cc(S(=O)(=O)[O-])cc5F)c5ccc2[nH]5)C=C4)C=C3)cc1)c1ccc(-c2ccccc2)c(F)c1
REMARK SMILES IDX 9 1 8 2 7 3 6 4 5 5 3 6 4 7 2 8 1 9 80 10 81 11 92 12 82 13
REMARK SMILES IDX 90 14 83 15 91 16 84 17 85 18 89 19 86 20 88 21 87 22 10 23
REMARK SMILES IDX 11 24 12 25 13 26 14 27 15 28 79 29 16 30 78 31 17 32 18 33
REMARK SMILES IDX 19 34 72 35 20 36 77 37 71 38 73 39 21 40 76 41 70 42 69 43
REMARK SMILES IDX 22 45 56 46 35 47 55 48 36 49 39 50 54 51 74 52 37 53 38 54
REMARK SMILES IDX 53 56 75 57 40 58 23 59 24 60 33 61 25 62 26 63 32 64 34 65
REMARK SMILES IDX 27 66 28 67 29 68 30 69 31 70 57 71 58 72 67 73 59 74 60 75
REMARK SMILES IDX 66 76 68 77 61 78 62 79 63 80 64 81 65 82 41 83 42 84 51 85
REMARK SMILES IDX 43 86 44 87 50 88 52 89 45 90 46 91 47 92 48 93 49 94
REMARK H PARENT 73 44 39 55
REMARK Flexibility Score: inf
ROOT
ATOM      1  C   UNL A   1      32.972  33.835  27.981  1.00  0.00     0.202 C 
ENDROOT
BRANCH   1   2
ATOM      2  O   UNL A   1      32.589  34.754  29.001  1.00  0.00    -0.374 OA
BRANCH   2   3
ATOM      3  C   UNL A   1      33.640  35.454  29.675  1.00  0.00     0.202 C 
BRANCH   3   4
ATOM      4  C   UNL A   1      33.716  35.245  31.190  1.00  0.00     0.261 C 
BRANCH   4   5
ATOM      5  O   UNL A   1      34.071  33.881  31.492  1.00  0.00    -0.463 OA
BRANCH   5   6
ATOM      6  C   UNL A   1      35.366  33.662  31.841  1.00  0.00     0.313 C 
ATOM      7  O   UNL A   1      36.322  33.835  31.091  1.00  0.00    -0.252 OA
BRANCH   6   8
ATOM      8  C   UNL A   1      35.517  33.189  33.294  1.00  0.00     0.126 C 
ATOM      9  C   UNL A   1      35.502  34.300  34.351  1.00  0.00     0.025 C 
BRANCH   8  10
ATOM     10  C   UNL A   1      36.730  32.268  33.418  1.00  0.00    -0.031 A 
ATOM     11  C   UNL A   1      37.883  32.745  34.060  1.00  0.00     0.005 A 
ATOM     12  C   UNL A   1      36.715  30.928  33.012  1.00  0.00     0.044 A 
ATOM     13  C   UNL A   1      38.975  31.904  34.301  1.00  0.00     0.012 A 
ATOM     14  C   UNL A   1      37.807  30.092  33.265  1.00  0.00     0.131 A 
ATOM     15  C   UNL A   1      38.956  30.552  33.920  1.00  0.00     0.017 A 
ATOM     16  F   UNL A   1      37.713  28.809  32.880  1.00  0.00    -0.206 F 
BRANCH  15  17
ATOM     17  C   UNL A   1      40.104  29.673  34.216  1.00  0.00    -0.015 A 
ATOM     18  C   UNL A   1      40.731  29.702  35.475  1.00  0.00     0.009 A 
ATOM     19  C   UNL A   1      40.622  28.796  33.249  1.00  0.00     0.009 A 
ATOM     20  C   UNL A   1      41.842  28.902  35.750  1.00  0.00     0.001 A 
ATOM     21  C   UNL A   1      41.734  27.993  33.523  1.00  0.00     0.001 A 
ATOM     22  C   UNL A   1      42.347  28.049  34.771  1.00  0.00     0.000 A 
ENDBRANCH  15  17
ENDBRANCH   8  10
ENDBRANCH   6   8
ENDBRANCH   5   6
ENDBRANCH   4   5
ENDBRANCH   3   4
ENDBRANCH   2   3
ENDBRANCH   1   2
BRANCH   1  23
ATOM     23  C   UNL A   1      34.395  33.268  28.066  1.00  0.00     0.261 C 
BRANCH  23  24
ATOM     24  O   UNL A   1      34.453  32.046  28.821  1.00  0.00    -0.460 OA
BRANCH  24  25
ATOM     25  C   UNL A   1      34.489  30.924  28.063  1.00  0.00     0.338 C 
ATOM     26  O   UNL A   1      33.654  30.562  27.244  1.00  0.00    -0.246 OA
BRANCH  25  27
ATOM     27  C   UNL A   1      35.788  30.244  28.213  1.00  0.00     0.060 A 
ATOM     28  C   UNL A   1      36.096  29.726  29.477  1.00  0.00     0.016 A 
ATOM     29  C   UNL A   1      36.715  30.171  27.170  1.00  0.00     0.016 A 
ATOM     30  C   UNL A   1      37.354  29.182  29.721  1.00  0.00     0.010 A 
ATOM     31  C   UNL A   1      37.983  29.632  27.420  1.00  0.00     0.010 A 
ATOM     32  C   UNL A   1      38.320  29.170  28.706  1.00  0.00    -0.014 A 
BRANCH  32  33
ATOM     33  C   UNL A   1      39.721  28.820  29.047  1.00  0.00     0.031 A 
ATOM     34  C   UNL A   1      40.557  29.818  29.801  1.00  0.00     0.074 A 
ATOM     35  C   UNL A   1      40.223  27.612  28.734  1.00  0.00     0.049 A 
ATOM     36  N   UNL A   1      41.796  29.725  30.204  1.00  0.00    -0.248 NA
ATOM     37  C   UNL A   1      39.906  31.093  30.148  1.00  0.00     0.031 C 
ATOM     38  C   UNL A   1      39.497  26.548  28.041  1.00  0.00     0.029 A 
ATOM     39  N   UNL A   1      41.467  27.078  28.961  1.00  0.00    -0.354 N 
ATOM     40  C   UNL A   1      42.078  30.925  30.846  1.00  0.00     0.074 A 
ATOM     41  C   UNL A   1      40.888  31.743  30.755  1.00  0.00     0.031 C 
ATOM     42  C   UNL A   1      40.311  25.489  27.895  1.00  0.00     0.029 A 
ATOM     43  C   UNL A   1      41.622  25.809  28.457  1.00  0.00     0.049 A 
ATOM     44  H   UNL A   1      42.180  27.558  29.438  1.00  0.00     0.167 HD
ATOM     45  C   UNL A   1      43.221  31.307  31.464  1.00  0.00     0.037 A 
ATOM     46  C   UNL A   1      42.703  25.005  28.440  1.00  0.00     0.037 A 
ATOM     47  C   UNL A   1      44.401  30.488  31.557  1.00  0.00     0.049 A 
ATOM     48  C   UNL A   1      43.982  25.475  29.081  1.00  0.00     0.074 A 
ATOM     49  C   UNL A   1      45.601  30.775  32.181  1.00  0.00     0.029 A 
ATOM     50  N   UNL A   1      44.530  29.222  31.004  1.00  0.00    -0.354 N 
ATOM     51  N   UNL A   1      44.226  26.603  29.705  1.00  0.00    -0.248 NA
ATOM     52  C   UNL A   1      45.134  24.563  29.016  1.00  0.00     0.031 C 
ATOM     53  C   UNL A   1      46.473  29.701  31.967  1.00  0.00     0.029 A 
ATOM     54  C   UNL A   1      45.800  28.725  31.251  1.00  0.00     0.049 A 
ATOM     55  H   UNL A   1      43.824  28.746  30.510  1.00  0.00     0.167 HD
ATOM     56  C   UNL A   1      45.549  26.525  30.131  1.00  0.00     0.074 A 
ATOM     57  C   UNL A   1      46.050  25.236  29.700  1.00  0.00     0.031 C 
ATOM     58  C   UNL A   1      46.281  27.437  30.819  1.00  0.00     0.037 A 
BRANCH  45  59
ATOM     59  C   UNL A   1      43.261  32.686  32.063  1.00  0.00     0.058 A 
ATOM     60  C   UNL A   1      42.873  32.926  33.390  1.00  0.00     0.135 A 
ATOM     61  C   UNL A   1      43.720  33.776  31.307  1.00  0.00     0.135 A 
ATOM     62  F   UNL A   1      42.408  31.923  34.152  1.00  0.00    -0.206 F 
ATOM     63  C   UNL A   1      42.915  34.205  33.939  1.00  0.00     0.059 A 
ATOM     64  C   UNL A   1      43.795  35.058  31.843  1.00  0.00     0.059 A 
ATOM     65  F   UNL A   1      44.100  33.601  30.031  1.00  0.00    -0.206 F 
ATOM     66  C   UNL A   1      43.376  35.264  33.157  1.00  0.00     0.060 A 
BRANCH  66  67
ATOM     67  S   UNL A   1      43.428  36.916  33.882  1.00  0.00     0.124 S 
ATOM     68  O   UNL A   1      44.690  36.874  34.613  1.00  0.00    -0.237 OA
ATOM     69  O   UNL A   1      43.408  37.777  32.704  1.00  0.00    -0.237 OA
ATOM     70  O   UNL A   1      42.226  36.963  34.710  1.00  0.00    -0.744 OA
ENDBRANCH  66  67
ENDBRANCH  45  59
BRANCH  46  71
ATOM     71  C   UNL A   1      42.626  23.671  27.786  1.00  0.00     0.058 A 
ATOM     72  C   UNL A   1      42.775  23.534  26.398  1.00  0.00     0.135 A 
ATOM     73  C   UNL A   1      42.401  22.508  28.538  1.00  0.00     0.135 A 
ATOM     74  F   UNL A   1      42.979  24.618  25.635  1.00  0.00    -0.206 F 
ATOM     75  C   UNL A   1      42.694  22.291  25.776  1.00  0.00     0.059 A 
ATOM     76  C   UNL A   1      42.341  21.252  27.942  1.00  0.00     0.059 A 
ATOM     77  F   UNL A   1      42.261  22.584  29.871  1.00  0.00    -0.206 F 
ATOM     78  C   UNL A   1      42.479  21.155  26.558  1.00  0.00     0.060 A 
BRANCH  78  79
ATOM     79  S   UNL A   1      42.428  19.541  25.749  1.00  0.00     0.124 S 
ATOM     80  O   UNL A   1      43.352  19.740  24.640  1.00  0.00    -0.237 OA
ATOM     81  O   UNL A   1      42.885  18.651  26.813  1.00  0.00    -0.237 OA
ATOM     82  O   UNL A   1      41.022  19.395  25.383  1.00  0.00    -0.744 OA
ENDBRANCH  78  79
ENDBRANCH  46  71
BRANCH  58  83
ATOM     83  C   UNL A   1      47.692  27.064  31.180  1.00  0.00     0.058 A 
ATOM     84  C   UNL A   1      47.998  26.410  32.384  1.00  0.00     0.135 A 
ATOM     85  C   UNL A   1      48.745  27.317  30.285  1.00  0.00     0.135 A 
ATOM     86  F   UNL A   1      47.029  26.150  33.276  1.00  0.00    -0.206 F 
ATOM     87  C   UNL A   1      49.302  26.037  32.696  1.00  0.00     0.059 A 
ATOM     88  C   UNL A   1      50.051  26.930  30.566  1.00  0.00     0.059 A 
ATOM     89  F   UNL A   1      48.506  27.930  29.115  1.00  0.00    -0.206 F 
ATOM     90  C   UNL A   1      50.322  26.301  31.781  1.00  0.00     0.060 A 
BRANCH  90  91
ATOM     91  S   UNL A   1      52.004  25.781  32.184  1.00  0.00     0.124 S 
ATOM     92  O   UNL A   1      52.175  26.350  33.516  1.00  0.00    -0.237 OA
ATOM     93  O   UNL A   1      51.906  24.326  32.122  1.00  0.00    -0.237 OA
ATOM     94  O   UNL A   1      52.809  26.394  31.130  1.00  0.00    -0.744 OA
ENDBRANCH  90  91
ENDBRANCH  58  83
ENDBRANCH  32  33
ENDBRANCH  25  27
ENDBRANCH  24  25
ENDBRANCH  23  24
ENDBRANCH   1  23
TORSDOF 19
ENDMDL
MODEL 2
REMARK VINA RESULT:      -9.3      4.517     11.783
REMARK SMILES C[C@@H](C(=O)OCCOCCOC(=O)c1ccc(-c2c3nc(c(-c4c(F)cc(S(=O)(=O)[O-])cc4F)c4ccc([nH]4)c(-c4c(F)cc(S(=O)(=O)[O-])cc4F)c4nc(c(-c5c(F)cc(S(=O)(=O)[O-])cc5F)c5ccc2[nH]5)C=C4)C=C3)cc1)c1ccc(-c2ccccc2)c(F)c1
REMARK SMILES IDX 9 1 8 2 7 3 6 4 5 5 3 6 4 7 2 8 1 9 80 10 81 11 92 12 82 13
REMARK SMILES IDX 90 14 83 15 91 16 84 17 85 18 89 19 86 20 88 21 87 22 10 23
REMARK SMILES IDX 11 24 12 25 13 26 14 27 15 28 79 29 16 30 78 31 17 32 18 33
REMARK SMILES IDX 19 34 72 35 20 36 77 37 71 38 73 39 21 40 76 41 70 42 69 43
REMARK SMILES IDX 22 45 56 46 35 47 55 48 36 49 39 50 54 51 74 52 37 53 38 54
REMARK SMILES IDX 53 56 75 57 40 58 23 59 24 60 33 61 25 62 26 63 32 64 34 65
REMARK SMILES IDX 27 66 28 67 29 68 30 69 31 70 57 71 58 72 67 73 59 74 60 75
REMARK SMILES IDX 66 76 68 77 61 78 62 79 63 80 64 81 65 82 41 83 42 84 51 85
REMARK SMILES IDX 43 86 44 87 50 88 52 89 45 90 46 91 47 92 48 93 49 94
REMARK H PARENT 73 44 39 55
REMARK Flexibility Score: inf
ROOT
ATOM      1  C   UNL A   1      39.676  21.644  26.495  1.00  0.00     0.202 C 
ENDROOT
BRANCH   1   2
ATOM      2  O   UNL A   1      38.587  21.785  25.587  1.00  0.00    -0.374 OA
BRANCH   2   3
ATOM      3  C   UNL A   1      38.097  20.593  24.967  1.00  0.00     0.202 C 
BRANCH   3   4
ATOM      4  C   UNL A   1      36.587  20.357  25.072  1.00  0.00     0.261 C 
BRANCH   4   5
ATOM      5  O   UNL A   1      35.899  21.603  25.294  1.00  0.00    -0.463 OA
BRANCH   5   6
ATOM      6  C   UNL A   1      34.810  21.833  24.512  1.00  0.00     0.313 C 
ATOM      7  O   UNL A   1      33.752  21.218  24.603  1.00  0.00    -0.252 OA
BRANCH   6   8
ATOM      8  C   UNL A   1      35.035  22.966  23.501  1.00  0.00     0.126 C 
ATOM      9  C   UNL A   1      36.470  23.102  22.977  1.00  0.00     0.025 C 
BRANCH   8  10
ATOM     10  C   UNL A   1      34.479  24.277  24.056  1.00  0.00    -0.031 A 
ATOM     11  C   UNL A   1      34.541  24.511  25.437  1.00  0.00     0.005 A 
ATOM     12  C   UNL A   1      34.000  25.308  23.238  1.00  0.00     0.044 A 
ATOM     13  C   UNL A   1      34.153  25.742  25.978  1.00  0.00     0.012 A 
ATOM     14  C   UNL A   1      33.623  26.538  23.787  1.00  0.00     0.131 A 
ATOM     15  C   UNL A   1      33.697  26.790  25.162  1.00  0.00     0.017 A 
ATOM     16  F   UNL A   1      33.206  27.496  22.943  1.00  0.00    -0.206 F 
BRANCH  15  17
ATOM     17  C   UNL A   1      33.326  28.091  25.749  1.00  0.00    -0.015 A 
ATOM     18  C   UNL A   1      34.280  28.882  26.415  1.00  0.00     0.009 A 
ATOM     19  C   UNL A   1      32.010  28.576  25.684  1.00  0.00     0.009 A 
ATOM     20  C   UNL A   1      33.929  30.098  27.008  1.00  0.00     0.001 A 
ATOM     21  C   UNL A   1      31.656  29.792  26.275  1.00  0.00     0.001 A 
ATOM     22  C   UNL A   1      32.614  30.551  26.941  1.00  0.00     0.000 A 
ENDBRANCH  15  17
ENDBRANCH   8  10
ENDBRANCH   6   8
ENDBRANCH   5   6
ENDBRANCH   4   5
ENDBRANCH   3   4
ENDBRANCH   2   3
ENDBRANCH   1   2
BRANCH   1  23
ATOM     23  C   UNL A   1      40.424  22.927  26.877  1.00  0.00     0.261 C 
BRANCH  23  24
ATOM     24  O   UNL A   1      39.665  24.112  26.583  1.00  0.00    -0.460 OA
BRANCH  24  25
ATOM     25  C   UNL A   1      40.419  25.218  26.375  1.00  0.00     0.338 C 
ATOM     26  O   UNL A   1      40.840  25.629  25.301  1.00  0.00    -0.246 OA
BRANCH  25  27
ATOM     27  C   UNL A   1      40.536  26.003  27.617  1.00  0.00     0.060 A 
ATOM     28  C   UNL A   1      39.490  25.894  28.543  1.00  0.00     0.016 A 
ATOM     29  C   UNL A   1      41.600  26.878  27.847  1.00  0.00     0.016 A 
ATOM     30  C   UNL A   1      39.476  26.700  29.677  1.00  0.00     0.010 A 
ATOM     31  C   UNL A   1      41.579  27.695  28.984  1.00  0.00     0.010 A 
ATOM     32  C   UNL A   1      40.498  27.636  29.883  1.00  0.00    -0.014 A 
BRANCH  32  33
ATOM     33  C   UNL A   1      40.343  28.650  30.955  1.00  0.00     0.031 A 
ATOM     34  C   UNL A   1      41.229  28.566  32.168  1.00  0.00     0.074 A 
ATOM     35  C   UNL A   1      39.464  29.659  30.826  1.00  0.00     0.049 A 
ATOM     36  N   UNL A   1      41.271  29.341  33.220  1.00  0.00    -0.248 NA
ATOM     37  C   UNL A   1      42.201  27.459  32.199  1.00  0.00     0.031 C 
ATOM     38  C   UNL A   1      38.581  29.868  29.678  1.00  0.00     0.029 A 
ATOM     39  N   UNL A   1      39.169  30.699  31.671  1.00  0.00    -0.354 N 
ATOM     40  C   UNL A   1      42.264  28.816  34.039  1.00  0.00     0.074 A 
ATOM     41  C   UNL A   1      42.781  27.640  33.376  1.00  0.00     0.031 C 
ATOM     42  C   UNL A   1      37.839  30.968  29.894  1.00  0.00     0.029 A 
ATOM     43  C   UNL A   1      38.173  31.523  31.205  1.00  0.00     0.049 A 
ATOM     44  H   UNL A   1      39.627  30.841  32.530  1.00  0.00     0.167 HD
ATOM     45  C   UNL A   1      42.710  29.279  35.231  1.00  0.00     0.037 A 
ATOM     46  C   UNL A   1      37.589  32.594  31.778  1.00  0.00     0.037 A 
ATOM     47  C   UNL A   1      42.195  30.454  35.884  1.00  0.00     0.049 A 
ATOM     48  C   UNL A   1      38.061  33.055  33.132  1.00  0.00     0.074 A 
ATOM     49  C   UNL A   1      42.596  31.018  37.082  1.00  0.00     0.029 A 
ATOM     50  N   UNL A   1      41.163  31.242  35.397  1.00  0.00    -0.354 N 
ATOM     51  N   UNL A   1      39.017  32.563  33.884  1.00  0.00    -0.248 NA
ATOM     52  C   UNL A   1      37.376  34.217  33.716  1.00  0.00     0.031 C 
ATOM     53  C   UNL A   1      41.775  32.121  37.343  1.00  0.00     0.029 A 
ATOM     54  C   UNL A   1      40.896  32.273  36.283  1.00  0.00     0.049 A 
ATOM     55  H   UNL A   1      40.690  31.092  34.547  1.00  0.00     0.167 HD
ATOM     56  C   UNL A   1      39.067  33.372  35.016  1.00  0.00     0.074 A 
ATOM     57  C   UNL A   1      38.049  34.389  34.846  1.00  0.00     0.031 C 
ATOM     58  C   UNL A   1      39.882  33.281  36.096  1.00  0.00     0.037 A 
BRANCH  45  59
ATOM     59  C   UNL A   1      43.792  28.495  35.921  1.00  0.00     0.058 A 
ATOM     60  C   UNL A   1      43.496  27.428  36.783  1.00  0.00     0.135 A 
ATOM     61  C   UNL A   1      45.143  28.799  35.693  1.00  0.00     0.135 A 
ATOM     62  F   UNL A   1      42.220  27.106  37.049  1.00  0.00    -0.206 F 
ATOM     63  C   UNL A   1      44.503  26.704  37.415  1.00  0.00     0.059 A 
ATOM     64  C   UNL A   1      46.167  28.073  36.294  1.00  0.00     0.059 A 
ATOM     65  F   UNL A   1      45.481  29.813  34.881  1.00  0.00    -0.206 F 
ATOM     66  C   UNL A   1      45.836  27.035  37.165  1.00  0.00     0.060 A 
BRANCH  66  67
ATOM     67  S   UNL A   1      47.132  26.087  37.990  1.00  0.00     0.124 S 
ATOM     68  O   UNL A   1      48.156  26.030  36.952  1.00  0.00    -0.237 OA
ATOM     69  O   UNL A   1      47.447  26.924  39.144  1.00  0.00    -0.237 OA
ATOM     70  O   UNL A   1      46.481  24.817  38.299  1.00  0.00    -0.744 OA
ENDBRANCH  66  67
ENDBRANCH  45  59
BRANCH  46  71
ATOM     71  C   UNL A   1      36.486  33.302  31.076  1.00  0.00     0.058 A 
ATOM     72  C   UNL A   1      35.158  33.197  31.517  1.00  0.00     0.135 A 
ATOM     73  C   UNL A   1      36.738  34.098  29.948  1.00  0.00     0.135 A 
ATOM     74  F   UNL A   1      34.865  32.438  32.583  1.00  0.00    -0.206 F 
ATOM     75  C   UNL A   1      34.119  33.848  30.860  1.00  0.00     0.059 A 
ATOM     76  C   UNL A   1      35.719  34.778  29.289  1.00  0.00     0.059 A 
ATOM     77  F   UNL A   1      37.993  34.239  29.490  1.00  0.00    -0.206 F 
ATOM     78  C   UNL A   1      34.410  34.639  29.747  1.00  0.00     0.060 A 
BRANCH  78  79
ATOM     79  S   UNL A   1      33.061  35.522  28.932  1.00  0.00     0.124 S 
ATOM     80  O   UNL A   1      33.789  36.529  28.170  1.00  0.00    -0.237 OA
ATOM     81  O   UNL A   1      32.428  34.462  28.153  1.00  0.00    -0.237 OA
ATOM     82  O   UNL A   1      32.268  36.025  30.050  1.00  0.00    -0.744 OA
ENDBRANCH  78  79
ENDBRANCH  46  71
BRANCH  58  83
ATOM     83  C   UNL A   1      39.735  34.327  37.166  1.00  0.00     0.058 A 
ATOM     84  C   UNL A   1      38.942  34.112  38.304  1.00  0.00     0.135 A 
ATOM     85  C   UNL A   1      40.439  35.539  37.077  1.00  0.00     0.135 A 
ATOM     86  F   UNL A   1      38.243  32.973  38.435  1.00  0.00    -0.206 F 
ATOM     87  C   UNL A   1      38.837  35.071  39.308  1.00  0.00     0.059 A 
ATOM     88  C   UNL A   1      40.369  36.500  38.080  1.00  0.00     0.059 A 
ATOM     89  F   UNL A   1      41.221  35.790  36.014  1.00  0.00    -0.206 F 
ATOM     90  C   UNL A   1      39.555  36.262  39.187  1.00  0.00     0.060 A 
BRANCH  90  91
ATOM     91  S   UNL A   1      39.438  37.483  40.512  1.00  0.00     0.124 S 
ATOM     92  O   UNL A   1      40.773  38.071  40.487  1.00  0.00    -0.237 OA
ATOM     93  O   UNL A   1      38.356  38.345  40.049  1.00  0.00    -0.237 OA
ATOM     94  O   UNL A   1      39.128  36.677  41.689  1.00  0.00    -0.744 OA
ENDBRANCH  90  91
ENDBRANCH  58  83
ENDBRANCH  32  33
ENDBRANCH  25  27
ENDBRANCH  24  25
ENDBRANCH  23  24
ENDBRANCH   1  23
TORSDOF 19
ENDMDL
MODEL 3
REMARK VINA RESULT:      -9.3      2.304      3.528
REMARK SMILES C[C@@H](C(=O)OCCOCCOC(=O)c1ccc(-c2c3nc(c(-c4c(F)cc(S(=O)(=O)[O-])cc4F)c4ccc([nH]4)c(-c4c(F)cc(S(=O)(=O)[O-])cc4F)c4nc(c(-c5c(F)cc(S(=O)(=O)[O-])cc5F)c5ccc2[nH]5)C=C4)C=C3)cc1)c1ccc(-c2ccccc2)c(F)c1
REMARK SMILES IDX 9 1 8 2 7 3 6 4 5 5 3 6 4 7 2 8 1 9 80 10 81 11 92 12 82 13
REMARK SMILES IDX 90 14 83 15 91 16 84 17 85 18 89 19 86 20 88 21 87 22 10 23
REMARK SMILES IDX 11 24 12 25 13 26 14 27 15 28 79 29 16 30 78 31 17 32 18 33
REMARK SMILES IDX 19 34 72 35 20 36 77 37 71 38 73 39 21 40 76 41 70 42 69 43
REMARK SMILES IDX 22 45 56 46 35 47 55 48 36 49 39 50 54 51 74 52 37 53 38 54
REMARK SMILES IDX 53 56 75 57 40 58 23 59 24 60 33 61 25 62 26 63 32 64 34 65
REMARK SMILES IDX 27 66 28 67 29 68 30 69 31 70 57 71 58 72 67 73 59 74 60 75
REMARK SMILES IDX 66 76 68 77 61 78 62 79 63 80 64 81 65 82 41 83 42 84 51 85
REMARK SMILES IDX 43 86 44 87 50 88 52 89 45 90 46 91 47 92 48 93 49 94
REMARK H PARENT 73 44 39 55
REMARK Flexibility Score: inf
ROOT
ATOM      1  C   UNL A   1      32.890  34.182  28.083  1.00  0.00     0.202 C 
ENDROOT
BRANCH   1   2
ATOM      2  O   UNL A   1      32.702  35.429  28.747  1.00  0.00    -0.374 OA
BRANCH   2   3
ATOM      3  C   UNL A   1      33.476  35.660  29.928  1.00  0.00     0.202 C 
BRANCH   3   4
ATOM      4  C   UNL A   1      32.682  35.798  31.231  1.00  0.00     0.261 C 
BRANCH   4   5
ATOM      5  O   UNL A   1      33.235  34.941  32.249  1.00  0.00    -0.463 OA
BRANCH   5   6
ATOM      6  C   UNL A   1      34.414  35.344  32.795  1.00  0.00     0.313 C 
ATOM      7  O   UNL A   1      34.761  36.516  32.901  1.00  0.00    -0.252 OA
BRANCH   6   8
ATOM      8  C   UNL A   1      35.270  34.169  33.289  1.00  0.00     0.126 C 
ATOM      9  C   UNL A   1      35.434  34.072  34.810  1.00  0.00     0.025 C 
BRANCH   8  10
ATOM     10  C   UNL A   1      36.605  34.149  32.546  1.00  0.00    -0.031 A 
ATOM     11  C   UNL A   1      36.613  33.879  31.170  1.00  0.00     0.005 A 
ATOM     12  C   UNL A   1      37.820  34.490  33.153  1.00  0.00     0.044 A 
ATOM     13  C   UNL A   1      37.795  33.965  30.425  1.00  0.00     0.012 A 
ATOM     14  C   UNL A   1      38.994  34.581  32.399  1.00  0.00     0.131 A 
ATOM     15  C   UNL A   1      39.012  34.332  31.021  1.00  0.00     0.017 A 
ATOM     16  F   UNL A   1      40.118  34.948  33.037  1.00  0.00    -0.206 F 
BRANCH  15  17
ATOM     17  C   UNL A   1      40.239  34.450  30.211  1.00  0.00    -0.015 A 
ATOM     18  C   UNL A   1      41.373  33.667  30.497  1.00  0.00     0.009 A 
ATOM     19  C   UNL A   1      40.327  35.358  29.144  1.00  0.00     0.009 A 
ATOM     20  C   UNL A   1      42.552  33.800  29.760  1.00  0.00     0.001 A 
ATOM     21  C   UNL A   1      41.505  35.493  28.404  1.00  0.00     0.001 A 
ATOM     22  C   UNL A   1      42.619  34.718  28.715  1.00  0.00     0.000 A 
ENDBRANCH  15  17
ENDBRANCH   8  10
ENDBRANCH   6   8
ENDBRANCH   5   6
ENDBRANCH   4   5
ENDBRANCH   3   4
ENDBRANCH   2   3
ENDBRANCH   1   2
BRANCH   1  23
ATOM     23  C   UNL A   1      34.297  33.574  28.146  1.00  0.00     0.261 C 
BRANCH  23  24
ATOM     24  O   UNL A   1      34.343  32.380  28.946  1.00  0.00    -0.460 OA
BRANCH  24  25
ATOM     25  C   UNL A   1      34.511  31.241  28.234  1.00  0.00     0.338 C 
ATOM     26  O   UNL A   1      33.774  30.804  27.359  1.00  0.00    -0.246 OA
BRANCH  25  27
ATOM     27  C   UNL A   1      35.828  30.645  28.520  1.00  0.00     0.060 A 
ATOM     28  C   UNL A   1      35.857  29.542  29.383  1.00  0.00     0.016 A 
ATOM     29  C   UNL A   1      37.015  31.186  28.020  1.00  0.00     0.016 A 
ATOM     30  C   UNL A   1      37.076  29.009  29.793  1.00  0.00     0.010 A 
ATOM     31  C   UNL A   1      38.240  30.654  28.441  1.00  0.00     0.010 A 
ATOM     32  C   UNL A   1      38.275  29.588  29.359  1.00  0.00    -0.014 A 
BRANCH  32  33
ATOM     33  C   UNL A   1      39.549  29.172  29.994  1.00  0.00     0.031 A 
ATOM     34  C   UNL A   1      39.987  29.856  31.261  1.00  0.00     0.074 A 
ATOM     35  C   UNL A   1      40.279  28.167  29.478  1.00  0.00     0.049 A 
ATOM     36  N   UNL A   1      41.057  29.654  31.985  1.00  0.00    -0.248 NA
ATOM     37  C   UNL A   1      39.098  30.908  31.782  1.00  0.00     0.031 C 
ATOM     38  C   UNL A   1      39.935  27.402  28.280  1.00  0.00     0.029 A 
ATOM     39  N   UNL A   1      41.462  27.616  29.902  1.00  0.00    -0.354 N 
ATOM     40  C   UNL A   1      40.975  30.554  33.041  1.00  0.00     0.074 A 
ATOM     41  C   UNL A   1      39.765  31.323  32.849  1.00  0.00     0.031 C 
ATOM     42  C   UNL A   1      40.891  26.483  28.060  1.00  0.00     0.029 A 
ATOM     43  C   UNL A   1      41.926  26.612  29.085  1.00  0.00     0.049 A 
ATOM     44  H   UNL A   1      41.934  27.911  30.712  1.00  0.00     0.167 HD
ATOM     45  C   UNL A   1      41.827  30.718  34.082  1.00  0.00     0.037 A 
ATOM     46  C   UNL A   1      43.064  25.892  29.150  1.00  0.00     0.037 A 
ATOM     47  C   UNL A   1      43.026  29.946  34.271  1.00  0.00     0.049 A 
ATOM     48  C   UNL A   1      44.025  26.134  30.284  1.00  0.00     0.074 A 
ATOM     49  C   UNL A   1      43.943  30.020  35.305  1.00  0.00     0.029 A 
ATOM     50  N   UNL A   1      43.480  28.963  33.404  1.00  0.00    -0.354 N 
ATOM     51  N   UNL A   1      43.923  26.971  31.289  1.00  0.00    -0.248 NA
ATOM     52  C   UNL A   1      45.257  25.331  30.294  1.00  0.00     0.031 C 
ATOM     53  C   UNL A   1      44.976  29.114  35.039  1.00  0.00     0.029 A 
ATOM     54  C   UNL A   1      44.677  28.440  33.866  1.00  0.00     0.049 A 
ATOM     55  H   UNL A   1      43.019  28.678  32.582  1.00  0.00     0.167 HD
ATOM     56  C   UNL A   1      45.062  26.777  32.065  1.00  0.00     0.074 A 
ATOM     57  C   UNL A   1      45.836  25.738  31.417  1.00  0.00     0.031 C 
ATOM     58  C   UNL A   1      45.432  27.401  33.211  1.00  0.00     0.037 A 
BRANCH  45  59
ATOM     59  C   UNL A   1      41.504  31.793  35.082  1.00  0.00     0.058 A 
ATOM     60  C   UNL A   1      40.597  31.580  36.131  1.00  0.00     0.135 A 
ATOM     61  C   UNL A   1      42.133  33.046  35.004  1.00  0.00     0.135 A 
ATOM     62  F   UNL A   1      39.954  30.406  36.241  1.00  0.00    -0.206 F 
ATOM     63  C   UNL A   1      40.306  32.579  37.055  1.00  0.00     0.059 A 
ATOM     64  C   UNL A   1      41.876  34.052  35.931  1.00  0.00     0.059 A 
ATOM     65  F   UNL A   1      43.006  33.305  34.017  1.00  0.00    -0.206 F 
ATOM     66  C   UNL A   1      40.950  33.812  36.946  1.00  0.00     0.060 A 
BRANCH  66  67
ATOM     67  S   UNL A   1      40.564  35.099  38.152  1.00  0.00     0.124 S 
ATOM     68  O   UNL A   1      40.290  36.239  37.283  1.00  0.00    -0.237 OA
ATOM     69  O   UNL A   1      39.409  34.541  38.848  1.00  0.00    -0.237 OA
ATOM     70  O   UNL A   1      41.785  35.197  38.947  1.00  0.00    -0.744 OA
ENDBRANCH  66  67
ENDBRANCH  45  59
BRANCH  46  71
ATOM     71  C   UNL A   1      43.360  24.877  28.105  1.00  0.00     0.058 A 
ATOM     72  C   UNL A   1      44.034  25.226  26.925  1.00  0.00     0.135 A 
ATOM     73  C   UNL A   1      42.974  23.537  28.266  1.00  0.00     0.135 A 
ATOM     74  F   UNL A   1      44.413  26.496  26.719  1.00  0.00    -0.206 F 
ATOM     75  C   UNL A   1      44.307  24.284  25.937  1.00  0.00     0.059 A 
ATOM     76  C   UNL A   1      43.257  22.573  27.303  1.00  0.00     0.059 A 
ATOM     77  F   UNL A   1      42.335  23.150  29.381  1.00  0.00    -0.206 F 
ATOM     78  C   UNL A   1      43.916  22.959  26.136  1.00  0.00     0.060 A 
BRANCH  78  79
ATOM     79  S   UNL A   1      44.321  21.734  24.872  1.00  0.00     0.124 S 
ATOM     80  O   UNL A   1      45.725  21.469  25.160  1.00  0.00    -0.237 OA
ATOM     81  O   UNL A   1      43.389  20.654  25.183  1.00  0.00    -0.237 OA
ATOM     82  O   UNL A   1      44.053  22.442  23.623  1.00  0.00    -0.744 OA
ENDBRANCH  78  79
ENDBRANCH  46  71
BRANCH  58  83
ATOM     83  C   UNL A   1      46.714  26.957  33.860  1.00  0.00     0.058 A 
ATOM     84  C   UNL A   1      46.746  25.902  34.785  1.00  0.00     0.135 A 
ATOM     85  C   UNL A   1      47.933  27.561  33.511  1.00  0.00     0.135 A 
ATOM     86  F   UNL A   1      45.607  25.295  35.156  1.00  0.00    -0.206 F 
ATOM     87  C   UNL A   1      47.940  25.473  35.356  1.00  0.00     0.059 A 
ATOM     88  C   UNL A   1      49.142  27.132  34.051  1.00  0.00     0.059 A 
ATOM     89  F   UNL A   1      47.960  28.568  32.623  1.00  0.00    -0.206 F 
ATOM     90  C   UNL A   1      49.133  26.094  34.983  1.00  0.00     0.060 A 
BRANCH  90  91
ATOM     91  S   UNL A   1      50.680  25.506  35.706  1.00  0.00     0.124 S 
ATOM     92  O   UNL A   1      51.542  26.671  35.539  1.00  0.00    -0.237 OA
ATOM     93  O   UNL A   1      50.288  25.197  37.077  1.00  0.00    -0.237 OA
ATOM     94  O   UNL A   1      51.020  24.349  34.882  1.00  0.00    -0.744 OA
ENDBRANCH  90  91
ENDBRANCH  58  83
ENDBRANCH  32  33
ENDBRANCH  25  27
ENDBRANCH  24  25
ENDBRANCH  23  24
ENDBRANCH   1  23
TORSDOF 19
ENDMDL
