MODEL 1
REMARK VINA RESULT:     -11.9      0.000      0.000
REMARK SMILES Cn1c(=O)c2c(-c3ccc(Cl)cc3)n(CC(=O)OCCOCCOC(=O)c3ccc(-c4c5nc(c(-c6c(F)cc(S(=O)(=O)[O-])cc6F)c6ccc([nH]6)c(-c6c(F)cc(S(=O)(=O)[O-])cc6F)c6nc(c(-c7c(F)cc(S(=O)(=O)[O-])cc7F)c7ccc4[nH]7)C=C6)C=C5)cc3)cc2n(C)c1=O
REMARK SMILES IDX 22 1 21 2 20 3 19 4 18 5 16 6 17 7 15 8 14 9 1 10 2 11 3 12
REMARK SMILES IDX 97 13 4 14 5 15 95 16 98 17 6 18 94 19 96 20 93 21 7 22 8 23
REMARK SMILES IDX 13 24 9 25 12 26 10 27 11 28 23 29 24 30 25 31 26 32 27 33
REMARK SMILES IDX 28 34 92 35 29 36 91 37 30 38 31 39 32 40 85 41 33 42 90 43
REMARK SMILES IDX 84 44 86 45 34 46 89 47 83 48 82 49 35 51 69 52 48 53 68 54
REMARK SMILES IDX 49 55 52 56 67 57 87 58 50 59 51 60 66 62 88 63 53 64 36 65
REMARK SMILES IDX 37 66 46 67 38 68 39 69 45 70 47 71 40 72 41 73 42 74 43 75
REMARK SMILES IDX 44 76 70 77 71 78 80 79 72 80 73 81 79 82 81 83 74 84 75 85
REMARK SMILES IDX 76 86 77 87 78 88 54 89 55 90 64 91 56 92 57 93 63 94 65 95
REMARK SMILES IDX 58 96 59 97 60 98 61 99 62 100
REMARK H PARENT 86 50 52 61
REMARK Flexibility Score: inf
ROOT
ATOM      1  C   UNL A   1      40.934  20.709  27.128  1.00  0.00     0.202 C 
ENDROOT
BRANCH   1   2
ATOM      2  O   UNL A   1      39.918  20.815  26.136  1.00  0.00    -0.374 OA
BRANCH   2   3
ATOM      3  C   UNL A   1      39.106  21.985  26.075  1.00  0.00     0.202 C 
BRANCH   3   4
ATOM      4  C   UNL A   1      37.631  21.821  25.701  1.00  0.00     0.261 C 
BRANCH   4   5
ATOM      5  O   UNL A   1      37.390  21.915  24.283  1.00  0.00    -0.462 OA
BRANCH   5   6
ATOM      6  C   UNL A   1      36.606  22.956  23.902  1.00  0.00     0.326 C 
ATOM      7  O   UNL A   1      36.386  23.261  22.731  1.00  0.00    -0.250 OA
BRANCH   6   8
ATOM      8  C   UNL A   1      35.894  23.675  25.013  1.00  0.00     0.244 C 
BRANCH   8   9
ATOM      9  N   UNL A   1      34.649  24.382  24.716  1.00  0.00    -0.333 N 
ATOM     10  C   UNL A   1      29.085  26.298  23.969  1.00  0.00     0.158 C 
ATOM     11  N   UNL A   1      30.523  26.193  24.149  1.00  0.00    -0.263 N 
ATOM     12  C   UNL A   1      31.064  24.902  24.211  1.00  0.00     0.265 A 
ATOM     13  C   UNL A   1      31.226  27.402  24.297  1.00  0.00     0.330 A 
ATOM     14  O   UNL A   1      30.398  23.874  24.119  1.00  0.00    -0.268 OA
ATOM     15  C   UNL A   1      32.497  24.883  24.411  1.00  0.00     0.090 A 
ATOM     16  N   UNL A   1      32.613  27.320  24.492  1.00  0.00    -0.295 N 
ATOM     17  O   UNL A   1      30.652  28.492  24.265  1.00  0.00    -0.248 OA
ATOM     18  C   UNL A   1      33.388  23.820  24.542  1.00  0.00     0.064 A 
ATOM     19  C   UNL A   1      33.215  26.076  24.563  1.00  0.00     0.076 A 
ATOM     20  C   UNL A   1      33.377  28.555  24.577  1.00  0.00     0.155 C 
ATOM     21  C   UNL A   1      34.524  25.753  24.809  1.00  0.00     0.114 A 
BRANCH  18  22
ATOM     22  C   UNL A   1      33.126  22.381  24.541  1.00  0.00    -0.001 A 
ATOM     23  C   UNL A   1      32.828  21.718  23.341  1.00  0.00     0.012 A 
ATOM     24  C   UNL A   1      33.185  21.643  25.728  1.00  0.00     0.012 A 
ATOM     25  C   UNL A   1      32.526  20.356  23.337  1.00  0.00     0.021 A 
ATOM     26  C   UNL A   1      32.913  20.272  25.721  1.00  0.00     0.021 A 
ATOM     27  C   UNL A   1      32.568  19.639  24.529  1.00  0.00     0.041 A 
ATOM     28  Cl  UNL A   1      32.196  17.959  24.523  1.00  0.00    -0.084 Cl
ENDBRANCH  18  22
ENDBRANCH   8   9
ENDBRANCH   6   8
ENDBRANCH   5   6
ENDBRANCH   4   5
ENDBRANCH   3   4
ENDBRANCH   2   3
ENDBRANCH   1   2
BRANCH   1  29
ATOM     29  C   UNL A   1      42.258  20.058  26.750  1.00  0.00     0.261 C 
BRANCH  29  30
ATOM     30  O   UNL A   1      42.624  20.323  25.404  1.00  0.00    -0.460 OA
BRANCH  30  31
ATOM     31  C   UNL A   1      43.944  20.588  25.246  1.00  0.00     0.338 C 
ATOM     32  O   UNL A   1      44.843  19.777  25.155  1.00  0.00    -0.246 OA
BRANCH  31  33
ATOM     33  C   UNL A   1      44.158  22.036  25.330  1.00  0.00     0.060 A 
ATOM     34  C   UNL A   1      45.120  22.446  26.253  1.00  0.00     0.016 A 
ATOM     35  C   UNL A   1      43.231  22.925  24.772  1.00  0.00     0.016 A 
ATOM     36  C   UNL A   1      44.977  23.687  26.822  1.00  0.00     0.010 A 
ATOM     37  C   UNL A   1      43.082  24.164  25.347  1.00  0.00     0.010 A 
ATOM     38  C   UNL A   1      43.893  24.480  26.431  1.00  0.00    -0.014 A 
BRANCH  38  39
ATOM     39  C   UNL A   1      43.671  25.702  27.163  1.00  0.00     0.031 A 
ATOM     40  C   UNL A   1      44.727  26.704  26.911  1.00  0.00     0.074 A 
ATOM     41  C   UNL A   1      42.586  25.890  27.933  1.00  0.00     0.049 A 
ATOM     42  N   UNL A   1      45.665  27.065  27.720  1.00  0.00    -0.248 NA
ATOM     43  C   UNL A   1      44.902  27.180  25.531  1.00  0.00     0.031 C 
ATOM     44  C   UNL A   1      41.390  25.056  28.056  1.00  0.00     0.029 A 
ATOM     45  N   UNL A   1      42.293  26.963  28.713  1.00  0.00    -0.354 N 
ATOM     46  C   UNL A   1      46.410  28.006  27.021  1.00  0.00     0.074 A 
ATOM     47  C   UNL A   1      46.040  27.866  25.637  1.00  0.00     0.031 C 
ATOM     48  C   UNL A   1      40.413  25.767  28.666  1.00  0.00     0.029 A 
ATOM     49  C   UNL A   1      40.954  27.048  29.085  1.00  0.00     0.049 A 
ATOM     50  H   UNL A   1      42.969  27.622  28.992  1.00  0.00     0.167 HD
ATOM     51  C   UNL A   1      47.072  28.999  27.669  1.00  0.00     0.037 A 
ATOM     52  C   UNL A   1      40.358  28.164  29.581  1.00  0.00     0.037 A 
ATOM     53  C   UNL A   1      47.210  28.704  29.075  1.00  0.00     0.049 A 
ATOM     54  C   UNL A   1      41.453  29.008  30.154  1.00  0.00     0.074 A 
ATOM     55  C   UNL A   1      47.812  27.683  29.784  1.00  0.00     0.029 A 
ATOM     56  N   UNL A   1      46.328  29.302  29.945  1.00  0.00    -0.354 N 
ATOM     57  N   UNL A   1      42.167  28.646  31.189  1.00  0.00    -0.248 NA
ATOM     58  C   UNL A   1      42.097  29.969  29.265  1.00  0.00     0.031 C 
ATOM     59  C   UNL A   1      46.921  27.410  30.863  1.00  0.00     0.029 A 
ATOM     60  C   UNL A   1      45.871  28.326  30.797  1.00  0.00     0.049 A 
ATOM     61  H   UNL A   1      46.072  30.253  29.956  1.00  0.00     0.167 HD
ATOM     62  C   UNL A   1      43.474  28.994  30.868  1.00  0.00     0.074 A 
ATOM     63  C   UNL A   1      43.359  29.853  29.690  1.00  0.00     0.031 C 
ATOM     64  C   UNL A   1      44.548  28.324  31.387  1.00  0.00     0.037 A 
BRANCH  51  65
ATOM     65  C   UNL A   1      47.253  30.385  27.111  1.00  0.00     0.058 A 
ATOM     66  C   UNL A   1      48.532  30.973  27.138  1.00  0.00     0.135 A 
ATOM     67  C   UNL A   1      46.183  31.258  26.812  1.00  0.00     0.135 A 
ATOM     68  F   UNL A   1      49.618  30.236  27.420  1.00  0.00    -0.206 F 
ATOM     69  C   UNL A   1      48.723  32.342  26.957  1.00  0.00     0.059 A 
ATOM     70  C   UNL A   1      46.358  32.613  26.569  1.00  0.00     0.059 A 
ATOM     71  F   UNL A   1      44.903  30.867  26.840  1.00  0.00    -0.206 F 
ATOM     72  C   UNL A   1      47.625  33.155  26.687  1.00  0.00     0.060 A 
BRANCH  72  73
ATOM     73  S   UNL A   1      47.851  34.935  26.567  1.00  0.00     0.124 S 
ATOM     74  O   UNL A   1      49.009  35.139  27.429  1.00  0.00    -0.237 OA
ATOM     75  O   UNL A   1      48.076  35.112  25.136  1.00  0.00    -0.237 OA
ATOM     76  O   UNL A   1      46.589  35.469  27.068  1.00  0.00    -0.744 OA
ENDBRANCH  72  73
ENDBRANCH  51  65
BRANCH  52  77
ATOM     77  C   UNL A   1      39.012  28.686  29.202  1.00  0.00     0.058 A 
ATOM     78  C   UNL A   1      37.976  28.834  30.141  1.00  0.00     0.135 A 
ATOM     79  C   UNL A   1      38.787  29.286  27.944  1.00  0.00     0.135 A 
ATOM     80  F   UNL A   1      38.112  28.334  31.378  1.00  0.00    -0.206 F 
ATOM     81  C   UNL A   1      36.800  29.548  29.856  1.00  0.00     0.059 A 
ATOM     82  C   UNL A   1      37.622  29.985  27.632  1.00  0.00     0.059 A 
ATOM     83  F   UNL A   1      39.736  29.295  26.998  1.00  0.00    -0.206 F 
ATOM     84  C   UNL A   1      36.639  30.132  28.599  1.00  0.00     0.060 A 
BRANCH  84  85
ATOM     85  S   UNL A   1      35.196  31.171  28.261  1.00  0.00     0.124 S 
ATOM     86  O   UNL A   1      35.770  32.235  27.444  1.00  0.00    -0.237 OA
ATOM     87  O   UNL A   1      34.306  30.245  27.570  1.00  0.00    -0.237 OA
ATOM     88  O   UNL A   1      34.751  31.581  29.591  1.00  0.00    -0.744 OA
ENDBRANCH  84  85
ENDBRANCH  52  77
BRANCH  64  89
ATOM     89  C   UNL A   1      44.324  27.329  32.500  1.00  0.00     0.058 A 
ATOM     90  C   UNL A   1      44.130  25.950  32.300  1.00  0.00     0.135 A 
ATOM     91  C   UNL A   1      44.532  27.756  33.820  1.00  0.00     0.135 A 
ATOM     92  F   UNL A   1      44.033  25.442  31.064  1.00  0.00    -0.206 F 
ATOM     93  C   UNL A   1      44.112  25.045  33.364  1.00  0.00     0.059 A 
ATOM     94  C   UNL A   1      44.551  26.870  34.893  1.00  0.00     0.059 A 
ATOM     95  F   UNL A   1      44.792  29.051  34.074  1.00  0.00    -0.206 F 
ATOM     96  C   UNL A   1      44.330  25.514  34.660  1.00  0.00     0.060 A 
BRANCH  96  97
ATOM     97  S   UNL A   1      44.392  24.335  36.027  1.00  0.00     0.124 S 
ATOM     98  O   UNL A   1      43.986  25.158  37.161  1.00  0.00    -0.237 OA
ATOM     99  O   UNL A   1      43.435  23.315  35.608  1.00  0.00    -0.237 OA
ATOM    100  O   UNL A   1      45.787  23.900  36.041  1.00  0.00    -0.744 OA
ENDBRANCH  96  97
ENDBRANCH  64  89
ENDBRANCH  38  39
ENDBRANCH  31  33
ENDBRANCH  30  31
ENDBRANCH  29  30
ENDBRANCH   1  29
TORSDOF 19
ENDMDL
MODEL 2
REMARK VINA RESULT:     -11.5      2.550      3.591
REMARK SMILES Cn1c(=O)c2c(-c3ccc(Cl)cc3)n(CC(=O)OCCOCCOC(=O)c3ccc(-c4c5nc(c(-c6c(F)cc(S(=O)(=O)[O-])cc6F)c6ccc([nH]6)c(-c6c(F)cc(S(=O)(=O)[O-])cc6F)c6nc(c(-c7c(F)cc(S(=O)(=O)[O-])cc7F)c7ccc4[nH]7)C=C6)C=C5)cc3)cc2n(C)c1=O
REMARK SMILES IDX 22 1 21 2 20 3 19 4 18 5 16 6 17 7 15 8 14 9 1 10 2 11 3 12
REMARK SMILES IDX 97 13 4 14 5 15 95 16 98 17 6 18 94 19 96 20 93 21 7 22 8 23
REMARK SMILES IDX 13 24 9 25 12 26 10 27 11 28 23 29 24 30 25 31 26 32 27 33
REMARK SMILES IDX 28 34 92 35 29 36 91 37 30 38 31 39 32 40 85 41 33 42 90 43
REMARK SMILES IDX 84 44 86 45 34 46 89 47 83 48 82 49 35 51 69 52 48 53 68 54
REMARK SMILES IDX 49 55 52 56 67 57 87 58 50 59 51 60 66 62 88 63 53 64 36 65
REMARK SMILES IDX 37 66 46 67 38 68 39 69 45 70 47 71 40 72 41 73 42 74 43 75
REMARK SMILES IDX 44 76 70 77 71 78 80 79 72 80 73 81 79 82 81 83 74 84 75 85
REMARK SMILES IDX 76 86 77 87 78 88 54 89 55 90 64 91 56 92 57 93 63 94 65 95
REMARK SMILES IDX 58 96 59 97 60 98 61 99 62 100
REMARK H PARENT 86 50 52 61
REMARK Flexibility Score: inf
ROOT
ATOM      1  C   UNL A   1      36.754  21.191  25.605  1.00  0.00     0.202 C 
ENDROOT
BRANCH   1   2
ATOM      2  O   UNL A   1      35.662  21.582  24.779  1.00  0.00    -0.374 OA
BRANCH   2   3
ATOM      3  C   UNL A   1      34.409  20.912  24.896  1.00  0.00     0.202 C 
BRANCH   3   4
ATOM      4  C   UNL A   1      33.577  21.153  26.158  1.00  0.00     0.261 C 
BRANCH   4   5
ATOM      5  O   UNL A   1      34.106  22.199  26.997  1.00  0.00    -0.462 OA
BRANCH   5   6
ATOM      6  C   UNL A   1      33.446  23.383  26.922  1.00  0.00     0.326 C 
ATOM      7  O   UNL A   1      32.322  23.577  27.384  1.00  0.00    -0.250 OA
BRANCH   6   8
ATOM      8  C   UNL A   1      34.224  24.526  26.333  1.00  0.00     0.244 C 
BRANCH   8   9
ATOM      9  N   UNL A   1      33.497  25.645  25.736  1.00  0.00    -0.333 N 
ATOM     10  C   UNL A   1      29.858  29.346  22.863  1.00  0.00     0.158 C 
ATOM     11  N   UNL A   1      30.808  28.738  23.780  1.00  0.00    -0.263 N 
ATOM     12  C   UNL A   1      31.168  27.407  23.533  1.00  0.00     0.265 A 
ATOM     13  C   UNL A   1      31.232  29.533  24.860  1.00  0.00     0.330 A 
ATOM     14  O   UNL A   1      30.735  26.741  22.597  1.00  0.00    -0.268 OA
ATOM     15  C   UNL A   1      32.101  26.870  24.501  1.00  0.00     0.090 A 
ATOM     16  N   UNL A   1      32.133  28.957  25.768  1.00  0.00    -0.295 N 
ATOM     17  O   UNL A   1      30.826  30.686  25.013  1.00  0.00    -0.248 OA
ATOM     18  C   UNL A   1      32.676  25.606  24.613  1.00  0.00     0.064 A 
ATOM     19  C   UNL A   1      32.534  27.645  25.585  1.00  0.00     0.076 A 
ATOM     20  C   UNL A   1      32.645  29.777  26.855  1.00  0.00     0.155 C 
ATOM     21  C   UNL A   1      33.342  26.862  26.367  1.00  0.00     0.114 A 
BRANCH  18  22
ATOM     22  C   UNL A   1      32.481  24.418  23.781  1.00  0.00    -0.001 A 
ATOM     23  C   UNL A   1      31.376  23.581  23.993  1.00  0.00     0.012 A 
ATOM     24  C   UNL A   1      33.382  24.108  22.757  1.00  0.00     0.012 A 
ATOM     25  C   UNL A   1      31.210  22.418  23.241  1.00  0.00     0.021 A 
ATOM     26  C   UNL A   1      33.201  22.960  21.981  1.00  0.00     0.021 A 
ATOM     27  C   UNL A   1      32.126  22.112  22.238  1.00  0.00     0.041 A 
ATOM     28  Cl  UNL A   1      31.920  20.677  21.310  1.00  0.00    -0.084 Cl
ENDBRANCH  18  22
ENDBRANCH   8   9
ENDBRANCH   6   8
ENDBRANCH   5   6
ENDBRANCH   4   5
ENDBRANCH   3   4
ENDBRANCH   2   3
ENDBRANCH   1   2
BRANCH   1  29
ATOM     29  C   UNL A   1      38.102  21.869  25.403  1.00  0.00     0.261 C 
BRANCH  29  30
ATOM     30  O   UNL A   1      38.396  22.801  26.432  1.00  0.00    -0.460 OA
BRANCH  30  31
ATOM     31  C   UNL A   1      39.645  22.667  26.942  1.00  0.00     0.338 C 
ATOM     32  O   UNL A   1      40.146  21.653  27.383  1.00  0.00    -0.246 OA
BRANCH  31  33
ATOM     33  C   UNL A   1      40.284  23.986  27.005  1.00  0.00     0.060 A 
ATOM     34  C   UNL A   1      41.367  24.085  27.879  1.00  0.00     0.016 A 
ATOM     35  C   UNL A   1      39.637  25.115  26.487  1.00  0.00     0.016 A 
ATOM     36  C   UNL A   1      41.626  25.308  28.445  1.00  0.00     0.010 A 
ATOM     37  C   UNL A   1      39.890  26.337  27.059  1.00  0.00     0.010 A 
ATOM     38  C   UNL A   1      40.809  26.390  28.101  1.00  0.00    -0.014 A 
BRANCH  38  39
ATOM     39  C   UNL A   1      40.994  27.618  28.834  1.00  0.00     0.031 A 
ATOM     40  C   UNL A   1      42.112  28.423  28.302  1.00  0.00     0.074 A 
ATOM     41  C   UNL A   1      40.186  27.979  29.846  1.00  0.00     0.049 A 
ATOM     42  N   UNL A   1      43.271  28.597  28.842  1.00  0.00    -0.248 NA
ATOM     43  C   UNL A   1      42.017  28.888  26.910  1.00  0.00     0.031 C 
ATOM     44  C   UNL A   1      38.932  27.365  30.284  1.00  0.00     0.029 A 
ATOM     45  N   UNL A   1      40.291  29.071  30.648  1.00  0.00    -0.354 N 
ATOM     46  C   UNL A   1      43.970  29.406  27.956  1.00  0.00     0.074 A 
ATOM     47  C   UNL A   1      43.248  29.361  26.711  1.00  0.00     0.031 C 
ATOM     48  C   UNL A   1      38.279  28.225  31.102  1.00  0.00     0.029 A 
ATOM     49  C   UNL A   1      39.124  29.382  31.339  1.00  0.00     0.049 A 
ATOM     50  H   UNL A   1      41.120  29.595  30.733  1.00  0.00     0.167 HD
ATOM     51  C   UNL A   1      44.937  30.254  28.393  1.00  0.00     0.037 A 
ATOM     52  C   UNL A   1      38.876  30.576  31.940  1.00  0.00     0.037 A 
ATOM     53  C   UNL A   1      45.368  29.911  29.726  1.00  0.00     0.049 A 
ATOM     54  C   UNL A   1      40.209  31.203  32.200  1.00  0.00     0.074 A 
ATOM     55  C   UNL A   1      45.940  28.786  30.289  1.00  0.00     0.029 A 
ATOM     56  N   UNL A   1      44.851  30.637  30.774  1.00  0.00    -0.354 N 
ATOM     57  N   UNL A   1      41.085  30.700  33.034  1.00  0.00    -0.248 NA
ATOM     58  C   UNL A   1      40.769  32.052  31.156  1.00  0.00     0.031 C 
ATOM     59  C   UNL A   1      45.314  28.653  31.562  1.00  0.00     0.029 A 
ATOM     60  C   UNL A   1      44.457  29.741  31.737  1.00  0.00     0.049 A 
ATOM     61  H   UNL A   1      44.777  31.618  30.824  1.00  0.00     0.167 HD
ATOM     62  C   UNL A   1      42.311  30.818  32.388  1.00  0.00     0.074 A 
ATOM     63  C   UNL A   1      42.057  31.707  31.254  1.00  0.00     0.031 C 
ATOM     64  C   UNL A   1      43.345  29.960  32.639  1.00  0.00     0.037 A 
BRANCH  51  65
ATOM     65  C   UNL A   1      45.213  31.597  27.773  1.00  0.00     0.058 A 
ATOM     66  C   UNL A   1      46.501  31.870  27.273  1.00  0.00     0.135 A 
ATOM     67  C   UNL A   1      44.356  32.713  27.901  1.00  0.00     0.135 A 
ATOM     68  F   UNL A   1      47.398  30.883  27.119  1.00  0.00    -0.206 F 
ATOM     69  C   UNL A   1      46.930  33.167  26.995  1.00  0.00     0.059 A 
ATOM     70  C   UNL A   1      44.742  34.005  27.573  1.00  0.00     0.059 A 
ATOM     71  F   UNL A   1      43.136  32.628  28.446  1.00  0.00    -0.206 F 
ATOM     72  C   UNL A   1      46.045  34.229  27.163  1.00  0.00     0.060 A 
BRANCH  72  73
ATOM     73  S   UNL A   1      46.627  35.913  26.916  1.00  0.00     0.124 S 
ATOM     74  O   UNL A   1      47.380  35.780  25.674  1.00  0.00    -0.237 OA
ATOM     75  O   UNL A   1      45.372  36.653  26.830  1.00  0.00    -0.237 OA
ATOM     76  O   UNL A   1      47.422  36.173  28.112  1.00  0.00    -0.744 OA
ENDBRANCH  72  73
ENDBRANCH  51  65
BRANCH  52  77
ATOM     77  C   UNL A   1      37.591  31.334  31.896  1.00  0.00     0.058 A 
ATOM     78  C   UNL A   1      36.874  31.660  33.062  1.00  0.00     0.135 A 
ATOM     79  C   UNL A   1      37.158  31.973  30.714  1.00  0.00     0.135 A 
ATOM     80  F   UNL A   1      37.235  31.135  34.243  1.00  0.00    -0.206 F 
ATOM     81  C   UNL A   1      35.809  32.575  33.058  1.00  0.00     0.059 A 
ATOM     82  C   UNL A   1      36.093  32.872  30.682  1.00  0.00     0.059 A 
ATOM     83  F   UNL A   1      37.817  31.817  29.558  1.00  0.00    -0.206 F 
ATOM     84  C   UNL A   1      35.435  33.187  31.861  1.00  0.00     0.060 A 
BRANCH  84  85
ATOM     85  S   UNL A   1      34.159  34.471  31.861  1.00  0.00     0.124 S 
ATOM     86  O   UNL A   1      34.928  35.665  32.197  1.00  0.00    -0.237 OA
ATOM     87  O   UNL A   1      33.654  34.402  30.494  1.00  0.00    -0.237 OA
ATOM     88  O   UNL A   1      33.223  34.024  32.890  1.00  0.00    -0.744 OA
ENDBRANCH  84  85
ENDBRANCH  52  77
BRANCH  64  89
ATOM     89  C   UNL A   1      43.236  28.998  33.797  1.00  0.00     0.058 A 
ATOM     90  C   UNL A   1      43.512  29.338  35.135  1.00  0.00     0.135 A 
ATOM     91  C   UNL A   1      42.624  27.757  33.570  1.00  0.00     0.135 A 
ATOM     92  F   UNL A   1      43.995  30.547  35.452  1.00  0.00    -0.206 F 
ATOM     93  C   UNL A   1      43.221  28.470  36.192  1.00  0.00     0.059 A 
ATOM     94  C   UNL A   1      42.294  26.890  34.609  1.00  0.00     0.059 A 
ATOM     95  F   UNL A   1      42.271  27.401  32.323  1.00  0.00    -0.206 F 
ATOM     96  C   UNL A   1      42.605  27.249  35.919  1.00  0.00     0.060 A 
BRANCH  96  97
ATOM     97  S   UNL A   1      42.150  26.164  37.290  1.00  0.00     0.124 S 
ATOM     98  O   UNL A   1      43.137  26.521  38.304  1.00  0.00    -0.237 OA
ATOM     99  O   UNL A   1      40.776  26.570  37.572  1.00  0.00    -0.237 OA
ATOM    100  O   UNL A   1      42.292  24.823  36.727  1.00  0.00    -0.744 OA
ENDBRANCH  96  97
ENDBRANCH  64  89
ENDBRANCH  38  39
ENDBRANCH  31  33
ENDBRANCH  30  31
ENDBRANCH  29  30
ENDBRANCH   1  29
TORSDOF 19
ENDMDL
MODEL 3
REMARK VINA RESULT:     -11.3      4.407     10.373
REMARK SMILES Cn1c(=O)c2c(-c3ccc(Cl)cc3)n(CC(=O)OCCOCCOC(=O)c3ccc(-c4c5nc(c(-c6c(F)cc(S(=O)(=O)[O-])cc6F)c6ccc([nH]6)c(-c6c(F)cc(S(=O)(=O)[O-])cc6F)c6nc(c(-c7c(F)cc(S(=O)(=O)[O-])cc7F)c7ccc4[nH]7)C=C6)C=C5)cc3)cc2n(C)c1=O
REMARK SMILES IDX 22 1 21 2 20 3 19 4 18 5 16 6 17 7 15 8 14 9 1 10 2 11 3 12
REMARK SMILES IDX 97 13 4 14 5 15 95 16 98 17 6 18 94 19 96 20 93 21 7 22 8 23
REMARK SMILES IDX 13 24 9 25 12 26 10 27 11 28 23 29 24 30 25 31 26 32 27 33
REMARK SMILES IDX 28 34 92 35 29 36 91 37 30 38 31 39 32 40 85 41 33 42 90 43
REMARK SMILES IDX 84 44 86 45 34 46 89 47 83 48 82 49 35 51 69 52 48 53 68 54
REMARK SMILES IDX 49 55 52 56 67 57 87 58 50 59 51 60 66 62 88 63 53 64 36 65
REMARK SMILES IDX 37 66 46 67 38 68 39 69 45 70 47 71 40 72 41 73 42 74 43 75
REMARK SMILES IDX 44 76 70 77 71 78 80 79 72 80 73 81 79 82 81 83 74 84 75 85
REMARK SMILES IDX 76 86 77 87 78 88 54 89 55 90 64 91 56 92 57 93 63 94 65 95
REMARK SMILES IDX 58 96 59 97 60 98 61 99 62 100
REMARK H PARENT 86 50 52 61
REMARK Flexibility Score: inf
ROOT
ATOM      1  C   UNL A   1      34.208  34.682  29.137  1.00  0.00     0.202 C 
ENDROOT
BRANCH   1   2
ATOM      2  O   UNL A   1      33.651  33.557  28.467  1.00  0.00    -0.374 OA
BRANCH   2   3
ATOM      3  C   UNL A   1      34.143  32.249  28.749  1.00  0.00     0.202 C 
BRANCH   3   4
ATOM      4  C   UNL A   1      34.086  31.202  27.634  1.00  0.00     0.261 C 
BRANCH   4   5
ATOM      5  O   UNL A   1      32.741  30.839  27.263  1.00  0.00    -0.462 OA
BRANCH   5   6
ATOM      6  C   UNL A   1      32.570  29.533  26.930  1.00  0.00     0.326 C 
ATOM      7  O   UNL A   1      31.835  28.757  27.538  1.00  0.00    -0.250 OA
BRANCH   6   8
ATOM      8  C   UNL A   1      33.253  29.089  25.666  1.00  0.00     0.244 C 
BRANCH   8   9
ATOM      9  N   UNL A   1      33.157  27.687  25.265  1.00  0.00    -0.333 N 
ATOM     10  C   UNL A   1      32.286  22.429  22.660  1.00  0.00     0.158 C 
ATOM     11  N   UNL A   1      32.765  23.529  23.480  1.00  0.00    -0.263 N 
ATOM     12  C   UNL A   1      32.098  24.755  23.351  1.00  0.00     0.265 A 
ATOM     13  C   UNL A   1      33.888  23.269  24.285  1.00  0.00     0.330 A 
ATOM     14  O   UNL A   1      31.146  24.943  22.599  1.00  0.00    -0.268 OA
ATOM     15  C   UNL A   1      32.648  25.803  24.184  1.00  0.00     0.090 A 
ATOM     16  N   UNL A   1      34.378  24.325  25.067  1.00  0.00    -0.295 N 
ATOM     17  O   UNL A   1      34.430  22.162  24.300  1.00  0.00    -0.248 OA
ATOM     18  C   UNL A   1      32.286  27.141  24.328  1.00  0.00     0.064 A 
ATOM     19  C   UNL A   1      33.767  25.565  24.991  1.00  0.00     0.076 A 
ATOM     20  C   UNL A   1      35.495  24.067  25.963  1.00  0.00     0.155 C 
ATOM     21  C   UNL A   1      34.106  26.743  25.603  1.00  0.00     0.114 A 
BRANCH  18  22
ATOM     22  C   UNL A   1      31.238  27.900  23.645  1.00  0.00    -0.001 A 
ATOM     23  C   UNL A   1      29.887  27.659  23.936  1.00  0.00     0.012 A 
ATOM     24  C   UNL A   1      31.565  28.886  22.709  1.00  0.00     0.012 A 
ATOM     25  C   UNL A   1      28.879  28.340  23.254  1.00  0.00     0.021 A 
ATOM     26  C   UNL A   1      30.558  29.592  22.046  1.00  0.00     0.021 A 
ATOM     27  C   UNL A   1      29.220  29.304  22.308  1.00  0.00     0.041 A 
ATOM     28  Cl  UNL A   1      27.977  30.145  21.467  1.00  0.00    -0.084 Cl
ENDBRANCH  18  22
ENDBRANCH   8   9
ENDBRANCH   6   8
ENDBRANCH   5   6
ENDBRANCH   4   5
ENDBRANCH   3   4
ENDBRANCH   2   3
ENDBRANCH   1   2
BRANCH   1  29
ATOM     29  C   UNL A   1      33.300  35.532  30.017  1.00  0.00     0.261 C 
BRANCH  29  30
ATOM     30  O   UNL A   1      32.808  34.811  31.138  1.00  0.00    -0.460 OA
BRANCH  30  31
ATOM     31  C   UNL A   1      33.206  35.325  32.327  1.00  0.00     0.338 C 
ATOM     32  O   UNL A   1      32.797  36.338  32.856  1.00  0.00    -0.246 OA
BRANCH  31  33
ATOM     33  C   UNL A   1      34.326  34.532  32.844  1.00  0.00     0.060 A 
ATOM     34  C   UNL A   1      35.475  35.255  33.165  1.00  0.00     0.016 A 
ATOM     35  C   UNL A   1      34.337  33.139  32.699  1.00  0.00     0.016 A 
ATOM     36  C   UNL A   1      36.685  34.615  33.070  1.00  0.00     0.010 A 
ATOM     37  C   UNL A   1      35.548  32.499  32.596  1.00  0.00     0.010 A 
ATOM     38  C   UNL A   1      36.701  33.271  32.682  1.00  0.00    -0.014 A 
BRANCH  38  39
ATOM     39  C   UNL A   1      37.988  32.672  32.427  1.00  0.00     0.031 A 
ATOM     40  C   UNL A   1      38.801  32.553  33.654  1.00  0.00     0.074 A 
ATOM     41  C   UNL A   1      38.347  32.235  31.208  1.00  0.00     0.049 A 
ATOM     42  N   UNL A   1      39.834  33.258  33.974  1.00  0.00    -0.248 NA
ATOM     43  C   UNL A   1      38.271  31.727  34.748  1.00  0.00     0.031 C 
ATOM     44  C   UNL A   1      37.529  32.101  30.001  1.00  0.00     0.029 A 
ATOM     45  N   UNL A   1      39.542  31.712  30.828  1.00  0.00    -0.354 N 
ATOM     46  C   UNL A   1      40.228  32.786  35.219  1.00  0.00     0.074 A 
ATOM     47  C   UNL A   1      39.119  32.025  35.732  1.00  0.00     0.031 C 
ATOM     48  C   UNL A   1      38.180  31.318  29.109  1.00  0.00     0.029 A 
ATOM     49  C   UNL A   1      39.499  31.006  29.629  1.00  0.00     0.049 A 
ATOM     50  H   UNL A   1      40.367  31.823  31.356  1.00  0.00     0.167 HD
ATOM     51  C   UNL A   1      41.528  32.839  35.610  1.00  0.00     0.037 A 
ATOM     52  C   UNL A   1      40.458  30.141  29.206  1.00  0.00     0.037 A 
ATOM     53  C   UNL A   1      42.284  33.750  34.786  1.00  0.00     0.049 A 
ATOM     54  C   UNL A   1      41.716  30.521  29.923  1.00  0.00     0.074 A 
ATOM     55  C   UNL A   1      42.190  35.103  34.519  1.00  0.00     0.029 A 
ATOM     56  N   UNL A   1      43.051  33.217  33.776  1.00  0.00    -0.354 N 
ATOM     57  N   UNL A   1      42.330  31.662  29.732  1.00  0.00    -0.248 NA
ATOM     58  C   UNL A   1      41.973  29.889  31.211  1.00  0.00     0.031 C 
ATOM     59  C   UNL A   1      42.479  35.223  33.128  1.00  0.00     0.029 A 
ATOM     60  C   UNL A   1      42.808  33.956  32.645  1.00  0.00     0.049 A 
ATOM     61  H   UNL A   1      43.662  32.447  33.851  1.00  0.00     0.167 HD
ATOM     62  C   UNL A   1      42.703  32.090  31.001  1.00  0.00     0.074 A 
ATOM     63  C   UNL A   1      42.500  30.929  31.868  1.00  0.00     0.031 C 
ATOM     64  C   UNL A   1      42.853  33.416  31.301  1.00  0.00     0.037 A 
BRANCH  51  65
ATOM     65  C   UNL A   1      42.183  31.797  36.476  1.00  0.00     0.058 A 
ATOM     66  C   UNL A   1      42.834  32.199  37.658  1.00  0.00     0.135 A 
ATOM     67  C   UNL A   1      42.437  30.472  36.057  1.00  0.00     0.135 A 
ATOM     68  F   UNL A   1      42.669  33.440  38.142  1.00  0.00    -0.206 F 
ATOM     69  C   UNL A   1      43.732  31.370  38.330  1.00  0.00     0.059 A 
ATOM     70  C   UNL A   1      43.280  29.610  36.743  1.00  0.00     0.059 A 
ATOM     71  F   UNL A   1      41.964  29.976  34.906  1.00  0.00    -0.206 F 
ATOM     72  C   UNL A   1      43.957  30.081  37.853  1.00  0.00     0.060 A 
BRANCH  72  73
ATOM     73  S   UNL A   1      45.199  29.050  38.648  1.00  0.00     0.124 S 
ATOM     74  O   UNL A   1      46.414  29.482  37.966  1.00  0.00    -0.237 OA
ATOM     75  O   UNL A   1      45.069  29.450  40.045  1.00  0.00    -0.237 OA
ATOM     76  O   UNL A   1      44.753  27.694  38.345  1.00  0.00    -0.744 OA
ENDBRANCH  72  73
ENDBRANCH  51  65
BRANCH  52  77
ATOM     77  C   UNL A   1      40.227  28.808  28.577  1.00  0.00     0.058 A 
ATOM     78  C   UNL A   1      40.788  28.459  27.335  1.00  0.00     0.135 A 
ATOM     79  C   UNL A   1      39.640  27.748  29.301  1.00  0.00     0.135 A 
ATOM     80  F   UNL A   1      41.404  29.389  26.590  1.00  0.00    -0.206 F 
ATOM     81  C   UNL A   1      40.785  27.140  26.853  1.00  0.00     0.059 A 
ATOM     82  C   UNL A   1      39.610  26.434  28.837  1.00  0.00     0.059 A 
ATOM     83  F   UNL A   1      39.155  27.935  30.536  1.00  0.00    -0.206 F 
ATOM     84  C   UNL A   1      40.203  26.130  27.621  1.00  0.00     0.060 A 
BRANCH  84  85
ATOM     85  S   UNL A   1      40.313  24.405  27.082  1.00  0.00     0.124 S 
ATOM     86  O   UNL A   1      40.737  23.730  28.305  1.00  0.00    -0.237 OA
ATOM     87  O   UNL A   1      38.949  24.133  26.644  1.00  0.00    -0.237 OA
ATOM     88  O   UNL A   1      41.310  24.443  26.015  1.00  0.00    -0.744 OA
ENDBRANCH  84  85
ENDBRANCH  52  77
BRANCH  64  89
ATOM     89  C   UNL A   1      42.829  34.428  30.182  1.00  0.00     0.058 A 
ATOM     90  C   UNL A   1      41.653  34.984  29.645  1.00  0.00     0.135 A 
ATOM     91  C   UNL A   1      44.044  35.013  29.794  1.00  0.00     0.135 A 
ATOM     92  F   UNL A   1      40.447  34.560  30.044  1.00  0.00    -0.206 F 
ATOM     93  C   UNL A   1      41.687  36.050  28.741  1.00  0.00     0.059 A 
ATOM     94  C   UNL A   1      44.101  36.096  28.922  1.00  0.00     0.059 A 
ATOM     95  F   UNL A   1      45.199  34.575  30.324  1.00  0.00    -0.206 F 
ATOM     96  C   UNL A   1      42.919  36.605  28.390  1.00  0.00     0.060 A 
BRANCH  96  97
ATOM     97  S   UNL A   1      42.959  38.037  27.289  1.00  0.00     0.124 S 
ATOM     98  O   UNL A   1      44.197  37.820  26.548  1.00  0.00    -0.237 OA
ATOM     99  O   UNL A   1      41.726  37.881  26.523  1.00  0.00    -0.237 OA
ATOM    100  O   UNL A   1      42.973  39.174  28.207  1.00  0.00    -0.744 OA
ENDBRANCH  96  97
ENDBRANCH  64  89
ENDBRANCH  38  39
ENDBRANCH  31  33
ENDBRANCH  30  31
ENDBRANCH  29  30
ENDBRANCH   1  29
TORSDOF 19
ENDMDL
