MODEL 1
REMARK VINA RESULT:     -11.1      0.000      0.000
REMARK SMILES C[C@@H](C(=O)OCCOCCOC(=O)c1ccc(-c2c3nc(c(-c4c(F)cc(S(=O)(=O)[O-])cc4F)c4ccc([nH]4)c(-c4c(F)cc(S(=O)(=O)[O-])cc4F)c4nc(c(-c5c(F)cc(S(=O)(=O)[O-])cc5F)c5ccc2[nH]5)C=C4)C=C3)cc1)c1ccc(N[C@H]2CCC[C@@H]2O)cc1F
REMARK SMILES IDX 7 1 6 2 5 3 3 4 4 5 2 6 1 7 80 8 81 9 92 10 82 11 91 12
REMARK SMILES IDX 93 13 83 14 84 15 85 17 86 18 89 19 87 20 88 21 90 22 8 24
REMARK SMILES IDX 9 25 10 26 11 27 12 28 13 29 14 30 15 31 79 32 16 33 78 34
REMARK SMILES IDX 17 35 18 36 19 37 72 38 20 39 77 40 71 41 73 42 21 43 76 44
REMARK SMILES IDX 70 45 69 46 22 48 56 49 35 50 55 51 36 52 39 53 54 54 74 55
REMARK SMILES IDX 37 56 38 57 53 59 75 60 40 61 23 62 24 63 33 64 25 65 26 66
REMARK SMILES IDX 32 67 34 68 27 69 28 70 29 71 30 72 31 73 57 74 58 75 67 76
REMARK SMILES IDX 59 77 60 78 66 79 68 80 61 81 62 82 63 83 64 84 65 85 41 86
REMARK SMILES IDX 42 87 51 88 43 89 44 90 50 91 52 92 45 93 46 94 47 95 48 96
REMARK SMILES IDX 49 97
REMARK H PARENT 84 16 90 23 73 47 39 58
REMARK Flexibility Score: inf
ROOT
ATOM      1  C   UNL A   1      36.394  21.421  25.743  1.00  0.00     0.202 C 
ENDROOT
BRANCH   1   2
ATOM      2  C   UNL A   1      34.996  21.804  25.246  1.00  0.00     0.261 C 
BRANCH   2   3
ATOM      3  O   UNL A   1      34.990  23.113  24.658  1.00  0.00    -0.463 OA
BRANCH   3   4
ATOM      4  C   UNL A   1      34.343  23.220  23.466  1.00  0.00     0.313 C 
ATOM      5  O   UNL A   1      34.911  23.334  22.383  1.00  0.00    -0.252 OA
BRANCH   4   6
ATOM      6  C   UNL A   1      32.816  23.096  23.602  1.00  0.00     0.129 C 
ATOM      7  C   UNL A   1      32.254  22.063  22.617  1.00  0.00     0.025 C 
BRANCH   6   8
ATOM      8  C   UNL A   1      32.112  24.458  23.633  1.00  0.00     0.002 A 
ATOM      9  C   UNL A   1      31.422  24.859  24.787  1.00  0.00     0.010 A 
ATOM     10  C   UNL A   1      32.036  25.334  22.546  1.00  0.00     0.129 A 
ATOM     11  C   UNL A   1      30.734  26.080  24.855  1.00  0.00     0.026 A 
ATOM     12  C   UNL A   1      31.331  26.546  22.611  1.00  0.00     0.065 A 
ATOM     13  F   UNL A   1      32.635  25.044  21.383  1.00  0.00    -0.207 F 
ATOM     14  C   UNL A   1      30.662  26.949  23.770  1.00  0.00     0.037 A 
BRANCH  14  15
ATOM     15  N   UNL A   1      29.995  28.156  23.780  1.00  0.00    -0.380 N 
ATOM     16  H   UNL A   1      30.099  28.688  24.602  1.00  0.00     0.160 HD
BRANCH  15  17
ATOM     17  C   UNL A   1      29.155  28.760  22.746  1.00  0.00     0.107 C 
ATOM     18  C   UNL A   1      27.678  28.926  23.124  1.00  0.00     0.027 C 
ATOM     19  C   UNL A   1      29.639  30.141  22.272  1.00  0.00     0.136 C 
ATOM     20  C   UNL A   1      27.308  30.359  22.729  1.00  0.00     0.005 C 
ATOM     21  C   UNL A   1      28.371  30.782  21.727  1.00  0.00     0.034 C 
BRANCH  19  22
ATOM     22  O   UNL A   1      30.630  30.034  21.256  1.00  0.00    -0.391 OA
ATOM     23  H   UNL A   1      30.260  30.336  20.411  1.00  0.00     0.211 HD
ENDBRANCH  19  22
ENDBRANCH  15  17
ENDBRANCH  14  15
ENDBRANCH   6   8
ENDBRANCH   4   6
ENDBRANCH   3   4
ENDBRANCH   2   3
ENDBRANCH   1   2
BRANCH   1  24
ATOM     24  O   UNL A   1      37.488  22.179  25.227  1.00  0.00    -0.374 OA
BRANCH  24  25
ATOM     25  C   UNL A   1      38.295  22.905  26.157  1.00  0.00     0.202 C 
BRANCH  25  26
ATOM     26  C   UNL A   1      39.744  22.437  26.359  1.00  0.00     0.261 C 
BRANCH  26  27
ATOM     27  O   UNL A   1      40.411  23.108  27.444  1.00  0.00    -0.460 OA
BRANCH  27  28
ATOM     28  C   UNL A   1      41.211  24.137  27.069  1.00  0.00     0.338 C 
ATOM     29  O   UNL A   1      41.988  24.157  26.120  1.00  0.00    -0.246 OA
BRANCH  28  30
ATOM     30  C   UNL A   1      40.905  25.348  27.850  1.00  0.00     0.060 A 
ATOM     31  C   UNL A   1      41.948  26.254  28.080  1.00  0.00     0.016 A 
ATOM     32  C   UNL A   1      39.655  25.541  28.442  1.00  0.00     0.016 A 
ATOM     33  C   UNL A   1      41.760  27.335  28.939  1.00  0.00     0.010 A 
ATOM     34  C   UNL A   1      39.471  26.621  29.314  1.00  0.00     0.010 A 
ATOM     35  C   UNL A   1      40.532  27.503  29.594  1.00  0.00    -0.014 A 
BRANCH  35  36
ATOM     36  C   UNL A   1      40.413  28.514  30.675  1.00  0.00     0.031 A 
ATOM     37  C   UNL A   1      41.319  28.414  31.872  1.00  0.00     0.074 A 
ATOM     38  C   UNL A   1      39.539  29.532  30.573  1.00  0.00     0.049 A 
ATOM     39  N   UNL A   1      41.372  29.172  32.937  1.00  0.00    -0.248 NA
ATOM     40  C   UNL A   1      42.296  27.313  31.868  1.00  0.00     0.031 C 
ATOM     41  C   UNL A   1      38.636  29.757  29.445  1.00  0.00     0.029 A 
ATOM     42  N   UNL A   1      39.264  30.562  31.436  1.00  0.00    -0.354 N 
ATOM     43  C   UNL A   1      42.384  28.642  33.730  1.00  0.00     0.074 A 
ATOM     44  C   UNL A   1      42.897  27.479  33.038  1.00  0.00     0.031 C 
ATOM     45  C   UNL A   1      37.895  30.852  29.693  1.00  0.00     0.029 A 
ATOM     46  C   UNL A   1      38.252  31.386  31.007  1.00  0.00     0.049 A 
ATOM     47  H   UNL A   1      39.747  30.698  32.284  1.00  0.00     0.167 HD
ATOM     48  C   UNL A   1      42.851  29.088  34.921  1.00  0.00     0.037 A 
ATOM     49  C   UNL A   1      37.667  32.439  31.612  1.00  0.00     0.037 A 
ATOM     50  C   UNL A   1      42.336  30.244  35.608  1.00  0.00     0.049 A 
ATOM     51  C   UNL A   1      38.159  32.881  32.966  1.00  0.00     0.074 A 
ATOM     52  C   UNL A   1      42.746  30.781  36.817  1.00  0.00     0.029 A 
ATOM     53  N   UNL A   1      41.295  31.039  35.152  1.00  0.00    -0.354 N 
ATOM     54  N   UNL A   1      39.127  32.379  33.697  1.00  0.00    -0.248 NA
ATOM     55  C   UNL A   1      37.484  34.036  33.576  1.00  0.00     0.031 C 
ATOM     56  C   UNL A   1      41.925  31.876  37.111  1.00  0.00     0.029 A 
ATOM     57  C   UNL A   1      41.035  32.050  36.064  1.00  0.00     0.049 A 
ATOM     58  H   UNL A   1      40.811  30.905  34.305  1.00  0.00     0.167 HD
ATOM     59  C   UNL A   1      39.192  33.170  34.839  1.00  0.00     0.074 A 
ATOM     60  C   UNL A   1      38.173  34.190  34.699  1.00  0.00     0.031 C 
ATOM     61  C   UNL A   1      40.021  33.062  35.907  1.00  0.00     0.037 A 
BRANCH  48  62
ATOM     62  C   UNL A   1      43.963  28.309  35.567  1.00  0.00     0.058 A 
ATOM     63  C   UNL A   1      45.309  28.537  35.241  1.00  0.00     0.135 A 
ATOM     64  C   UNL A   1      43.680  27.343  36.546  1.00  0.00     0.135 A 
ATOM     65  F   UNL A   1      45.633  29.438  34.300  1.00  0.00    -0.206 F 
ATOM     66  C   UNL A   1      46.335  27.816  35.844  1.00  0.00     0.059 A 
ATOM     67  C   UNL A   1      44.692  26.627  37.179  1.00  0.00     0.059 A 
ATOM     68  F   UNL A   1      42.410  27.084  36.894  1.00  0.00    -0.206 F 
ATOM     69  C   UNL A   1      46.016  26.861  36.811  1.00  0.00     0.060 A 
BRANCH  69  70
ATOM     70  S   UNL A   1      47.358  25.933  37.585  1.00  0.00     0.124 S 
ATOM     71  O   UNL A   1      48.530  26.619  37.051  1.00  0.00    -0.237 OA
ATOM     72  O   UNL A   1      47.100  26.136  39.007  1.00  0.00    -0.237 OA
ATOM     73  O   UNL A   1      47.153  24.572  37.101  1.00  0.00    -0.744 OA
ENDBRANCH  69  70
ENDBRANCH  48  62
BRANCH  49  74
ATOM     74  C   UNL A   1      36.533  33.137  30.950  1.00  0.00     0.058 A 
ATOM     75  C   UNL A   1      35.216  32.987  31.408  1.00  0.00     0.135 A 
ATOM     76  C   UNL A   1      36.750  33.976  29.845  1.00  0.00     0.135 A 
ATOM     77  F   UNL A   1      34.958  32.187  32.454  1.00  0.00    -0.206 F 
ATOM     78  C   UNL A   1      34.151  33.632  30.788  1.00  0.00     0.059 A 
ATOM     79  C   UNL A   1      35.704  34.650  29.223  1.00  0.00     0.059 A 
ATOM     80  F   UNL A   1      37.992  34.160  29.373  1.00  0.00    -0.206 F 
ATOM     81  C   UNL A   1      34.406  34.465  29.696  1.00  0.00     0.060 A 
BRANCH  81  82
ATOM     82  S   UNL A   1      33.025  35.342  28.931  1.00  0.00     0.124 S 
ATOM     83  O   UNL A   1      32.155  35.574  30.077  1.00  0.00    -0.237 OA
ATOM     84  O   UNL A   1      33.681  36.522  28.376  1.00  0.00    -0.237 OA
ATOM     85  O   UNL A   1      32.529  34.388  27.943  1.00  0.00    -0.744 OA
ENDBRANCH  81  82
ENDBRANCH  49  74
BRANCH  61  86
ATOM     86  C   UNL A   1      39.888  34.091  36.997  1.00  0.00     0.058 A 
ATOM     87  C   UNL A   1      40.453  35.370  36.877  1.00  0.00     0.135 A 
ATOM     88  C   UNL A   1      39.139  33.810  38.151  1.00  0.00     0.135 A 
ATOM     89  F   UNL A   1      41.183  35.687  35.796  1.00  0.00    -0.206 F 
ATOM     90  C   UNL A   1      40.298  36.329  37.873  1.00  0.00     0.059 A 
ATOM     91  C   UNL A   1      38.950  34.763  39.149  1.00  0.00     0.059 A 
ATOM     92  F   UNL A   1      38.568  32.606  38.311  1.00  0.00    -0.206 F 
ATOM     93  C   UNL A   1      39.543  36.016  39.006  1.00  0.00     0.060 A 
BRANCH  93  94
ATOM     94  S   UNL A   1      39.321  37.279  40.277  1.00  0.00     0.124 S 
ATOM     95  O   UNL A   1      38.631  38.327  39.532  1.00  0.00    -0.237 OA
ATOM     96  O   UNL A   1      38.519  36.580  41.276  1.00  0.00    -0.237 OA
ATOM     97  O   UNL A   1      40.687  37.593  40.686  1.00  0.00    -0.744 OA
ENDBRANCH  93  94
ENDBRANCH  61  86
ENDBRANCH  35  36
ENDBRANCH  28  30
ENDBRANCH  27  28
ENDBRANCH  26  27
ENDBRANCH  25  26
ENDBRANCH  24  25
ENDBRANCH   1  24
TORSDOF 21
ENDMDL
MODEL 2
REMARK VINA RESULT:     -10.7      5.286      6.802
REMARK SMILES C[C@@H](C(=O)OCCOCCOC(=O)c1ccc(-c2c3nc(c(-c4c(F)cc(S(=O)(=O)[O-])cc4F)c4ccc([nH]4)c(-c4c(F)cc(S(=O)(=O)[O-])cc4F)c4nc(c(-c5c(F)cc(S(=O)(=O)[O-])cc5F)c5ccc2[nH]5)C=C4)C=C3)cc1)c1ccc(N[C@H]2CCC[C@@H]2O)cc1F
REMARK SMILES IDX 7 1 6 2 5 3 3 4 4 5 2 6 1 7 80 8 81 9 92 10 82 11 91 12
REMARK SMILES IDX 93 13 83 14 84 15 85 17 86 18 89 19 87 20 88 21 90 22 8 24
REMARK SMILES IDX 9 25 10 26 11 27 12 28 13 29 14 30 15 31 79 32 16 33 78 34
REMARK SMILES IDX 17 35 18 36 19 37 72 38 20 39 77 40 71 41 73 42 21 43 76 44
REMARK SMILES IDX 70 45 69 46 22 48 56 49 35 50 55 51 36 52 39 53 54 54 74 55
REMARK SMILES IDX 37 56 38 57 53 59 75 60 40 61 23 62 24 63 33 64 25 65 26 66
REMARK SMILES IDX 32 67 34 68 27 69 28 70 29 71 30 72 31 73 57 74 58 75 67 76
REMARK SMILES IDX 59 77 60 78 66 79 68 80 61 81 62 82 63 83 64 84 65 85 41 86
REMARK SMILES IDX 42 87 51 88 43 89 44 90 50 91 52 92 45 93 46 94 47 95 48 96
REMARK SMILES IDX 49 97
REMARK H PARENT 84 16 90 23 73 47 39 58
REMARK Flexibility Score: inf
ROOT
ATOM      1  C   UNL A   1      35.171  22.613  24.450  1.00  0.00     0.202 C 
ENDROOT
BRANCH   1   2
ATOM      2  C   UNL A   1      35.028  23.782  23.469  1.00  0.00     0.261 C 
BRANCH   2   3
ATOM      3  O   UNL A   1      33.803  24.498  23.683  1.00  0.00    -0.463 OA
BRANCH   3   4
ATOM      4  C   UNL A   1      33.707  25.702  23.056  1.00  0.00     0.313 C 
ATOM      5  O   UNL A   1      33.866  25.862  21.850  1.00  0.00    -0.252 OA
BRANCH   4   6
ATOM      6  C   UNL A   1      33.290  26.838  24.006  1.00  0.00     0.129 C 
ATOM      7  C   UNL A   1      33.522  26.448  25.471  1.00  0.00     0.025 C 
BRANCH   6   8
ATOM      8  C   UNL A   1      31.910  27.415  23.667  1.00  0.00     0.002 A 
ATOM      9  C   UNL A   1      30.752  26.757  24.107  1.00  0.00     0.010 A 
ATOM     10  C   UNL A   1      31.700  28.543  22.868  1.00  0.00     0.129 A 
ATOM     11  C   UNL A   1      29.467  27.226  23.796  1.00  0.00     0.026 A 
ATOM     12  C   UNL A   1      30.412  28.999  22.543  1.00  0.00     0.065 A 
ATOM     13  F   UNL A   1      32.731  29.237  22.368  1.00  0.00    -0.207 F 
ATOM     14  C   UNL A   1      29.262  28.350  23.001  1.00  0.00     0.037 A 
BRANCH  14  15
ATOM     15  N   UNL A   1      28.023  28.849  22.660  1.00  0.00    -0.380 N 
ATOM     16  H   UNL A   1      27.318  28.175  22.528  1.00  0.00     0.160 HD
BRANCH  15  17
ATOM     17  C   UNL A   1      27.605  30.238  22.464  1.00  0.00     0.107 C 
ATOM     18  C   UNL A   1      27.847  31.164  23.662  1.00  0.00     0.027 C 
ATOM     19  C   UNL A   1      28.256  30.922  21.249  1.00  0.00     0.136 C 
ATOM     20  C   UNL A   1      28.505  32.422  23.088  1.00  0.00     0.005 C 
ATOM     21  C   UNL A   1      28.176  32.400  21.603  1.00  0.00     0.034 C 
BRANCH  19  22
ATOM     22  O   UNL A   1      27.547  30.650  20.046  1.00  0.00    -0.391 OA
ATOM     23  H   UNL A   1      28.092  30.907  19.285  1.00  0.00     0.211 HD
ENDBRANCH  19  22
ENDBRANCH  15  17
ENDBRANCH  14  15
ENDBRANCH   6   8
ENDBRANCH   4   6
ENDBRANCH   3   4
ENDBRANCH   2   3
ENDBRANCH   1   2
BRANCH   1  24
ATOM     24  O   UNL A   1      36.125  21.606  24.114  1.00  0.00    -0.374 OA
BRANCH  24  25
ATOM     25  C   UNL A   1      36.693  20.843  25.181  1.00  0.00     0.202 C 
BRANCH  25  26
ATOM     26  C   UNL A   1      38.222  20.848  25.324  1.00  0.00     0.261 C 
BRANCH  26  27
ATOM     27  O   UNL A   1      38.746  22.115  25.767  1.00  0.00    -0.460 OA
BRANCH  27  28
ATOM     28  C   UNL A   1      39.886  22.033  26.499  1.00  0.00     0.338 C 
ATOM     29  O   UNL A   1      40.660  21.084  26.551  1.00  0.00    -0.246 OA
BRANCH  28  30
ATOM     30  C   UNL A   1      40.204  23.333  27.115  1.00  0.00     0.060 A 
ATOM     31  C   UNL A   1      39.673  24.483  26.518  1.00  0.00     0.016 A 
ATOM     32  C   UNL A   1      41.095  23.436  28.186  1.00  0.00     0.016 A 
ATOM     33  C   UNL A   1      40.065  25.745  26.960  1.00  0.00     0.010 A 
ATOM     34  C   UNL A   1      41.495  24.705  28.621  1.00  0.00     0.010 A 
ATOM     35  C   UNL A   1      41.009  25.865  27.988  1.00  0.00    -0.014 A 
BRANCH  35  36
ATOM     36  C   UNL A   1      41.589  27.197  28.296  1.00  0.00     0.031 A 
ATOM     37  C   UNL A   1      43.037  27.455  27.975  1.00  0.00     0.074 A 
ATOM     38  C   UNL A   1      40.827  28.177  28.813  1.00  0.00     0.049 A 
ATOM     39  N   UNL A   1      43.751  28.532  28.178  1.00  0.00    -0.248 NA
ATOM     40  C   UNL A   1      43.778  26.351  27.342  1.00  0.00     0.031 C 
ATOM     41  C   UNL A   1      39.404  28.061  29.131  1.00  0.00     0.029 A 
ATOM     42  N   UNL A   1      41.147  29.463  29.171  1.00  0.00    -0.354 N 
ATOM     43  C   UNL A   1      45.024  28.239  27.700  1.00  0.00     0.074 A 
ATOM     44  C   UNL A   1      44.991  26.872  27.225  1.00  0.00     0.031 C 
ATOM     45  C   UNL A   1      38.977  29.225  29.650  1.00  0.00     0.029 A 
ATOM     46  C   UNL A   1      40.101  30.158  29.726  1.00  0.00     0.049 A 
ATOM     47  H   UNL A   1      42.044  29.850  29.040  1.00  0.00     0.167 HD
ATOM     48  C   UNL A   1      46.116  29.037  27.650  1.00  0.00     0.037 A 
ATOM     49  C   UNL A   1      40.059  31.397  30.256  1.00  0.00     0.037 A 
ATOM     50  C   UNL A   1      46.146  30.396  28.125  1.00  0.00     0.049 A 
ATOM     51  C   UNL A   1      41.303  32.248  30.248  1.00  0.00     0.074 A 
ATOM     52  C   UNL A   1      47.203  31.291  28.113  1.00  0.00     0.029 A 
ATOM     53  N   UNL A   1      45.071  31.057  28.703  1.00  0.00    -0.354 N 
ATOM     54  N   UNL A   1      42.495  31.962  29.778  1.00  0.00    -0.248 NA
ATOM     55  C   UNL A   1      41.196  33.591  30.836  1.00  0.00     0.031 C 
ATOM     56  C   UNL A   1      46.779  32.477  28.722  1.00  0.00     0.029 A 
ATOM     57  C   UNL A   1      45.446  32.340  29.070  1.00  0.00     0.049 A 
ATOM     58  H   UNL A   1      44.175  30.672  28.833  1.00  0.00     0.167 HD
ATOM     59  C   UNL A   1      43.271  33.096  29.993  1.00  0.00     0.074 A 
ATOM     60  C   UNL A   1      42.412  34.076  30.625  1.00  0.00     0.031 C 
ATOM     61  C   UNL A   1      44.577  33.307  29.693  1.00  0.00     0.037 A 
BRANCH  48  62
ATOM     62  C   UNL A   1      47.379  28.453  27.080  1.00  0.00     0.058 A 
ATOM     63  C   UNL A   1      48.419  27.997  27.906  1.00  0.00     0.135 A 
ATOM     64  C   UNL A   1      47.539  28.320  25.691  1.00  0.00     0.135 A 
ATOM     65  F   UNL A   1      48.323  28.116  29.239  1.00  0.00    -0.206 F 
ATOM     66  C   UNL A   1      49.584  27.455  27.374  1.00  0.00     0.059 A 
ATOM     67  C   UNL A   1      48.687  27.758  25.139  1.00  0.00     0.059 A 
ATOM     68  F   UNL A   1      46.577  28.742  24.856  1.00  0.00    -0.206 F 
ATOM     69  C   UNL A   1      49.710  27.341  25.988  1.00  0.00     0.060 A 
BRANCH  69  70
ATOM     70  S   UNL A   1      51.228  26.635  25.313  1.00  0.00     0.124 S 
ATOM     71  O   UNL A   1      51.049  26.877  23.884  1.00  0.00    -0.237 OA
ATOM     72  O   UNL A   1      52.262  27.433  25.964  1.00  0.00    -0.237 OA
ATOM     73  O   UNL A   1      51.166  25.236  25.725  1.00  0.00    -0.744 OA
ENDBRANCH  69  70
ENDBRANCH  48  62
BRANCH  49  74
ATOM     74  C   UNL A   1      38.796  31.903  30.856  1.00  0.00     0.058 A 
ATOM     75  C   UNL A   1      37.856  32.608  30.092  1.00  0.00     0.135 A 
ATOM     76  C   UNL A   1      38.504  31.684  32.212  1.00  0.00     0.135 A 
ATOM     77  F   UNL A   1      38.096  32.852  28.794  1.00  0.00    -0.206 F 
ATOM     78  C   UNL A   1      36.676  33.090  30.650  1.00  0.00     0.059 A 
ATOM     79  C   UNL A   1      37.320  32.135  32.787  1.00  0.00     0.059 A 
ATOM     80  F   UNL A   1      39.366  31.006  32.986  1.00  0.00    -0.206 F 
ATOM     81  C   UNL A   1      36.416  32.845  32.000  1.00  0.00     0.060 A 
BRANCH  81  82
ATOM     82  S   UNL A   1      34.858  33.427  32.704  1.00  0.00     0.124 S 
ATOM     83  O   UNL A   1      33.892  32.576  32.018  1.00  0.00    -0.237 OA
ATOM     84  O   UNL A   1      35.046  33.163  34.126  1.00  0.00    -0.237 OA
ATOM     85  O   UNL A   1      34.830  34.839  32.334  1.00  0.00    -0.744 OA
ENDBRANCH  81  82
ENDBRANCH  49  74
BRANCH  61  86
ATOM     86  C   UNL A   1      45.154  34.660  30.012  1.00  0.00     0.058 A 
ATOM     87  C   UNL A   1      45.743  34.935  31.256  1.00  0.00     0.135 A 
ATOM     88  C   UNL A   1      45.167  35.674  29.041  1.00  0.00     0.135 A 
ATOM     89  F   UNL A   1      45.752  34.002  32.221  1.00  0.00    -0.206 F 
ATOM     90  C   UNL A   1      46.306  36.177  31.534  1.00  0.00     0.059 A 
ATOM     91  C   UNL A   1      45.746  36.915  29.289  1.00  0.00     0.059 A 
ATOM     92  F   UNL A   1      44.626  35.459  27.831  1.00  0.00    -0.206 F 
ATOM     93  C   UNL A   1      46.304  37.161  30.542  1.00  0.00     0.060 A 
BRANCH  93  94
ATOM     94  S   UNL A   1      47.067  38.757  30.903  1.00  0.00     0.124 S 
ATOM     95  O   UNL A   1      48.124  38.811  29.898  1.00  0.00    -0.237 OA
ATOM     96  O   UNL A   1      45.958  39.686  30.705  1.00  0.00    -0.237 OA
ATOM     97  O   UNL A   1      47.518  38.614  32.283  1.00  0.00    -0.744 OA
ENDBRANCH  93  94
ENDBRANCH  61  86
ENDBRANCH  35  36
ENDBRANCH  28  30
ENDBRANCH  27  28
ENDBRANCH  26  27
ENDBRANCH  25  26
ENDBRANCH  24  25
ENDBRANCH   1  24
TORSDOF 21
ENDMDL
MODEL 3
REMARK VINA RESULT:     -10.7      1.947      2.556
REMARK SMILES C[C@@H](C(=O)OCCOCCOC(=O)c1ccc(-c2c3nc(c(-c4c(F)cc(S(=O)(=O)[O-])cc4F)c4ccc([nH]4)c(-c4c(F)cc(S(=O)(=O)[O-])cc4F)c4nc(c(-c5c(F)cc(S(=O)(=O)[O-])cc5F)c5ccc2[nH]5)C=C4)C=C3)cc1)c1ccc(N[C@H]2CCC[C@@H]2O)cc1F
REMARK SMILES IDX 7 1 6 2 5 3 3 4 4 5 2 6 1 7 80 8 81 9 92 10 82 11 91 12
REMARK SMILES IDX 93 13 83 14 84 15 85 17 86 18 89 19 87 20 88 21 90 22 8 24
REMARK SMILES IDX 9 25 10 26 11 27 12 28 13 29 14 30 15 31 79 32 16 33 78 34
REMARK SMILES IDX 17 35 18 36 19 37 72 38 20 39 77 40 71 41 73 42 21 43 76 44
REMARK SMILES IDX 70 45 69 46 22 48 56 49 35 50 55 51 36 52 39 53 54 54 74 55
REMARK SMILES IDX 37 56 38 57 53 59 75 60 40 61 23 62 24 63 33 64 25 65 26 66
REMARK SMILES IDX 32 67 34 68 27 69 28 70 29 71 30 72 31 73 57 74 58 75 67 76
REMARK SMILES IDX 59 77 60 78 66 79 68 80 61 81 62 82 63 83 64 84 65 85 41 86
REMARK SMILES IDX 42 87 51 88 43 89 44 90 50 91 52 92 45 93 46 94 47 95 48 96
REMARK SMILES IDX 49 97
REMARK H PARENT 84 16 90 23 73 47 39 58
REMARK Flexibility Score: inf
ROOT
ATOM      1  C   UNL A   1      36.113  21.446  25.054  1.00  0.00     0.202 C 
ENDROOT
BRANCH   1   2
ATOM      2  C   UNL A   1      35.722  19.965  24.998  1.00  0.00     0.261 C 
BRANCH   2   3
ATOM      3  O   UNL A   1      34.438  19.786  24.380  1.00  0.00    -0.463 OA
BRANCH   3   4
ATOM      4  C   UNL A   1      33.364  20.108  25.150  1.00  0.00     0.313 C 
ATOM      5  O   UNL A   1      33.195  19.704  26.297  1.00  0.00    -0.252 OA
BRANCH   4   6
ATOM      6  C   UNL A   1      32.417  21.107  24.465  1.00  0.00     0.129 C 
ATOM      7  C   UNL A   1      32.174  20.725  22.999  1.00  0.00     0.025 C 
BRANCH   6   8
ATOM      8  C   UNL A   1      32.803  22.567  24.732  1.00  0.00     0.002 A 
ATOM      9  C   UNL A   1      33.098  23.417  23.655  1.00  0.00     0.010 A 
ATOM     10  C   UNL A   1      32.963  23.123  26.005  1.00  0.00     0.129 A 
ATOM     11  C   UNL A   1      33.489  24.751  23.847  1.00  0.00     0.026 A 
ATOM     12  C   UNL A   1      33.373  24.453  26.193  1.00  0.00     0.065 A 
ATOM     13  F   UNL A   1      32.735  22.398  27.108  1.00  0.00    -0.207 F 
ATOM     14  C   UNL A   1      33.646  25.301  25.116  1.00  0.00     0.037 A 
BRANCH  14  15
ATOM     15  N   UNL A   1      34.033  26.601  25.361  1.00  0.00    -0.380 N 
ATOM     16  H   UNL A   1      34.999  26.775  25.282  1.00  0.00     0.160 HD
BRANCH  15  17
ATOM     17  C   UNL A   1      33.216  27.759  25.723  1.00  0.00     0.107 C 
ATOM     18  C   UNL A   1      31.792  27.429  26.186  1.00  0.00     0.027 C 
ATOM     19  C   UNL A   1      33.834  28.645  26.819  1.00  0.00     0.136 C 
ATOM     20  C   UNL A   1      31.573  28.244  27.465  1.00  0.00     0.005 C 
ATOM     21  C   UNL A   1      32.623  29.343  27.420  1.00  0.00     0.034 C 
BRANCH  19  22
ATOM     22  O   UNL A   1      34.749  29.592  26.280  1.00  0.00    -0.391 OA
ATOM     23  H   UNL A   1      34.257  30.291  25.821  1.00  0.00     0.211 HD
ENDBRANCH  19  22
ENDBRANCH  15  17
ENDBRANCH  14  15
ENDBRANCH   6   8
ENDBRANCH   4   6
ENDBRANCH   3   4
ENDBRANCH   2   3
ENDBRANCH   1   2
BRANCH   1  24
ATOM     24  O   UNL A   1      37.072  21.818  26.043  1.00  0.00    -0.374 OA
BRANCH  24  25
ATOM     25  C   UNL A   1      38.344  22.291  25.593  1.00  0.00     0.202 C 
BRANCH  25  26
ATOM     26  C   UNL A   1      39.197  23.093  26.587  1.00  0.00     0.261 C 
BRANCH  26  27
ATOM     27  O   UNL A   1      39.055  24.519  26.436  1.00  0.00    -0.460 OA
BRANCH  27  28
ATOM     28  C   UNL A   1      40.225  25.204  26.396  1.00  0.00     0.338 C 
ATOM     29  O   UNL A   1      40.986  25.307  25.440  1.00  0.00    -0.246 OA
BRANCH  28  30
ATOM     30  C   UNL A   1      40.406  25.998  27.624  1.00  0.00     0.060 A 
ATOM     31  C   UNL A   1      39.444  25.864  28.633  1.00  0.00     0.016 A 
ATOM     32  C   UNL A   1      41.432  26.939  27.743  1.00  0.00     0.016 A 
ATOM     33  C   UNL A   1      39.477  26.700  29.747  1.00  0.00     0.010 A 
ATOM     34  C   UNL A   1      41.456  27.786  28.857  1.00  0.00     0.010 A 
ATOM     35  C   UNL A   1      40.460  27.694  29.848  1.00  0.00    -0.014 A 
BRANCH  35  36
ATOM     36  C   UNL A   1      40.352  28.722  30.913  1.00  0.00     0.031 A 
ATOM     37  C   UNL A   1      41.253  28.627  32.115  1.00  0.00     0.074 A 
ATOM     38  C   UNL A   1      39.494  29.751  30.793  1.00  0.00     0.049 A 
ATOM     39  N   UNL A   1      41.314  29.400  33.169  1.00  0.00    -0.248 NA
ATOM     40  C   UNL A   1      42.213  27.511  32.131  1.00  0.00     0.031 C 
ATOM     41  C   UNL A   1      38.597  29.974  29.659  1.00  0.00     0.029 A 
ATOM     42  N   UNL A   1      39.231  30.799  31.640  1.00  0.00    -0.354 N 
ATOM     43  C   UNL A   1      42.315  28.867  33.973  1.00  0.00     0.074 A 
ATOM     44  C   UNL A   1      42.813  27.687  33.300  1.00  0.00     0.031 C 
ATOM     45  C   UNL A   1      37.872  31.082  29.888  1.00  0.00     0.029 A 
ATOM     46  C   UNL A   1      38.233  31.631  31.195  1.00  0.00     0.049 A 
ATOM     47  H   UNL A   1      39.714  30.940  32.487  1.00  0.00     0.167 HD
ATOM     48  C   UNL A   1      42.784  29.324  35.158  1.00  0.00     0.037 A 
ATOM     49  C   UNL A   1      37.661  32.701  31.783  1.00  0.00     0.037 A 
ATOM     50  C   UNL A   1      42.284  30.497  35.827  1.00  0.00     0.049 A 
ATOM     51  C   UNL A   1      38.156  33.157  33.131  1.00  0.00     0.074 A 
ATOM     52  C   UNL A   1      42.698  31.046  37.029  1.00  0.00     0.029 A 
ATOM     53  N   UNL A   1      41.257  31.300  35.355  1.00  0.00    -0.354 N 
ATOM     54  N   UNL A   1      39.114  32.651  33.873  1.00  0.00    -0.248 NA
ATOM     55  C   UNL A   1      37.496  34.330  33.722  1.00  0.00     0.031 C 
ATOM     56  C   UNL A   1      41.893  32.157  37.303  1.00  0.00     0.029 A 
ATOM     57  C   UNL A   1      41.009  32.329  36.251  1.00  0.00     0.049 A 
ATOM     58  H   UNL A   1      40.774  31.161  34.508  1.00  0.00     0.167 HD
ATOM     59  C   UNL A   1      39.187  33.458  35.003  1.00  0.00     0.074 A 
ATOM     60  C   UNL A   1      38.183  34.491  34.845  1.00  0.00     0.031 C 
ATOM     61  C   UNL A   1      40.010  33.354  36.076  1.00  0.00     0.037 A 
BRANCH  48  62
ATOM     62  C   UNL A   1      43.882  28.539  35.820  1.00  0.00     0.058 A 
ATOM     63  C   UNL A   1      45.236  28.849  35.618  1.00  0.00     0.135 A 
ATOM     64  C   UNL A   1      43.576  27.480  36.691  1.00  0.00     0.135 A 
ATOM     65  F   UNL A   1      45.584  29.840  34.782  1.00  0.00    -0.206 F 
ATOM     66  C   UNL A   1      46.249  28.122  36.235  1.00  0.00     0.059 A 
ATOM     67  C   UNL A   1      44.573  26.755  37.338  1.00  0.00     0.059 A 
ATOM     68  F   UNL A   1      42.298  27.140  36.918  1.00  0.00    -0.206 F 
ATOM     69  C   UNL A   1      45.907  27.074  37.092  1.00  0.00     0.060 A 
BRANCH  69  70
ATOM     70  S   UNL A   1      47.232  26.139  37.885  1.00  0.00     0.124 S 
ATOM     71  O   UNL A   1      47.397  26.874  39.135  1.00  0.00    -0.237 OA
ATOM     72  O   UNL A   1      46.646  24.807  38.008  1.00  0.00    -0.237 OA
ATOM     73  O   UNL A   1      48.339  26.249  36.941  1.00  0.00    -0.744 OA
ENDBRANCH  69  70
ENDBRANCH  48  62
BRANCH  49  74
ATOM     74  C   UNL A   1      36.541  33.406  31.106  1.00  0.00     0.058 A 
ATOM     75  C   UNL A   1      36.762  34.222  29.987  1.00  0.00     0.135 A 
ATOM     76  C   UNL A   1      35.221  33.272  31.566  1.00  0.00     0.135 A 
ATOM     77  F   UNL A   1      38.008  34.391  29.517  1.00  0.00    -0.206 F 
ATOM     78  C   UNL A   1      35.719  34.890  29.354  1.00  0.00     0.059 A 
ATOM     79  C   UNL A   1      34.158  33.911  30.935  1.00  0.00     0.059 A 
ATOM     80  F   UNL A   1      34.954  32.495  32.627  1.00  0.00    -0.206 F 
ATOM     81  C   UNL A   1      34.418  34.726  29.835  1.00  0.00     0.060 A 
BRANCH  81  82
ATOM     82  S   UNL A   1      33.062  35.553  28.975  1.00  0.00     0.124 S 
ATOM     83  O   UNL A   1      33.775  36.579  28.223  1.00  0.00    -0.237 OA
ATOM     84  O   UNL A   1      32.489  34.465  28.189  1.00  0.00    -0.237 OA
ATOM     85  O   UNL A   1      32.221  36.038  30.066  1.00  0.00    -0.744 OA
ENDBRANCH  81  82
ENDBRANCH  49  74
BRANCH  61  86
ATOM     86  C   UNL A   1      39.889  34.400  37.150  1.00  0.00     0.058 A 
ATOM     87  C   UNL A   1      40.679  35.561  37.141  1.00  0.00     0.135 A 
ATOM     88  C   UNL A   1      38.932  34.266  38.169  1.00  0.00     0.135 A 
ATOM     89  F   UNL A   1      41.612  35.735  36.192  1.00  0.00    -0.206 F 
ATOM     90  C   UNL A   1      40.539  36.542  38.118  1.00  0.00     0.059 A 
ATOM     91  C   UNL A   1      38.758  35.246  39.141  1.00  0.00     0.059 A 
ATOM     92  F   UNL A   1      38.144  33.180  38.217  1.00  0.00    -0.206 F 
ATOM     93  C   UNL A   1      39.574  36.376  39.114  1.00  0.00     0.060 A 
BRANCH  93  94
ATOM     94  S   UNL A   1      39.378  37.671  40.357  1.00  0.00     0.124 S 
ATOM     95  O   UNL A   1      39.195  36.885  41.573  1.00  0.00    -0.237 OA
ATOM     96  O   UNL A   1      40.642  38.395  40.256  1.00  0.00    -0.237 OA
ATOM     97  O   UNL A   1      38.203  38.406  39.899  1.00  0.00    -0.744 OA
ENDBRANCH  93  94
ENDBRANCH  61  86
ENDBRANCH  35  36
ENDBRANCH  28  30
ENDBRANCH  27  28
ENDBRANCH  26  27
ENDBRANCH  25  26
ENDBRANCH  24  25
ENDBRANCH   1  24
TORSDOF 21
ENDMDL
