MODEL 1
REMARK VINA RESULT:     -10.8      0.000      0.000
REMARK SMILES Cc1ccn2c([C@H]3C[C@@H]3C(=O)OCCOCCOC(=O)c3ccc(-c4c5nc(c(-c6c(F)cc(S(=O)(=O)[O-])cc6F)c6ccc([nH]6)c(-c6c(F)cc(S(=O)(=O)[O-])cc6F)c6nc(c(-c7c(F)cc(S(=O)(=O)[O-])cc7F)c7ccc4[nH]7)C=C6)C=C5)cc3)nnc2c1
REMARK SMILES IDX 16 1 15 2 14 3 13 4 12 5 10 6 11 7 9 8 7 9 8 10 6 11 1 12
REMARK SMILES IDX 2 13 3 14 90 15 4 16 89 17 5 18 88 19 87 20 17 21 18 22
REMARK SMILES IDX 19 23 20 24 21 25 22 26 86 27 23 28 85 29 24 30 25 31 26 32
REMARK SMILES IDX 79 33 27 34 84 35 78 36 80 37 28 38 83 39 77 40 76 41 29 43
REMARK SMILES IDX 63 44 42 45 62 46 43 47 46 48 61 49 81 50 44 51 45 52 60 54
REMARK SMILES IDX 82 55 47 56 30 57 31 58 40 59 32 60 33 61 39 62 41 63 34 64
REMARK SMILES IDX 35 65 36 66 37 67 38 68 64 69 65 70 74 71 66 72 67 73 73 74
REMARK SMILES IDX 75 75 68 76 69 77 70 78 71 79 72 80 48 81 49 82 58 83 50 84
REMARK SMILES IDX 51 85 57 86 59 87 52 88 53 89 54 90 55 91 56 92
REMARK H PARENT 80 42 46 53
REMARK Flexibility Score: inf
ROOT
ATOM      1  C   UNL A   1      32.970  34.739  28.910  1.00  0.00     0.202 C 
ENDROOT
BRANCH   1   2
ATOM      2  O   UNL A   1      33.099  36.156  29.030  1.00  0.00    -0.374 OA
BRANCH   2   3
ATOM      3  C   UNL A   1      33.329  36.710  30.320  1.00  0.00     0.202 C 
BRANCH   3   4
ATOM      4  C   UNL A   1      32.459  36.268  31.506  1.00  0.00     0.261 C 
BRANCH   4   5
ATOM      5  O   UNL A   1      32.963  35.141  32.228  1.00  0.00    -0.463 OA
BRANCH   5   6
ATOM      6  C   UNL A   1      34.081  35.445  32.944  1.00  0.00     0.309 C 
ATOM      7  O   UNL A   1      34.220  36.409  33.676  1.00  0.00    -0.252 OA
BRANCH   6   8
ATOM      8  C   UNL A   1      35.141  34.425  32.864  1.00  0.00     0.110 C 
ATOM      9  C   UNL A   1      35.931  34.123  31.604  1.00  0.00     0.073 C 
ATOM     10  C   UNL A   1      34.991  33.094  32.187  1.00  0.00     0.028 C 
BRANCH   9  11
ATOM     11  C   UNL A   1      37.424  33.947  31.817  1.00  0.00     0.141 A 
ATOM     12  C   UNL A   1      42.165  34.838  29.034  1.00  0.00     0.044 C 
ATOM     13  C   UNL A   1      40.871  34.708  29.775  1.00  0.00    -0.046 A 
ATOM     14  C   UNL A   1      39.630  35.091  29.096  1.00  0.00     0.022 A 
ATOM     15  C   UNL A   1      40.843  34.207  31.028  1.00  0.00     0.053 A 
ATOM     16  C   UNL A   1      38.454  34.930  29.730  1.00  0.00     0.095 A 
ATOM     17  C   UNL A   1      39.600  33.974  31.667  1.00  0.00     0.161 A 
ATOM     18  N   UNL A   1      38.448  34.372  31.007  1.00  0.00    -0.286 N 
ATOM     19  N   UNL A   1      39.287  33.324  32.765  1.00  0.00    -0.130 NA
ATOM     20  N   UNL A   1      37.921  33.263  32.830  1.00  0.00    -0.134 NA
ENDBRANCH   9  11
ENDBRANCH   6   8
ENDBRANCH   5   6
ENDBRANCH   4   5
ENDBRANCH   3   4
ENDBRANCH   2   3
ENDBRANCH   1   2
BRANCH   1  21
ATOM     21  C   UNL A   1      33.918  33.982  27.961  1.00  0.00     0.261 C 
BRANCH  21  22
ATOM     22  O   UNL A   1      34.642  32.954  28.653  1.00  0.00    -0.460 OA
BRANCH  22  23
ATOM     23  C   UNL A   1      34.571  31.713  28.099  1.00  0.00     0.338 C 
ATOM     24  O   UNL A   1      33.628  31.213  27.516  1.00  0.00    -0.246 OA
BRANCH  23  25
ATOM     25  C   UNL A   1      35.969  31.245  28.008  1.00  0.00     0.060 A 
ATOM     26  C   UNL A   1      36.250  29.928  27.639  1.00  0.00     0.016 A 
ATOM     27  C   UNL A   1      36.947  32.058  28.606  1.00  0.00     0.016 A 
ATOM     28  C   UNL A   1      37.495  29.401  27.955  1.00  0.00     0.010 A 
ATOM     29  C   UNL A   1      38.175  31.510  28.963  1.00  0.00     0.010 A 
ATOM     30  C   UNL A   1      38.435  30.172  28.666  1.00  0.00    -0.014 A 
BRANCH  30  31
ATOM     31  C   UNL A   1      39.767  29.595  28.857  1.00  0.00     0.031 A 
ATOM     32  C   UNL A   1      40.139  29.545  30.295  1.00  0.00     0.074 A 
ATOM     33  C   UNL A   1      40.575  29.053  27.921  1.00  0.00     0.049 A 
ATOM     34  N   UNL A   1      41.079  30.203  30.888  1.00  0.00    -0.248 NA
ATOM     35  C   UNL A   1      39.243  28.817  31.207  1.00  0.00     0.031 C 
ATOM     36  C   UNL A   1      40.287  28.773  26.515  1.00  0.00     0.029 A 
ATOM     37  N   UNL A   1      41.836  28.544  28.079  1.00  0.00    -0.354 N 
ATOM     38  C   UNL A   1      41.019  29.822  32.224  1.00  0.00     0.074 A 
ATOM     39  C   UNL A   1      39.776  29.116  32.391  1.00  0.00     0.031 C 
ATOM     40  C   UNL A   1      41.247  27.957  26.018  1.00  0.00     0.029 A 
ATOM     41  C   UNL A   1      42.270  27.738  27.032  1.00  0.00     0.049 A 
ATOM     42  H   UNL A   1      42.391  28.735  28.869  1.00  0.00     0.167 HD
ATOM     43  C   UNL A   1      42.094  29.940  33.049  1.00  0.00     0.037 A 
ATOM     44  C   UNL A   1      43.344  26.901  27.028  1.00  0.00     0.037 A 
ATOM     45  C   UNL A   1      43.076  30.842  32.505  1.00  0.00     0.049 A 
ATOM     46  C   UNL A   1      44.277  27.372  28.086  1.00  0.00     0.074 A 
ATOM     47  C   UNL A   1      43.062  32.171  32.131  1.00  0.00     0.029 A 
ATOM     48  N   UNL A   1      44.205  30.304  31.932  1.00  0.00    -0.354 N 
ATOM     49  N   UNL A   1      44.939  28.495  28.025  1.00  0.00    -0.248 NA
ATOM     50  C   UNL A   1      44.129  26.811  29.421  1.00  0.00     0.031 C 
ATOM     51  C   UNL A   1      43.887  32.238  30.973  1.00  0.00     0.029 A 
ATOM     52  C   UNL A   1      44.402  30.962  30.746  1.00  0.00     0.049 A 
ATOM     53  H   UNL A   1      44.763  29.582  32.303  1.00  0.00     0.167 HD
ATOM     54  C   UNL A   1      44.898  28.999  29.316  1.00  0.00     0.074 A 
ATOM     55  C   UNL A   1      44.462  27.881  30.148  1.00  0.00     0.031 C 
ATOM     56  C   UNL A   1      44.948  30.342  29.559  1.00  0.00     0.037 A 
BRANCH  43  57
ATOM     57  C   UNL A   1      42.404  28.981  34.170  1.00  0.00     0.058 A 
ATOM     58  C   UNL A   1      42.634  27.622  33.870  1.00  0.00     0.135 A 
ATOM     59  C   UNL A   1      42.205  29.279  35.537  1.00  0.00     0.135 A 
ATOM     60  F   UNL A   1      42.831  27.225  32.602  1.00  0.00    -0.206 F 
ATOM     61  C   UNL A   1      42.585  26.626  34.844  1.00  0.00     0.059 A 
ATOM     62  C   UNL A   1      42.211  28.309  36.530  1.00  0.00     0.059 A 
ATOM     63  F   UNL A   1      41.894  30.507  35.966  1.00  0.00    -0.206 F 
ATOM     64  C   UNL A   1      42.355  26.981  36.170  1.00  0.00     0.060 A 
BRANCH  64  65
ATOM     65  S   UNL A   1      42.171  25.689  37.409  1.00  0.00     0.124 S 
ATOM     66  O   UNL A   1      42.523  24.500  36.641  1.00  0.00    -0.237 OA
ATOM     67  O   UNL A   1      43.132  26.106  38.424  1.00  0.00    -0.237 OA
ATOM     68  O   UNL A   1      40.767  25.796  37.798  1.00  0.00    -0.744 OA
ENDBRANCH  64  65
ENDBRANCH  43  57
BRANCH  44  69
ATOM     69  C   UNL A   1      43.465  25.552  26.393  1.00  0.00     0.058 A 
ATOM     70  C   UNL A   1      44.307  25.318  25.287  1.00  0.00     0.135 A 
ATOM     71  C   UNL A   1      42.961  24.397  27.027  1.00  0.00     0.135 A 
ATOM     72  F   UNL A   1      44.866  26.349  24.633  1.00  0.00    -0.206 F 
ATOM     73  C   UNL A   1      44.656  24.025  24.863  1.00  0.00     0.059 A 
ATOM     74  C   UNL A   1      43.282  23.103  26.616  1.00  0.00     0.059 A 
ATOM     75  F   UNL A   1      42.210  24.483  28.132  1.00  0.00    -0.206 F 
ATOM     76  C   UNL A   1      44.150  22.921  25.548  1.00  0.00     0.060 A 
BRANCH  76  77
ATOM     77  S   UNL A   1      44.713  21.255  25.119  1.00  0.00     0.124 S 
ATOM     78  O   UNL A   1      46.023  21.202  25.757  1.00  0.00    -0.237 OA
ATOM     79  O   UNL A   1      43.678  20.417  25.713  1.00  0.00    -0.237 OA
ATOM     80  O   UNL A   1      44.733  21.270  23.658  1.00  0.00    -0.744 OA
ENDBRANCH  76  77
ENDBRANCH  44  69
BRANCH  56  81
ATOM     81  C   UNL A   1      45.354  31.275  28.448  1.00  0.00     0.058 A 
ATOM     82  C   UNL A   1      44.473  31.803  27.488  1.00  0.00     0.135 A 
ATOM     83  C   UNL A   1      46.654  31.807  28.486  1.00  0.00     0.135 A 
ATOM     84  F   UNL A   1      43.186  31.426  27.451  1.00  0.00    -0.206 F 
ATOM     85  C   UNL A   1      44.874  32.795  26.593  1.00  0.00     0.059 A 
ATOM     86  C   UNL A   1      47.064  32.821  27.627  1.00  0.00     0.059 A 
ATOM     87  F   UNL A   1      47.526  31.388  29.418  1.00  0.00    -0.206 F 
ATOM     88  C   UNL A   1      46.169  33.307  26.678  1.00  0.00     0.060 A 
BRANCH  88  89
ATOM     89  S   UNL A   1      46.648  34.673  25.599  1.00  0.00     0.124 S 
ATOM     90  O   UNL A   1      45.720  34.521  24.482  1.00  0.00    -0.237 OA
ATOM     91  O   UNL A   1      46.432  35.835  26.455  1.00  0.00    -0.237 OA
ATOM     92  O   UNL A   1      48.047  34.390  25.289  1.00  0.00    -0.744 OA
ENDBRANCH  88  89
ENDBRANCH  56  81
ENDBRANCH  30  31
ENDBRANCH  23  25
ENDBRANCH  22  23
ENDBRANCH  21  22
ENDBRANCH   1  21
TORSDOF 18
ENDMDL
MODEL 2
REMARK VINA RESULT:     -10.8      3.942      6.616
REMARK SMILES Cc1ccn2c([C@H]3C[C@@H]3C(=O)OCCOCCOC(=O)c3ccc(-c4c5nc(c(-c6c(F)cc(S(=O)(=O)[O-])cc6F)c6ccc([nH]6)c(-c6c(F)cc(S(=O)(=O)[O-])cc6F)c6nc(c(-c7c(F)cc(S(=O)(=O)[O-])cc7F)c7ccc4[nH]7)C=C6)C=C5)cc3)nnc2c1
REMARK SMILES IDX 16 1 15 2 14 3 13 4 12 5 10 6 11 7 9 8 7 9 8 10 6 11 1 12
REMARK SMILES IDX 2 13 3 14 90 15 4 16 89 17 5 18 88 19 87 20 17 21 18 22
REMARK SMILES IDX 19 23 20 24 21 25 22 26 86 27 23 28 85 29 24 30 25 31 26 32
REMARK SMILES IDX 79 33 27 34 84 35 78 36 80 37 28 38 83 39 77 40 76 41 29 43
REMARK SMILES IDX 63 44 42 45 62 46 43 47 46 48 61 49 81 50 44 51 45 52 60 54
REMARK SMILES IDX 82 55 47 56 30 57 31 58 40 59 32 60 33 61 39 62 41 63 34 64
REMARK SMILES IDX 35 65 36 66 37 67 38 68 64 69 65 70 74 71 66 72 67 73 73 74
REMARK SMILES IDX 75 75 68 76 69 77 70 78 71 79 72 80 48 81 49 82 58 83 50 84
REMARK SMILES IDX 51 85 57 86 59 87 52 88 53 89 54 90 55 91 56 92
REMARK H PARENT 80 42 46 53
REMARK Flexibility Score: inf
ROOT
ATOM      1  C   UNL A   1      31.789  29.756  26.729  1.00  0.00     0.202 C 
ENDROOT
BRANCH   1   2
ATOM      2  O   UNL A   1      31.830  29.032  25.499  1.00  0.00    -0.374 OA
BRANCH   2   3
ATOM      3  C   UNL A   1      32.928  29.250  24.620  1.00  0.00     0.202 C 
BRANCH   3   4
ATOM      4  C   UNL A   1      33.062  28.408  23.343  1.00  0.00     0.261 C 
BRANCH   4   5
ATOM      5  O   UNL A   1      32.540  27.081  23.446  1.00  0.00    -0.463 OA
BRANCH   5   6
ATOM      6  C   UNL A   1      33.417  26.144  22.990  1.00  0.00     0.309 C 
ATOM      7  O   UNL A   1      33.777  26.008  21.833  1.00  0.00    -0.252 OA
BRANCH   6   8
ATOM      8  C   UNL A   1      34.025  25.323  24.050  1.00  0.00     0.110 C 
ATOM      9  C   UNL A   1      33.232  24.610  25.129  1.00  0.00     0.073 C 
ATOM     10  C   UNL A   1      34.159  25.748  25.484  1.00  0.00     0.028 C 
BRANCH   9  11
ATOM     11  C   UNL A   1      33.682  23.188  25.415  1.00  0.00     0.141 A 
ATOM     12  C   UNL A   1      32.693  18.043  23.530  1.00  0.00     0.044 C 
ATOM     13  C   UNL A   1      32.995  19.452  23.935  1.00  0.00    -0.046 A 
ATOM     14  C   UNL A   1      32.280  20.543  23.267  1.00  0.00     0.022 A 
ATOM     15  C   UNL A   1      33.876  19.710  24.925  1.00  0.00     0.053 A 
ATOM     16  C   UNL A   1      32.502  21.812  23.656  1.00  0.00     0.095 A 
ATOM     17  C   UNL A   1      34.056  21.040  25.379  1.00  0.00     0.161 A 
ATOM     18  N   UNL A   1      33.384  22.050  24.708  1.00  0.00    -0.286 N 
ATOM     19  N   UNL A   1      34.672  21.531  26.430  1.00  0.00    -0.130 NA
ATOM     20  N   UNL A   1      34.393  22.870  26.480  1.00  0.00    -0.134 NA
ENDBRANCH   9  11
ENDBRANCH   6   8
ENDBRANCH   5   6
ENDBRANCH   4   5
ENDBRANCH   3   4
ENDBRANCH   2   3
ENDBRANCH   1   2
BRANCH   1  21
ATOM     21  C   UNL A   1      32.626  31.043  26.865  1.00  0.00     0.261 C 
BRANCH  21  22
ATOM     22  O   UNL A   1      33.698  30.874  27.804  1.00  0.00    -0.460 OA
BRANCH  22  23
ATOM     23  C   UNL A   1      34.684  31.811  27.742  1.00  0.00     0.338 C 
ATOM     24  O   UNL A   1      34.557  33.014  27.616  1.00  0.00    -0.246 OA
BRANCH  23  25
ATOM     25  C   UNL A   1      35.899  31.132  28.236  1.00  0.00     0.060 A 
ATOM     26  C   UNL A   1      36.898  31.859  28.886  1.00  0.00     0.016 A 
ATOM     27  C   UNL A   1      36.142  29.837  27.748  1.00  0.00     0.016 A 
ATOM     28  C   UNL A   1      38.172  31.313  28.966  1.00  0.00     0.010 A 
ATOM     29  C   UNL A   1      37.431  29.315  27.789  1.00  0.00     0.010 A 
ATOM     30  C   UNL A   1      38.452  30.068  28.369  1.00  0.00    -0.014 A 
BRANCH  30  31
ATOM     31  C   UNL A   1      39.782  29.500  28.597  1.00  0.00     0.031 A 
ATOM     32  C   UNL A   1      40.102  29.424  30.046  1.00  0.00     0.074 A 
ATOM     33  C   UNL A   1      40.629  28.985  27.681  1.00  0.00     0.049 A 
ATOM     34  N   UNL A   1      41.013  30.078  30.687  1.00  0.00    -0.248 NA
ATOM     35  C   UNL A   1      39.180  28.669  30.910  1.00  0.00     0.031 C 
ATOM     36  C   UNL A   1      40.395  28.732  26.260  1.00  0.00     0.029 A 
ATOM     37  N   UNL A   1      41.888  28.485  27.874  1.00  0.00    -0.354 N 
ATOM     38  C   UNL A   1      40.908  29.668  32.012  1.00  0.00     0.074 A 
ATOM     39  C   UNL A   1      39.668  28.947  32.118  1.00  0.00     0.031 C 
ATOM     40  C   UNL A   1      41.381  27.936  25.781  1.00  0.00     0.029 A 
ATOM     41  C   UNL A   1      42.368  27.705  26.827  1.00  0.00     0.049 A 
ATOM     42  H   UNL A   1      42.412  28.665  28.687  1.00  0.00     0.167 HD
ATOM     43  C   UNL A   1      41.952  29.779  32.877  1.00  0.00     0.037 A 
ATOM     44  C   UNL A   1      43.449  26.878  26.845  1.00  0.00     0.037 A 
ATOM     45  C   UNL A   1      42.944  30.701  32.389  1.00  0.00     0.049 A 
ATOM     46  C   UNL A   1      44.339  27.336  27.945  1.00  0.00     0.074 A 
ATOM     47  C   UNL A   1      42.929  32.038  32.042  1.00  0.00     0.029 A 
ATOM     48  N   UNL A   1      44.097  30.186  31.846  1.00  0.00    -0.354 N 
ATOM     49  N   UNL A   1      44.992  28.466  27.932  1.00  0.00    -0.248 NA
ATOM     50  C   UNL A   1      44.148  26.746  29.263  1.00  0.00     0.031 C 
ATOM     51  C   UNL A   1      43.795  32.136  30.916  1.00  0.00     0.029 A 
ATOM     52  C   UNL A   1      44.331  30.870  30.682  1.00  0.00     0.049 A 
ATOM     53  H   UNL A   1      44.649  29.462  32.223  1.00  0.00     0.167 HD
ATOM     54  C   UNL A   1      44.899  28.943  29.231  1.00  0.00     0.074 A 
ATOM     55  C   UNL A   1      44.444  27.803  30.024  1.00  0.00     0.031 C 
ATOM     56  C   UNL A   1      44.926  30.280  29.503  1.00  0.00     0.037 A 
BRANCH  43  57
ATOM     57  C   UNL A   1      42.230  28.799  33.989  1.00  0.00     0.058 A 
ATOM     58  C   UNL A   1      42.618  27.483  33.666  1.00  0.00     0.135 A 
ATOM     59  C   UNL A   1      41.860  29.013  35.336  1.00  0.00     0.135 A 
ATOM     60  F   UNL A   1      42.985  27.165  32.413  1.00  0.00    -0.206 F 
ATOM     61  C   UNL A   1      42.560  26.441  34.591  1.00  0.00     0.059 A 
ATOM     62  C   UNL A   1      41.852  28.002  36.287  1.00  0.00     0.059 A 
ATOM     63  F   UNL A   1      41.390  30.186  35.774  1.00  0.00    -0.206 F 
ATOM     64  C   UNL A   1      42.159  26.710  35.895  1.00  0.00     0.060 A 
BRANCH  64  65
ATOM     65  S   UNL A   1      41.967  25.349  37.057  1.00  0.00     0.124 S 
ATOM     66  O   UNL A   1      40.792  25.775  37.809  1.00  0.00    -0.237 OA
ATOM     67  O   UNL A   1      41.779  24.213  36.161  1.00  0.00    -0.237 OA
ATOM     68  O   UNL A   1      43.227  25.360  37.795  1.00  0.00    -0.744 OA
ENDBRANCH  64  65
ENDBRANCH  43  57
BRANCH  44  69
ATOM     69  C   UNL A   1      43.608  25.544  26.187  1.00  0.00     0.058 A 
ATOM     70  C   UNL A   1      44.698  25.250  25.343  1.00  0.00     0.135 A 
ATOM     71  C   UNL A   1      42.833  24.435  26.586  1.00  0.00     0.135 A 
ATOM     72  F   UNL A   1      45.518  26.230  24.932  1.00  0.00    -0.206 F 
ATOM     73  C   UNL A   1      45.020  23.939  24.954  1.00  0.00     0.059 A 
ATOM     74  C   UNL A   1      43.124  23.127  26.201  1.00  0.00     0.059 A 
ATOM     75  F   UNL A   1      41.814  24.572  27.445  1.00  0.00    -0.206 F 
ATOM     76  C   UNL A   1      44.234  22.880  25.404  1.00  0.00     0.060 A 
BRANCH  76  77
ATOM     77  S   UNL A   1      44.724  21.174  25.047  1.00  0.00     0.124 S 
ATOM     78  O   UNL A   1      43.738  20.409  25.800  1.00  0.00    -0.237 OA
ATOM     79  O   UNL A   1      44.603  21.117  23.594  1.00  0.00    -0.237 OA
ATOM     80  O   UNL A   1      46.091  21.101  25.556  1.00  0.00    -0.744 OA
ENDBRANCH  76  77
ENDBRANCH  44  69
BRANCH  56  81
ATOM     81  C   UNL A   1      45.363  31.240  28.428  1.00  0.00     0.058 A 
ATOM     82  C   UNL A   1      44.569  31.625  27.332  1.00  0.00     0.135 A 
ATOM     83  C   UNL A   1      46.560  31.946  28.631  1.00  0.00     0.135 A 
ATOM     84  F   UNL A   1      43.364  31.074  27.126  1.00  0.00    -0.206 F 
ATOM     85  C   UNL A   1      44.962  32.647  26.467  1.00  0.00     0.059 A 
ATOM     86  C   UNL A   1      46.953  32.992  27.801  1.00  0.00     0.059 A 
ATOM     87  F   UNL A   1      47.334  31.668  29.693  1.00  0.00    -0.206 F 
ATOM     88  C   UNL A   1      46.150  33.333  26.716  1.00  0.00     0.060 A 
BRANCH  88  89
ATOM     89  S   UNL A   1      46.596  34.732  25.666  1.00  0.00     0.124 S 
ATOM     90  O   UNL A   1      45.653  34.598  24.561  1.00  0.00    -0.237 OA
ATOM     91  O   UNL A   1      46.381  35.869  26.556  1.00  0.00    -0.237 OA
ATOM     92  O   UNL A   1      47.994  34.475  25.328  1.00  0.00    -0.744 OA
ENDBRANCH  88  89
ENDBRANCH  56  81
ENDBRANCH  30  31
ENDBRANCH  23  25
ENDBRANCH  22  23
ENDBRANCH  21  22
ENDBRANCH   1  21
TORSDOF 18
ENDMDL
MODEL 3
REMARK VINA RESULT:     -10.8      3.778     11.224
REMARK SMILES Cc1ccn2c([C@H]3C[C@@H]3C(=O)OCCOCCOC(=O)c3ccc(-c4c5nc(c(-c6c(F)cc(S(=O)(=O)[O-])cc6F)c6ccc([nH]6)c(-c6c(F)cc(S(=O)(=O)[O-])cc6F)c6nc(c(-c7c(F)cc(S(=O)(=O)[O-])cc7F)c7ccc4[nH]7)C=C6)C=C5)cc3)nnc2c1
REMARK SMILES IDX 16 1 15 2 14 3 13 4 12 5 10 6 11 7 9 8 7 9 8 10 6 11 1 12
REMARK SMILES IDX 2 13 3 14 90 15 4 16 89 17 5 18 88 19 87 20 17 21 18 22
REMARK SMILES IDX 19 23 20 24 21 25 22 26 86 27 23 28 85 29 24 30 25 31 26 32
REMARK SMILES IDX 79 33 27 34 84 35 78 36 80 37 28 38 83 39 77 40 76 41 29 43
REMARK SMILES IDX 63 44 42 45 62 46 43 47 46 48 61 49 81 50 44 51 45 52 60 54
REMARK SMILES IDX 82 55 47 56 30 57 31 58 40 59 32 60 33 61 39 62 41 63 34 64
REMARK SMILES IDX 35 65 36 66 37 67 38 68 64 69 65 70 74 71 66 72 67 73 73 74
REMARK SMILES IDX 75 75 68 76 69 77 70 78 71 79 72 80 48 81 49 82 58 83 50 84
REMARK SMILES IDX 51 85 57 86 59 87 52 88 53 89 54 90 55 91 56 92
REMARK H PARENT 80 42 46 53
REMARK Flexibility Score: inf
ROOT
ATOM      1  C   UNL A   1      42.262  19.630  26.529  1.00  0.00     0.202 C 
ENDROOT
BRANCH   1   2
ATOM      2  O   UNL A   1      41.514  20.752  26.059  1.00  0.00    -0.374 OA
BRANCH   2   3
ATOM      3  C   UNL A   1      40.210  20.966  26.587  1.00  0.00     0.202 C 
BRANCH   3   4
ATOM      4  C   UNL A   1      39.499  22.305  26.343  1.00  0.00     0.261 C 
BRANCH   4   5
ATOM      5  O   UNL A   1      38.220  22.194  25.714  1.00  0.00    -0.463 OA
BRANCH   5   6
ATOM      6  C   UNL A   1      37.541  23.375  25.713  1.00  0.00     0.309 C 
ATOM      7  O   UNL A   1      37.561  24.210  26.600  1.00  0.00    -0.252 OA
BRANCH   6   8
ATOM      8  C   UNL A   1      36.822  23.653  24.458  1.00  0.00     0.110 C 
ATOM      9  C   UNL A   1      35.369  23.288  24.216  1.00  0.00     0.073 C 
ATOM     10  C   UNL A   1      36.471  22.616  23.431  1.00  0.00     0.028 C 
BRANCH   9  11
ATOM     11  C   UNL A   1      34.546  24.368  23.537  1.00  0.00     0.141 A 
ATOM     12  C   UNL A   1      31.799  29.008  24.926  1.00  0.00     0.044 C 
ATOM     13  C   UNL A   1      32.629  27.809  24.590  1.00  0.00    -0.046 A 
ATOM     14  C   UNL A   1      33.314  27.103  25.676  1.00  0.00     0.022 A 
ATOM     15  C   UNL A   1      32.712  27.362  23.319  1.00  0.00     0.053 A 
ATOM     16  C   UNL A   1      34.022  25.993  25.399  1.00  0.00     0.095 A 
ATOM     17  C   UNL A   1      33.400  26.155  23.039  1.00  0.00     0.161 A 
ATOM     18  N   UNL A   1      34.057  25.528  24.085  1.00  0.00    -0.286 N 
ATOM     19  N   UNL A   1      33.455  25.408  21.961  1.00  0.00    -0.130 NA
ATOM     20  N   UNL A   1      34.130  24.263  22.289  1.00  0.00    -0.134 NA
ENDBRANCH   9  11
ENDBRANCH   6   8
ENDBRANCH   5   6
ENDBRANCH   4   5
ENDBRANCH   3   4
ENDBRANCH   2   3
ENDBRANCH   1   2
BRANCH   1  21
ATOM     21  C   UNL A   1      43.419  19.091  25.666  1.00  0.00     0.261 C 
BRANCH  21  22
ATOM     22  O   UNL A   1      44.546  19.979  25.687  1.00  0.00    -0.460 OA
BRANCH  22  23
ATOM     23  C   UNL A   1      44.672  20.790  24.600  1.00  0.00     0.338 C 
ATOM     24  O   UNL A   1      44.558  20.484  23.429  1.00  0.00    -0.246 OA
BRANCH  23  25
ATOM     25  C   UNL A   1      44.593  22.167  25.129  1.00  0.00     0.060 A 
ATOM     26  C   UNL A   1      45.287  22.518  26.289  1.00  0.00     0.016 A 
ATOM     27  C   UNL A   1      43.568  22.981  24.620  1.00  0.00     0.016 A 
ATOM     28  C   UNL A   1      44.885  23.649  26.987  1.00  0.00     0.010 A 
ATOM     29  C   UNL A   1      43.139  24.086  25.348  1.00  0.00     0.010 A 
ATOM     30  C   UNL A   1      43.777  24.400  26.548  1.00  0.00    -0.014 A 
BRANCH  30  31
ATOM     31  C   UNL A   1      43.487  25.645  27.262  1.00  0.00     0.031 A 
ATOM     32  C   UNL A   1      44.517  26.682  26.992  1.00  0.00     0.074 A 
ATOM     33  C   UNL A   1      42.396  25.939  28.000  1.00  0.00     0.049 A 
ATOM     34  N   UNL A   1      45.359  27.191  27.827  1.00  0.00    -0.248 NA
ATOM     35  C   UNL A   1      44.753  27.060  25.589  1.00  0.00     0.031 C 
ATOM     36  C   UNL A   1      41.169  25.161  28.169  1.00  0.00     0.029 A 
ATOM     37  N   UNL A   1      42.128  27.082  28.703  1.00  0.00    -0.354 N 
ATOM     38  C   UNL A   1      46.110  28.104  27.095  1.00  0.00     0.074 A 
ATOM     39  C   UNL A   1      45.816  27.854  25.708  1.00  0.00     0.031 C 
ATOM     40  C   UNL A   1      40.220  25.946  28.733  1.00  0.00     0.029 A 
ATOM     41  C   UNL A   1      40.794  27.243  29.060  1.00  0.00     0.049 A 
ATOM     42  H   UNL A   1      42.825  27.738  28.936  1.00  0.00     0.167 HD
ATOM     43  C   UNL A   1      46.764  29.135  27.695  1.00  0.00     0.037 A 
ATOM     44  C   UNL A   1      40.195  28.377  29.519  1.00  0.00     0.037 A 
ATOM     45  C   UNL A   1      46.915  28.909  29.109  1.00  0.00     0.049 A 
ATOM     46  C   UNL A   1      41.262  29.244  30.086  1.00  0.00     0.074 A 
ATOM     47  C   UNL A   1      47.515  27.924  29.869  1.00  0.00     0.029 A 
ATOM     48  N   UNL A   1      46.086  29.592  29.967  1.00  0.00    -0.354 N 
ATOM     49  N   UNL A   1      41.935  28.958  31.168  1.00  0.00    -0.248 NA
ATOM     50  C   UNL A   1      41.898  30.207  29.199  1.00  0.00     0.031 C 
ATOM     51  C   UNL A   1      46.659  27.753  30.994  1.00  0.00     0.029 A 
ATOM     52  C   UNL A   1      45.625  28.683  30.884  1.00  0.00     0.049 A 
ATOM     53  H   UNL A   1      45.865  30.551  29.930  1.00  0.00     0.167 HD
ATOM     54  C   UNL A   1      43.237  29.344  30.888  1.00  0.00     0.074 A 
ATOM     55  C   UNL A   1      43.137  30.183  29.696  1.00  0.00     0.031 C 
ATOM     56  C   UNL A   1      44.305  28.727  31.472  1.00  0.00     0.037 A 
BRANCH  43  57
ATOM     57  C   UNL A   1      46.957  30.490  27.063  1.00  0.00     0.058 A 
ATOM     58  C   UNL A   1      48.240  31.075  27.067  1.00  0.00     0.135 A 
ATOM     59  C   UNL A   1      45.894  31.353  26.713  1.00  0.00     0.135 A 
ATOM     60  F   UNL A   1      49.323  30.348  27.389  1.00  0.00    -0.206 F 
ATOM     61  C   UNL A   1      48.441  32.433  26.824  1.00  0.00     0.059 A 
ATOM     62  C   UNL A   1      46.079  32.695  26.410  1.00  0.00     0.059 A 
ATOM     63  F   UNL A   1      44.614  30.966  26.746  1.00  0.00    -0.206 F 
ATOM     64  C   UNL A   1      47.348  33.237  26.514  1.00  0.00     0.060 A 
BRANCH  64  65
ATOM     65  S   UNL A   1      47.587  35.010  26.320  1.00  0.00     0.124 S 
ATOM     66  O   UNL A   1      48.300  35.342  27.548  1.00  0.00    -0.237 OA
ATOM     67  O   UNL A   1      48.364  35.077  25.088  1.00  0.00    -0.237 OA
ATOM     68  O   UNL A   1      46.223  35.523  26.224  1.00  0.00    -0.744 OA
ENDBRANCH  64  65
ENDBRANCH  43  57
BRANCH  44  69
ATOM     69  C   UNL A   1      38.823  28.888  29.216  1.00  0.00     0.058 A 
ATOM     70  C   UNL A   1      37.878  29.144  30.231  1.00  0.00     0.135 A 
ATOM     71  C   UNL A   1      38.495  29.394  27.941  1.00  0.00     0.135 A 
ATOM     72  F   UNL A   1      38.109  28.735  31.488  1.00  0.00    -0.206 F 
ATOM     73  C   UNL A   1      36.707  29.886  30.002  1.00  0.00     0.059 A 
ATOM     74  C   UNL A   1      37.333  30.121  27.687  1.00  0.00     0.059 A 
ATOM     75  F   UNL A   1      39.344  29.280  26.910  1.00  0.00    -0.206 F 
ATOM     76  C   UNL A   1      36.452  30.386  28.726  1.00  0.00     0.060 A 
BRANCH  76  77
ATOM     77  S   UNL A   1      35.034  31.477  28.449  1.00  0.00     0.124 S 
ATOM     78  O   UNL A   1      34.073  30.575  27.826  1.00  0.00    -0.237 OA
ATOM     79  O   UNL A   1      34.714  31.916  29.802  1.00  0.00    -0.237 OA
ATOM     80  O   UNL A   1      35.572  32.515  27.573  1.00  0.00    -0.744 OA
ENDBRANCH  76  77
ENDBRANCH  44  69
BRANCH  56  81
ATOM     81  C   UNL A   1      44.074  27.825  32.657  1.00  0.00     0.058 A 
ATOM     82  C   UNL A   1      43.919  28.273  33.981  1.00  0.00     0.135 A 
ATOM     83  C   UNL A   1      43.802  26.470  32.402  1.00  0.00     0.135 A 
ATOM     84  F   UNL A   1      44.057  29.570  34.293  1.00  0.00    -0.206 F 
ATOM     85  C   UNL A   1      43.535  27.407  35.006  1.00  0.00     0.059 A 
ATOM     86  C   UNL A   1      43.385  25.599  33.403  1.00  0.00     0.059 A 
ATOM     87  F   UNL A   1      43.874  25.993  31.149  1.00  0.00    -0.206 F 
ATOM     88  C   UNL A   1      43.259  26.073  34.705  1.00  0.00     0.060 A 
BRANCH  88  89
ATOM     89  S   UNL A   1      42.648  24.984  36.009  1.00  0.00     0.124 S 
ATOM     90  O   UNL A   1      43.865  24.297  36.429  1.00  0.00    -0.237 OA
ATOM     91  O   UNL A   1      42.086  25.931  36.967  1.00  0.00    -0.237 OA
ATOM     92  O   UNL A   1      41.665  24.148  35.325  1.00  0.00    -0.744 OA
ENDBRANCH  88  89
ENDBRANCH  56  81
ENDBRANCH  30  31
ENDBRANCH  23  25
ENDBRANCH  22  23
ENDBRANCH  21  22
ENDBRANCH   1  21
TORSDOF 18
ENDMDL
