MODEL 1
REMARK VINA RESULT:      -9.7      0.000      0.000
REMARK SMILES C[C@H]([NH3+])C(=O)N1CCC[C@H]1C(=O)OCCOCCOC(=O)c1ccc(-c2c3nc(c(-c4c(F)cc(S(=O)(=O)[O-])cc4F)c4ccc([nH]4)c(-c4c(F)cc(S(=O)(=O)[O-])cc4F)c4nc(c(-c5c(F)cc(S(=O)(=O)[O-])cc5F)c5ccc2[nH]5)C=C4)C=C3)cc1
REMARK SMILES IDX 16 1 15 2 14 3 13 4 11 5 12 6 10 7 6 8 7 9 8 10 9 11 4 12
REMARK SMILES IDX 5 13 2 14 1 15 3 16 17 20 18 21 19 22 20 23 21 24 22 25
REMARK SMILES IDX 23 26 87 27 24 28 86 29 25 30 26 31 27 32 80 33 28 34 85 35
REMARK SMILES IDX 79 36 81 37 29 38 84 39 78 40 77 41 30 43 64 44 43 45 63 46
REMARK SMILES IDX 44 47 47 48 62 49 82 50 45 51 46 52 61 54 83 55 48 56 31 57
REMARK SMILES IDX 32 58 41 59 33 60 34 61 40 62 42 63 35 64 36 65 37 66 38 67
REMARK SMILES IDX 39 68 65 69 66 70 75 71 67 72 68 73 74 74 76 75 69 76 70 77
REMARK SMILES IDX 71 78 72 79 73 80 49 81 50 82 59 83 51 84 52 85 58 86 60 87
REMARK SMILES IDX 53 88 54 89 55 90 56 91 57 92
REMARK H PARENT 3 17 3 18 3 19 81 42 47 53
REMARK Flexibility Score: inf
ROOT
ATOM      1  O   UNL A   1      34.021  30.609  27.199  1.00  0.00    -0.374 OA
ENDROOT
BRANCH   1   2
ATOM      2  C   UNL A   1      32.752  29.965  27.053  1.00  0.00     0.202 C 
BRANCH   2   3
ATOM      3  C   UNL A   1      32.005  30.181  25.726  1.00  0.00     0.261 C 
BRANCH   3   4
ATOM      4  O   UNL A   1      31.094  29.112  25.431  1.00  0.00    -0.462 OA
BRANCH   4   5
ATOM      5  C   UNL A   1      31.162  28.643  24.153  1.00  0.00     0.328 C 
ATOM      6  O   UNL A   1      30.984  29.339  23.158  1.00  0.00    -0.250 OA
BRANCH   5   7
ATOM      7  C   UNL A   1      31.691  27.195  24.095  1.00  0.00     0.195 C 
ATOM      8  N   UNL A   1      33.050  26.982  23.601  1.00  0.00    -0.324 N 
ATOM      9  C   UNL A   1      33.954  26.974  24.730  1.00  0.00     0.121 C 
ATOM     10  C   UNL A   1      33.163  26.247  25.800  1.00  0.00     0.024 C 
ATOM     11  C   UNL A   1      31.700  26.554  25.493  1.00  0.00     0.039 C 
BRANCH   8  12
ATOM     12  C   UNL A   1      33.273  26.661  22.279  1.00  0.00     0.281 C 
ATOM     13  O   UNL A   1      33.972  27.402  21.574  1.00  0.00    -0.268 OA
BRANCH  12  14
ATOM     14  C   UNL A   1      32.460  25.544  21.574  1.00  0.00     0.268 C 
ATOM     15  C   UNL A   1      32.946  24.189  22.089  1.00  0.00     0.086 C 
BRANCH  14  16
ATOM     16  N   UNL A   1      32.471  25.597  20.101  1.00  0.00    -0.348 N 
ATOM     17  H   UNL A   1      31.893  26.377  19.785  1.00  0.00     0.345 HD
ATOM     18  H   UNL A   1      32.099  24.725  19.726  1.00  0.00     0.345 HD
ATOM     19  H   UNL A   1      33.427  25.729  19.773  1.00  0.00     0.345 HD
ENDBRANCH  14  16
ENDBRANCH  12  14
ENDBRANCH   8  12
ENDBRANCH   5   7
ENDBRANCH   4   5
ENDBRANCH   3   4
ENDBRANCH   2   3
ENDBRANCH   1   2
BRANCH   1  20
ATOM     20  C   UNL A   1      34.035  31.783  28.016  1.00  0.00     0.202 C 
BRANCH  20  21
ATOM     21  C   UNL A   1      35.015  31.813  29.192  1.00  0.00     0.261 C 
BRANCH  21  22
ATOM     22  O   UNL A   1      35.760  30.587  29.273  1.00  0.00    -0.460 OA
BRANCH  22  23
ATOM     23  C   UNL A   1      36.485  30.434  30.401  1.00  0.00     0.338 C 
ATOM     24  O   UNL A   1      36.057  30.266  31.536  1.00  0.00    -0.246 OA
BRANCH  23  25
ATOM     25  C   UNL A   1      37.910  30.284  30.053  1.00  0.00     0.060 A 
ATOM     26  C   UNL A   1      38.229  30.177  28.693  1.00  0.00     0.016 A 
ATOM     27  C   UNL A   1      38.910  30.216  31.026  1.00  0.00     0.016 A 
ATOM     28  C   UNL A   1      39.541  29.936  28.302  1.00  0.00     0.010 A 
ATOM     29  C   UNL A   1      40.228  29.964  30.631  1.00  0.00     0.010 A 
ATOM     30  C   UNL A   1      40.539  29.781  29.272  1.00  0.00    -0.014 A 
BRANCH  30  31
ATOM     31  C   UNL A   1      41.869  29.271  28.867  1.00  0.00     0.031 A 
ATOM     32  C   UNL A   1      43.029  30.229  28.830  1.00  0.00     0.074 A 
ATOM     33  C   UNL A   1      42.047  27.971  28.573  1.00  0.00     0.049 A 
ATOM     34  N   UNL A   1      44.270  30.015  28.481  1.00  0.00    -0.248 NA
ATOM     35  C   UNL A   1      42.750  31.616  29.241  1.00  0.00     0.031 C 
ATOM     36  C   UNL A   1      41.003  26.947  28.611  1.00  0.00     0.029 A 
ATOM     37  N   UNL A   1      43.170  27.292  28.176  1.00  0.00    -0.354 N 
ATOM     38  C   UNL A   1      44.917  31.238  28.616  1.00  0.00     0.074 A 
ATOM     39  C   UNL A   1      43.926  32.196  29.055  1.00  0.00     0.031 C 
ATOM     40  C   UNL A   1      41.533  25.771  28.237  1.00  0.00     0.029 A 
ATOM     41  C   UNL A   1      42.943  25.964  27.901  1.00  0.00     0.049 A 
ATOM     42  H   UNL A   1      44.055  27.715  28.095  1.00  0.00     0.167 HD
ATOM     43  C   UNL A   1      46.220  31.532  28.398  1.00  0.00     0.037 A 
ATOM     44  C   UNL A   1      43.773  25.023  27.411  1.00  0.00     0.037 A 
ATOM     45  C   UNL A   1      47.199  30.567  27.969  1.00  0.00     0.049 A 
ATOM     46  C   UNL A   1      45.207  25.387  27.125  1.00  0.00     0.074 A 
ATOM     47  C   UNL A   1      48.553  30.754  27.750  1.00  0.00     0.029 A 
ATOM     48  N   UNL A   1      46.928  29.236  27.681  1.00  0.00    -0.354 N 
ATOM     49  N   UNL A   1      45.816  26.539  27.288  1.00  0.00    -0.248 NA
ATOM     50  C   UNL A   1      46.071  24.323  26.595  1.00  0.00     0.031 C 
ATOM     51  C   UNL A   1      49.088  29.552  27.277  1.00  0.00     0.029 A 
ATOM     52  C   UNL A   1      48.082  28.599  27.259  1.00  0.00     0.049 A 
ATOM     53  H   UNL A   1      46.045  28.810  27.766  1.00  0.00     0.167 HD
ATOM     54  C   UNL A   1      47.137  26.331  26.904  1.00  0.00     0.074 A 
ATOM     55  C   UNL A   1      47.242  24.939  26.514  1.00  0.00     0.031 C 
ATOM     56  C   UNL A   1      48.170  27.209  26.879  1.00  0.00     0.037 A 
BRANCH  43  57
ATOM     57  C   UNL A   1      46.660  32.957  28.592  1.00  0.00     0.058 A 
ATOM     58  C   UNL A   1      47.123  33.431  29.830  1.00  0.00     0.135 A 
ATOM     59  C   UNL A   1      46.656  33.852  27.509  1.00  0.00     0.135 A 
ATOM     60  F   UNL A   1      47.131  32.625  30.903  1.00  0.00    -0.206 F 
ATOM     61  C   UNL A   1      47.547  34.747  29.992  1.00  0.00     0.059 A 
ATOM     62  C   UNL A   1      47.101  35.163  27.643  1.00  0.00     0.059 A 
ATOM     63  F   UNL A   1      46.219  33.453  26.305  1.00  0.00    -0.206 F 
ATOM     64  C   UNL A   1      47.535  35.605  28.892  1.00  0.00     0.060 A 
BRANCH  64  65
ATOM     65  S   UNL A   1      48.104  37.304  29.115  1.00  0.00     0.124 S 
ATOM     66  O   UNL A   1      47.085  38.051  28.383  1.00  0.00    -0.237 OA
ATOM     67  O   UNL A   1      48.078  37.453  30.566  1.00  0.00    -0.237 OA
ATOM     68  O   UNL A   1      49.432  37.300  28.511  1.00  0.00    -0.744 OA
ENDBRANCH  64  65
ENDBRANCH  43  57
BRANCH  44  69
ATOM     69  C   UNL A   1      43.263  23.651  27.141  1.00  0.00     0.058 A 
ATOM     70  C   UNL A   1      42.819  23.276  25.866  1.00  0.00     0.135 A 
ATOM     71  C   UNL A   1      43.213  22.687  28.160  1.00  0.00     0.135 A 
ATOM     72  F   UNL A   1      42.836  24.165  24.861  1.00  0.00    -0.206 F 
ATOM     73  C   UNL A   1      42.328  21.999  25.612  1.00  0.00     0.059 A 
ATOM     74  C   UNL A   1      42.752  21.395  27.924  1.00  0.00     0.059 A 
ATOM     75  F   UNL A   1      43.635  22.991  29.398  1.00  0.00    -0.206 F 
ATOM     76  C   UNL A   1      42.301  21.064  26.648  1.00  0.00     0.060 A 
BRANCH  76  77
ATOM     77  S   UNL A   1      41.705  19.396  26.295  1.00  0.00     0.124 S 
ATOM     78  O   UNL A   1      42.082  18.686  27.511  1.00  0.00    -0.237 OA
ATOM     79  O   UNL A   1      40.276  19.617  26.101  1.00  0.00    -0.237 OA
ATOM     80  O   UNL A   1      42.443  19.023  25.091  1.00  0.00    -0.744 OA
ENDBRANCH  76  77
ENDBRANCH  44  69
BRANCH  56  81
ATOM     81  C   UNL A   1      49.516  26.689  26.450  1.00  0.00     0.058 A 
ATOM     82  C   UNL A   1      49.983  26.840  25.136  1.00  0.00     0.135 A 
ATOM     83  C   UNL A   1      50.372  26.082  27.385  1.00  0.00     0.135 A 
ATOM     84  F   UNL A   1      49.204  27.409  24.202  1.00  0.00    -0.206 F 
ATOM     85  C   UNL A   1      51.242  26.385  24.756  1.00  0.00     0.059 A 
ATOM     86  C   UNL A   1      51.646  25.646  27.034  1.00  0.00     0.059 A 
ATOM     87  F   UNL A   1      49.979  25.923  28.659  1.00  0.00    -0.206 F 
ATOM     88  C   UNL A   1      52.067  25.791  25.714  1.00  0.00     0.060 A 
BRANCH  88  89
ATOM     89  S   UNL A   1      53.710  25.234  25.214  1.00  0.00     0.124 S 
ATOM     90  O   UNL A   1      53.573  23.786  25.312  1.00  0.00    -0.237 OA
ATOM     91  O   UNL A   1      53.824  25.770  23.861  1.00  0.00    -0.237 OA
ATOM     92  O   UNL A   1      54.593  25.850  26.202  1.00  0.00    -0.744 OA
ENDBRANCH  88  89
ENDBRANCH  56  81
ENDBRANCH  30  31
ENDBRANCH  23  25
ENDBRANCH  22  23
ENDBRANCH  21  22
ENDBRANCH  20  21
ENDBRANCH   1  20
TORSDOF 20
ENDMDL
MODEL 2
REMARK VINA RESULT:      -9.6      6.696     12.210
REMARK SMILES C[C@H]([NH3+])C(=O)N1CCC[C@H]1C(=O)OCCOCCOC(=O)c1ccc(-c2c3nc(c(-c4c(F)cc(S(=O)(=O)[O-])cc4F)c4ccc([nH]4)c(-c4c(F)cc(S(=O)(=O)[O-])cc4F)c4nc(c(-c5c(F)cc(S(=O)(=O)[O-])cc5F)c5ccc2[nH]5)C=C4)C=C3)cc1
REMARK SMILES IDX 16 1 15 2 14 3 13 4 11 5 12 6 10 7 6 8 7 9 8 10 9 11 4 12
REMARK SMILES IDX 5 13 2 14 1 15 3 16 17 20 18 21 19 22 20 23 21 24 22 25
REMARK SMILES IDX 23 26 87 27 24 28 86 29 25 30 26 31 27 32 80 33 28 34 85 35
REMARK SMILES IDX 79 36 81 37 29 38 84 39 78 40 77 41 30 43 64 44 43 45 63 46
REMARK SMILES IDX 44 47 47 48 62 49 82 50 45 51 46 52 61 54 83 55 48 56 31 57
REMARK SMILES IDX 32 58 41 59 33 60 34 61 40 62 42 63 35 64 36 65 37 66 38 67
REMARK SMILES IDX 39 68 65 69 66 70 75 71 67 72 68 73 74 74 76 75 69 76 70 77
REMARK SMILES IDX 71 78 72 79 73 80 49 81 50 82 59 83 51 84 52 85 58 86 60 87
REMARK SMILES IDX 53 88 54 89 55 90 56 91 57 92
REMARK H PARENT 3 17 3 18 3 19 81 42 47 53
REMARK Flexibility Score: inf
ROOT
ATOM      1  O   UNL A   1      38.750  21.750  25.937  1.00  0.00    -0.374 OA
ENDROOT
BRANCH   1   2
ATOM      2  C   UNL A   1      37.881  21.097  25.009  1.00  0.00     0.202 C 
BRANCH   2   3
ATOM      3  C   UNL A   1      36.476  21.694  24.825  1.00  0.00     0.261 C 
BRANCH   3   4
ATOM      4  O   UNL A   1      35.524  21.153  25.753  1.00  0.00    -0.462 OA
BRANCH   4   5
ATOM      5  C   UNL A   1      34.728  22.079  26.357  1.00  0.00     0.328 C 
ATOM      6  O   UNL A   1      35.124  23.176  26.742  1.00  0.00    -0.250 OA
BRANCH   5   7
ATOM      7  C   UNL A   1      33.239  21.680  26.314  1.00  0.00     0.195 C 
ATOM      8  N   UNL A   1      32.294  22.625  25.723  1.00  0.00    -0.324 N 
ATOM      9  C   UNL A   1      32.136  22.303  24.322  1.00  0.00     0.121 C 
ATOM     10  C   UNL A   1      32.158  20.787  24.312  1.00  0.00     0.024 C 
ATOM     11  C   UNL A   1      33.036  20.393  25.497  1.00  0.00     0.039 C 
BRANCH   8  12
ATOM     12  C   UNL A   1      31.592  23.505  26.520  1.00  0.00     0.281 C 
ATOM     13  O   UNL A   1      31.277  23.179  27.673  1.00  0.00    -0.268 OA
BRANCH  12  14
ATOM     14  C   UNL A   1      30.951  24.788  25.929  1.00  0.00     0.268 C 
ATOM     15  C   UNL A   1      31.843  25.981  26.272  1.00  0.00     0.086 C 
BRANCH  14  16
ATOM     16  N   UNL A   1      29.552  25.028  26.326  1.00  0.00    -0.348 N 
ATOM     17  H   UNL A   1      29.091  25.601  25.618  1.00  0.00     0.345 HD
ATOM     18  H   UNL A   1      29.530  25.513  27.222  1.00  0.00     0.345 HD
ATOM     19  H   UNL A   1      29.065  24.136  26.410  1.00  0.00     0.345 HD
ENDBRANCH  14  16
ENDBRANCH  12  14
ENDBRANCH   8  12
ENDBRANCH   5   7
ENDBRANCH   4   5
ENDBRANCH   3   4
ENDBRANCH   2   3
ENDBRANCH   1   2
BRANCH   1  20
ATOM     20  C   UNL A   1      40.009  21.111  26.170  1.00  0.00     0.202 C 
BRANCH  20  21
ATOM     21  C   UNL A   1      41.252  22.002  26.234  1.00  0.00     0.261 C 
BRANCH  21  22
ATOM     22  O   UNL A   1      41.009  23.168  27.037  1.00  0.00    -0.460 OA
BRANCH  22  23
ATOM     23  C   UNL A   1      41.713  24.263  26.680  1.00  0.00     0.338 C 
ATOM     24  O   UNL A   1      42.431  24.390  25.696  1.00  0.00    -0.246 OA
BRANCH  23  25
ATOM     25  C   UNL A   1      41.333  25.395  27.544  1.00  0.00     0.060 A 
ATOM     26  C   UNL A   1      42.227  26.471  27.618  1.00  0.00     0.016 A 
ATOM     27  C   UNL A   1      40.152  25.399  28.291  1.00  0.00     0.016 A 
ATOM     28  C   UNL A   1      41.978  27.526  28.488  1.00  0.00     0.010 A 
ATOM     29  C   UNL A   1      39.908  26.456  29.173  1.00  0.00     0.010 A 
ATOM     30  C   UNL A   1      40.840  27.501  29.305  1.00  0.00    -0.014 A 
BRANCH  30  31
ATOM     31  C   UNL A   1      40.716  28.486  30.404  1.00  0.00     0.031 A 
ATOM     32  C   UNL A   1      41.632  28.364  31.590  1.00  0.00     0.074 A 
ATOM     33  C   UNL A   1      39.826  29.492  30.328  1.00  0.00     0.049 A 
ATOM     34  N   UNL A   1      41.684  29.089  32.676  1.00  0.00    -0.248 NA
ATOM     35  C   UNL A   1      42.622  27.274  31.547  1.00  0.00     0.031 C 
ATOM     36  C   UNL A   1      38.914  29.729  29.209  1.00  0.00     0.029 A 
ATOM     37  N   UNL A   1      39.540  30.498  31.215  1.00  0.00    -0.354 N 
ATOM     38  C   UNL A   1      42.700  28.539  33.450  1.00  0.00     0.074 A 
ATOM     39  C   UNL A   1      43.220  27.403  32.722  1.00  0.00     0.031 C 
ATOM     40  C   UNL A   1      38.158  30.804  29.485  1.00  0.00     0.029 A 
ATOM     41  C   UNL A   1      38.509  31.311  30.810  1.00  0.00     0.049 A 
ATOM     42  H   UNL A   1      40.027  30.625  32.060  1.00  0.00     0.167 HD
ATOM     43  C   UNL A   1      43.158  28.950  34.656  1.00  0.00     0.037 A 
ATOM     44  C   UNL A   1      37.902  32.331  31.450  1.00  0.00     0.037 A 
ATOM     45  C   UNL A   1      42.636  30.087  35.368  1.00  0.00     0.049 A 
ATOM     46  C   UNL A   1      38.394  32.736  32.816  1.00  0.00     0.074 A 
ATOM     47  C   UNL A   1      43.051  30.608  36.581  1.00  0.00     0.029 A 
ATOM     48  N   UNL A   1      41.577  30.875  34.936  1.00  0.00    -0.354 N 
ATOM     49  N   UNL A   1      39.377  32.229  33.524  1.00  0.00    -0.248 NA
ATOM     50  C   UNL A   1      37.701  33.855  33.469  1.00  0.00     0.031 C 
ATOM     51  C   UNL A   1      42.208  31.673  36.910  1.00  0.00     0.029 A 
ATOM     52  C   UNL A   1      41.307  31.858  35.874  1.00  0.00     0.049 A 
ATOM     53  H   UNL A   1      41.092  30.753  34.089  1.00  0.00     0.167 HD
ATOM     54  C   UNL A   1      39.435  32.982  34.692  1.00  0.00     0.074 A 
ATOM     55  C   UNL A   1      38.397  33.989  34.589  1.00  0.00     0.031 C 
ATOM     56  C   UNL A   1      40.271  32.856  35.752  1.00  0.00     0.037 A 
BRANCH  43  57
ATOM     57  C   UNL A   1      44.258  28.150  35.298  1.00  0.00     0.058 A 
ATOM     58  C   UNL A   1      43.991  27.075  36.160  1.00  0.00     0.135 A 
ATOM     59  C   UNL A   1      45.603  28.440  35.013  1.00  0.00     0.135 A 
ATOM     60  F   UNL A   1      42.726  26.764  36.483  1.00  0.00    -0.206 F 
ATOM     61  C   UNL A   1      45.017  26.329  36.732  1.00  0.00     0.059 A 
ATOM     62  C   UNL A   1      46.643  27.691  35.551  1.00  0.00     0.059 A 
ATOM     63  F   UNL A   1      45.915  29.461  34.199  1.00  0.00    -0.206 F 
ATOM     64  C   UNL A   1      46.341  26.643  36.419  1.00  0.00     0.060 A 
BRANCH  64  65
ATOM     65  S   UNL A   1      47.660  25.655  37.156  1.00  0.00     0.124 S 
ATOM     66  O   UNL A   1      48.128  24.889  36.004  1.00  0.00    -0.237 OA
ATOM     67  O   UNL A   1      48.575  26.677  37.651  1.00  0.00    -0.237 OA
ATOM     68  O   UNL A   1      46.973  24.881  38.184  1.00  0.00    -0.744 OA
ENDBRANCH  64  65
ENDBRANCH  43  57
BRANCH  44  69
ATOM     69  C   UNL A   1      36.751  33.026  30.815  1.00  0.00     0.058 A 
ATOM     70  C   UNL A   1      35.435  32.795  31.239  1.00  0.00     0.135 A 
ATOM     71  C   UNL A   1      36.948  33.940  29.767  1.00  0.00     0.135 A 
ATOM     72  F   UNL A   1      35.192  31.922  32.229  1.00  0.00    -0.206 F 
ATOM     73  C   UNL A   1      34.353  33.432  30.638  1.00  0.00     0.059 A 
ATOM     74  C   UNL A   1      35.885  34.611  29.169  1.00  0.00     0.059 A 
ATOM     75  F   UNL A   1      38.189  34.205  29.329  1.00  0.00    -0.206 F 
ATOM     76  C   UNL A   1      34.589  34.341  29.605  1.00  0.00     0.060 A 
BRANCH  76  77
ATOM     77  S   UNL A   1      33.182  35.196  28.864  1.00  0.00     0.124 S 
ATOM     78  O   UNL A   1      32.607  34.148  28.030  1.00  0.00    -0.237 OA
ATOM     79  O   UNL A   1      32.403  35.578  30.037  1.00  0.00    -0.237 OA
ATOM     80  O   UNL A   1      33.803  36.306  28.146  1.00  0.00    -0.744 OA
ENDBRANCH  76  77
ENDBRANCH  44  69
BRANCH  56  81
ATOM     81  C   UNL A   1      40.128  33.850  36.874  1.00  0.00     0.058 A 
ATOM     82  C   UNL A   1      40.774  35.094  36.847  1.00  0.00     0.135 A 
ATOM     83  C   UNL A   1      39.286  33.571  37.964  1.00  0.00     0.135 A 
ATOM     84  F   UNL A   1      41.594  35.409  35.832  1.00  0.00    -0.206 F 
ATOM     85  C   UNL A   1      40.610  36.020  37.873  1.00  0.00     0.059 A 
ATOM     86  C   UNL A   1      39.084  34.494  38.985  1.00  0.00     0.059 A 
ATOM     87  F   UNL A   1      38.634  32.399  38.034  1.00  0.00    -0.206 F 
ATOM     88  C   UNL A   1      39.761  35.711  38.937  1.00  0.00     0.060 A 
BRANCH  88  89
ATOM     89  S   UNL A   1      39.533  36.934  40.246  1.00  0.00     0.124 S 
ATOM     90  O   UNL A   1      40.790  36.822  40.976  1.00  0.00    -0.237 OA
ATOM     91  O   UNL A   1      39.346  38.169  39.490  1.00  0.00    -0.237 OA
ATOM     92  O   UNL A   1      38.349  36.456  40.955  1.00  0.00    -0.744 OA
ENDBRANCH  88  89
ENDBRANCH  56  81
ENDBRANCH  30  31
ENDBRANCH  23  25
ENDBRANCH  22  23
ENDBRANCH  21  22
ENDBRANCH  20  21
ENDBRANCH   1  20
TORSDOF 20
ENDMDL
MODEL 3
REMARK VINA RESULT:      -9.5      1.278      8.664
REMARK SMILES C[C@H]([NH3+])C(=O)N1CCC[C@H]1C(=O)OCCOCCOC(=O)c1ccc(-c2c3nc(c(-c4c(F)cc(S(=O)(=O)[O-])cc4F)c4ccc([nH]4)c(-c4c(F)cc(S(=O)(=O)[O-])cc4F)c4nc(c(-c5c(F)cc(S(=O)(=O)[O-])cc5F)c5ccc2[nH]5)C=C4)C=C3)cc1
REMARK SMILES IDX 16 1 15 2 14 3 13 4 11 5 12 6 10 7 6 8 7 9 8 10 9 11 4 12
REMARK SMILES IDX 5 13 2 14 1 15 3 16 17 20 18 21 19 22 20 23 21 24 22 25
REMARK SMILES IDX 23 26 87 27 24 28 86 29 25 30 26 31 27 32 80 33 28 34 85 35
REMARK SMILES IDX 79 36 81 37 29 38 84 39 78 40 77 41 30 43 64 44 43 45 63 46
REMARK SMILES IDX 44 47 47 48 62 49 82 50 45 51 46 52 61 54 83 55 48 56 31 57
REMARK SMILES IDX 32 58 41 59 33 60 34 61 40 62 42 63 35 64 36 65 37 66 38 67
REMARK SMILES IDX 39 68 65 69 66 70 75 71 67 72 68 73 74 74 76 75 69 76 70 77
REMARK SMILES IDX 71 78 72 79 73 80 49 81 50 82 59 83 51 84 52 85 58 86 60 87
REMARK SMILES IDX 53 88 54 89 55 90 56 91 57 92
REMARK H PARENT 3 17 3 18 3 19 81 42 47 53
REMARK Flexibility Score: inf
ROOT
ATOM      1  O   UNL A   1      34.344  31.190  27.339  1.00  0.00    -0.374 OA
ENDROOT
BRANCH   1   2
ATOM      2  C   UNL A   1      33.277  30.239  27.315  1.00  0.00     0.202 C 
BRANCH   2   3
ATOM      3  C   UNL A   1      33.015  29.513  25.985  1.00  0.00     0.261 C 
BRANCH   3   4
ATOM      4  O   UNL A   1      31.632  29.172  25.811  1.00  0.00    -0.462 OA
BRANCH   4   5
ATOM      5  C   UNL A   1      31.360  27.839  25.895  1.00  0.00     0.328 C 
ATOM      6  O   UNL A   1      31.127  27.253  26.947  1.00  0.00    -0.250 OA
BRANCH   5   7
ATOM      7  C   UNL A   1      31.175  27.197  24.504  1.00  0.00     0.195 C 
ATOM      8  N   UNL A   1      30.209  26.107  24.378  1.00  0.00    -0.324 N 
ATOM      9  C   UNL A   1      28.934  26.665  23.985  1.00  0.00     0.121 C 
ATOM     10  C   UNL A   1      29.322  27.763  23.014  1.00  0.00     0.024 C 
ATOM     11  C   UNL A   1      30.698  28.236  23.475  1.00  0.00     0.039 C 
BRANCH   8  12
ATOM     12  C   UNL A   1      30.620  24.793  24.456  1.00  0.00     0.281 C 
ATOM     13  O   UNL A   1      30.624  24.086  23.439  1.00  0.00    -0.268 OA
BRANCH  12  14
ATOM     14  C   UNL A   1      30.824  24.095  25.825  1.00  0.00     0.268 C 
ATOM     15  C   UNL A   1      31.063  22.605  25.582  1.00  0.00     0.086 C 
BRANCH  14  16
ATOM     16  N   UNL A   1      29.746  24.315  26.806  1.00  0.00    -0.348 N 
ATOM     17  H   UNL A   1      29.508  23.429  27.254  1.00  0.00     0.345 HD
ATOM     18  H   UNL A   1      28.924  24.688  26.332  1.00  0.00     0.345 HD
ATOM     19  H   UNL A   1      30.061  24.980  27.513  1.00  0.00     0.345 HD
ENDBRANCH  14  16
ENDBRANCH  12  14
ENDBRANCH   8  12
ENDBRANCH   5   7
ENDBRANCH   4   5
ENDBRANCH   3   4
ENDBRANCH   2   3
ENDBRANCH   1   2
BRANCH   1  20
ATOM     20  C   UNL A   1      34.439  31.994  28.519  1.00  0.00     0.202 C 
BRANCH  20  21
ATOM     21  C   UNL A   1      35.576  31.684  29.495  1.00  0.00     0.261 C 
BRANCH  21  22
ATOM     22  O   UNL A   1      36.041  30.335  29.333  1.00  0.00    -0.460 OA
BRANCH  22  23
ATOM     23  C   UNL A   1      36.792  29.864  30.351  1.00  0.00     0.338 C 
ATOM     24  O   UNL A   1      36.392  29.337  31.381  1.00  0.00    -0.246 OA
BRANCH  23  25
ATOM     25  C   UNL A   1      38.214  29.880  29.961  1.00  0.00     0.060 A 
ATOM     26  C   UNL A   1      38.501  29.851  28.590  1.00  0.00     0.016 A 
ATOM     27  C   UNL A   1      39.244  29.893  30.904  1.00  0.00     0.016 A 
ATOM     28  C   UNL A   1      39.819  29.765  28.157  1.00  0.00     0.010 A 
ATOM     29  C   UNL A   1      40.569  29.797  30.467  1.00  0.00     0.010 A 
ATOM     30  C   UNL A   1      40.857  29.690  29.094  1.00  0.00    -0.014 A 
BRANCH  30  31
ATOM     31  C   UNL A   1      42.222  29.341  28.637  1.00  0.00     0.031 A 
ATOM     32  C   UNL A   1      42.498  27.927  28.203  1.00  0.00     0.074 A 
ATOM     33  C   UNL A   1      43.187  30.276  28.576  1.00  0.00     0.049 A 
ATOM     34  N   UNL A   1      43.617  27.389  27.796  1.00  0.00    -0.248 NA
ATOM     35  C   UNL A   1      41.358  26.995  28.235  1.00  0.00     0.031 C 
ATOM     36  C   UNL A   1      43.022  31.684  28.936  1.00  0.00     0.029 A 
ATOM     37  N   UNL A   1      44.501  30.178  28.196  1.00  0.00    -0.354 N 
ATOM     38  C   UNL A   1      43.322  26.055  27.536  1.00  0.00     0.074 A 
ATOM     39  C   UNL A   1      41.925  25.860  27.856  1.00  0.00     0.031 C 
ATOM     40  C   UNL A   1      44.197  32.315  28.774  1.00  0.00     0.029 A 
ATOM     41  C   UNL A   1      45.202  31.352  28.330  1.00  0.00     0.049 A 
ATOM     42  H   UNL A   1      44.903  29.345  27.858  1.00  0.00     0.167 HD
ATOM     43  C   UNL A   1      44.142  25.085  27.067  1.00  0.00     0.037 A 
ATOM     44  C   UNL A   1      46.512  31.609  28.142  1.00  0.00     0.037 A 
ATOM     45  C   UNL A   1      45.530  25.295  26.745  1.00  0.00     0.049 A 
ATOM     46  C   UNL A   1      47.417  30.500  27.671  1.00  0.00     0.074 A 
ATOM     47  C   UNL A   1      46.440  24.388  26.233  1.00  0.00     0.029 A 
ATOM     48  N   UNL A   1      46.211  26.493  26.913  1.00  0.00    -0.354 N 
ATOM     49  N   UNL A   1      47.120  29.251  27.397  1.00  0.00    -0.248 NA
ATOM     50  C   UNL A   1      48.835  30.835  27.478  1.00  0.00     0.031 C 
ATOM     51  C   UNL A   1      47.684  25.020  26.145  1.00  0.00     0.029 A 
ATOM     52  C   UNL A   1      47.536  26.339  26.544  1.00  0.00     0.049 A 
ATOM     53  H   UNL A   1      45.809  27.328  27.245  1.00  0.00     0.167 HD
ATOM     54  C   UNL A   1      48.307  28.659  26.976  1.00  0.00     0.074 A 
ATOM     55  C   UNL A   1      49.323  29.691  27.018  1.00  0.00     0.031 C 
ATOM     56  C   UNL A   1      48.535  27.380  26.587  1.00  0.00     0.037 A 
BRANCH  43  57
ATOM     57  C   UNL A   1      43.572  23.704  26.902  1.00  0.00     0.058 A 
ATOM     58  C   UNL A   1      43.395  22.836  27.992  1.00  0.00     0.135 A 
ATOM     59  C   UNL A   1      43.158  23.256  25.636  1.00  0.00     0.135 A 
ATOM     60  F   UNL A   1      43.790  23.204  29.221  1.00  0.00    -0.206 F 
ATOM     61  C   UNL A   1      42.847  21.567  27.829  1.00  0.00     0.059 A 
ATOM     62  C   UNL A   1      42.583  22.002  25.456  1.00  0.00     0.059 A 
ATOM     63  F   UNL A   1      43.309  24.042  24.560  1.00  0.00    -0.206 F 
ATOM     64  C   UNL A   1      42.441  21.160  26.558  1.00  0.00     0.060 A 
BRANCH  64  65
ATOM     65  S   UNL A   1      41.717  19.517  26.367  1.00  0.00     0.124 S 
ATOM     66  O   UNL A   1      42.044  18.904  27.651  1.00  0.00    -0.237 OA
ATOM     67  O   UNL A   1      40.307  19.822  26.152  1.00  0.00    -0.237 OA
ATOM     68  O   UNL A   1      42.420  18.967  25.213  1.00  0.00    -0.744 OA
ENDBRANCH  64  65
ENDBRANCH  43  57
BRANCH  44  69
ATOM     69  C   UNL A   1      47.048  32.970  28.416  1.00  0.00     0.058 A 
ATOM     70  C   UNL A   1      47.562  33.311  29.674  1.00  0.00     0.135 A 
ATOM     71  C   UNL A   1      47.055  33.957  27.417  1.00  0.00     0.135 A 
ATOM     72  F   UNL A   1      47.566  32.406  30.665  1.00  0.00    -0.206 F 
ATOM     73  C   UNL A   1      48.050  34.587  29.940  1.00  0.00     0.059 A 
ATOM     74  C   UNL A   1      47.565  35.231  27.651  1.00  0.00     0.059 A 
ATOM     75  F   UNL A   1      46.584  33.680  26.191  1.00  0.00    -0.206 F 
ATOM     76  C   UNL A   1      48.051  35.540  28.920  1.00  0.00     0.060 A 
BRANCH  76  77
ATOM     77  S   UNL A   1      48.730  37.177  29.264  1.00  0.00     0.124 S 
ATOM     78  O   UNL A   1      47.563  37.874  29.791  1.00  0.00    -0.237 OA
ATOM     79  O   UNL A   1      49.784  36.876  30.226  1.00  0.00    -0.237 OA
ATOM     80  O   UNL A   1      49.197  37.628  27.955  1.00  0.00    -0.744 OA
ENDBRANCH  76  77
ENDBRANCH  44  69
BRANCH  56  81
ATOM     81  C   UNL A   1      49.928  27.026  26.140  1.00  0.00     0.058 A 
ATOM     82  C   UNL A   1      50.860  26.444  27.012  1.00  0.00     0.135 A 
ATOM     83  C   UNL A   1      50.315  27.223  24.803  1.00  0.00     0.135 A 
ATOM     84  F   UNL A   1      50.544  26.238  28.300  1.00  0.00    -0.206 F 
ATOM     85  C   UNL A   1      52.135  26.090  26.581  1.00  0.00     0.059 A 
ATOM     86  C   UNL A   1      51.574  26.850  24.344  1.00  0.00     0.059 A 
ATOM     87  F   UNL A   1      49.458  27.767  23.924  1.00  0.00    -0.206 F 
ATOM     88  C   UNL A   1      52.482  26.296  25.245  1.00  0.00     0.060 A 
BRANCH  88  89
ATOM     89  S   UNL A   1      54.129  25.803  24.693  1.00  0.00     0.124 S 
ATOM     90  O   UNL A   1      54.111  24.368  24.956  1.00  0.00    -0.237 OA
ATOM     91  O   UNL A   1      54.116  26.190  23.285  1.00  0.00    -0.237 OA
ATOM     92  O   UNL A   1      55.021  26.587  25.544  1.00  0.00    -0.744 OA
ENDBRANCH  88  89
ENDBRANCH  56  81
ENDBRANCH  30  31
ENDBRANCH  23  25
ENDBRANCH  22  23
ENDBRANCH  21  22
ENDBRANCH  20  21
ENDBRANCH   1  20
TORSDOF 20
ENDMDL
