MODEL 1
REMARK VINA RESULT:     -12.2      0.000      0.000
REMARK SMILES Cc1ccc(Nc2c(F)cccc2Cl)c(CC(=O)OCCOCCOC(=O)c2ccc(-c3c4nc(c(-c5c(F)cc(S(=O)(=O)[O-])cc5F)c5ccc([nH]5)c(-c5c(F)cc(S(=O)(=O)[O-])cc5F)c5nc(c(-c6c(F)cc(S(=O)(=O)[O-])cc6F)c6ccc3[nH]6)C=C5)C=C4)cc2)c1
REMARK SMILES IDX 22 1 21 2 20 3 19 4 17 5 18 6 16 7 15 8 1 9 2 10 3 11 94 12
REMARK SMILES IDX 4 13 5 14 6 15 7 17 8 18 13 19 9 20 10 21 12 22 14 23 11 24
REMARK SMILES IDX 23 25 24 26 25 27 26 28 27 29 28 30 29 31 93 32 30 33 92 34
REMARK SMILES IDX 31 35 32 36 33 37 86 38 34 39 91 40 85 41 87 42 35 43 90 44
REMARK SMILES IDX 84 45 83 46 36 48 70 49 49 50 69 51 50 52 53 53 68 54 88 55
REMARK SMILES IDX 51 56 52 57 67 59 89 60 54 61 37 62 38 63 47 64 39 65 40 66
REMARK SMILES IDX 46 67 48 68 41 69 42 70 43 71 44 72 45 73 71 74 72 75 81 76
REMARK SMILES IDX 73 77 74 78 80 79 82 80 75 81 76 82 77 83 78 84 79 85 55 86
REMARK SMILES IDX 56 87 65 88 57 89 58 90 64 91 66 92 59 93 60 94 61 95 62 96
REMARK SMILES IDX 63 97
REMARK H PARENT 6 16 87 47 53 58
REMARK Flexibility Score: inf
ROOT
ATOM      1  O   UNL A   1      31.427  28.435  25.395  1.00  0.00    -0.374 OA
ENDROOT
BRANCH   1   2
ATOM      2  C   UNL A   1      31.725  27.633  26.518  1.00  0.00     0.202 C 
BRANCH   2   3
ATOM      3  C   UNL A   1      31.848  26.214  26.012  1.00  0.00     0.261 C 
BRANCH   3   4
ATOM      4  O   UNL A   1      31.326  25.255  26.914  1.00  0.00    -0.463 OA
BRANCH   4   5
ATOM      5  C   UNL A   1      31.746  23.954  26.797  1.00  0.00     0.310 C 
ATOM      6  O   UNL A   1      31.495  23.028  27.539  1.00  0.00    -0.252 OA
BRANCH   5   7
ATOM      7  C   UNL A   1      32.642  23.811  25.574  1.00  0.00     0.160 C 
BRANCH   7   8
ATOM      8  C   UNL A   1      33.859  22.973  25.925  1.00  0.00    -0.013 A 
ATOM      9  C   UNL A   1      37.564  23.931  25.793  1.00  0.00     0.044 C 
ATOM     10  C   UNL A   1      36.311  23.111  25.885  1.00  0.00    -0.051 A 
ATOM     11  C   UNL A   1      36.352  21.738  25.686  1.00  0.00     0.005 A 
ATOM     12  C   UNL A   1      35.069  23.712  26.072  1.00  0.00     0.009 A 
ATOM     13  C   UNL A   1      35.167  20.994  25.620  1.00  0.00     0.026 A 
ATOM     14  C   UNL A   1      33.890  21.580  25.708  1.00  0.00     0.042 A 
BRANCH  14  15
ATOM     15  N   UNL A   1      32.704  20.812  25.522  1.00  0.00    -0.352 N 
ATOM     16  H   UNL A   1      31.908  21.131  26.005  1.00  0.00     0.167 HD
BRANCH  15  17
ATOM     17  C   UNL A   1      32.518  19.644  24.729  1.00  0.00     0.094 A 
ATOM     18  C   UNL A   1      32.602  18.360  25.282  1.00  0.00     0.148 A 
ATOM     19  C   UNL A   1      32.439  19.709  23.324  1.00  0.00     0.067 A 
ATOM     20  F   UNL A   1      32.497  18.190  26.610  1.00  0.00    -0.205 F 
ATOM     21  C   UNL A   1      32.825  17.226  24.504  1.00  0.00     0.041 A 
ATOM     22  C   UNL A   1      32.721  18.587  22.531  1.00  0.00     0.023 A 
ATOM     23  Cl  UNL A   1      31.921  21.147  22.515  1.00  0.00    -0.082 Cl
ATOM     24  C   UNL A   1      32.954  17.350  23.127  1.00  0.00     0.005 A 
ENDBRANCH  15  17
ENDBRANCH  14  15
ENDBRANCH   7   8
ENDBRANCH   5   7
ENDBRANCH   4   5
ENDBRANCH   3   4
ENDBRANCH   2   3
ENDBRANCH   1   2
BRANCH   1  25
ATOM     25  C   UNL A   1      31.590  29.818  25.582  1.00  0.00     0.202 C 
BRANCH  25  26
ATOM     26  C   UNL A   1      32.399  30.049  26.849  1.00  0.00     0.261 C 
BRANCH  26  27
ATOM     27  O   UNL A   1      33.775  30.421  26.576  1.00  0.00    -0.460 OA
BRANCH  27  28
ATOM     28  C   UNL A   1      34.449  31.079  27.568  1.00  0.00     0.338 C 
ATOM     29  O   UNL A   1      34.052  32.117  28.073  1.00  0.00    -0.246 OA
BRANCH  28  30
ATOM     30  C   UNL A   1      35.580  30.282  28.111  1.00  0.00     0.060 A 
ATOM     31  C   UNL A   1      35.589  29.860  29.450  1.00  0.00     0.016 A 
ATOM     32  C   UNL A   1      36.709  30.114  27.315  1.00  0.00     0.016 A 
ATOM     33  C   UNL A   1      36.786  29.428  30.043  1.00  0.00     0.010 A 
ATOM     34  C   UNL A   1      37.903  29.789  27.926  1.00  0.00     0.010 A 
ATOM     35  C   UNL A   1      37.958  29.466  29.296  1.00  0.00    -0.014 A 
BRANCH  35  36
ATOM     36  C   UNL A   1      39.317  29.217  29.780  1.00  0.00     0.031 A 
ATOM     37  C   UNL A   1      39.963  27.944  29.388  1.00  0.00     0.074 A 
ATOM     38  C   UNL A   1      40.070  30.207  30.309  1.00  0.00     0.049 A 
ATOM     39  N   UNL A   1      41.178  27.645  29.670  1.00  0.00    -0.248 NA
ATOM     40  C   UNL A   1      39.280  26.869  28.665  1.00  0.00     0.031 C 
ATOM     41  C   UNL A   1      41.526  30.374  30.247  1.00  0.00     0.029 A 
ATOM     42  N   UNL A   1      39.691  31.316  31.029  1.00  0.00    -0.354 N 
ATOM     43  C   UNL A   1      41.539  26.571  28.901  1.00  0.00     0.074 A 
ATOM     44  C   UNL A   1      40.299  26.048  28.388  1.00  0.00     0.031 C 
ATOM     45  C   UNL A   1      41.907  31.355  31.085  1.00  0.00     0.029 A 
ATOM     46  C   UNL A   1      40.732  31.764  31.835  1.00  0.00     0.049 A 
ATOM     47  H   UNL A   1      38.802  31.735  30.980  1.00  0.00     0.167 HD
ATOM     48  C   UNL A   1      42.870  26.349  28.722  1.00  0.00     0.037 A 
ATOM     49  C   UNL A   1      40.577  31.733  33.193  1.00  0.00     0.037 A 
ATOM     50  C   UNL A   1      43.649  27.149  29.682  1.00  0.00     0.049 A 
ATOM     51  C   UNL A   1      41.396  30.593  33.786  1.00  0.00     0.074 A 
ATOM     52  C   UNL A   1      44.463  28.266  29.620  1.00  0.00     0.029 A 
ATOM     53  N   UNL A   1      43.378  26.963  31.030  1.00  0.00    -0.354 N 
ATOM     54  N   UNL A   1      42.140  29.809  33.051  1.00  0.00    -0.248 NA
ATOM     55  C   UNL A   1      41.462  30.218  35.197  1.00  0.00     0.031 C 
ATOM     56  C   UNL A   1      44.584  28.792  30.953  1.00  0.00     0.029 A 
ATOM     57  C   UNL A   1      43.884  27.971  31.824  1.00  0.00     0.049 A 
ATOM     58  H   UNL A   1      42.877  26.192  31.382  1.00  0.00     0.167 HD
ATOM     59  C   UNL A   1      42.750  28.861  33.802  1.00  0.00     0.074 A 
ATOM     60  C   UNL A   1      42.268  29.136  35.150  1.00  0.00     0.031 C 
ATOM     61  C   UNL A   1      43.599  27.938  33.260  1.00  0.00     0.037 A 
BRANCH  48  62
ATOM     62  C   UNL A   1      43.482  25.495  27.636  1.00  0.00     0.058 A 
ATOM     63  C   UNL A   1      43.558  24.097  27.808  1.00  0.00     0.135 A 
ATOM     64  C   UNL A   1      44.105  25.977  26.461  1.00  0.00     0.135 A 
ATOM     65  F   UNL A   1      43.025  23.503  28.886  1.00  0.00    -0.206 F 
ATOM     66  C   UNL A   1      44.204  23.250  26.902  1.00  0.00     0.059 A 
ATOM     67  C   UNL A   1      44.716  25.145  25.516  1.00  0.00     0.059 A 
ATOM     68  F   UNL A   1      44.209  27.284  26.192  1.00  0.00    -0.206 F 
ATOM     69  C   UNL A   1      44.780  23.783  25.755  1.00  0.00     0.060 A 
BRANCH  69  70
ATOM     70  S   UNL A   1      45.630  22.682  24.609  1.00  0.00     0.124 S 
ATOM     71  O   UNL A   1      44.524  22.180  23.798  1.00  0.00    -0.237 OA
ATOM     72  O   UNL A   1      46.552  23.589  23.934  1.00  0.00    -0.237 OA
ATOM     73  O   UNL A   1      46.258  21.695  25.483  1.00  0.00    -0.744 OA
ENDBRANCH  69  70
ENDBRANCH  48  62
BRANCH  49  74
ATOM     74  C   UNL A   1      39.202  32.226  33.553  1.00  0.00     0.058 A 
ATOM     75  C   UNL A   1      38.985  33.617  33.377  1.00  0.00     0.135 A 
ATOM     76  C   UNL A   1      38.073  31.396  33.445  1.00  0.00     0.135 A 
ATOM     77  F   UNL A   1      40.024  34.467  33.440  1.00  0.00    -0.206 F 
ATOM     78  C   UNL A   1      37.761  34.134  32.946  1.00  0.00     0.059 A 
ATOM     79  C   UNL A   1      36.832  31.901  33.018  1.00  0.00     0.059 A 
ATOM     80  F   UNL A   1      38.205  30.067  33.558  1.00  0.00    -0.206 F 
ATOM     81  C   UNL A   1      36.698  33.263  32.729  1.00  0.00     0.060 A 
BRANCH  81  82
ATOM     82  S   UNL A   1      35.208  33.906  31.904  1.00  0.00     0.124 S 
ATOM     83  O   UNL A   1      35.583  33.811  30.499  1.00  0.00    -0.237 OA
ATOM     84  O   UNL A   1      34.174  32.973  32.342  1.00  0.00    -0.237 OA
ATOM     85  O   UNL A   1      35.093  35.256  32.444  1.00  0.00    -0.744 OA
ENDBRANCH  81  82
ENDBRANCH  49  74
BRANCH  61  86
ATOM     86  C   UNL A   1      44.219  26.877  34.110  1.00  0.00     0.058 A 
ATOM     87  C   UNL A   1      43.520  25.713  34.457  1.00  0.00     0.135 A 
ATOM     88  C   UNL A   1      45.520  27.017  34.637  1.00  0.00     0.135 A 
ATOM     89  F   UNL A   1      42.241  25.541  34.085  1.00  0.00    -0.206 F 
ATOM     90  C   UNL A   1      44.122  24.687  35.176  1.00  0.00     0.059 A 
ATOM     91  C   UNL A   1      46.112  26.041  35.424  1.00  0.00     0.059 A 
ATOM     92  F   UNL A   1      46.288  28.080  34.359  1.00  0.00    -0.206 F 
ATOM     93  C   UNL A   1      45.424  24.858  35.641  1.00  0.00     0.060 A 
BRANCH  93  94
ATOM     94  S   UNL A   1      46.227  23.512  36.517  1.00  0.00     0.124 S 
ATOM     95  O   UNL A   1      45.288  22.409  36.330  1.00  0.00    -0.237 OA
ATOM     96  O   UNL A   1      47.483  23.404  35.783  1.00  0.00    -0.237 OA
ATOM     97  O   UNL A   1      46.334  24.013  37.883  1.00  0.00    -0.744 OA
ENDBRANCH  93  94
ENDBRANCH  61  86
ENDBRANCH  35  36
ENDBRANCH  28  30
ENDBRANCH  27  28
ENDBRANCH  26  27
ENDBRANCH  25  26
ENDBRANCH   1  25
TORSDOF 20
ENDMDL
MODEL 2
REMARK VINA RESULT:     -12.2      1.393      2.403
REMARK SMILES Cc1ccc(Nc2c(F)cccc2Cl)c(CC(=O)OCCOCCOC(=O)c2ccc(-c3c4nc(c(-c5c(F)cc(S(=O)(=O)[O-])cc5F)c5ccc([nH]5)c(-c5c(F)cc(S(=O)(=O)[O-])cc5F)c5nc(c(-c6c(F)cc(S(=O)(=O)[O-])cc6F)c6ccc3[nH]6)C=C5)C=C4)cc2)c1
REMARK SMILES IDX 22 1 21 2 20 3 19 4 17 5 18 6 16 7 15 8 1 9 2 10 3 11 94 12
REMARK SMILES IDX 4 13 5 14 6 15 7 17 8 18 13 19 9 20 10 21 12 22 14 23 11 24
REMARK SMILES IDX 23 25 24 26 25 27 26 28 27 29 28 30 29 31 93 32 30 33 92 34
REMARK SMILES IDX 31 35 32 36 33 37 86 38 34 39 91 40 85 41 87 42 35 43 90 44
REMARK SMILES IDX 84 45 83 46 36 48 70 49 49 50 69 51 50 52 53 53 68 54 88 55
REMARK SMILES IDX 51 56 52 57 67 59 89 60 54 61 37 62 38 63 47 64 39 65 40 66
REMARK SMILES IDX 46 67 48 68 41 69 42 70 43 71 44 72 45 73 71 74 72 75 81 76
REMARK SMILES IDX 73 77 74 78 80 79 82 80 75 81 76 82 77 83 78 84 79 85 55 86
REMARK SMILES IDX 56 87 65 88 57 89 58 90 64 91 66 92 59 93 60 94 61 95 62 96
REMARK SMILES IDX 63 97
REMARK H PARENT 6 16 87 47 53 58
REMARK Flexibility Score: inf
ROOT
ATOM      1  O   UNL A   1      33.845  27.332  25.190  1.00  0.00    -0.374 OA
ENDROOT
BRANCH   1   2
ATOM      2  C   UNL A   1      33.792  25.927  25.307  1.00  0.00     0.202 C 
BRANCH   2   3
ATOM      3  C   UNL A   1      34.262  25.369  23.982  1.00  0.00     0.261 C 
BRANCH   3   4
ATOM      4  O   UNL A   1      33.822  24.042  23.751  1.00  0.00    -0.463 OA
BRANCH   4   5
ATOM      5  C   UNL A   1      33.093  23.787  22.617  1.00  0.00     0.310 C 
ATOM      6  O   UNL A   1      33.287  24.221  21.502  1.00  0.00    -0.252 OA
BRANCH   5   7
ATOM      7  C   UNL A   1      31.926  22.868  22.952  1.00  0.00     0.160 C 
BRANCH   7   8
ATOM      8  C   UNL A   1      31.014  23.544  23.962  1.00  0.00    -0.013 A 
ATOM      9  C   UNL A   1      29.882  27.198  24.120  1.00  0.00     0.044 C 
ATOM     10  C   UNL A   1      30.145  25.774  24.511  1.00  0.00    -0.051 A 
ATOM     11  C   UNL A   1      30.095  25.390  25.844  1.00  0.00     0.005 A 
ATOM     12  C   UNL A   1      30.538  24.828  23.568  1.00  0.00     0.009 A 
ATOM     13  C   UNL A   1      30.488  24.101  26.227  1.00  0.00     0.026 A 
ATOM     14  C   UNL A   1      30.982  23.149  25.315  1.00  0.00     0.042 A 
BRANCH  14  15
ATOM     15  N   UNL A   1      31.481  21.889  25.753  1.00  0.00    -0.352 N 
ATOM     16  H   UNL A   1      30.799  21.216  25.985  1.00  0.00     0.167 HD
BRANCH  15  17
ATOM     17  C   UNL A   1      32.834  21.471  25.900  1.00  0.00     0.094 A 
ATOM     18  C   UNL A   1      33.738  22.179  26.703  1.00  0.00     0.148 A 
ATOM     19  C   UNL A   1      33.385  20.451  25.098  1.00  0.00     0.067 A 
ATOM     20  F   UNL A   1      33.286  23.038  27.630  1.00  0.00    -0.205 F 
ATOM     21  C   UNL A   1      35.118  22.052  26.562  1.00  0.00     0.041 A 
ATOM     22  C   UNL A   1      34.770  20.354  24.902  1.00  0.00     0.023 A 
ATOM     23  Cl  UNL A   1      32.391  19.233  24.380  1.00  0.00    -0.082 Cl
ATOM     24  C   UNL A   1      35.637  21.186  25.608  1.00  0.00     0.005 A 
ENDBRANCH  15  17
ENDBRANCH  14  15
ENDBRANCH   7   8
ENDBRANCH   5   7
ENDBRANCH   4   5
ENDBRANCH   3   4
ENDBRANCH   2   3
ENDBRANCH   1   2
BRANCH   1  25
ATOM     25  C   UNL A   1      33.156  28.046  26.186  1.00  0.00     0.202 C 
BRANCH  25  26
ATOM     26  C   UNL A   1      33.403  29.533  25.982  1.00  0.00     0.261 C 
BRANCH  26  27
ATOM     27  O   UNL A   1      33.406  30.277  27.228  1.00  0.00    -0.460 OA
BRANCH  27  28
ATOM     28  C   UNL A   1      34.519  31.024  27.502  1.00  0.00     0.338 C 
ATOM     29  O   UNL A   1      34.531  32.245  27.470  1.00  0.00    -0.246 OA
BRANCH  28  30
ATOM     30  C   UNL A   1      35.630  30.206  28.055  1.00  0.00     0.060 A 
ATOM     31  C   UNL A   1      35.618  29.781  29.393  1.00  0.00     0.016 A 
ATOM     32  C   UNL A   1      36.764  30.019  27.269  1.00  0.00     0.016 A 
ATOM     33  C   UNL A   1      36.801  29.327  29.997  1.00  0.00     0.010 A 
ATOM     34  C   UNL A   1      37.945  29.671  27.892  1.00  0.00     0.010 A 
ATOM     35  C   UNL A   1      37.981  29.345  29.262  1.00  0.00    -0.014 A 
BRANCH  35  36
ATOM     36  C   UNL A   1      39.330  29.071  29.759  1.00  0.00     0.031 A 
ATOM     37  C   UNL A   1      39.967  27.798  29.351  1.00  0.00     0.074 A 
ATOM     38  C   UNL A   1      40.088  30.041  30.318  1.00  0.00     0.049 A 
ATOM     39  N   UNL A   1      41.175  27.480  29.643  1.00  0.00    -0.248 NA
ATOM     40  C   UNL A   1      39.281  26.746  28.597  1.00  0.00     0.031 C 
ATOM     41  C   UNL A   1      41.546  30.192  30.278  1.00  0.00     0.029 A 
ATOM     42  N   UNL A   1      39.711  31.140  31.054  1.00  0.00    -0.354 N 
ATOM     43  C   UNL A   1      41.534  26.416  28.858  1.00  0.00     0.074 A 
ATOM     44  C   UNL A   1      40.295  25.918  28.318  1.00  0.00     0.031 C 
ATOM     45  C   UNL A   1      41.927  31.153  31.140  1.00  0.00     0.029 A 
ATOM     46  C   UNL A   1      40.747  31.560  31.882  1.00  0.00     0.049 A 
ATOM     47  H   UNL A   1      38.828  31.571  31.001  1.00  0.00     0.167 HD
ATOM     48  C   UNL A   1      42.864  26.182  28.693  1.00  0.00     0.037 A 
ATOM     49  C   UNL A   1      40.573  31.505  33.237  1.00  0.00     0.037 A 
ATOM     50  C   UNL A   1      43.640  26.954  29.678  1.00  0.00     0.049 A 
ATOM     51  C   UNL A   1      41.370  30.344  33.818  1.00  0.00     0.074 A 
ATOM     52  C   UNL A   1      44.467  28.063  29.649  1.00  0.00     0.029 A 
ATOM     53  N   UNL A   1      43.348  26.745  31.018  1.00  0.00    -0.354 N 
ATOM     54  N   UNL A   1      42.115  29.565  33.079  1.00  0.00    -0.248 NA
ATOM     55  C   UNL A   1      41.413  29.941  35.222  1.00  0.00     0.031 C 
ATOM     56  C   UNL A   1      44.576  28.561  30.994  1.00  0.00     0.029 A 
ATOM     57  C   UNL A   1      43.855  27.731  31.839  1.00  0.00     0.049 A 
ATOM     58  H   UNL A   1      42.833  25.973  31.349  1.00  0.00     0.167 HD
ATOM     59  C   UNL A   1      42.704  28.596  33.819  1.00  0.00     0.074 A 
ATOM     60  C   UNL A   1      42.207  28.851  35.165  1.00  0.00     0.031 C 
ATOM     61  C   UNL A   1      43.550  27.674  33.270  1.00  0.00     0.037 A 
BRANCH  48  62
ATOM     62  C   UNL A   1      43.481  25.342  27.598  1.00  0.00     0.058 A 
ATOM     63  C   UNL A   1      44.012  24.072  27.909  1.00  0.00     0.135 A 
ATOM     64  C   UNL A   1      43.684  25.752  26.259  1.00  0.00     0.135 A 
ATOM     65  F   UNL A   1      43.907  23.563  29.145  1.00  0.00    -0.206 F 
ATOM     66  C   UNL A   1      44.693  23.282  26.979  1.00  0.00     0.059 A 
ATOM     67  C   UNL A   1      44.321  24.958  25.299  1.00  0.00     0.059 A 
ATOM     68  F   UNL A   1      43.331  26.967  25.823  1.00  0.00    -0.206 F 
ATOM     69  C   UNL A   1      44.842  23.731  25.673  1.00  0.00     0.060 A 
BRANCH  69  70
ATOM     70  S   UNL A   1      45.744  22.712  24.492  1.00  0.00     0.124 S 
ATOM     71  O   UNL A   1      44.673  22.254  23.611  1.00  0.00    -0.237 OA
ATOM     72  O   UNL A   1      46.682  23.666  23.910  1.00  0.00    -0.237 OA
ATOM     73  O   UNL A   1      46.349  21.676  25.325  1.00  0.00    -0.744 OA
ENDBRANCH  69  70
ENDBRANCH  48  62
BRANCH  49  74
ATOM     74  C   UNL A   1      39.199  32.007  33.589  1.00  0.00     0.058 A 
ATOM     75  C   UNL A   1      38.971  33.387  33.348  1.00  0.00     0.135 A 
ATOM     76  C   UNL A   1      38.073  31.167  33.533  1.00  0.00     0.135 A 
ATOM     77  F   UNL A   1      40.005  34.244  33.358  1.00  0.00    -0.206 F 
ATOM     78  C   UNL A   1      37.740  33.875  32.907  1.00  0.00     0.059 A 
ATOM     79  C   UNL A   1      36.825  31.643  33.096  1.00  0.00     0.059 A 
ATOM     80  F   UNL A   1      38.215  29.845  33.709  1.00  0.00    -0.206 F 
ATOM     81  C   UNL A   1      36.679  32.989  32.743  1.00  0.00     0.060 A 
BRANCH  81  82
ATOM     82  S   UNL A   1      35.177  33.583  31.905  1.00  0.00     0.124 S 
ATOM     83  O   UNL A   1      34.817  34.734  32.724  1.00  0.00    -0.237 OA
ATOM     84  O   UNL A   1      35.663  33.895  30.564  1.00  0.00    -0.237 OA
ATOM     85  O   UNL A   1      34.282  32.436  31.989  1.00  0.00    -0.744 OA
ENDBRANCH  81  82
ENDBRANCH  49  74
BRANCH  61  86
ATOM     86  C   UNL A   1      44.146  26.589  34.108  1.00  0.00     0.058 A 
ATOM     87  C   UNL A   1      43.356  25.576  34.667  1.00  0.00     0.135 A 
ATOM     88  C   UNL A   1      45.524  26.559  34.408  1.00  0.00     0.135 A 
ATOM     89  F   UNL A   1      42.021  25.582  34.518  1.00  0.00    -0.206 F 
ATOM     90  C   UNL A   1      43.917  24.520  35.375  1.00  0.00     0.059 A 
ATOM     91  C   UNL A   1      46.094  25.559  35.180  1.00  0.00     0.059 A 
ATOM     92  F   UNL A   1      46.378  27.467  33.914  1.00  0.00    -0.206 F 
ATOM     93  C   UNL A   1      45.290  24.516  35.612  1.00  0.00     0.060 A 
BRANCH  93  94
ATOM     94  S   UNL A   1      46.028  23.123  36.473  1.00  0.00     0.124 S 
ATOM     95  O   UNL A   1      45.219  22.000  36.008  1.00  0.00    -0.237 OA
ATOM     96  O   UNL A   1      47.396  23.169  35.967  1.00  0.00    -0.237 OA
ATOM     97  O   UNL A   1      45.862  23.469  37.880  1.00  0.00    -0.744 OA
ENDBRANCH  93  94
ENDBRANCH  61  86
ENDBRANCH  35  36
ENDBRANCH  28  30
ENDBRANCH  27  28
ENDBRANCH  26  27
ENDBRANCH  25  26
ENDBRANCH   1  25
TORSDOF 20
ENDMDL
MODEL 3
REMARK VINA RESULT:     -11.7      4.010     10.489
REMARK SMILES Cc1ccc(Nc2c(F)cccc2Cl)c(CC(=O)OCCOCCOC(=O)c2ccc(-c3c4nc(c(-c5c(F)cc(S(=O)(=O)[O-])cc5F)c5ccc([nH]5)c(-c5c(F)cc(S(=O)(=O)[O-])cc5F)c5nc(c(-c6c(F)cc(S(=O)(=O)[O-])cc6F)c6ccc3[nH]6)C=C5)C=C4)cc2)c1
REMARK SMILES IDX 22 1 21 2 20 3 19 4 17 5 18 6 16 7 15 8 1 9 2 10 3 11 94 12
REMARK SMILES IDX 4 13 5 14 6 15 7 17 8 18 13 19 9 20 10 21 12 22 14 23 11 24
REMARK SMILES IDX 23 25 24 26 25 27 26 28 27 29 28 30 29 31 93 32 30 33 92 34
REMARK SMILES IDX 31 35 32 36 33 37 86 38 34 39 91 40 85 41 87 42 35 43 90 44
REMARK SMILES IDX 84 45 83 46 36 48 70 49 49 50 69 51 50 52 53 53 68 54 88 55
REMARK SMILES IDX 51 56 52 57 67 59 89 60 54 61 37 62 38 63 47 64 39 65 40 66
REMARK SMILES IDX 46 67 48 68 41 69 42 70 43 71 44 72 45 73 71 74 72 75 81 76
REMARK SMILES IDX 73 77 74 78 80 79 82 80 75 81 76 82 77 83 78 84 79 85 55 86
REMARK SMILES IDX 56 87 65 88 57 89 58 90 64 91 66 92 59 93 60 94 61 95 62 96
REMARK SMILES IDX 63 97
REMARK H PARENT 6 16 87 47 53 58
REMARK Flexibility Score: inf
ROOT
ATOM      1  O   UNL A   1      36.047  20.472  25.160  1.00  0.00    -0.374 OA
ENDROOT
BRANCH   1   2
ATOM      2  C   UNL A   1      34.813  21.069  24.825  1.00  0.00     0.202 C 
BRANCH   2   3
ATOM      3  C   UNL A   1      35.141  22.332  24.062  1.00  0.00     0.261 C 
BRANCH   3   4
ATOM      4  O   UNL A   1      33.995  23.102  23.742  1.00  0.00    -0.463 OA
BRANCH   4   5
ATOM      5  C   UNL A   1      34.095  24.469  23.787  1.00  0.00     0.310 C 
ATOM      6  O   UNL A   1      34.095  25.240  22.851  1.00  0.00    -0.252 OA
BRANCH   5   7
ATOM      7  C   UNL A   1      34.248  24.926  25.232  1.00  0.00     0.160 C 
BRANCH   7   8
ATOM      8  C   UNL A   1      32.879  25.195  25.833  1.00  0.00    -0.013 A 
ATOM      9  C   UNL A   1      30.145  22.700  26.812  1.00  0.00     0.044 C 
ATOM     10  C   UNL A   1      30.842  23.986  26.484  1.00  0.00    -0.051 A 
ATOM     11  C   UNL A   1      30.111  25.128  26.188  1.00  0.00     0.005 A 
ATOM     12  C   UNL A   1      32.229  24.046  26.371  1.00  0.00     0.009 A 
ATOM     13  C   UNL A   1      30.753  26.286  25.734  1.00  0.00     0.026 A 
ATOM     14  C   UNL A   1      32.143  26.355  25.515  1.00  0.00     0.042 A 
BRANCH  14  15
ATOM     15  N   UNL A   1      32.750  27.510  24.944  1.00  0.00    -0.352 N 
ATOM     16  H   UNL A   1      33.216  27.369  24.088  1.00  0.00     0.167 HD
BRANCH  15  17
ATOM     17  C   UNL A   1      32.772  28.842  25.446  1.00  0.00     0.094 A 
ATOM     18  C   UNL A   1      33.752  29.269  26.352  1.00  0.00     0.148 A 
ATOM     19  C   UNL A   1      31.708  29.736  25.218  1.00  0.00     0.067 A 
ATOM     20  F   UNL A   1      34.889  28.570  26.494  1.00  0.00    -0.205 F 
ATOM     21  C   UNL A   1      33.585  30.395  27.155  1.00  0.00     0.041 A 
ATOM     22  C   UNL A   1      31.497  30.839  26.058  1.00  0.00     0.023 A 
ATOM     23  Cl  UNL A   1      30.659  29.561  23.855  1.00  0.00    -0.082 Cl
ATOM     24  C   UNL A   1      32.420  31.145  27.056  1.00  0.00     0.005 A 
ENDBRANCH  15  17
ENDBRANCH  14  15
ENDBRANCH   7   8
ENDBRANCH   5   7
ENDBRANCH   4   5
ENDBRANCH   3   4
ENDBRANCH   2   3
ENDBRANCH   1   2
BRANCH   1  25
ATOM     25  C   UNL A   1      37.169  20.987  24.488  1.00  0.00     0.202 C 
BRANCH  25  26
ATOM     26  C   UNL A   1      38.316  21.117  25.478  1.00  0.00     0.261 C 
BRANCH  26  27
ATOM     27  O   UNL A   1      38.439  22.457  26.021  1.00  0.00    -0.460 OA
BRANCH  27  28
ATOM     28  C   UNL A   1      39.580  22.741  26.721  1.00  0.00     0.338 C 
ATOM     29  O   UNL A   1      40.434  21.907  26.976  1.00  0.00    -0.246 OA
BRANCH  28  30
ATOM     30  C   UNL A   1      39.768  24.200  26.932  1.00  0.00     0.060 A 
ATOM     31  C   UNL A   1      40.454  24.984  25.990  1.00  0.00     0.016 A 
ATOM     32  C   UNL A   1      39.403  24.740  28.162  1.00  0.00     0.016 A 
ATOM     33  C   UNL A   1      40.931  26.255  26.348  1.00  0.00     0.010 A 
ATOM     34  C   UNL A   1      39.960  25.943  28.543  1.00  0.00     0.010 A 
ATOM     35  C   UNL A   1      40.746  26.700  27.652  1.00  0.00    -0.014 A 
BRANCH  35  36
ATOM     36  C   UNL A   1      41.307  27.910  28.256  1.00  0.00     0.031 A 
ATOM     37  C   UNL A   1      40.372  29.009  28.587  1.00  0.00     0.074 A 
ATOM     38  C   UNL A   1      42.559  27.930  28.764  1.00  0.00     0.049 A 
ATOM     39  N   UNL A   1      40.721  30.082  29.199  1.00  0.00    -0.248 NA
ATOM     40  C   UNL A   1      38.953  29.012  28.225  1.00  0.00     0.031 C 
ATOM     41  C   UNL A   1      43.066  28.703  29.903  1.00  0.00     0.029 A 
ATOM     42  N   UNL A   1      43.682  27.239  28.372  1.00  0.00    -0.354 N 
ATOM     43  C   UNL A   1      39.583  30.718  29.618  1.00  0.00     0.074 A 
ATOM     44  C   UNL A   1      38.514  30.088  28.888  1.00  0.00     0.031 C 
ATOM     45  C   UNL A   1      44.408  28.619  29.947  1.00  0.00     0.029 A 
ATOM     46  C   UNL A   1      44.837  27.912  28.754  1.00  0.00     0.049 A 
ATOM     47  H   UNL A   1      43.669  26.383  27.886  1.00  0.00     0.167 HD
ATOM     48  C   UNL A   1      39.710  31.627  30.624  1.00  0.00     0.037 A 
ATOM     49  C   UNL A   1      45.679  28.381  27.784  1.00  0.00     0.037 A 
ATOM     50  C   UNL A   1      41.129  31.963  30.826  1.00  0.00     0.049 A 
ATOM     51  C   UNL A   1      45.546  29.894  27.664  1.00  0.00     0.074 A 
ATOM     52  C   UNL A   1      42.091  31.698  31.785  1.00  0.00     0.029 A 
ATOM     53  N   UNL A   1      41.825  32.459  29.732  1.00  0.00    -0.354 N 
ATOM     54  N   UNL A   1      44.743  30.590  28.425  1.00  0.00    -0.248 NA
ATOM     55  C   UNL A   1      46.256  30.752  26.718  1.00  0.00     0.031 C 
ATOM     56  C   UNL A   1      43.377  31.956  31.196  1.00  0.00     0.029 A 
ATOM     57  C   UNL A   1      43.193  32.418  29.902  1.00  0.00     0.049 A 
ATOM     58  H   UNL A   1      41.387  32.804  28.920  1.00  0.00     0.167 HD
ATOM     59  C   UNL A   1      44.784  31.907  28.113  1.00  0.00     0.074 A 
ATOM     60  C   UNL A   1      45.730  31.962  27.006  1.00  0.00     0.031 C 
ATOM     61  C   UNL A   1      44.047  32.838  28.789  1.00  0.00     0.037 A 
BRANCH  48  62
ATOM     62  C   UNL A   1      38.585  32.145  31.490  1.00  0.00     0.058 A 
ATOM     63  C   UNL A   1      37.715  33.134  30.983  1.00  0.00     0.135 A 
ATOM     64  C   UNL A   1      38.363  31.805  32.845  1.00  0.00     0.135 A 
ATOM     65  F   UNL A   1      37.821  33.566  29.718  1.00  0.00    -0.206 F 
ATOM     66  C   UNL A   1      36.720  33.742  31.754  1.00  0.00     0.059 A 
ATOM     67  C   UNL A   1      37.343  32.366  33.622  1.00  0.00     0.059 A 
ATOM     68  F   UNL A   1      39.158  30.957  33.508  1.00  0.00    -0.206 F 
ATOM     69  C   UNL A   1      36.538  33.350  33.075  1.00  0.00     0.060 A 
BRANCH  69  70
ATOM     70  S   UNL A   1      35.267  34.159  34.063  1.00  0.00     0.124 S 
ATOM     71  O   UNL A   1      35.682  33.822  35.422  1.00  0.00    -0.237 OA
ATOM     72  O   UNL A   1      35.420  35.559  33.680  1.00  0.00    -0.237 OA
ATOM     73  O   UNL A   1      34.029  33.525  33.616  1.00  0.00    -0.744 OA
ENDBRANCH  69  70
ENDBRANCH  48  62
BRANCH  49  74
ATOM     74  C   UNL A   1      45.845  27.336  26.714  1.00  0.00     0.058 A 
ATOM     75  C   UNL A   1      46.691  26.247  27.047  1.00  0.00     0.135 A 
ATOM     76  C   UNL A   1      44.830  27.079  25.776  1.00  0.00     0.135 A 
ATOM     77  F   UNL A   1      47.664  26.414  27.958  1.00  0.00    -0.206 F 
ATOM     78  C   UNL A   1      46.436  24.944  26.615  1.00  0.00     0.059 A 
ATOM     79  C   UNL A   1      44.565  25.773  25.326  1.00  0.00     0.059 A 
ATOM     80  F   UNL A   1      43.966  28.047  25.441  1.00  0.00    -0.206 F 
ATOM     81  C   UNL A   1      45.345  24.707  25.785  1.00  0.00     0.060 A 
BRANCH  81  82
ATOM     82  S   UNL A   1      44.862  22.982  25.461  1.00  0.00     0.124 S 
ATOM     83  O   UNL A   1      43.626  22.873  26.225  1.00  0.00    -0.237 OA
ATOM     84  O   UNL A   1      44.707  22.962  24.009  1.00  0.00    -0.237 OA
ATOM     85  O   UNL A   1      45.997  22.224  25.973  1.00  0.00    -0.744 OA
ENDBRANCH  81  82
ENDBRANCH  49  74
BRANCH  61  86
ATOM     86  C   UNL A   1      44.081  34.278  28.388  1.00  0.00     0.058 A 
ATOM     87  C   UNL A   1      43.604  34.703  27.142  1.00  0.00     0.135 A 
ATOM     88  C   UNL A   1      44.632  35.267  29.230  1.00  0.00     0.135 A 
ATOM     89  F   UNL A   1      43.155  33.818  26.237  1.00  0.00    -0.206 F 
ATOM     90  C   UNL A   1      43.555  36.049  26.800  1.00  0.00     0.059 A 
ATOM     91  C   UNL A   1      44.668  36.607  28.875  1.00  0.00     0.059 A 
ATOM     92  F   UNL A   1      45.103  34.979  30.451  1.00  0.00    -0.206 F 
ATOM     93  C   UNL A   1      44.078  36.993  27.682  1.00  0.00     0.060 A 
BRANCH  93  94
ATOM     94  S   UNL A   1      43.962  38.737  27.272  1.00  0.00     0.124 S 
ATOM     95  O   UNL A   1      44.016  39.375  28.584  1.00  0.00    -0.237 OA
ATOM     96  O   UNL A   1      45.144  38.911  26.435  1.00  0.00    -0.237 OA
ATOM     97  O   UNL A   1      42.680  38.838  26.583  1.00  0.00    -0.744 OA
ENDBRANCH  93  94
ENDBRANCH  61  86
ENDBRANCH  35  36
ENDBRANCH  28  30
ENDBRANCH  27  28
ENDBRANCH  26  27
ENDBRANCH  25  26
ENDBRANCH   1  25
TORSDOF 20
ENDMDL
