MODEL 1
REMARK VINA RESULT:     -10.1      0.000      0.000
REMARK SMILES C[NH2+][C@@]1(C(=O)OCCOCCOC(=O)c2ccc(-c3c4nc(c(-c5c(F)cc(S(=O)(=O)[O-])cc5F)c5ccc([nH]5)c(-c5c(F)cc(S(=O)(=O)[O-])cc5F)c5nc(c(-c6c(F)cc(S(=O)(=O)[O-])cc6F)c6ccc3[nH]6)C=C5)C=C4)cc2)CCC[C@H]([N@H+](C)C2CC[NH+](C)CC2)C1
REMARK SMILES IDX 10 1 9 2 8 3 7 4 6 5 4 6 5 7 3 8 81 9 94 10 82 11 84 12
REMARK SMILES IDX 83 13 2 14 1 15 85 18 86 19 87 21 88 22 93 23 89 24 92 25
REMARK SMILES IDX 90 26 91 27 11 29 12 30 13 31 14 32 15 33 16 34 80 35 17 36
REMARK SMILES IDX 79 37 18 38 19 39 20 40 73 41 21 42 78 43 72 44 74 45 22 46
REMARK SMILES IDX 77 47 71 48 70 49 23 51 57 52 36 53 56 54 37 55 40 56 55 57
REMARK SMILES IDX 75 58 38 59 39 60 54 62 76 63 41 64 24 65 25 66 34 67 26 68
REMARK SMILES IDX 27 69 33 70 35 71 28 72 29 73 30 74 31 75 32 76 58 77 59 78
REMARK SMILES IDX 68 79 60 80 61 81 67 82 69 83 62 84 63 85 64 86 65 87 66 88
REMARK SMILES IDX 42 89 43 90 52 91 44 92 45 93 51 94 53 95 46 96 47 97 48 98
REMARK SMILES IDX 49 99 50 100
REMARK H PARENT 2 16 2 17 85 20 90 28 74 50 40 61
REMARK Flexibility Score: inf
ROOT
ATOM      1  C   UNL A   1      31.839  29.673  25.660  1.00  0.00     0.202 C 
ENDROOT
BRANCH   1   2
ATOM      2  O   UNL A   1      31.794  28.823  24.516  1.00  0.00    -0.374 OA
BRANCH   2   3
ATOM      3  C   UNL A   1      32.929  28.907  23.647  1.00  0.00     0.202 C 
BRANCH   3   4
ATOM      4  C   UNL A   1      33.618  27.556  23.443  1.00  0.00     0.261 C 
BRANCH   4   5
ATOM      5  O   UNL A   1      33.184  26.645  24.468  1.00  0.00    -0.459 OA
BRANCH   5   6
ATOM      6  C   UNL A   1      32.830  25.403  24.047  1.00  0.00     0.368 C 
ATOM      7  O   UNL A   1      33.644  24.564  23.669  1.00  0.00    -0.245 OA
BRANCH   6   8
ATOM      8  C   UNL A   1      31.309  25.110  24.343  1.00  0.00     0.199 C 
ATOM      9  C   UNL A   1      31.021  25.518  25.805  1.00  0.00     0.081 C 
ATOM     10  C   UNL A   1      30.889  23.635  24.101  1.00  0.00     0.146 C 
ATOM     11  C   UNL A   1      31.544  24.510  26.820  1.00  0.00     0.013 C 
ATOM     12  C   UNL A   1      31.397  22.577  25.133  1.00  0.00     0.190 C 
ATOM     13  C   UNL A   1      31.043  23.100  26.531  1.00  0.00     0.065 C 
BRANCH   8  14
ATOM     14  N   UNL A   1      30.573  26.033  23.410  1.00  0.00    -0.334 N 
ATOM     15  C   UNL A   1      29.322  26.599  23.892  1.00  0.00     0.331 C 
ATOM     16  H   UNL A   1      31.197  26.809  23.190  1.00  0.00     0.347 HD
ATOM     17  H   UNL A   1      30.311  25.452  22.615  1.00  0.00     0.347 HD
ENDBRANCH   8  14
BRANCH  12  18
ATOM     18  N   UNL A   1      32.771  22.140  24.780  1.00  0.00    -0.332 N 
ATOM     19  C   UNL A   1      32.652  21.410  23.485  1.00  0.00     0.333 C 
ATOM     20  H   UNL A   1      33.317  23.001  24.781  1.00  0.00     0.348 HD
BRANCH  18  21
ATOM     21  C   UNL A   1      33.534  21.254  25.726  1.00  0.00     0.195 C 
ATOM     22  C   UNL A   1      34.050  21.858  27.048  1.00  0.00     0.126 C 
ATOM     23  C   UNL A   1      34.844  20.709  25.084  1.00  0.00     0.126 C 
ATOM     24  C   UNL A   1      35.094  22.951  26.822  1.00  0.00     0.268 C 
ATOM     25  C   UNL A   1      35.869  21.823  24.838  1.00  0.00     0.268 C 
ATOM     26  N   UNL A   1      36.267  22.435  26.107  1.00  0.00    -0.337 N 
ATOM     27  C   UNL A   1      37.243  23.506  25.916  1.00  0.00     0.332 C 
ATOM     28  H   UNL A   1      36.708  21.706  26.666  1.00  0.00     0.347 HD
ENDBRANCH  18  21
ENDBRANCH  12  18
ENDBRANCH   6   8
ENDBRANCH   5   6
ENDBRANCH   4   5
ENDBRANCH   3   4
ENDBRANCH   2   3
ENDBRANCH   1   2
BRANCH   1  29
ATOM     29  C   UNL A   1      33.256  30.028  26.118  1.00  0.00     0.261 C 
BRANCH  29  30
ATOM     30  O   UNL A   1      33.300  30.451  27.494  1.00  0.00    -0.460 OA
BRANCH  30  31
ATOM     31  C   UNL A   1      34.214  31.409  27.791  1.00  0.00     0.338 C 
ATOM     32  O   UNL A   1      34.028  32.616  27.792  1.00  0.00    -0.246 OA
BRANCH  31  33
ATOM     33  C   UNL A   1      35.483  30.785  28.239  1.00  0.00     0.060 A 
ATOM     34  C   UNL A   1      35.439  29.883  29.309  1.00  0.00     0.016 A 
ATOM     35  C   UNL A   1      36.710  31.090  27.641  1.00  0.00     0.016 A 
ATOM     36  C   UNL A   1      36.619  29.312  29.804  1.00  0.00     0.010 A 
ATOM     37  C   UNL A   1      37.885  30.492  28.117  1.00  0.00     0.010 A 
ATOM     38  C   UNL A   1      37.858  29.626  29.229  1.00  0.00    -0.014 A 
BRANCH  38  39
ATOM     39  C   UNL A   1      39.134  29.199  29.877  1.00  0.00     0.031 A 
ATOM     40  C   UNL A   1      39.602  29.945  31.102  1.00  0.00     0.074 A 
ATOM     41  C   UNL A   1      39.881  28.177  29.411  1.00  0.00     0.049 A 
ATOM     42  N   UNL A   1      40.687  29.776  31.813  1.00  0.00    -0.248 NA
ATOM     43  C   UNL A   1      38.733  31.031  31.584  1.00  0.00     0.031 C 
ATOM     44  C   UNL A   1      39.554  27.339  28.262  1.00  0.00     0.029 A 
ATOM     45  N   UNL A   1      41.090  27.678  29.842  1.00  0.00    -0.354 N 
ATOM     46  C   UNL A   1      40.623  30.724  32.828  1.00  0.00     0.074 A 
ATOM     47  C   UNL A   1      39.437  31.517  32.592  1.00  0.00     0.031 C 
ATOM     48  C   UNL A   1      40.554  26.468  28.043  1.00  0.00     0.029 A 
ATOM     49  C   UNL A   1      41.590  26.668  29.052  1.00  0.00     0.049 A 
ATOM     50  H   UNL A   1      41.554  28.014  30.642  1.00  0.00     0.167 HD
ATOM     51  C   UNL A   1      41.445  30.895  33.889  1.00  0.00     0.037 A 
ATOM     52  C   UNL A   1      42.746  25.975  29.131  1.00  0.00     0.037 A 
ATOM     53  C   UNL A   1      42.613  30.099  34.149  1.00  0.00     0.049 A 
ATOM     54  C   UNL A   1      43.684  26.224  30.284  1.00  0.00     0.074 A 
ATOM     55  C   UNL A   1      43.481  30.174  35.225  1.00  0.00     0.029 A 
ATOM     56  N   UNL A   1      43.082  29.088  33.326  1.00  0.00    -0.354 N 
ATOM     57  N   UNL A   1      43.568  27.077  31.273  1.00  0.00    -0.248 NA
ATOM     58  C   UNL A   1      44.896  25.393  30.351  1.00  0.00     0.031 C 
ATOM     59  C   UNL A   1      44.499  29.234  35.031  1.00  0.00     0.029 A 
ATOM     60  C   UNL A   1      44.238  28.543  33.859  1.00  0.00     0.049 A 
ATOM     61  H   UNL A   1      42.655  28.798  32.487  1.00  0.00     0.167 HD
ATOM     62  C   UNL A   1      44.663  26.853  32.101  1.00  0.00     0.074 A 
ATOM     63  C   UNL A   1      45.434  25.787  31.497  1.00  0.00     0.031 C 
ATOM     64  C   UNL A   1      44.992  27.468  33.264  1.00  0.00     0.037 A 
BRANCH  51  65
ATOM     65  C   UNL A   1      41.089  31.985  34.860  1.00  0.00     0.058 A 
ATOM     66  C   UNL A   1      41.609  33.282  34.726  1.00  0.00     0.135 A 
ATOM     67  C   UNL A   1      40.219  31.732  35.932  1.00  0.00     0.135 A 
ATOM     68  F   UNL A   1      42.462  33.571  33.728  1.00  0.00    -0.206 F 
ATOM     69  C   UNL A   1      41.312  34.283  35.643  1.00  0.00     0.059 A 
ATOM     70  C   UNL A   1      39.885  32.726  36.845  1.00  0.00     0.059 A 
ATOM     71  F   UNL A   1      39.698  30.508  36.105  1.00  0.00    -0.206 F 
ATOM     72  C   UNL A   1      40.451  33.993  36.703  1.00  0.00     0.060 A 
BRANCH  72  73
ATOM     73  S   UNL A   1      40.085  35.297  37.895  1.00  0.00     0.124 S 
ATOM     74  O   UNL A   1      41.311  35.319  38.686  1.00  0.00    -0.237 OA
ATOM     75  O   UNL A   1      39.867  36.456  37.033  1.00  0.00    -0.237 OA
ATOM     76  O   UNL A   1      38.900  34.802  38.587  1.00  0.00    -0.744 OA
ENDBRANCH  72  73
ENDBRANCH  51  65
BRANCH  52  77
ATOM     77  C   UNL A   1      43.076  24.947  28.105  1.00  0.00     0.058 A 
ATOM     78  C   UNL A   1      42.827  23.586  28.335  1.00  0.00     0.135 A 
ATOM     79  C   UNL A   1      43.676  25.304  26.887  1.00  0.00     0.135 A 
ATOM     80  F   UNL A   1      42.267  23.194  29.489  1.00  0.00    -0.206 F 
ATOM     81  C   UNL A   1      43.180  22.612  27.407  1.00  0.00     0.059 A 
ATOM     82  C   UNL A   1      44.019  24.348  25.932  1.00  0.00     0.059 A 
ATOM     83  F   UNL A   1      43.930  26.593  26.615  1.00  0.00    -0.206 F 
ATOM     84  C   UNL A   1      43.779  23.003  26.208  1.00  0.00     0.060 A 
BRANCH  84  85
ATOM     85  S   UNL A   1      44.215  21.730  25.002  1.00  0.00     0.124 S 
ATOM     86  O   UNL A   1      43.950  22.415  23.742  1.00  0.00    -0.237 OA
ATOM     87  O   UNL A   1      45.619  21.482  25.310  1.00  0.00    -0.237 OA
ATOM     88  O   UNL A   1      43.306  20.634  25.325  1.00  0.00    -0.744 OA
ENDBRANCH  84  85
ENDBRANCH  52  77
BRANCH  64  89
ATOM     89  C   UNL A   1      46.212  26.984  33.997  1.00  0.00     0.058 A 
ATOM     90  C   UNL A   1      47.458  27.616  33.864  1.00  0.00     0.135 A 
ATOM     91  C   UNL A   1      46.116  25.913  34.902  1.00  0.00     0.135 A 
ATOM     92  F   UNL A   1      47.606  28.641  33.010  1.00  0.00    -0.206 F 
ATOM     93  C   UNL A   1      48.568  27.196  34.591  1.00  0.00     0.059 A 
ATOM     94  C   UNL A   1      47.206  25.493  35.659  1.00  0.00     0.059 A 
ATOM     95  F   UNL A   1      44.945  25.279  35.077  1.00  0.00    -0.206 F 
ATOM     96  C   UNL A   1      48.431  26.136  35.489  1.00  0.00     0.060 A 
BRANCH  96  97
ATOM     97  S   UNL A   1      49.867  25.633  36.462  1.00  0.00     0.124 S 
ATOM     98  O   UNL A   1      49.241  24.879  37.543  1.00  0.00    -0.237 OA
ATOM     99  O   UNL A   1      50.635  24.846  35.502  1.00  0.00    -0.237 OA
ATOM    100  O   UNL A   1      50.475  26.901  36.851  1.00  0.00    -0.744 OA
ENDBRANCH  96  97
ENDBRANCH  64  89
ENDBRANCH  38  39
ENDBRANCH  31  33
ENDBRANCH  30  31
ENDBRANCH  29  30
ENDBRANCH   1  29
TORSDOF 20
ENDMDL
MODEL 2
REMARK VINA RESULT:      -9.9      3.073      9.361
REMARK SMILES C[NH2+][C@@]1(C(=O)OCCOCCOC(=O)c2ccc(-c3c4nc(c(-c5c(F)cc(S(=O)(=O)[O-])cc5F)c5ccc([nH]5)c(-c5c(F)cc(S(=O)(=O)[O-])cc5F)c5nc(c(-c6c(F)cc(S(=O)(=O)[O-])cc6F)c6ccc3[nH]6)C=C5)C=C4)cc2)CCC[C@H]([N@H+](C)C2CC[NH+](C)CC2)C1
REMARK SMILES IDX 10 1 9 2 8 3 7 4 6 5 4 6 5 7 3 8 81 9 94 10 82 11 84 12
REMARK SMILES IDX 83 13 2 14 1 15 85 18 86 19 87 21 88 22 93 23 89 24 92 25
REMARK SMILES IDX 90 26 91 27 11 29 12 30 13 31 14 32 15 33 16 34 80 35 17 36
REMARK SMILES IDX 79 37 18 38 19 39 20 40 73 41 21 42 78 43 72 44 74 45 22 46
REMARK SMILES IDX 77 47 71 48 70 49 23 51 57 52 36 53 56 54 37 55 40 56 55 57
REMARK SMILES IDX 75 58 38 59 39 60 54 62 76 63 41 64 24 65 25 66 34 67 26 68
REMARK SMILES IDX 27 69 33 70 35 71 28 72 29 73 30 74 31 75 32 76 58 77 59 78
REMARK SMILES IDX 68 79 60 80 61 81 67 82 69 83 62 84 63 85 64 86 65 87 66 88
REMARK SMILES IDX 42 89 43 90 52 91 44 92 45 93 51 94 53 95 46 96 47 97 48 98
REMARK SMILES IDX 49 99 50 100
REMARK H PARENT 2 16 2 17 85 20 90 28 74 50 40 61
REMARK Flexibility Score: inf
ROOT
ATOM      1  C   UNL A   1      38.887  22.866  26.192  1.00  0.00     0.202 C 
ENDROOT
BRANCH   1   2
ATOM      2  O   UNL A   1      37.955  21.796  26.051  1.00  0.00    -0.374 OA
BRANCH   2   3
ATOM      3  C   UNL A   1      37.634  21.440  24.702  1.00  0.00     0.202 C 
BRANCH   3   4
ATOM      4  C   UNL A   1      36.431  22.214  24.157  1.00  0.00     0.261 C 
BRANCH   4   5
ATOM      5  O   UNL A   1      35.324  22.064  25.062  1.00  0.00    -0.459 OA
BRANCH   5   6
ATOM      6  C   UNL A   1      34.237  22.837  24.804  1.00  0.00     0.368 C 
ATOM      7  O   UNL A   1      34.268  24.064  24.808  1.00  0.00    -0.245 OA
BRANCH   6   8
ATOM      8  C   UNL A   1      33.034  21.971  24.263  1.00  0.00     0.199 C 
ATOM      9  C   UNL A   1      32.851  22.293  22.763  1.00  0.00     0.081 C 
ATOM     10  C   UNL A   1      31.702  22.188  25.030  1.00  0.00     0.146 C 
ATOM     11  C   UNL A   1      32.162  23.630  22.521  1.00  0.00     0.013 C 
ATOM     12  C   UNL A   1      30.963  23.543  24.792  1.00  0.00     0.190 C 
ATOM     13  C   UNL A   1      30.842  23.734  23.275  1.00  0.00     0.065 C 
BRANCH   8  14
ATOM     14  N   UNL A   1      33.512  20.552  24.416  1.00  0.00    -0.334 N 
ATOM     15  C   UNL A   1      32.501  19.506  24.371  1.00  0.00     0.331 C 
ATOM     16  H   UNL A   1      34.177  20.368  23.665  1.00  0.00     0.347 HD
ATOM     17  H   UNL A   1      33.901  20.503  25.357  1.00  0.00     0.347 HD
ENDBRANCH   8  14
BRANCH  12  18
ATOM     18  N   UNL A   1      31.528  24.593  25.676  1.00  0.00    -0.332 N 
ATOM     19  C   UNL A   1      31.653  23.973  27.026  1.00  0.00     0.333 C 
ATOM     20  H   UNL A   1      32.390  24.876  25.211  1.00  0.00     0.348 HD
BRANCH  18  21
ATOM     21  C   UNL A   1      30.792  25.895  25.847  1.00  0.00     0.195 C 
ATOM     22  C   UNL A   1      30.436  26.710  24.588  1.00  0.00     0.126 C 
ATOM     23  C   UNL A   1      31.614  26.922  26.679  1.00  0.00     0.126 C 
ATOM     24  C   UNL A   1      31.675  27.211  23.846  1.00  0.00     0.268 C 
ATOM     25  C   UNL A   1      32.869  27.393  25.932  1.00  0.00     0.268 C 
ATOM     26  N   UNL A   1      32.495  28.082  24.696  1.00  0.00    -0.337 N 
ATOM     27  C   UNL A   1      33.664  28.545  23.951  1.00  0.00     0.332 C 
ATOM     28  H   UNL A   1      31.950  28.901  24.963  1.00  0.00     0.347 HD
ENDBRANCH  18  21
ENDBRANCH  12  18
ENDBRANCH   6   8
ENDBRANCH   5   6
ENDBRANCH   4   5
ENDBRANCH   3   4
ENDBRANCH   2   3
ENDBRANCH   1   2
BRANCH   1  29
ATOM     29  C   UNL A   1      40.306  22.415  26.550  1.00  0.00     0.261 C 
BRANCH  29  30
ATOM     30  O   UNL A   1      40.924  23.268  27.532  1.00  0.00    -0.460 OA
BRANCH  30  31
ATOM     31  C   UNL A   1      41.497  24.402  27.056  1.00  0.00     0.338 C 
ATOM     32  O   UNL A   1      42.114  24.521  26.009  1.00  0.00    -0.246 OA
BRANCH  31  33
ATOM     33  C   UNL A   1      41.177  25.548  27.942  1.00  0.00     0.060 A 
ATOM     34  C   UNL A   1      42.158  26.525  28.147  1.00  0.00     0.016 A 
ATOM     35  C   UNL A   1      39.941  25.663  28.586  1.00  0.00     0.016 A 
ATOM     36  C   UNL A   1      41.922  27.595  29.020  1.00  0.00     0.010 A 
ATOM     37  C   UNL A   1      39.695  26.753  29.433  1.00  0.00     0.010 A 
ATOM     38  C   UNL A   1      40.696  27.711  29.690  1.00  0.00    -0.014 A 
BRANCH  38  39
ATOM     39  C   UNL A   1      40.509  28.716  30.779  1.00  0.00     0.031 A 
ATOM     40  C   UNL A   1      41.330  28.574  32.037  1.00  0.00     0.074 A 
ATOM     41  C   UNL A   1      39.638  29.742  30.680  1.00  0.00     0.049 A 
ATOM     42  N   UNL A   1      41.319  29.303  33.123  1.00  0.00    -0.248 NA
ATOM     43  C   UNL A   1      42.286  27.455  32.076  1.00  0.00     0.031 C 
ATOM     44  C   UNL A   1      38.797  30.036  29.526  1.00  0.00     0.029 A 
ATOM     45  N   UNL A   1      39.302  30.724  31.585  1.00  0.00    -0.354 N 
ATOM     46  C   UNL A   1      42.269  28.738  33.965  1.00  0.00     0.074 A 
ATOM     47  C   UNL A   1      42.777  27.559  33.299  1.00  0.00     0.031 C 
ATOM     48  C   UNL A   1      38.005  31.086  29.803  1.00  0.00     0.029 A 
ATOM     49  C   UNL A   1      38.296  31.559  31.154  1.00  0.00     0.049 A 
ATOM     50  H   UNL A   1      39.740  30.820  32.462  1.00  0.00     0.167 HD
ATOM     51  C   UNL A   1      42.718  29.180  35.162  1.00  0.00     0.037 A 
ATOM     52  C   UNL A   1      37.680  32.591  31.768  1.00  0.00     0.037 A 
ATOM     53  C   UNL A   1      42.240  30.363  35.825  1.00  0.00     0.049 A 
ATOM     54  C   UNL A   1      38.149  33.030  33.132  1.00  0.00     0.074 A 
ATOM     55  C   UNL A   1      42.669  30.910  37.021  1.00  0.00     0.029 A 
ATOM     56  N   UNL A   1      41.223  31.178  35.352  1.00  0.00    -0.354 N 
ATOM     57  N   UNL A   1      39.099  32.524  33.880  1.00  0.00    -0.248 NA
ATOM     58  C   UNL A   1      37.482  34.201  33.722  1.00  0.00     0.031 C 
ATOM     59  C   UNL A   1      41.883  32.035  37.293  1.00  0.00     0.029 A 
ATOM     60  C   UNL A   1      40.997  32.214  36.244  1.00  0.00     0.049 A 
ATOM     61  H   UNL A   1      40.736  31.042  34.508  1.00  0.00     0.167 HD
ATOM     62  C   UNL A   1      39.175  33.341  35.004  1.00  0.00     0.074 A 
ATOM     63  C   UNL A   1      38.174  34.373  34.841  1.00  0.00     0.031 C 
ATOM     64  C   UNL A   1      40.011  33.250  36.068  1.00  0.00     0.037 A 
BRANCH  51  65
ATOM     65  C   UNL A   1      43.802  28.377  35.824  1.00  0.00     0.058 A 
ATOM     66  C   UNL A   1      45.159  28.672  35.618  1.00  0.00     0.135 A 
ATOM     67  C   UNL A   1      43.483  27.303  36.670  1.00  0.00     0.135 A 
ATOM     68  F   UNL A   1      45.518  29.676  34.802  1.00  0.00    -0.206 F 
ATOM     69  C   UNL A   1      46.165  27.908  36.198  1.00  0.00     0.059 A 
ATOM     70  C   UNL A   1      44.473  26.544  37.284  1.00  0.00     0.059 A 
ATOM     71  F   UNL A   1      42.201  26.979  36.896  1.00  0.00    -0.206 F 
ATOM     72  C   UNL A   1      45.811  26.842  37.027  1.00  0.00     0.060 A 
BRANCH  72  73
ATOM     73  S   UNL A   1      47.126  25.850  37.761  1.00  0.00     0.124 S 
ATOM     74  O   UNL A   1      46.583  24.502  37.623  1.00  0.00    -0.237 OA
ATOM     75  O   UNL A   1      48.268  26.163  36.907  1.00  0.00    -0.237 OA
ATOM     76  O   UNL A   1      47.211  26.355  39.127  1.00  0.00    -0.744 OA
ENDBRANCH  72  73
ENDBRANCH  51  65
BRANCH  52  77
ATOM     77  C   UNL A   1      36.570  33.314  31.089  1.00  0.00     0.058 A 
ATOM     78  C   UNL A   1      35.236  33.132  31.485  1.00  0.00     0.135 A 
ATOM     79  C   UNL A   1      36.818  34.180  30.012  1.00  0.00     0.135 A 
ATOM     80  F   UNL A   1      34.947  32.306  32.501  1.00  0.00    -0.206 F 
ATOM     81  C   UNL A   1      34.186  33.761  30.824  1.00  0.00     0.059 A 
ATOM     82  C   UNL A   1      35.785  34.838  29.348  1.00  0.00     0.059 A 
ATOM     83  F   UNL A   1      38.076  34.393  29.597  1.00  0.00    -0.206 F 
ATOM     84  C   UNL A   1      34.470  34.611  29.754  1.00  0.00     0.060 A 
BRANCH  84  85
ATOM     85  S   UNL A   1      33.099  35.438  28.916  1.00  0.00     0.124 S 
ATOM     86  O   UNL A   1      32.309  35.915  30.046  1.00  0.00    -0.237 OA
ATOM     87  O   UNL A   1      33.786  36.464  28.140  1.00  0.00    -0.237 OA
ATOM     88  O   UNL A   1      32.490  34.369  28.130  1.00  0.00    -0.744 OA
ENDBRANCH  84  85
ENDBRANCH  52  77
BRANCH  64  89
ATOM     89  C   UNL A   1      39.921  34.314  37.127  1.00  0.00     0.058 A 
ATOM     90  C   UNL A   1      40.553  35.559  36.984  1.00  0.00     0.135 A 
ATOM     91  C   UNL A   1      39.131  34.109  38.271  1.00  0.00     0.135 A 
ATOM     92  F   UNL A   1      41.323  35.805  35.912  1.00  0.00    -0.206 F 
ATOM     93  C   UNL A   1      40.417  36.558  37.943  1.00  0.00     0.059 A 
ATOM     94  C   UNL A   1      38.960  35.103  39.230  1.00  0.00     0.059 A 
ATOM     95  F   UNL A   1      38.495  32.941  38.454  1.00  0.00    -0.206 F 
ATOM     96  C   UNL A   1      39.615  36.323  39.061  1.00  0.00     0.060 A 
BRANCH  96  97
ATOM     97  S   UNL A   1      39.407  37.644  40.274  1.00  0.00     0.124 S 
ATOM     98  O   UNL A   1      38.493  38.542  39.577  1.00  0.00    -0.237 OA
ATOM     99  O   UNL A   1      38.848  36.933  41.420  1.00  0.00    -0.237 OA
ATOM    100  O   UNL A   1      40.763  38.150  40.461  1.00  0.00    -0.744 OA
ENDBRANCH  96  97
ENDBRANCH  64  89
ENDBRANCH  38  39
ENDBRANCH  31  33
ENDBRANCH  30  31
ENDBRANCH  29  30
ENDBRANCH   1  29
TORSDOF 20
ENDMDL
MODEL 3
REMARK VINA RESULT:      -9.6      1.109      2.872
REMARK SMILES C[NH2+][C@@]1(C(=O)OCCOCCOC(=O)c2ccc(-c3c4nc(c(-c5c(F)cc(S(=O)(=O)[O-])cc5F)c5ccc([nH]5)c(-c5c(F)cc(S(=O)(=O)[O-])cc5F)c5nc(c(-c6c(F)cc(S(=O)(=O)[O-])cc6F)c6ccc3[nH]6)C=C5)C=C4)cc2)CCC[C@H]([N@H+](C)C2CC[NH+](C)CC2)C1
REMARK SMILES IDX 10 1 9 2 8 3 7 4 6 5 4 6 5 7 3 8 81 9 94 10 82 11 84 12
REMARK SMILES IDX 83 13 2 14 1 15 85 18 86 19 87 21 88 22 93 23 89 24 92 25
REMARK SMILES IDX 90 26 91 27 11 29 12 30 13 31 14 32 15 33 16 34 80 35 17 36
REMARK SMILES IDX 79 37 18 38 19 39 20 40 73 41 21 42 78 43 72 44 74 45 22 46
REMARK SMILES IDX 77 47 71 48 70 49 23 51 57 52 36 53 56 54 37 55 40 56 55 57
REMARK SMILES IDX 75 58 38 59 39 60 54 62 76 63 41 64 24 65 25 66 34 67 26 68
REMARK SMILES IDX 27 69 33 70 35 71 28 72 29 73 30 74 31 75 32 76 58 77 59 78
REMARK SMILES IDX 68 79 60 80 61 81 67 82 69 83 62 84 63 85 64 86 65 87 66 88
REMARK SMILES IDX 42 89 43 90 52 91 44 92 45 93 51 94 53 95 46 96 47 97 48 98
REMARK SMILES IDX 49 99 50 100
REMARK H PARENT 2 16 2 17 85 20 90 28 74 50 40 61
REMARK Flexibility Score: inf
ROOT
ATOM      1  C   UNL A   1      31.612  30.063  26.574  1.00  0.00     0.202 C 
ENDROOT
BRANCH   1   2
ATOM      2  O   UNL A   1      31.993  28.886  27.284  1.00  0.00    -0.374 OA
BRANCH   2   3
ATOM      3  C   UNL A   1      31.762  27.654  26.592  1.00  0.00     0.202 C 
BRANCH   3   4
ATOM      4  C   UNL A   1      33.055  26.891  26.295  1.00  0.00     0.261 C 
BRANCH   4   5
ATOM      5  O   UNL A   1      32.817  25.481  26.450  1.00  0.00    -0.459 OA
BRANCH   5   6
ATOM      6  C   UNL A   1      33.687  24.659  25.807  1.00  0.00     0.368 C 
ATOM      7  O   UNL A   1      34.854  24.963  25.576  1.00  0.00    -0.245 OA
BRANCH   6   8
ATOM      8  C   UNL A   1      33.085  23.211  25.635  1.00  0.00     0.199 C 
ATOM      9  C   UNL A   1      33.981  22.437  24.643  1.00  0.00     0.081 C 
ATOM     10  C   UNL A   1      31.607  23.192  25.158  1.00  0.00     0.146 C 
ATOM     11  C   UNL A   1      33.752  22.841  23.192  1.00  0.00     0.013 C 
ATOM     12  C   UNL A   1      31.340  23.587  23.671  1.00  0.00     0.190 C 
ATOM     13  C   UNL A   1      32.282  22.747  22.801  1.00  0.00     0.065 C 
BRANCH   8  14
ATOM     14  N   UNL A   1      33.210  22.601  27.005  1.00  0.00    -0.334 N 
ATOM     15  C   UNL A   1      33.978  21.369  27.112  1.00  0.00     0.331 C 
ATOM     16  H   UNL A   1      33.653  23.292  27.611  1.00  0.00     0.347 HD
ATOM     17  H   UNL A   1      32.260  22.343  27.269  1.00  0.00     0.347 HD
ENDBRANCH   8  14
BRANCH  12  18
ATOM     18  N   UNL A   1      31.258  25.064  23.544  1.00  0.00    -0.332 N 
ATOM     19  C   UNL A   1      30.004  25.470  24.242  1.00  0.00     0.333 C 
ATOM     20  H   UNL A   1      32.138  25.399  23.934  1.00  0.00     0.348 HD
BRANCH  18  21
ATOM     21  C   UNL A   1      31.233  25.691  22.176  1.00  0.00     0.195 C 
ATOM     22  C   UNL A   1      32.544  25.747  21.367  1.00  0.00     0.126 C 
ATOM     23  C   UNL A   1      30.820  27.192  22.233  1.00  0.00     0.126 C 
ATOM     24  C   UNL A   1      33.604  26.624  22.032  1.00  0.00     0.268 C 
ATOM     25  C   UNL A   1      31.881  28.053  22.929  1.00  0.00     0.268 C 
ATOM     26  N   UNL A   1      33.140  28.009  22.182  1.00  0.00    -0.337 N 
ATOM     27  C   UNL A   1      34.181  28.816  22.814  1.00  0.00     0.332 C 
ATOM     28  H   UNL A   1      32.955  28.403  21.260  1.00  0.00     0.347 HD
ENDBRANCH  18  21
ENDBRANCH  12  18
ENDBRANCH   6   8
ENDBRANCH   5   6
ENDBRANCH   4   5
ENDBRANCH   3   4
ENDBRANCH   2   3
ENDBRANCH   1   2
BRANCH   1  29
ATOM     29  C   UNL A   1      32.508  31.274  26.848  1.00  0.00     0.261 C 
BRANCH  29  30
ATOM     30  O   UNL A   1      33.864  30.897  27.158  1.00  0.00    -0.460 OA
BRANCH  30  31
ATOM     31  C   UNL A   1      34.617  31.843  27.773  1.00  0.00     0.338 C 
ATOM     32  O   UNL A   1      34.288  32.994  28.009  1.00  0.00    -0.246 OA
BRANCH  31  33
ATOM     33  C   UNL A   1      35.896  31.254  28.241  1.00  0.00     0.060 A 
ATOM     34  C   UNL A   1      35.900  29.917  28.656  1.00  0.00     0.016 A 
ATOM     35  C   UNL A   1      37.078  32.000  28.298  1.00  0.00     0.016 A 
ATOM     36  C   UNL A   1      37.071  29.335  29.160  1.00  0.00     0.010 A 
ATOM     37  C   UNL A   1      38.256  31.405  28.771  1.00  0.00     0.010 A 
ATOM     38  C   UNL A   1      38.257  30.077  29.244  1.00  0.00    -0.014 A 
BRANCH  38  39
ATOM     39  C   UNL A   1      39.446  29.543  29.972  1.00  0.00     0.031 A 
ATOM     40  C   UNL A   1      39.859  30.211  31.261  1.00  0.00     0.074 A 
ATOM     41  C   UNL A   1      40.162  28.491  29.525  1.00  0.00     0.049 A 
ATOM     42  N   UNL A   1      40.869  29.945  32.048  1.00  0.00    -0.248 NA
ATOM     43  C   UNL A   1      39.023  31.334  31.717  1.00  0.00     0.031 C 
ATOM     44  C   UNL A   1      39.878  27.719  28.320  1.00  0.00     0.029 A 
ATOM     45  N   UNL A   1      41.298  27.897  30.030  1.00  0.00    -0.354 N 
ATOM     46  C   UNL A   1      40.782  30.857  33.093  1.00  0.00     0.074 A 
ATOM     47  C   UNL A   1      39.672  31.735  32.797  1.00  0.00     0.031 C 
ATOM     48  C   UNL A   1      40.835  26.792  28.145  1.00  0.00     0.029 A 
ATOM     49  C   UNL A   1      41.796  26.886  29.240  1.00  0.00     0.049 A 
ATOM     50  H   UNL A   1      41.715  28.173  30.877  1.00  0.00     0.167 HD
ATOM     51  C   UNL A   1      41.523  30.934  34.222  1.00  0.00     0.037 A 
ATOM     52  C   UNL A   1      42.895  26.115  29.382  1.00  0.00     0.037 A 
ATOM     53  C   UNL A   1      42.613  30.053  34.541  1.00  0.00     0.049 A 
ATOM     54  C   UNL A   1      43.749  26.259  30.615  1.00  0.00     0.074 A 
ATOM     55  C   UNL A   1      43.393  30.031  35.685  1.00  0.00     0.029 A 
ATOM     56  N   UNL A   1      43.083  29.044  33.716  1.00  0.00    -0.354 N 
ATOM     57  N   UNL A   1      43.607  27.081  31.626  1.00  0.00    -0.248 NA
ATOM     58  C   UNL A   1      44.897  25.347  30.743  1.00  0.00     0.031 C 
ATOM     59  C   UNL A   1      44.362  29.033  35.533  1.00  0.00     0.029 A 
ATOM     60  C   UNL A   1      44.155  28.404  34.317  1.00  0.00     0.049 A 
ATOM     61  H   UNL A   1      42.709  28.813  32.835  1.00  0.00     0.167 HD
ATOM     62  C   UNL A   1      44.615  26.754  32.529  1.00  0.00     0.074 A 
ATOM     63  C   UNL A   1      45.363  25.662  31.944  1.00  0.00     0.031 C 
ATOM     64  C   UNL A   1      44.885  27.304  33.739  1.00  0.00     0.037 A 
BRANCH  51  65
ATOM     65  C   UNL A   1      41.158  32.009  35.207  1.00  0.00     0.058 A 
ATOM     66  C   UNL A   1      41.826  33.245  35.221  1.00  0.00     0.135 A 
ATOM     67  C   UNL A   1      40.133  31.805  36.143  1.00  0.00     0.135 A 
ATOM     68  F   UNL A   1      42.828  33.483  34.359  1.00  0.00    -0.206 F 
ATOM     69  C   UNL A   1      41.517  34.227  36.154  1.00  0.00     0.059 A 
ATOM     70  C   UNL A   1      39.787  32.785  37.066  1.00  0.00     0.059 A 
ATOM     71  F   UNL A   1      39.467  30.640  36.172  1.00  0.00    -0.206 F 
ATOM     72  C   UNL A   1      40.498  33.985  37.076  1.00  0.00     0.060 A 
BRANCH  72  73
ATOM     73  S   UNL A   1      40.116  35.264  38.291  1.00  0.00     0.124 S 
ATOM     74  O   UNL A   1      41.380  35.361  39.014  1.00  0.00    -0.237 OA
ATOM     75  O   UNL A   1      39.780  36.406  37.447  1.00  0.00    -0.237 OA
ATOM     76  O   UNL A   1      39.004  34.695  39.045  1.00  0.00    -0.744 OA
ENDBRANCH  72  73
ENDBRANCH  51  65
BRANCH  52  77
ATOM     77  C   UNL A   1      43.243  25.106  28.344  1.00  0.00     0.058 A 
ATOM     78  C   UNL A   1      44.015  25.451  27.225  1.00  0.00     0.135 A 
ATOM     79  C   UNL A   1      42.784  23.781  28.436  1.00  0.00     0.135 A 
ATOM     80  F   UNL A   1      44.465  26.707  27.085  1.00  0.00    -0.206 F 
ATOM     81  C   UNL A   1      44.301  24.530  26.222  1.00  0.00     0.059 A 
ATOM     82  C   UNL A   1      43.076  22.836  27.456  1.00  0.00     0.059 A 
ATOM     83  F   UNL A   1      42.047  23.397  29.490  1.00  0.00    -0.206 F 
ATOM     84  C   UNL A   1      43.824  23.223  26.345  1.00  0.00     0.060 A 
BRANCH  84  85
ATOM     85  S   UNL A   1      44.220  22.031  25.047  1.00  0.00     0.124 S 
ATOM     86  O   UNL A   1      45.660  21.876  25.219  1.00  0.00    -0.237 OA
ATOM     87  O   UNL A   1      43.405  20.882  25.425  1.00  0.00    -0.237 OA
ATOM     88  O   UNL A   1      43.803  22.713  23.825  1.00  0.00    -0.744 OA
ENDBRANCH  84  85
ENDBRANCH  52  77
BRANCH  64  89
ATOM     89  C   UNL A   1      46.008  26.713  34.546  1.00  0.00     0.058 A 
ATOM     90  C   UNL A   1      45.805  25.637  35.423  1.00  0.00     0.135 A 
ATOM     91  C   UNL A   1      47.322  27.184  34.383  1.00  0.00     0.135 A 
ATOM     92  F   UNL A   1      44.568  25.150  35.618  1.00  0.00    -0.206 F 
ATOM     93  C   UNL A   1      46.860  25.059  36.123  1.00  0.00     0.059 A 
ATOM     94  C   UNL A   1      48.396  26.605  35.052  1.00  0.00     0.059 A 
ATOM     95  F   UNL A   1      47.576  28.205  33.547  1.00  0.00    -0.206 F 
ATOM     96  C   UNL A   1      48.153  25.547  35.927  1.00  0.00     0.060 A 
BRANCH  96  97
ATOM     97  S   UNL A   1      49.520  24.756  36.802  1.00  0.00     0.124 S 
ATOM     98  O   UNL A   1      48.911  23.501  37.228  1.00  0.00    -0.237 OA
ATOM     99  O   UNL A   1      50.538  24.647  35.761  1.00  0.00    -0.237 OA
ATOM    100  O   UNL A   1      49.829  25.699  37.873  1.00  0.00    -0.744 OA
ENDBRANCH  96  97
ENDBRANCH  64  89
ENDBRANCH  38  39
ENDBRANCH  31  33
ENDBRANCH  30  31
ENDBRANCH  29  30
ENDBRANCH   1  29
TORSDOF 20
ENDMDL
