MODEL 1
REMARK VINA RESULT:     -11.1      0.000      0.000
REMARK SMILES O=C(OCCOCCOC(=O)[C@@H]1CCCC[C@H]1C(=O)Nc1ccc(NC(=O)c2ccco2)cc1)c1ccc(-c2c3nc(c(-c4c(F)cc(S(=O)(=O)[O-])cc4F)c4ccc([nH]4)c(-c4c(F)cc(S(=O)(=O)[O-])cc4F)c4nc(c(-c5c(F)cc(S(=O)(=O)[O-])cc5F)c5ccc2[nH]5)C=C4)C=C3)cc1
REMARK SMILES IDX 7 1 6 2 5 3 4 4 3 5 2 6 1 7 35 8 36 9 100 10 37 11 99 12
REMARK SMILES IDX 38 13 39 14 40 15 93 16 41 17 98 18 92 19 94 20 42 21 97 22
REMARK SMILES IDX 91 23 90 24 43 26 77 27 56 28 76 29 57 30 60 31 75 32 95 33
REMARK SMILES IDX 58 34 59 35 74 37 96 38 61 39 44 40 45 41 54 42 46 43 47 44
REMARK SMILES IDX 53 45 55 46 48 47 49 48 50 49 51 50 52 51 78 52 79 53 88 54
REMARK SMILES IDX 80 55 81 56 87 57 89 58 82 59 83 60 84 61 85 62 86 63 62 64
REMARK SMILES IDX 63 65 72 66 64 67 65 68 71 69 73 70 66 71 67 72 68 73 69 74
REMARK SMILES IDX 70 75 8 76 9 77 10 78 11 79 12 80 13 81 17 82 14 83 16 84
REMARK SMILES IDX 15 85 18 86 19 87 20 88 21 90 22 91 34 92 23 93 33 94 24 95
REMARK SMILES IDX 25 96 26 97 27 99 28 100 29 101 32 102 30 103 31 104
REMARK H PARENT 94 25 60 36 20 89 25 98
REMARK Flexibility Score: inf
ROOT
ATOM      1  C   UNL A   1      33.728  19.798  25.357  1.00  0.00     0.202 C 
ENDROOT
BRANCH   1   2
ATOM      2  O   UNL A   1      34.978  19.825  24.663  1.00  0.00    -0.374 OA
BRANCH   2   3
ATOM      3  C   UNL A   1      35.747  21.011  24.856  1.00  0.00     0.202 C 
BRANCH   3   4
ATOM      4  C   UNL A   1      37.260  20.831  25.066  1.00  0.00     0.261 C 
BRANCH   4   5
ATOM      5  O   UNL A   1      37.838  21.959  25.748  1.00  0.00    -0.460 OA
BRANCH   5   6
ATOM      6  C   UNL A   1      39.091  22.072  26.250  1.00  0.00     0.338 C 
ATOM      7  O   UNL A   1      39.849  21.106  26.196  1.00  0.00    -0.246 OA
BRANCH   6   8
ATOM      8  C   UNL A   1      39.605  23.343  26.835  1.00  0.00     0.060 A 
ATOM      9  C   UNL A   1      39.191  24.610  26.431  1.00  0.00     0.016 A 
ATOM     10  C   UNL A   1      40.527  23.255  27.888  1.00  0.00     0.016 A 
ATOM     11  C   UNL A   1      39.730  25.759  26.960  1.00  0.00     0.010 A 
ATOM     12  C   UNL A   1      41.048  24.414  28.472  1.00  0.00     0.010 A 
ATOM     13  C   UNL A   1      40.659  25.664  27.983  1.00  0.00    -0.014 A 
BRANCH  13  14
ATOM     14  C   UNL A   1      41.281  26.924  28.391  1.00  0.00     0.031 A 
ATOM     15  C   UNL A   1      42.725  27.120  28.068  1.00  0.00     0.074 A 
ATOM     16  C   UNL A   1      40.492  27.925  28.818  1.00  0.00     0.049 A 
ATOM     17  N   UNL A   1      43.505  28.117  28.367  1.00  0.00    -0.248 NA
ATOM     18  C   UNL A   1      43.375  26.055  27.282  1.00  0.00     0.031 C 
ATOM     19  C   UNL A   1      39.032  27.845  28.953  1.00  0.00     0.029 A 
ATOM     20  N   UNL A   1      40.788  29.212  29.161  1.00  0.00    -0.354 N 
ATOM     21  C   UNL A   1      44.751  27.776  27.860  1.00  0.00     0.074 A 
ATOM     22  C   UNL A   1      44.619  26.499  27.199  1.00  0.00     0.031 C 
ATOM     23  C   UNL A   1      38.560  29.045  29.322  1.00  0.00     0.029 A 
ATOM     24  C   UNL A   1      39.688  29.942  29.540  1.00  0.00     0.049 A 
ATOM     25  H   UNL A   1      41.701  29.580  29.139  1.00  0.00     0.167 HD
ATOM     26  C   UNL A   1      45.904  28.470  27.982  1.00  0.00     0.037 A 
ATOM     27  C   UNL A   1      39.622  31.181  30.056  1.00  0.00     0.037 A 
ATOM     28  C   UNL A   1      45.969  29.735  28.657  1.00  0.00     0.049 A 
ATOM     29  C   UNL A   1      40.923  31.908  30.256  1.00  0.00     0.074 A 
ATOM     30  C   UNL A   1      47.073  30.496  28.985  1.00  0.00     0.029 A 
ATOM     31  N   UNL A   1      44.849  30.430  29.108  1.00  0.00    -0.354 N 
ATOM     32  N   UNL A   1      42.134  31.518  29.927  1.00  0.00    -0.248 NA
ATOM     33  C   UNL A   1      40.864  33.211  30.922  1.00  0.00     0.031 C 
ATOM     34  C   UNL A   1      46.621  31.639  29.657  1.00  0.00     0.029 A 
ATOM     35  C   UNL A   1      45.234  31.610  29.715  1.00  0.00     0.049 A 
ATOM     36  H   UNL A   1      43.919  30.125  29.008  1.00  0.00     0.167 HD
ATOM     37  C   UNL A   1      42.989  32.524  30.352  1.00  0.00     0.074 A 
ATOM     38  C   UNL A   1      42.147  33.552  30.942  1.00  0.00     0.031 C 
ATOM     39  C   UNL A   1      44.341  32.595  30.278  1.00  0.00     0.037 A 
BRANCH  26  40
ATOM     40  C   UNL A   1      47.150  27.796  27.486  1.00  0.00     0.058 A 
ATOM     41  C   UNL A   1      47.947  26.989  28.314  1.00  0.00     0.135 A 
ATOM     42  C   UNL A   1      47.607  28.053  26.184  1.00  0.00     0.135 A 
ATOM     43  F   UNL A   1      47.577  26.747  29.581  1.00  0.00    -0.206 F 
ATOM     44  C   UNL A   1      49.174  26.494  27.880  1.00  0.00     0.059 A 
ATOM     45  C   UNL A   1      48.821  27.553  25.724  1.00  0.00     0.059 A 
ATOM     46  F   UNL A   1      46.894  28.835  25.359  1.00  0.00    -0.206 F 
ATOM     47  C   UNL A   1      49.610  26.796  26.588  1.00  0.00     0.060 A 
BRANCH  47  48
ATOM     48  S   UNL A   1      51.236  26.214  26.057  1.00  0.00     0.124 S 
ATOM     49  O   UNL A   1      51.226  24.840  26.548  1.00  0.00    -0.237 OA
ATOM     50  O   UNL A   1      51.169  26.368  24.607  1.00  0.00    -0.237 OA
ATOM     51  O   UNL A   1      52.157  27.118  26.737  1.00  0.00    -0.744 OA
ENDBRANCH  47  48
ENDBRANCH  26  40
BRANCH  27  52
ATOM     52  C   UNL A   1      38.311  31.736  30.483  1.00  0.00     0.058 A 
ATOM     53  C   UNL A   1      37.787  31.490  31.758  1.00  0.00     0.135 A 
ATOM     54  C   UNL A   1      37.585  32.596  29.639  1.00  0.00     0.135 A 
ATOM     55  F   UNL A   1      38.435  30.672  32.603  1.00  0.00    -0.206 F 
ATOM     56  C   UNL A   1      36.601  32.082  32.187  1.00  0.00     0.059 A 
ATOM     57  C   UNL A   1      36.413  33.219  30.052  1.00  0.00     0.059 A 
ATOM     58  F   UNL A   1      38.046  32.877  28.409  1.00  0.00    -0.206 F 
ATOM     59  C   UNL A   1      35.925  32.953  31.330  1.00  0.00     0.060 A 
BRANCH  59  60
ATOM     60  S   UNL A   1      34.435  33.788  31.919  1.00  0.00     0.124 S 
ATOM     61  O   UNL A   1      33.781  34.141  30.664  1.00  0.00    -0.237 OA
ATOM     62  O   UNL A   1      33.784  32.744  32.705  1.00  0.00    -0.237 OA
ATOM     63  O   UNL A   1      34.963  34.907  32.694  1.00  0.00    -0.744 OA
ENDBRANCH  59  60
ENDBRANCH  27  52
BRANCH  39  64
ATOM     64  C   UNL A   1      44.977  33.830  30.831  1.00  0.00     0.058 A 
ATOM     65  C   UNL A   1      45.153  34.973  30.038  1.00  0.00     0.135 A 
ATOM     66  C   UNL A   1      45.327  33.893  32.187  1.00  0.00     0.135 A 
ATOM     67  F   UNL A   1      44.835  34.949  28.735  1.00  0.00    -0.206 F 
ATOM     68  C   UNL A   1      45.660  36.147  30.577  1.00  0.00     0.059 A 
ATOM     69  C   UNL A   1      45.821  35.062  32.750  1.00  0.00     0.059 A 
ATOM     70  F   UNL A   1      45.165  32.822  32.979  1.00  0.00    -0.206 F 
ATOM     71  C   UNL A   1      45.987  36.183  31.935  1.00  0.00     0.060 A 
BRANCH  71  72
ATOM     72  S   UNL A   1      46.581  37.732  32.642  1.00  0.00     0.124 S 
ATOM     73  O   UNL A   1      45.333  38.355  33.070  1.00  0.00    -0.237 OA
ATOM     74  O   UNL A   1      47.460  37.274  33.713  1.00  0.00    -0.237 OA
ATOM     75  O   UNL A   1      47.255  38.377  31.520  1.00  0.00    -0.744 OA
ENDBRANCH  71  72
ENDBRANCH  39  64
ENDBRANCH  13  14
ENDBRANCH   6   8
ENDBRANCH   5   6
ENDBRANCH   4   5
ENDBRANCH   3   4
ENDBRANCH   2   3
ENDBRANCH   1   2
BRANCH   1  76
ATOM     76  C   UNL A   1      32.623  20.443  24.524  1.00  0.00     0.261 C 
BRANCH  76  77
ATOM     77  O   UNL A   1      31.597  20.979  25.385  1.00  0.00    -0.463 OA
BRANCH  77  78
ATOM     78  C   UNL A   1      31.510  22.331  25.443  1.00  0.00     0.309 C 
ATOM     79  O   UNL A   1      30.481  22.976  25.592  1.00  0.00    -0.252 OA
BRANCH  78  80
ATOM     80  C   UNL A   1      32.857  22.994  25.243  1.00  0.00     0.111 C 
ATOM     81  C   UNL A   1      33.425  23.331  26.627  1.00  0.00     0.016 C 
ATOM     82  C   UNL A   1      32.864  24.206  24.298  1.00  0.00     0.093 C 
ATOM     83  C   UNL A   1      34.822  23.924  26.500  1.00  0.00     0.001 C 
ATOM     84  C   UNL A   1      34.250  24.863  24.237  1.00  0.00     0.014 C 
ATOM     85  C   UNL A   1      34.800  25.170  25.625  1.00  0.00     0.001 C 
BRANCH  82  86
ATOM     86  C   UNL A   1      32.336  24.131  22.858  1.00  0.00     0.228 C 
ATOM     87  O   UNL A   1      32.459  23.051  22.258  1.00  0.00    -0.274 OA
ATOM     88  N   UNL A   1      31.593  25.061  22.202  1.00  0.00    -0.326 N 
ATOM     89  H   UNL A   1      31.243  24.740  21.340  1.00  0.00     0.169 HD
BRANCH  88  90
ATOM     90  C   UNL A   1      31.219  26.373  22.489  1.00  0.00     0.041 A 
ATOM     91  C   UNL A   1      30.032  26.565  23.186  1.00  0.00     0.028 A 
ATOM     92  C   UNL A   1      31.922  27.492  22.079  1.00  0.00     0.028 A 
ATOM     93  C   UNL A   1      29.728  27.823  23.712  1.00  0.00     0.028 A 
ATOM     94  C   UNL A   1      31.652  28.740  22.645  1.00  0.00     0.028 A 
ATOM     95  C   UNL A   1      30.619  28.882  23.569  1.00  0.00     0.041 A 
BRANCH  95  96
ATOM     96  N   UNL A   1      30.587  30.075  24.311  1.00  0.00    -0.319 N 
ATOM     97  C   UNL A   1      31.260  30.489  25.445  1.00  0.00     0.291 C 
ATOM     98  H   UNL A   1      29.964  30.747  23.953  1.00  0.00     0.170 HD
ATOM     99  O   UNL A   1      31.034  31.636  25.844  1.00  0.00    -0.265 OA
BRANCH  97 100
ATOM    100  C   UNL A   1      32.214  29.624  26.094  1.00  0.00     0.191 A 
ATOM    101  C   UNL A   1      32.078  28.504  26.899  1.00  0.00     0.056 A 
ATOM    102  O   UNL A   1      33.541  29.917  25.945  1.00  0.00    -0.459 OA
ATOM    103  C   UNL A   1      33.387  28.140  27.307  1.00  0.00     0.043 A 
ATOM    104  C   UNL A   1      34.239  29.027  26.693  1.00  0.00     0.196 A 
ENDBRANCH  97 100
ENDBRANCH  95  96
ENDBRANCH  88  90
ENDBRANCH  82  86
ENDBRANCH  78  80
ENDBRANCH  77  78
ENDBRANCH  76  77
ENDBRANCH   1  76
TORSDOF 21
ENDMDL
MODEL 2
REMARK VINA RESULT:     -11.0      4.877      9.121
REMARK SMILES O=C(OCCOCCOC(=O)[C@@H]1CCCC[C@H]1C(=O)Nc1ccc(NC(=O)c2ccco2)cc1)c1ccc(-c2c3nc(c(-c4c(F)cc(S(=O)(=O)[O-])cc4F)c4ccc([nH]4)c(-c4c(F)cc(S(=O)(=O)[O-])cc4F)c4nc(c(-c5c(F)cc(S(=O)(=O)[O-])cc5F)c5ccc2[nH]5)C=C4)C=C3)cc1
REMARK SMILES IDX 7 1 6 2 5 3 4 4 3 5 2 6 1 7 35 8 36 9 100 10 37 11 99 12
REMARK SMILES IDX 38 13 39 14 40 15 93 16 41 17 98 18 92 19 94 20 42 21 97 22
REMARK SMILES IDX 91 23 90 24 43 26 77 27 56 28 76 29 57 30 60 31 75 32 95 33
REMARK SMILES IDX 58 34 59 35 74 37 96 38 61 39 44 40 45 41 54 42 46 43 47 44
REMARK SMILES IDX 53 45 55 46 48 47 49 48 50 49 51 50 52 51 78 52 79 53 88 54
REMARK SMILES IDX 80 55 81 56 87 57 89 58 82 59 83 60 84 61 85 62 86 63 62 64
REMARK SMILES IDX 63 65 72 66 64 67 65 68 71 69 73 70 66 71 67 72 68 73 69 74
REMARK SMILES IDX 70 75 8 76 9 77 10 78 11 79 12 80 13 81 17 82 14 83 16 84
REMARK SMILES IDX 15 85 18 86 19 87 20 88 21 90 22 91 34 92 23 93 33 94 24 95
REMARK SMILES IDX 25 96 26 97 27 99 28 100 29 101 32 102 30 103 31 104
REMARK H PARENT 94 25 60 36 20 89 25 98
REMARK Flexibility Score: inf
ROOT
ATOM      1  C   UNL A   1      38.384  21.845  25.606  1.00  0.00     0.202 C 
ENDROOT
BRANCH   1   2
ATOM      2  O   UNL A   1      39.268  22.624  26.417  1.00  0.00    -0.374 OA
BRANCH   2   3
ATOM      3  C   UNL A   1      40.625  22.186  26.421  1.00  0.00     0.202 C 
BRANCH   3   4
ATOM      4  C   UNL A   1      41.603  22.961  27.321  1.00  0.00     0.261 C 
BRANCH   4   5
ATOM      5  O   UNL A   1      42.217  24.055  26.616  1.00  0.00    -0.460 OA
BRANCH   5   6
ATOM      6  C   UNL A   1      41.701  25.286  26.383  1.00  0.00     0.338 C 
ATOM      7  O   UNL A   1      41.397  25.603  25.235  1.00  0.00    -0.246 OA
BRANCH   6   8
ATOM      8  C   UNL A   1      41.447  26.265  27.479  1.00  0.00     0.060 A 
ATOM      9  C   UNL A   1      42.209  27.412  27.691  1.00  0.00     0.016 A 
ATOM     10  C   UNL A   1      40.347  26.039  28.319  1.00  0.00     0.016 A 
ATOM     11  C   UNL A   1      41.974  28.261  28.745  1.00  0.00     0.010 A 
ATOM     12  C   UNL A   1      40.064  26.921  29.366  1.00  0.00     0.010 A 
ATOM     13  C   UNL A   1      40.900  28.019  29.585  1.00  0.00    -0.014 A 
BRANCH  13  14
ATOM     14  C   UNL A   1      40.807  28.890  30.758  1.00  0.00     0.031 A 
ATOM     15  C   UNL A   1      39.694  29.884  30.795  1.00  0.00     0.074 A 
ATOM     16  C   UNL A   1      41.564  28.609  31.832  1.00  0.00     0.049 A 
ATOM     17  N   UNL A   1      39.433  30.790  31.691  1.00  0.00    -0.248 NA
ATOM     18  C   UNL A   1      38.730  29.836  29.681  1.00  0.00     0.031 C 
ATOM     19  C   UNL A   1      42.528  27.504  31.916  1.00  0.00     0.029 A 
ATOM     20  N   UNL A   1      41.606  29.183  33.069  1.00  0.00    -0.354 N 
ATOM     21  C   UNL A   1      38.313  31.462  31.221  1.00  0.00     0.074 A 
ATOM     22  C   UNL A   1      37.916  30.836  29.982  1.00  0.00     0.031 C 
ATOM     23  C   UNL A   1      43.043  27.467  33.153  1.00  0.00     0.029 A 
ATOM     24  C   UNL A   1      42.519  28.595  33.912  1.00  0.00     0.049 A 
ATOM     25  H   UNL A   1      41.039  29.943  33.332  1.00  0.00     0.167 HD
ATOM     26  C   UNL A   1      37.706  32.534  31.777  1.00  0.00     0.037 A 
ATOM     27  C   UNL A   1      42.915  28.974  35.139  1.00  0.00     0.037 A 
ATOM     28  C   UNL A   1      38.155  33.113  33.012  1.00  0.00     0.049 A 
ATOM     29  C   UNL A   1      42.285  30.213  35.708  1.00  0.00     0.074 A 
ATOM     30  C   UNL A   1      37.740  34.273  33.634  1.00  0.00     0.029 A 
ATOM     31  N   UNL A   1      39.138  32.548  33.819  1.00  0.00    -0.354 N 
ATOM     32  N   UNL A   1      41.331  30.955  35.191  1.00  0.00    -0.248 NA
ATOM     33  C   UNL A   1      42.795  30.691  36.995  1.00  0.00     0.031 C 
ATOM     34  C   UNL A   1      38.493  34.422  34.806  1.00  0.00     0.029 A 
ATOM     35  C   UNL A   1      39.349  33.336  34.934  1.00  0.00     0.049 A 
ATOM     36  H   UNL A   1      39.614  31.709  33.624  1.00  0.00     0.167 HD
ATOM     37  C   UNL A   1      41.129  31.997  36.084  1.00  0.00     0.074 A 
ATOM     38  C   UNL A   1      42.048  31.771  37.187  1.00  0.00     0.031 C 
ATOM     39  C   UNL A   1      40.277  33.050  36.002  1.00  0.00     0.037 A 
BRANCH  26  40
ATOM     40  C   UNL A   1      36.611  33.176  30.977  1.00  0.00     0.058 A 
ATOM     41  C   UNL A   1      36.874  33.992  29.864  1.00  0.00     0.135 A 
ATOM     42  C   UNL A   1      35.278  33.055  31.400  1.00  0.00     0.135 A 
ATOM     43  F   UNL A   1      38.135  34.176  29.444  1.00  0.00    -0.206 F 
ATOM     44  C   UNL A   1      35.857  34.698  29.226  1.00  0.00     0.059 A 
ATOM     45  C   UNL A   1      34.245  33.736  30.766  1.00  0.00     0.059 A 
ATOM     46  F   UNL A   1      34.975  32.304  32.471  1.00  0.00    -0.206 F 
ATOM     47  C   UNL A   1      34.547  34.575  29.695  1.00  0.00     0.060 A 
BRANCH  47  48
ATOM     48  S   UNL A   1      33.245  35.550  28.910  1.00  0.00     0.124 S 
ATOM     49  O   UNL A   1      32.610  36.171  30.067  1.00  0.00    -0.237 OA
ATOM     50  O   UNL A   1      34.001  36.450  28.045  1.00  0.00    -0.237 OA
ATOM     51  O   UNL A   1      32.444  34.547  28.216  1.00  0.00    -0.744 OA
ENDBRANCH  47  48
ENDBRANCH  26  40
BRANCH  27  52
ATOM     52  C   UNL A   1      43.998  28.226  35.830  1.00  0.00     0.058 A 
ATOM     53  C   UNL A   1      45.350  28.540  35.637  1.00  0.00     0.135 A 
ATOM     54  C   UNL A   1      43.694  27.221  36.765  1.00  0.00     0.135 A 
ATOM     55  F   UNL A   1      45.698  29.487  34.752  1.00  0.00    -0.206 F 
ATOM     56  C   UNL A   1      46.358  27.897  36.352  1.00  0.00     0.059 A 
ATOM     57  C   UNL A   1      44.680  26.582  37.509  1.00  0.00     0.059 A 
ATOM     58  F   UNL A   1      42.414  26.886  36.999  1.00  0.00    -0.206 F 
ATOM     59  C   UNL A   1      46.013  26.925  37.293  1.00  0.00     0.060 A 
BRANCH  59  60
ATOM     60  S   UNL A   1      47.315  26.154  38.281  1.00  0.00     0.124 S 
ATOM     61  O   UNL A   1      47.634  24.979  37.480  1.00  0.00    -0.237 OA
ATOM     62  O   UNL A   1      48.335  27.198  38.318  1.00  0.00    -0.237 OA
ATOM     63  O   UNL A   1      46.655  25.891  39.557  1.00  0.00    -0.744 OA
ENDBRANCH  59  60
ENDBRANCH  27  52
BRANCH  39  64
ATOM     64  C   UNL A   1      40.296  34.014  37.145  1.00  0.00     0.058 A 
ATOM     65  C   UNL A   1      41.124  35.145  37.125  1.00  0.00     0.135 A 
ATOM     66  C   UNL A   1      39.411  33.848  38.219  1.00  0.00     0.135 A 
ATOM     67  F   UNL A   1      41.988  35.336  36.117  1.00  0.00    -0.206 F 
ATOM     68  C   UNL A   1      41.074  36.086  38.145  1.00  0.00     0.059 A 
ATOM     69  C   UNL A   1      39.333  34.785  39.240  1.00  0.00     0.059 A 
ATOM     70  F   UNL A   1      38.597  32.781  38.267  1.00  0.00    -0.206 F 
ATOM     71  C   UNL A   1      40.172  35.899  39.196  1.00  0.00     0.060 A 
BRANCH  71  72
ATOM     72  S   UNL A   1      40.065  37.161  40.480  1.00  0.00     0.124 S 
ATOM     73  O   UNL A   1      41.089  36.712  41.416  1.00  0.00    -0.237 OA
ATOM     74  O   UNL A   1      40.369  38.386  39.745  1.00  0.00    -0.237 OA
ATOM     75  O   UNL A   1      38.688  37.046  40.949  1.00  0.00    -0.744 OA
ENDBRANCH  71  72
ENDBRANCH  39  64
ENDBRANCH  13  14
ENDBRANCH   6   8
ENDBRANCH   5   6
ENDBRANCH   4   5
ENDBRANCH   3   4
ENDBRANCH   2   3
ENDBRANCH   1   2
BRANCH   1  76
ATOM     76  C   UNL A   1      37.366  22.731  24.894  1.00  0.00     0.261 C 
BRANCH  76  77
ATOM     77  O   UNL A   1      36.465  21.925  24.109  1.00  0.00    -0.463 OA
BRANCH  77  78
ATOM     78  C   UNL A   1      35.624  21.117  24.801  1.00  0.00     0.309 C 
ATOM     79  O   UNL A   1      35.703  19.898  24.875  1.00  0.00    -0.252 OA
BRANCH  78  80
ATOM     80  C   UNL A   1      34.500  21.895  25.454  1.00  0.00     0.111 C 
ATOM     81  C   UNL A   1      34.836  22.044  26.943  1.00  0.00     0.016 C 
ATOM     82  C   UNL A   1      33.088  21.334  25.226  1.00  0.00     0.093 C 
ATOM     83  C   UNL A   1      33.784  22.895  27.643  1.00  0.00     0.001 C 
ATOM     84  C   UNL A   1      32.033  22.134  26.004  1.00  0.00     0.014 C 
ATOM     85  C   UNL A   1      32.400  22.284  27.476  1.00  0.00     0.001 C 
BRANCH  82  86
ATOM     86  C   UNL A   1      32.518  21.081  23.823  1.00  0.00     0.228 C 
ATOM     87  O   UNL A   1      32.435  19.903  23.441  1.00  0.00    -0.274 OA
ATOM     88  N   UNL A   1      31.931  21.987  22.996  1.00  0.00    -0.326 N 
ATOM     89  H   UNL A   1      31.508  21.575  22.208  1.00  0.00     0.169 HD
BRANCH  88  90
ATOM     90  C   UNL A   1      31.799  23.374  23.024  1.00  0.00     0.041 A 
ATOM     91  C   UNL A   1      32.821  24.128  22.458  1.00  0.00     0.028 A 
ATOM     92  C   UNL A   1      30.750  24.047  23.624  1.00  0.00     0.028 A 
ATOM     93  C   UNL A   1      32.640  25.495  22.238  1.00  0.00     0.028 A 
ATOM     94  C   UNL A   1      30.539  25.402  23.361  1.00  0.00     0.028 A 
ATOM     95  C   UNL A   1      31.430  26.106  22.554  1.00  0.00     0.041 A 
BRANCH  95  96
ATOM     96  N   UNL A   1      31.013  27.366  22.092  1.00  0.00    -0.319 N 
ATOM     97  C   UNL A   1      31.175  28.645  22.591  1.00  0.00     0.291 C 
ATOM     98  H   UNL A   1      30.505  27.331  21.250  1.00  0.00     0.170 HD
ATOM     99  O   UNL A   1      30.710  29.571  21.920  1.00  0.00    -0.265 OA
BRANCH  97 100
ATOM    100  C   UNL A   1      31.899  28.872  23.817  1.00  0.00     0.191 A 
ATOM    101  C   UNL A   1      33.244  28.798  24.147  1.00  0.00     0.056 A 
ATOM    102  O   UNL A   1      31.178  29.214  24.927  1.00  0.00    -0.459 OA
ATOM    103  C   UNL A   1      33.331  29.048  25.540  1.00  0.00     0.043 A 
ATOM    104  C   UNL A   1      32.048  29.303  25.964  1.00  0.00     0.196 A 
ENDBRANCH  97 100
ENDBRANCH  95  96
ENDBRANCH  88  90
ENDBRANCH  82  86
ENDBRANCH  78  80
ENDBRANCH  77  78
ENDBRANCH  76  77
ENDBRANCH   1  76
TORSDOF 21
ENDMDL
MODEL 3
REMARK VINA RESULT:     -10.8      2.554      9.394
REMARK SMILES O=C(OCCOCCOC(=O)[C@@H]1CCCC[C@H]1C(=O)Nc1ccc(NC(=O)c2ccco2)cc1)c1ccc(-c2c3nc(c(-c4c(F)cc(S(=O)(=O)[O-])cc4F)c4ccc([nH]4)c(-c4c(F)cc(S(=O)(=O)[O-])cc4F)c4nc(c(-c5c(F)cc(S(=O)(=O)[O-])cc5F)c5ccc2[nH]5)C=C4)C=C3)cc1
REMARK SMILES IDX 7 1 6 2 5 3 4 4 3 5 2 6 1 7 35 8 36 9 100 10 37 11 99 12
REMARK SMILES IDX 38 13 39 14 40 15 93 16 41 17 98 18 92 19 94 20 42 21 97 22
REMARK SMILES IDX 91 23 90 24 43 26 77 27 56 28 76 29 57 30 60 31 75 32 95 33
REMARK SMILES IDX 58 34 59 35 74 37 96 38 61 39 44 40 45 41 54 42 46 43 47 44
REMARK SMILES IDX 53 45 55 46 48 47 49 48 50 49 51 50 52 51 78 52 79 53 88 54
REMARK SMILES IDX 80 55 81 56 87 57 89 58 82 59 83 60 84 61 85 62 86 63 62 64
REMARK SMILES IDX 63 65 72 66 64 67 65 68 71 69 73 70 66 71 67 72 68 73 69 74
REMARK SMILES IDX 70 75 8 76 9 77 10 78 11 79 12 80 13 81 17 82 14 83 16 84
REMARK SMILES IDX 15 85 18 86 19 87 20 88 21 90 22 91 34 92 23 93 33 94 24 95
REMARK SMILES IDX 25 96 26 97 27 99 28 100 29 101 32 102 30 103 31 104
REMARK H PARENT 94 25 60 36 20 89 25 98
REMARK Flexibility Score: inf
ROOT
ATOM      1  C   UNL A   1      36.792  23.262  25.576  1.00  0.00     0.202 C 
ENDROOT
BRANCH   1   2
ATOM      2  O   UNL A   1      37.106  21.874  25.441  1.00  0.00    -0.374 OA
BRANCH   2   3
ATOM      3  C   UNL A   1      38.500  21.575  25.385  1.00  0.00     0.202 C 
BRANCH   3   4
ATOM      4  C   UNL A   1      39.009  20.456  26.310  1.00  0.00     0.261 C 
BRANCH   4   5
ATOM      5  O   UNL A   1      40.199  19.838  25.788  1.00  0.00    -0.460 OA
BRANCH   5   6
ATOM      6  C   UNL A   1      41.484  20.095  26.130  1.00  0.00     0.338 C 
ATOM      7  O   UNL A   1      42.296  19.171  26.152  1.00  0.00    -0.246 OA
BRANCH   6   8
ATOM      8  C   UNL A   1      41.967  21.469  26.444  1.00  0.00     0.060 A 
ATOM      9  C   UNL A   1      42.080  22.490  25.503  1.00  0.00     0.016 A 
ATOM     10  C   UNL A   1      42.285  21.764  27.778  1.00  0.00     0.016 A 
ATOM     11  C   UNL A   1      42.581  23.729  25.824  1.00  0.00     0.010 A 
ATOM     12  C   UNL A   1      42.749  23.035  28.131  1.00  0.00     0.010 A 
ATOM     13  C   UNL A   1      42.916  24.005  27.139  1.00  0.00    -0.014 A 
BRANCH  13  14
ATOM     14  C   UNL A   1      43.569  25.296  27.367  1.00  0.00     0.031 A 
ATOM     15  C   UNL A   1      42.784  26.354  28.068  1.00  0.00     0.074 A 
ATOM     16  C   UNL A   1      44.891  25.396  27.153  1.00  0.00     0.049 A 
ATOM     17  N   UNL A   1      43.120  27.582  28.337  1.00  0.00    -0.248 NA
ATOM     18  C   UNL A   1      41.444  25.971  28.550  1.00  0.00     0.031 C 
ATOM     19  C   UNL A   1      45.749  24.310  26.660  1.00  0.00     0.029 A 
ATOM     20  N   UNL A   1      45.755  26.429  27.372  1.00  0.00    -0.354 N 
ATOM     21  C   UNL A   1      42.014  28.138  28.965  1.00  0.00     0.074 A 
ATOM     22  C   UNL A   1      41.010  27.105  29.076  1.00  0.00     0.031 C 
ATOM     23  C   UNL A   1      47.022  24.731  26.644  1.00  0.00     0.029 A 
ATOM     24  C   UNL A   1      47.054  26.135  27.032  1.00  0.00     0.049 A 
ATOM     25  H   UNL A   1      45.476  27.299  27.738  1.00  0.00     0.167 HD
ATOM     26  C   UNL A   1      41.859  29.417  29.374  1.00  0.00     0.037 A 
ATOM     27  C   UNL A   1      48.129  26.940  26.993  1.00  0.00     0.037 A 
ATOM     28  C   UNL A   1      42.898  30.398  29.230  1.00  0.00     0.049 A 
ATOM     29  C   UNL A   1      47.920  28.378  27.377  1.00  0.00     0.074 A 
ATOM     30  C   UNL A   1      42.855  31.757  29.465  1.00  0.00     0.029 A 
ATOM     31  N   UNL A   1      44.191  30.099  28.808  1.00  0.00    -0.354 N 
ATOM     32  N   UNL A   1      46.825  28.954  27.819  1.00  0.00    -0.248 NA
ATOM     33  C   UNL A   1      49.063  29.282  27.226  1.00  0.00     0.031 C 
ATOM     34  C   UNL A   1      44.116  32.284  29.159  1.00  0.00     0.029 A 
ATOM     35  C   UNL A   1      44.956  31.249  28.771  1.00  0.00     0.049 A 
ATOM     36  H   UNL A   1      44.513  29.200  28.571  1.00  0.00     0.167 HD
ATOM     37  C   UNL A   1      47.140  30.293  27.995  1.00  0.00     0.074 A 
ATOM     38  C   UNL A   1      48.540  30.433  27.631  1.00  0.00     0.031 C 
ATOM     39  C   UNL A   1      46.351  31.317  28.405  1.00  0.00     0.037 A 
BRANCH  26  40
ATOM     40  C   UNL A   1      40.498  29.802  29.874  1.00  0.00     0.058 A 
ATOM     41  C   UNL A   1      39.411  30.006  29.008  1.00  0.00     0.135 A 
ATOM     42  C   UNL A   1      40.310  30.076  31.238  1.00  0.00     0.135 A 
ATOM     43  F   UNL A   1      39.549  29.801  27.690  1.00  0.00    -0.206 F 
ATOM     44  C   UNL A   1      38.197  30.507  29.474  1.00  0.00     0.059 A 
ATOM     45  C   UNL A   1      39.101  30.559  31.727  1.00  0.00     0.059 A 
ATOM     46  F   UNL A   1      41.324  29.917  32.104  1.00  0.00    -0.206 F 
ATOM     47  C   UNL A   1      38.058  30.795  30.834  1.00  0.00     0.060 A 
BRANCH  47  48
ATOM     48  S   UNL A   1      36.508  31.514  31.419  1.00  0.00     0.124 S 
ATOM     49  O   UNL A   1      35.770  31.668  30.170  1.00  0.00    -0.237 OA
ATOM     50  O   UNL A   1      36.006  30.488  32.327  1.00  0.00    -0.237 OA
ATOM     51  O   UNL A   1      36.931  32.757  32.056  1.00  0.00    -0.744 OA
ENDBRANCH  47  48
ENDBRANCH  26  40
BRANCH  27  52
ATOM     52  C   UNL A   1      49.429  26.415  26.498  1.00  0.00     0.058 A 
ATOM     53  C   UNL A   1      49.864  26.644  25.185  1.00  0.00     0.135 A 
ATOM     54  C   UNL A   1      50.304  25.732  27.360  1.00  0.00     0.135 A 
ATOM     55  F   UNL A   1      49.066  27.286  24.317  1.00  0.00    -0.206 F 
ATOM     56  C   UNL A   1      51.120  26.227  24.750  1.00  0.00     0.059 A 
ATOM     57  C   UNL A   1      51.572  25.328  26.958  1.00  0.00     0.059 A 
ATOM     58  F   UNL A   1      49.944  25.495  28.633  1.00  0.00    -0.206 F 
ATOM     59  C   UNL A   1      51.971  25.577  25.646  1.00  0.00     0.060 A 
BRANCH  59  60
ATOM     60  S   UNL A   1      53.632  25.115  25.105  1.00  0.00     0.124 S 
ATOM     61  O   UNL A   1      53.607  23.668  25.284  1.00  0.00    -0.237 OA
ATOM     62  O   UNL A   1      53.651  25.588  23.724  1.00  0.00    -0.237 OA
ATOM     63  O   UNL A   1      54.499  25.851  26.021  1.00  0.00    -0.744 OA
ENDBRANCH  59  60
ENDBRANCH  27  52
BRANCH  39  64
ATOM     64  C   UNL A   1      46.997  32.664  28.495  1.00  0.00     0.058 A 
ATOM     65  C   UNL A   1      47.014  33.534  27.396  1.00  0.00     0.135 A 
ATOM     66  C   UNL A   1      47.517  33.113  29.716  1.00  0.00     0.135 A 
ATOM     67  F   UNL A   1      46.530  33.137  26.209  1.00  0.00    -0.206 F 
ATOM     68  C   UNL A   1      47.534  34.816  27.507  1.00  0.00     0.059 A 
ATOM     69  C   UNL A   1      48.027  34.397  29.853  1.00  0.00     0.059 A 
ATOM     70  F   UNL A   1      47.510  32.310  30.792  1.00  0.00    -0.206 F 
ATOM     71  C   UNL A   1      48.034  35.240  28.741  1.00  0.00     0.060 A 
BRANCH  71  72
ATOM     72  S   UNL A   1      48.643  36.930  28.895  1.00  0.00     0.124 S 
ATOM     73  O   UNL A   1      49.670  36.966  27.859  1.00  0.00    -0.237 OA
ATOM     74  O   UNL A   1      47.446  37.723  28.629  1.00  0.00    -0.237 OA
ATOM     75  O   UNL A   1      49.131  36.988  30.269  1.00  0.00    -0.744 OA
ENDBRANCH  71  72
ENDBRANCH  39  64
ENDBRANCH  13  14
ENDBRANCH   6   8
ENDBRANCH   5   6
ENDBRANCH   4   5
ENDBRANCH   3   4
ENDBRANCH   2   3
ENDBRANCH   1   2
BRANCH   1  76
ATOM     76  C   UNL A   1      35.832  23.718  24.481  1.00  0.00     0.261 C 
BRANCH  76  77
ATOM     77  O   UNL A   1      34.740  24.466  25.052  1.00  0.00    -0.463 OA
BRANCH  77  78
ATOM     78  C   UNL A   1      33.911  25.082  24.173  1.00  0.00     0.309 C 
ATOM     79  O   UNL A   1      33.844  24.855  22.972  1.00  0.00    -0.252 OA
BRANCH  78  80
ATOM     80  C   UNL A   1      33.082  26.161  24.839  1.00  0.00     0.111 C 
ATOM     81  C   UNL A   1      33.973  26.873  25.863  1.00  0.00     0.016 C 
ATOM     82  C   UNL A   1      31.752  25.691  25.448  1.00  0.00     0.093 C 
ATOM     83  C   UNL A   1      33.222  28.031  26.509  1.00  0.00     0.001 C 
ATOM     84  C   UNL A   1      31.033  26.834  26.180  1.00  0.00     0.014 C 
ATOM     85  C   UNL A   1      31.946  27.538  27.177  1.00  0.00     0.001 C 
BRANCH  82  86
ATOM     86  C   UNL A   1      30.690  24.941  24.631  1.00  0.00     0.228 C 
ATOM     87  O   UNL A   1      29.732  25.599  24.194  1.00  0.00    -0.274 OA
ATOM     88  N   UNL A   1      30.749  23.660  24.178  1.00  0.00    -0.326 N 
ATOM     89  H   UNL A   1      30.023  23.436  23.552  1.00  0.00     0.169 HD
BRANCH  88  90
ATOM     90  C   UNL A   1      31.618  22.595  24.411  1.00  0.00     0.041 A 
ATOM     91  C   UNL A   1      32.023  21.845  23.313  1.00  0.00     0.028 A 
ATOM     92  C   UNL A   1      32.056  22.205  25.664  1.00  0.00     0.028 A 
ATOM     93  C   UNL A   1      33.070  20.930  23.442  1.00  0.00     0.028 A 
ATOM     94  C   UNL A   1      33.137  21.330  25.792  1.00  0.00     0.028 A 
ATOM     95  C   UNL A   1      33.732  20.782  24.657  1.00  0.00     0.041 A 
BRANCH  95  96
ATOM     96  N   UNL A   1      34.978  20.156  24.832  1.00  0.00    -0.319 N 
ATOM     97  C   UNL A   1      35.372  18.832  24.794  1.00  0.00     0.291 C 
ATOM     98  H   UNL A   1      35.714  20.782  25.018  1.00  0.00     0.170 HD
ATOM     99  O   UNL A   1      36.574  18.599  24.956  1.00  0.00    -0.265 OA
BRANCH  97 100
ATOM    100  C   UNL A   1      34.416  17.785  24.529  1.00  0.00     0.191 A 
ATOM    101  C   UNL A   1      34.212  16.945  23.446  1.00  0.00     0.056 A 
ATOM    102  O   UNL A   1      33.476  17.525  25.488  1.00  0.00    -0.459 OA
ATOM    103  C   UNL A   1      33.053  16.182  23.740  1.00  0.00     0.043 A 
ATOM    104  C   UNL A   1      32.650  16.569  24.997  1.00  0.00     0.196 A 
ENDBRANCH  97 100
ENDBRANCH  95  96
ENDBRANCH  88  90
ENDBRANCH  82  86
ENDBRANCH  78  80
ENDBRANCH  77  78
ENDBRANCH  76  77
ENDBRANCH   1  76
TORSDOF 21
ENDMDL
