MODEL 1
REMARK VINA RESULT:     -10.7      0.000      0.000
REMARK SMILES CC1(C)C[C@@H]([NH2+]C[C@@H]2CCCC[C@@H]2C(=O)OCCOCCOC(=O)c2ccc(-c3c4nc(c(-c5c(F)cc(S(=O)(=O)[O-])cc5F)c5ccc([nH]5)c(-c5c(F)cc(S(=O)(=O)[O-])cc5F)c5nc(c(-c6c(F)cc(S(=O)(=O)[O-])cc6F)c6ccc3[nH]6)C=C5)C=C4)cc2)C(C)(C)O1
REMARK SMILES IDX 19 1 18 2 17 3 16 4 14 5 15 6 13 7 8 8 9 9 10 10 12 11 11 12
REMARK SMILES IDX 7 13 6 14 5 17 1 18 2 19 3 20 4 21 94 22 91 23 92 24 93 25
REMARK SMILES IDX 20 26 21 27 22 28 23 29 24 30 25 31 26 32 90 33 27 34 89 35
REMARK SMILES IDX 28 36 29 37 30 38 83 39 31 40 88 41 82 42 84 43 32 44 87 45
REMARK SMILES IDX 81 46 80 47 33 49 67 50 46 51 66 52 47 53 50 54 65 55 85 56
REMARK SMILES IDX 48 57 49 58 64 60 86 61 51 62 34 63 35 64 44 65 36 66 37 67
REMARK SMILES IDX 43 68 45 69 38 70 39 71 40 72 41 73 42 74 68 75 69 76 78 77
REMARK SMILES IDX 70 78 71 79 77 80 79 81 72 82 73 83 74 84 75 85 76 86 52 87
REMARK SMILES IDX 53 88 62 89 54 90 55 91 61 92 63 93 56 94 57 95 58 96 59 97
REMARK SMILES IDX 60 98
REMARK H PARENT 6 15 6 16 84 48 50 59
REMARK Flexibility Score: inf
ROOT
ATOM      1  O   UNL A   1      33.279  30.750  26.602  1.00  0.00    -0.374 OA
ENDROOT
BRANCH   1   2
ATOM      2  C   UNL A   1      32.137  29.898  26.649  1.00  0.00     0.202 C 
BRANCH   2   3
ATOM      3  C   UNL A   1      32.250  28.469  27.190  1.00  0.00     0.261 C 
BRANCH   3   4
ATOM      4  O   UNL A   1      31.427  27.523  26.490  1.00  0.00    -0.463 OA
BRANCH   4   5
ATOM      5  C   UNL A   1      32.082  26.857  25.499  1.00  0.00     0.309 C 
ATOM      6  O   UNL A   1      33.294  26.905  25.334  1.00  0.00    -0.252 OA
BRANCH   5   7
ATOM      7  C   UNL A   1      31.118  26.066  24.619  1.00  0.00     0.108 C 
ATOM      8  C   UNL A   1      31.606  25.746  23.183  1.00  0.00     0.058 C 
ATOM      9  C   UNL A   1      32.050  27.018  22.452  1.00  0.00     0.010 C 
ATOM     10  C   UNL A   1      30.880  28.004  22.372  1.00  0.00     0.001 C 
ATOM     11  C   UNL A   1      29.845  26.919  24.484  1.00  0.00     0.016 C 
ATOM     12  C   UNL A   1      30.082  28.199  23.669  1.00  0.00     0.001 C 
BRANCH   8  13
ATOM     13  C   UNL A   1      32.584  24.571  22.955  1.00  0.00     0.265 C 
BRANCH  13  14
ATOM     14  N   UNL A   1      32.085  23.218  23.246  1.00  0.00    -0.341 N 
ATOM     15  H   UNL A   1      31.183  23.305  23.715  1.00  0.00     0.346 HD
ATOM     16  H   UNL A   1      32.026  22.734  22.350  1.00  0.00     0.346 HD
BRANCH  14  17
ATOM     17  C   UNL A   1      32.972  22.407  24.101  1.00  0.00     0.217 C 
ATOM     18  C   UNL A   1      32.896  18.879  25.234  1.00  0.00     0.042 C 
ATOM     19  C   UNL A   1      33.493  20.272  25.048  1.00  0.00     0.069 C 
ATOM     20  C   UNL A   1      35.021  20.191  24.975  1.00  0.00     0.042 C 
ATOM     21  C   UNL A   1      32.914  20.922  23.809  1.00  0.00     0.103 C 
ATOM     22  O   UNL A   1      33.127  21.117  26.146  1.00  0.00    -0.363 OA
ATOM     23  C   UNL A   1      32.725  22.423  25.643  1.00  0.00     0.115 C 
ATOM     24  C   UNL A   1      31.257  22.607  26.043  1.00  0.00     0.048 C 
ATOM     25  C   UNL A   1      33.582  23.469  26.359  1.00  0.00     0.048 C 
ENDBRANCH  14  17
ENDBRANCH  13  14
ENDBRANCH   8  13
ENDBRANCH   5   7
ENDBRANCH   4   5
ENDBRANCH   3   4
ENDBRANCH   2   3
ENDBRANCH   1   2
BRANCH   1  26
ATOM     26  C   UNL A   1      34.291  30.587  27.585  1.00  0.00     0.202 C 
BRANCH  26  27
ATOM     27  C   UNL A   1      34.678  31.741  28.521  1.00  0.00     0.261 C 
BRANCH  27  28
ATOM     28  O   UNL A   1      36.077  31.870  28.751  1.00  0.00    -0.460 OA
BRANCH  28  29
ATOM     29  C   UNL A   1      36.509  31.194  29.842  1.00  0.00     0.338 C 
ATOM     30  O   UNL A   1      35.899  30.979  30.877  1.00  0.00    -0.246 OA
BRANCH  29  31
ATOM     31  C   UNL A   1      37.788  30.562  29.502  1.00  0.00     0.060 A 
ATOM     32  C   UNL A   1      38.674  30.283  30.551  1.00  0.00     0.016 A 
ATOM     33  C   UNL A   1      38.096  30.226  28.183  1.00  0.00     0.016 A 
ATOM     34  C   UNL A   1      39.889  29.669  30.280  1.00  0.00     0.010 A 
ATOM     35  C   UNL A   1      39.324  29.631  27.910  1.00  0.00     0.010 A 
ATOM     36  C   UNL A   1      40.229  29.373  28.954  1.00  0.00    -0.014 A 
BRANCH  36  37
ATOM     37  C   UNL A   1      41.597  28.923  28.642  1.00  0.00     0.031 A 
ATOM     38  C   UNL A   1      42.707  29.929  28.698  1.00  0.00     0.074 A 
ATOM     39  C   UNL A   1      41.831  27.638  28.329  1.00  0.00     0.049 A 
ATOM     40  N   UNL A   1      43.973  29.780  28.420  1.00  0.00    -0.248 NA
ATOM     41  C   UNL A   1      42.335  31.289  29.123  1.00  0.00     0.031 C 
ATOM     42  C   UNL A   1      40.821  26.581  28.299  1.00  0.00     0.029 A 
ATOM     43  N   UNL A   1      42.992  27.008  27.974  1.00  0.00    -0.354 N 
ATOM     44  C   UNL A   1      44.551  31.026  28.632  1.00  0.00     0.074 A 
ATOM     45  C   UNL A   1      43.489  31.928  29.022  1.00  0.00     0.031 C 
ATOM     46  C   UNL A   1      41.410  25.428  27.940  1.00  0.00     0.029 A 
ATOM     47  C   UNL A   1      42.825  25.678  27.676  1.00  0.00     0.049 A 
ATOM     48  H   UNL A   1      43.864  27.464  27.935  1.00  0.00     0.167 HD
ATOM     49  C   UNL A   1      45.853  31.377  28.519  1.00  0.00     0.037 A 
ATOM     50  C   UNL A   1      43.715  24.777  27.220  1.00  0.00     0.037 A 
ATOM     51  C   UNL A   1      46.886  30.464  28.106  1.00  0.00     0.049 A 
ATOM     52  C   UNL A   1      45.137  25.215  26.998  1.00  0.00     0.074 A 
ATOM     53  C   UNL A   1      48.239  30.702  27.958  1.00  0.00     0.029 A 
ATOM     54  N   UNL A   1      46.672  29.137  27.755  1.00  0.00    -0.354 N 
ATOM     55  N   UNL A   1      45.684  26.387  27.222  1.00  0.00    -0.248 NA
ATOM     56  C   UNL A   1      46.064  24.213  26.452  1.00  0.00     0.031 C 
ATOM     57  C   UNL A   1      48.832  29.538  27.458  1.00  0.00     0.029 A 
ATOM     58  C   UNL A   1      47.861  28.553  27.353  1.00  0.00     0.049 A 
ATOM     59  H   UNL A   1      45.801  28.678  27.786  1.00  0.00     0.167 HD
ATOM     60  C   UNL A   1      47.023  26.260  26.870  1.00  0.00     0.074 A 
ATOM     61  C   UNL A   1      47.204  24.891  26.426  1.00  0.00     0.031 C 
ATOM     62  C   UNL A   1      48.013  27.187  26.910  1.00  0.00     0.037 A 
BRANCH  49  63
ATOM     63  C   UNL A   1      46.206  32.813  28.803  1.00  0.00     0.058 A 
ATOM     64  C   UNL A   1      46.203  33.792  27.795  1.00  0.00     0.135 A 
ATOM     65  C   UNL A   1      46.575  33.213  30.098  1.00  0.00     0.135 A 
ATOM     66  F   UNL A   1      45.877  33.464  26.535  1.00  0.00    -0.206 F 
ATOM     67  C   UNL A   1      46.600  35.100  28.049  1.00  0.00     0.059 A 
ATOM     68  C   UNL A   1      46.944  34.524  30.381  1.00  0.00     0.059 A 
ATOM     69  F   UNL A   1      46.599  32.320  31.101  1.00  0.00    -0.206 F 
ATOM     70  C   UNL A   1      46.976  35.455  29.345  1.00  0.00     0.060 A 
BRANCH  70  71
ATOM     71  S   UNL A   1      47.525  37.148  29.651  1.00  0.00     0.124 S 
ATOM     72  O   UNL A   1      46.260  37.876  29.606  1.00  0.00    -0.237 OA
ATOM     73  O   UNL A   1      48.146  37.041  30.967  1.00  0.00    -0.237 OA
ATOM     74  O   UNL A   1      48.441  37.413  28.547  1.00  0.00    -0.744 OA
ENDBRANCH  70  71
ENDBRANCH  49  63
BRANCH  50  75
ATOM     75  C   UNL A   1      43.281  23.380  26.957  1.00  0.00     0.058 A 
ATOM     76  C   UNL A   1      43.106  22.917  25.646  1.00  0.00     0.135 A 
ATOM     77  C   UNL A   1      43.073  22.468  28.005  1.00  0.00     0.135 A 
ATOM     78  F   UNL A   1      43.284  23.752  24.611  1.00  0.00    -0.206 F 
ATOM     79  C   UNL A   1      42.747  21.599  25.380  1.00  0.00     0.059 A 
ATOM     80  C   UNL A   1      42.737  21.141  27.764  1.00  0.00     0.059 A 
ATOM     81  F   UNL A   1      43.235  22.859  29.279  1.00  0.00    -0.206 F 
ATOM     82  C   UNL A   1      42.576  20.715  26.447  1.00  0.00     0.060 A 
BRANCH  82  83
ATOM     83  S   UNL A   1      42.189  18.989  26.083  1.00  0.00     0.124 S 
ATOM     84  O   UNL A   1      42.519  18.340  27.346  1.00  0.00    -0.237 OA
ATOM     85  O   UNL A   1      40.769  19.061  25.752  1.00  0.00    -0.237 OA
ATOM     86  O   UNL A   1      43.070  18.677  24.962  1.00  0.00    -0.744 OA
ENDBRANCH  82  83
ENDBRANCH  50  75
BRANCH  62  87
ATOM     87  C   UNL A   1      49.386  26.751  26.478  1.00  0.00     0.058 A 
ATOM     88  C   UNL A   1      50.235  26.034  27.335  1.00  0.00     0.135 A 
ATOM     89  C   UNL A   1      49.826  26.987  25.164  1.00  0.00     0.135 A 
ATOM     90  F   UNL A   1      49.867  25.791  28.603  1.00  0.00    -0.206 F 
ATOM     91  C   UNL A   1      51.478  25.578  26.910  1.00  0.00     0.059 A 
ATOM     92  C   UNL A   1      51.051  26.512  24.708  1.00  0.00     0.059 A 
ATOM     93  F   UNL A   1      49.049  27.660  24.301  1.00  0.00    -0.206 F 
ATOM     94  C   UNL A   1      51.873  25.814  25.592  1.00  0.00     0.060 A 
BRANCH  94  95
ATOM     95  S   UNL A   1      53.463  25.162  25.039  1.00  0.00     0.124 S 
ATOM     96  O   UNL A   1      53.468  25.549  23.632  1.00  0.00    -0.237 OA
ATOM     97  O   UNL A   1      54.406  25.876  25.896  1.00  0.00    -0.237 OA
ATOM     98  O   UNL A   1      53.353  23.729  25.295  1.00  0.00    -0.744 OA
ENDBRANCH  94  95
ENDBRANCH  62  87
ENDBRANCH  36  37
ENDBRANCH  29  31
ENDBRANCH  28  29
ENDBRANCH  27  28
ENDBRANCH  26  27
ENDBRANCH   1  26
TORSDOF 20
ENDMDL
MODEL 2
REMARK VINA RESULT:     -10.6      2.141      8.485
REMARK SMILES CC1(C)C[C@@H]([NH2+]C[C@@H]2CCCC[C@@H]2C(=O)OCCOCCOC(=O)c2ccc(-c3c4nc(c(-c5c(F)cc(S(=O)(=O)[O-])cc5F)c5ccc([nH]5)c(-c5c(F)cc(S(=O)(=O)[O-])cc5F)c5nc(c(-c6c(F)cc(S(=O)(=O)[O-])cc6F)c6ccc3[nH]6)C=C5)C=C4)cc2)C(C)(C)O1
REMARK SMILES IDX 19 1 18 2 17 3 16 4 14 5 15 6 13 7 8 8 9 9 10 10 12 11 11 12
REMARK SMILES IDX 7 13 6 14 5 17 1 18 2 19 3 20 4 21 94 22 91 23 92 24 93 25
REMARK SMILES IDX 20 26 21 27 22 28 23 29 24 30 25 31 26 32 90 33 27 34 89 35
REMARK SMILES IDX 28 36 29 37 30 38 83 39 31 40 88 41 82 42 84 43 32 44 87 45
REMARK SMILES IDX 81 46 80 47 33 49 67 50 46 51 66 52 47 53 50 54 65 55 85 56
REMARK SMILES IDX 48 57 49 58 64 60 86 61 51 62 34 63 35 64 44 65 36 66 37 67
REMARK SMILES IDX 43 68 45 69 38 70 39 71 40 72 41 73 42 74 68 75 69 76 78 77
REMARK SMILES IDX 70 78 71 79 77 80 79 81 72 82 73 83 74 84 75 85 76 86 52 87
REMARK SMILES IDX 53 88 62 89 54 90 55 91 61 92 63 93 56 94 57 95 58 96 59 97
REMARK SMILES IDX 60 98
REMARK H PARENT 6 15 6 16 84 48 50 59
REMARK Flexibility Score: inf
ROOT
ATOM      1  O   UNL A   1      37.012  21.823  25.849  1.00  0.00    -0.374 OA
ENDROOT
BRANCH   1   2
ATOM      2  C   UNL A   1      36.228  21.763  24.660  1.00  0.00     0.202 C 
BRANCH   2   3
ATOM      3  C   UNL A   1      36.206  22.938  23.678  1.00  0.00     0.261 C 
BRANCH   3   4
ATOM      4  O   UNL A   1      34.971  23.059  22.953  1.00  0.00    -0.463 OA
BRANCH   4   5
ATOM      5  C   UNL A   1      33.991  23.700  23.648  1.00  0.00     0.309 C 
ATOM      6  O   UNL A   1      34.207  24.457  24.585  1.00  0.00    -0.252 OA
BRANCH   5   7
ATOM      7  C   UNL A   1      32.603  23.342  23.124  1.00  0.00     0.108 C 
ATOM      8  C   UNL A   1      31.415  23.632  24.076  1.00  0.00     0.058 C 
ATOM      9  C   UNL A   1      31.633  22.984  25.448  1.00  0.00     0.010 C 
ATOM     10  C   UNL A   1      31.784  21.468  25.286  1.00  0.00     0.001 C 
ATOM     11  C   UNL A   1      32.610  21.827  22.858  1.00  0.00     0.016 C 
ATOM     12  C   UNL A   1      32.710  21.007  24.153  1.00  0.00     0.001 C 
BRANCH   8  13
ATOM     13  C   UNL A   1      30.865  25.071  24.192  1.00  0.00     0.265 C 
BRANCH  13  14
ATOM     14  N   UNL A   1      31.558  26.118  23.422  1.00  0.00    -0.341 N 
ATOM     15  H   UNL A   1      32.178  25.662  22.753  1.00  0.00     0.346 HD
ATOM     16  H   UNL A   1      30.830  26.677  22.978  1.00  0.00     0.346 HD
BRANCH  14  17
ATOM     17  C   UNL A   1      32.362  27.048  24.236  1.00  0.00     0.217 C 
ATOM     18  C   UNL A   1      31.733  28.855  27.411  1.00  0.00     0.042 C 
ATOM     19  C   UNL A   1      32.563  28.356  26.230  1.00  0.00     0.069 C 
ATOM     20  C   UNL A   1      34.029  28.188  26.643  1.00  0.00     0.042 C 
ATOM     21  C   UNL A   1      31.986  27.059  25.704  1.00  0.00     0.103 C 
ATOM     22  O   UNL A   1      32.492  29.289  25.146  1.00  0.00    -0.363 OA
ATOM     23  C   UNL A   1      32.296  28.571  23.896  1.00  0.00     0.115 C 
ATOM     24  C   UNL A   1      30.945  29.034  23.339  1.00  0.00     0.048 C 
ATOM     25  C   UNL A   1      33.413  29.003  22.943  1.00  0.00     0.048 C 
ENDBRANCH  14  17
ENDBRANCH  13  14
ENDBRANCH   8  13
ENDBRANCH   5   7
ENDBRANCH   4   5
ENDBRANCH   3   4
ENDBRANCH   2   3
ENDBRANCH   1   2
BRANCH   1  26
ATOM     26  C   UNL A   1      38.428  21.786  25.733  1.00  0.00     0.202 C 
BRANCH  26  27
ATOM     27  C   UNL A   1      39.180  20.450  25.654  1.00  0.00     0.261 C 
BRANCH  27  28
ATOM     28  O   UNL A   1      40.055  20.201  26.749  1.00  0.00    -0.460 OA
BRANCH  28  29
ATOM     29  C   UNL A   1      41.336  19.970  26.374  1.00  0.00     0.338 C 
ATOM     30  O   UNL A   1      41.783  18.984  25.811  1.00  0.00    -0.246 OA
BRANCH  29  31
ATOM     31  C   UNL A   1      42.092  21.212  26.569  1.00  0.00     0.060 A 
ATOM     32  C   UNL A   1      42.401  21.585  27.884  1.00  0.00     0.016 A 
ATOM     33  C   UNL A   1      42.512  21.976  25.479  1.00  0.00     0.016 A 
ATOM     34  C   UNL A   1      43.130  22.743  28.116  1.00  0.00     0.010 A 
ATOM     35  C   UNL A   1      43.223  23.148  25.716  1.00  0.00     0.010 A 
ATOM     36  C   UNL A   1      43.513  23.543  27.033  1.00  0.00    -0.014 A 
BRANCH  36  37
ATOM     37  C   UNL A   1      44.094  24.873  27.288  1.00  0.00     0.031 A 
ATOM     38  C   UNL A   1      43.184  25.972  27.746  1.00  0.00     0.074 A 
ATOM     39  C   UNL A   1      45.411  25.078  27.121  1.00  0.00     0.049 A 
ATOM     40  N   UNL A   1      43.455  27.226  27.985  1.00  0.00    -0.248 NA
ATOM     41  C   UNL A   1      41.774  25.604  27.961  1.00  0.00     0.031 C 
ATOM     42  C   UNL A   1      46.379  24.056  26.726  1.00  0.00     0.029 A 
ATOM     43  N   UNL A   1      46.157  26.217  27.259  1.00  0.00    -0.354 N 
ATOM     44  C   UNL A   1      42.251  27.800  28.375  1.00  0.00     0.074 A 
ATOM     45  C   UNL A   1      41.241  26.767  28.300  1.00  0.00     0.031 C 
ATOM     46  C   UNL A   1      47.598  24.618  26.652  1.00  0.00     0.029 A 
ATOM     47  C   UNL A   1      47.484  26.043  26.952  1.00  0.00     0.049 A 
ATOM     48  H   UNL A   1      45.779  27.078  27.550  1.00  0.00     0.167 HD
ATOM     49  C   UNL A   1      42.018  29.074  28.768  1.00  0.00     0.037 A 
ATOM     50  C   UNL A   1      48.483  26.944  26.899  1.00  0.00     0.037 A 
ATOM     51  C   UNL A   1      43.039  30.089  28.810  1.00  0.00     0.049 A 
ATOM     52  C   UNL A   1      48.181  28.379  27.235  1.00  0.00     0.074 A 
ATOM     53  C   UNL A   1      42.924  31.411  29.193  1.00  0.00     0.029 A 
ATOM     54  N   UNL A   1      44.362  29.893  28.435  1.00  0.00    -0.354 N 
ATOM     55  N   UNL A   1      47.046  28.913  27.627  1.00  0.00    -0.248 NA
ATOM     56  C   UNL A   1      49.288  29.337  27.117  1.00  0.00     0.031 C 
ATOM     57  C   UNL A   1      44.162  32.030  28.990  1.00  0.00     0.029 A 
ATOM     58  C   UNL A   1      45.067  31.080  28.540  1.00  0.00     0.049 A 
ATOM     59  H   UNL A   1      44.744  29.035  28.137  1.00  0.00     0.167 HD
ATOM     60  C   UNL A   1      47.307  30.265  27.825  1.00  0.00     0.074 A 
ATOM     61  C   UNL A   1      48.711  30.462  27.519  1.00  0.00     0.031 C 
ATOM     62  C   UNL A   1      46.466  31.251  28.224  1.00  0.00     0.037 A 
BRANCH  49  63
ATOM     63  C   UNL A   1      40.603  29.435  29.132  1.00  0.00     0.058 A 
ATOM     64  C   UNL A   1      39.608  29.616  28.156  1.00  0.00     0.135 A 
ATOM     65  C   UNL A   1      40.240  29.624  30.475  1.00  0.00     0.135 A 
ATOM     66  F   UNL A   1      39.902  29.466  26.855  1.00  0.00    -0.206 F 
ATOM     67  C   UNL A   1      38.321  30.019  28.495  1.00  0.00     0.059 A 
ATOM     68  C   UNL A   1      38.948  29.995  30.839  1.00  0.00     0.059 A 
ATOM     69  F   UNL A   1      41.149  29.467  31.451  1.00  0.00    -0.206 F 
ATOM     70  C   UNL A   1      38.003  30.213  29.840  1.00  0.00     0.060 A 
BRANCH  70  71
ATOM     71  S   UNL A   1      36.338  30.772  30.260  1.00  0.00     0.124 S 
ATOM     72  O   UNL A   1      36.579  32.171  30.601  1.00  0.00    -0.237 OA
ATOM     73  O   UNL A   1      35.609  30.540  29.018  1.00  0.00    -0.237 OA
ATOM     74  O   UNL A   1      35.962  29.911  31.377  1.00  0.00    -0.744 OA
ENDBRANCH  70  71
ENDBRANCH  49  63
BRANCH  50  75
ATOM     75  C   UNL A   1      49.852  26.505  26.521  1.00  0.00     0.058 A 
ATOM     76  C   UNL A   1      50.724  25.968  27.478  1.00  0.00     0.135 A 
ATOM     77  C   UNL A   1      50.302  26.572  25.192  1.00  0.00     0.135 A 
ATOM     78  F   UNL A   1      50.344  25.891  28.763  1.00  0.00    -0.206 F 
ATOM     79  C   UNL A   1      51.990  25.507  27.133  1.00  0.00     0.059 A 
ATOM     80  C   UNL A   1      51.554  26.097  24.818  1.00  0.00     0.059 A 
ATOM     81  F   UNL A   1      49.503  27.071  24.236  1.00  0.00    -0.206 F 
ATOM     82  C   UNL A   1      52.392  25.565  25.798  1.00  0.00     0.060 A 
BRANCH  82  83
ATOM     83  S   UNL A   1      54.007  24.890  25.352  1.00  0.00     0.124 S 
ATOM     84  O   UNL A   1      53.689  23.482  25.140  1.00  0.00    -0.237 OA
ATOM     85  O   UNL A   1      54.337  25.659  24.156  1.00  0.00    -0.237 OA
ATOM     86  O   UNL A   1      54.828  25.183  26.523  1.00  0.00    -0.744 OA
ENDBRANCH  82  83
ENDBRANCH  50  75
BRANCH  62  87
ATOM     87  C   UNL A   1      47.041  32.633  28.369  1.00  0.00     0.058 A 
ATOM     88  C   UNL A   1      47.676  33.046  29.550  1.00  0.00     0.135 A 
ATOM     89  C   UNL A   1      47.024  33.528  27.286  1.00  0.00     0.135 A 
ATOM     90  F   UNL A   1      47.711  32.234  30.619  1.00  0.00    -0.206 F 
ATOM     91  C   UNL A   1      48.263  34.303  29.658  1.00  0.00     0.059 A 
ATOM     92  C   UNL A   1      47.632  34.776  27.360  1.00  0.00     0.059 A 
ATOM     93  F   UNL A   1      46.437  33.180  26.129  1.00  0.00    -0.206 F 
ATOM     94  C   UNL A   1      48.244  35.157  28.553  1.00  0.00     0.060 A 
BRANCH  94  95
ATOM     95  S   UNL A   1      49.062  36.760  28.690  1.00  0.00     0.124 S 
ATOM     96  O   UNL A   1      50.224  36.430  29.507  1.00  0.00    -0.237 OA
ATOM     97  O   UNL A   1      49.340  37.086  27.293  1.00  0.00    -0.237 OA
ATOM     98  O   UNL A   1      48.059  37.602  29.336  1.00  0.00    -0.744 OA
ENDBRANCH  94  95
ENDBRANCH  62  87
ENDBRANCH  36  37
ENDBRANCH  29  31
ENDBRANCH  28  29
ENDBRANCH  27  28
ENDBRANCH  26  27
ENDBRANCH   1  26
TORSDOF 20
ENDMDL
MODEL 3
REMARK VINA RESULT:     -10.6      6.456     11.722
REMARK SMILES CC1(C)C[C@@H]([NH2+]C[C@@H]2CCCC[C@@H]2C(=O)OCCOCCOC(=O)c2ccc(-c3c4nc(c(-c5c(F)cc(S(=O)(=O)[O-])cc5F)c5ccc([nH]5)c(-c5c(F)cc(S(=O)(=O)[O-])cc5F)c5nc(c(-c6c(F)cc(S(=O)(=O)[O-])cc6F)c6ccc3[nH]6)C=C5)C=C4)cc2)C(C)(C)O1
REMARK SMILES IDX 19 1 18 2 17 3 16 4 14 5 15 6 13 7 8 8 9 9 10 10 12 11 11 12
REMARK SMILES IDX 7 13 6 14 5 17 1 18 2 19 3 20 4 21 94 22 91 23 92 24 93 25
REMARK SMILES IDX 20 26 21 27 22 28 23 29 24 30 25 31 26 32 90 33 27 34 89 35
REMARK SMILES IDX 28 36 29 37 30 38 83 39 31 40 88 41 82 42 84 43 32 44 87 45
REMARK SMILES IDX 81 46 80 47 33 49 67 50 46 51 66 52 47 53 50 54 65 55 85 56
REMARK SMILES IDX 48 57 49 58 64 60 86 61 51 62 34 63 35 64 44 65 36 66 37 67
REMARK SMILES IDX 43 68 45 69 38 70 39 71 40 72 41 73 42 74 68 75 69 76 78 77
REMARK SMILES IDX 70 78 71 79 77 80 79 81 72 82 73 83 74 84 75 85 76 86 52 87
REMARK SMILES IDX 53 88 62 89 54 90 55 91 61 92 63 93 56 94 57 95 58 96 59 97
REMARK SMILES IDX 60 98
REMARK H PARENT 6 15 6 16 84 48 50 59
REMARK Flexibility Score: inf
ROOT
ATOM      1  O   UNL A   1      39.393  21.334  25.815  1.00  0.00    -0.374 OA
ENDROOT
BRANCH   1   2
ATOM      2  C   UNL A   1      38.086  21.897  25.724  1.00  0.00     0.202 C 
BRANCH   2   3
ATOM      3  C   UNL A   1      37.084  21.381  24.687  1.00  0.00     0.261 C 
BRANCH   3   4
ATOM      4  O   UNL A   1      35.953  20.708  25.266  1.00  0.00    -0.463 OA
BRANCH   4   5
ATOM      5  C   UNL A   1      35.012  21.555  25.766  1.00  0.00     0.309 C 
ATOM      6  O   UNL A   1      34.741  21.645  26.955  1.00  0.00    -0.252 OA
BRANCH   5   7
ATOM      7  C   UNL A   1      34.332  22.358  24.658  1.00  0.00     0.108 C 
ATOM      8  C   UNL A   1      33.522  23.600  25.110  1.00  0.00     0.058 C 
ATOM      9  C   UNL A   1      32.496  23.231  26.187  1.00  0.00     0.010 C 
ATOM     10  C   UNL A   1      31.528  22.176  25.639  1.00  0.00     0.001 C 
ATOM     11  C   UNL A   1      33.346  21.402  23.965  1.00  0.00     0.016 C 
ATOM     12  C   UNL A   1      32.172  21.012  24.875  1.00  0.00     0.001 C 
BRANCH   8  13
ATOM     13  C   UNL A   1      34.265  24.915  25.438  1.00  0.00     0.265 C 
BRANCH  13  14
ATOM     14  N   UNL A   1      33.946  26.090  24.611  1.00  0.00    -0.341 N 
ATOM     15  H   UNL A   1      34.513  26.871  24.937  1.00  0.00     0.346 HD
ATOM     16  H   UNL A   1      34.145  25.825  23.646  1.00  0.00     0.346 HD
BRANCH  14  17
ATOM     17  C   UNL A   1      32.530  26.501  24.647  1.00  0.00     0.217 C 
ATOM     18  C   UNL A   1      30.437  28.631  22.452  1.00  0.00     0.042 C 
ATOM     19  C   UNL A   1      30.719  27.659  23.595  1.00  0.00     0.069 C 
ATOM     20  C   UNL A   1      29.504  26.758  23.840  1.00  0.00     0.042 C 
ATOM     21  C   UNL A   1      31.957  26.844  23.287  1.00  0.00     0.103 C 
ATOM     22  O   UNL A   1      31.010  28.380  24.798  1.00  0.00    -0.363 OA
ATOM     23  C   UNL A   1      32.154  27.777  25.465  1.00  0.00     0.115 C 
ATOM     24  C   UNL A   1      33.249  28.848  25.498  1.00  0.00     0.048 C 
ATOM     25  C   UNL A   1      31.724  27.445  26.896  1.00  0.00     0.048 C 
ENDBRANCH  14  17
ENDBRANCH  13  14
ENDBRANCH   8  13
ENDBRANCH   5   7
ENDBRANCH   4   5
ENDBRANCH   3   4
ENDBRANCH   2   3
ENDBRANCH   1   2
BRANCH   1  26
ATOM     26  C   UNL A   1      40.279  21.829  26.809  1.00  0.00     0.202 C 
BRANCH  26  27
ATOM     27  C   UNL A   1      41.255  22.974  26.499  1.00  0.00     0.261 C 
BRANCH  27  28
ATOM     28  O   UNL A   1      40.677  24.274  26.561  1.00  0.00    -0.460 OA
BRANCH  28  29
ATOM     29  C   UNL A   1      41.591  25.272  26.529  1.00  0.00     0.338 C 
ATOM     30  O   UNL A   1      42.420  25.498  25.663  1.00  0.00    -0.246 OA
BRANCH  29  31
ATOM     31  C   UNL A   1      41.289  26.194  27.630  1.00  0.00     0.060 A 
ATOM     32  C   UNL A   1      42.144  27.288  27.814  1.00  0.00     0.016 A 
ATOM     33  C   UNL A   1      40.172  25.999  28.443  1.00  0.00     0.016 A 
ATOM     34  C   UNL A   1      41.888  28.196  28.832  1.00  0.00     0.010 A 
ATOM     35  C   UNL A   1      39.929  26.898  29.477  1.00  0.00     0.010 A 
ATOM     36  C   UNL A   1      40.798  27.983  29.685  1.00  0.00    -0.014 A 
BRANCH  36  37
ATOM     37  C   UNL A   1      40.650  28.819  30.890  1.00  0.00     0.031 A 
ATOM     38  C   UNL A   1      39.610  29.898  30.885  1.00  0.00     0.074 A 
ATOM     39  C   UNL A   1      41.427  28.601  31.964  1.00  0.00     0.049 A 
ATOM     40  N   UNL A   1      39.330  30.782  31.802  1.00  0.00    -0.248 NA
ATOM     41  C   UNL A   1      38.773  29.991  29.676  1.00  0.00     0.031 C 
ATOM     42  C   UNL A   1      42.430  27.543  32.076  1.00  0.00     0.029 A 
ATOM     43  N   UNL A   1      41.494  29.260  33.160  1.00  0.00    -0.354 N 
ATOM     44  C   UNL A   1      38.287  31.541  31.284  1.00  0.00     0.074 A 
ATOM     45  C   UNL A   1      38.014  31.039  29.955  1.00  0.00     0.031 C 
ATOM     46  C   UNL A   1      43.018  27.628  33.281  1.00  0.00     0.029 A 
ATOM     47  C   UNL A   1      42.460  28.769  34.003  1.00  0.00     0.049 A 
ATOM     48  H   UNL A   1      40.907  30.015  33.394  1.00  0.00     0.167 HD
ATOM     49  C   UNL A   1      37.617  32.559  31.872  1.00  0.00     0.037 A 
ATOM     50  C   UNL A   1      42.859  29.212  35.211  1.00  0.00     0.037 A 
ATOM     51  C   UNL A   1      37.927  33.054  33.188  1.00  0.00     0.049 A 
ATOM     52  C   UNL A   1      42.172  30.413  35.803  1.00  0.00     0.074 A 
ATOM     53  C   UNL A   1      37.317  34.076  33.890  1.00  0.00     0.029 A 
ATOM     54  N   UNL A   1      38.952  32.571  33.992  1.00  0.00    -0.354 N 
ATOM     55  N   UNL A   1      41.172  31.112  35.319  1.00  0.00    -0.248 NA
ATOM     56  C   UNL A   1      42.671  30.892  37.099  1.00  0.00     0.031 C 
ATOM     57  C   UNL A   1      38.012  34.253  35.091  1.00  0.00     0.029 A 
ATOM     58  C   UNL A   1      39.017  33.300  35.168  1.00  0.00     0.049 A 
ATOM     59  H   UNL A   1      39.546  31.821  33.760  1.00  0.00     0.167 HD
ATOM     60  C   UNL A   1      40.904  32.100  36.261  1.00  0.00     0.074 A 
ATOM     61  C   UNL A   1      41.844  31.898  37.348  1.00  0.00     0.031 C 
ATOM     62  C   UNL A   1      39.968  33.081  36.233  1.00  0.00     0.037 A 
BRANCH  49  63
ATOM     63  C   UNL A   1      36.526  33.219  31.073  1.00  0.00     0.058 A 
ATOM     64  C   UNL A   1      36.807  34.035  29.964  1.00  0.00     0.135 A 
ATOM     65  C   UNL A   1      35.179  33.051  31.433  1.00  0.00     0.135 A 
ATOM     66  F   UNL A   1      38.077  34.246  29.584  1.00  0.00    -0.206 F 
ATOM     67  C   UNL A   1      35.799  34.699  29.274  1.00  0.00     0.059 A 
ATOM     68  C   UNL A   1      34.151  33.679  30.735  1.00  0.00     0.059 A 
ATOM     69  F   UNL A   1      34.850  32.284  32.485  1.00  0.00    -0.206 F 
ATOM     70  C   UNL A   1      34.473  34.520  29.672  1.00  0.00     0.060 A 
BRANCH  70  71
ATOM     71  S   UNL A   1      33.179  35.418  28.790  1.00  0.00     0.124 S 
ATOM     72  O   UNL A   1      32.551  34.345  28.024  1.00  0.00    -0.237 OA
ATOM     73  O   UNL A   1      32.381  35.967  29.881  1.00  0.00    -0.237 OA
ATOM     74  O   UNL A   1      33.921  36.399  28.004  1.00  0.00    -0.744 OA
ENDBRANCH  70  71
ENDBRANCH  49  63
BRANCH  50  75
ATOM     75  C   UNL A   1      43.951  28.506  35.931  1.00  0.00     0.058 A 
ATOM     76  C   UNL A   1      45.289  28.886  35.756  1.00  0.00     0.135 A 
ATOM     77  C   UNL A   1      43.680  27.469  36.838  1.00  0.00     0.135 A 
ATOM     78  F   UNL A   1      45.600  29.866  34.893  1.00  0.00    -0.206 F 
ATOM     79  C   UNL A   1      46.319  28.270  36.458  1.00  0.00     0.059 A 
ATOM     80  C   UNL A   1      44.690  26.854  37.569  1.00  0.00     0.059 A 
ATOM     81  F   UNL A   1      42.415  27.073  37.048  1.00  0.00    -0.206 F 
ATOM     82  C   UNL A   1      46.008  27.261  37.372  1.00  0.00     0.060 A 
BRANCH  82  83
ATOM     83  S   UNL A   1      47.348  26.526  38.334  1.00  0.00     0.124 S 
ATOM     84  O   UNL A   1      48.501  26.780  37.478  1.00  0.00    -0.237 OA
ATOM     85  O   UNL A   1      47.288  27.296  39.573  1.00  0.00    -0.237 OA
ATOM     86  O   UNL A   1      46.946  25.128  38.455  1.00  0.00    -0.744 OA
ENDBRANCH  82  83
ENDBRANCH  50  75
BRANCH  62  87
ATOM     87  C   UNL A   1      39.900  34.006  37.417  1.00  0.00     0.058 A 
ATOM     88  C   UNL A   1      40.558  35.245  37.423  1.00  0.00     0.135 A 
ATOM     89  C   UNL A   1      39.103  33.681  38.528  1.00  0.00     0.135 A 
ATOM     90  F   UNL A   1      41.340  35.600  36.391  1.00  0.00    -0.206 F 
ATOM     91  C   UNL A   1      40.440  36.125  38.493  1.00  0.00     0.059 A 
ATOM     92  C   UNL A   1      38.945  34.559  39.595  1.00  0.00     0.059 A 
ATOM     93  F   UNL A   1      38.445  32.511  38.570  1.00  0.00    -0.206 F 
ATOM     94  C   UNL A   1      39.624  35.777  39.571  1.00  0.00     0.060 A 
BRANCH  94  95
ATOM     95  S   UNL A   1      39.433  36.955  40.925  1.00  0.00     0.124 S 
ATOM     96  O   UNL A   1      38.701  38.036  40.274  1.00  0.00    -0.237 OA
ATOM     97  O   UNL A   1      38.681  36.180  41.907  1.00  0.00    -0.237 OA
ATOM     98  O   UNL A   1      40.809  37.267  41.302  1.00  0.00    -0.744 OA
ENDBRANCH  94  95
ENDBRANCH  62  87
ENDBRANCH  36  37
ENDBRANCH  29  31
ENDBRANCH  28  29
ENDBRANCH  27  28
ENDBRANCH  26  27
ENDBRANCH   1  26
TORSDOF 20
ENDMDL
