MODEL 1
REMARK VINA RESULT:      -9.4      0.000      0.000
REMARK SMILES O=C(OCCOCCOC(=O)[C@@H](F)[C@H](O)c1cccc(Cl)c1)c1ccc(-c2c3nc(c(-c4c(F)cc(S(=O)(=O)[O-])cc4F)c4ccc([nH]4)c(-c4c(F)cc(S(=O)(=O)[O-])cc4F)c4nc(c(-c5c(F)cc(S(=O)(=O)[O-])cc5F)c5ccc2[nH]5)C=C4)C=C3)cc1
REMARK SMILES IDX 5 1 4 2 3 3 2 4 1 5 23 6 24 7 88 8 25 9 87 10 26 11 27 12
REMARK SMILES IDX 28 13 81 14 29 15 86 16 80 17 82 18 30 19 85 20 79 21 78 22
REMARK SMILES IDX 31 24 65 25 44 26 64 27 45 28 48 29 63 30 83 31 46 32 47 33
REMARK SMILES IDX 62 35 84 36 49 37 32 38 33 39 42 40 34 41 35 42 41 43 43 44
REMARK SMILES IDX 36 45 37 46 38 47 39 48 40 49 66 50 67 51 76 52 68 53 69 54
REMARK SMILES IDX 75 55 77 56 70 57 71 58 72 59 73 60 74 61 50 62 51 63 60 64
REMARK SMILES IDX 52 65 53 66 59 67 61 68 54 69 55 70 56 71 57 72 58 73 6 74
REMARK SMILES IDX 7 75 8 76 9 77 10 78 11 79 12 80 13 81 14 82 16 83 17 84
REMARK SMILES IDX 22 85 18 86 20 87 19 88 21 89 15 90
REMARK H PARENT 82 23 48 34 15 91
REMARK Flexibility Score: inf
ROOT
ATOM      1  C   UNL A   1      41.475  20.180  26.476  1.00  0.00     0.202 C 
ENDROOT
BRANCH   1   2
ATOM      2  C   UNL A   1      41.045  21.502  27.120  1.00  0.00     0.261 C 
BRANCH   2   3
ATOM      3  O   UNL A   1      39.667  21.780  26.816  1.00  0.00    -0.460 OA
BRANCH   3   4
ATOM      4  C   UNL A   1      39.112  22.953  26.436  1.00  0.00     0.338 C 
ATOM      5  O   UNL A   1      38.187  22.928  25.624  1.00  0.00    -0.246 OA
BRANCH   4   6
ATOM      6  C   UNL A   1      39.555  24.287  26.947  1.00  0.00     0.060 A 
ATOM      7  C   UNL A   1      40.105  25.301  26.163  1.00  0.00     0.016 A 
ATOM      8  C   UNL A   1      39.327  24.561  28.305  1.00  0.00     0.016 A 
ATOM      9  C   UNL A   1      40.466  26.521  26.691  1.00  0.00     0.010 A 
ATOM     10  C   UNL A   1      39.675  25.798  28.855  1.00  0.00     0.010 A 
ATOM     11  C   UNL A   1      40.269  26.768  28.042  1.00  0.00    -0.014 A 
BRANCH  11  12
ATOM     12  C   UNL A   1      40.901  27.984  28.564  1.00  0.00     0.031 A 
ATOM     13  C   UNL A   1      42.362  28.166  28.288  1.00  0.00     0.074 A 
ATOM     14  C   UNL A   1      40.125  28.969  29.046  1.00  0.00     0.049 A 
ATOM     15  N   UNL A   1      43.140  29.166  28.584  1.00  0.00    -0.248 NA
ATOM     16  C   UNL A   1      43.031  27.078  27.548  1.00  0.00     0.031 C 
ATOM     17  C   UNL A   1      38.664  28.909  29.161  1.00  0.00     0.029 A 
ATOM     18  N   UNL A   1      40.442  30.228  29.470  1.00  0.00    -0.354 N 
ATOM     19  C   UNL A   1      44.395  28.815  28.104  1.00  0.00     0.074 A 
ATOM     20  C   UNL A   1      44.278  27.514  27.491  1.00  0.00     0.031 C 
ATOM     21  C   UNL A   1      38.210  30.094  29.603  1.00  0.00     0.029 A 
ATOM     22  C   UNL A   1      39.350  30.964  29.864  1.00  0.00     0.049 A 
ATOM     23  H   UNL A   1      41.363  30.574  29.492  1.00  0.00     0.167 HD
ATOM     24  C   UNL A   1      45.542  29.524  28.192  1.00  0.00     0.037 A 
ATOM     25  C   UNL A   1      39.299  32.196  30.400  1.00  0.00     0.037 A 
ATOM     26  C   UNL A   1      45.603  30.818  28.813  1.00  0.00     0.049 A 
ATOM     27  C   UNL A   1      40.607  32.921  30.585  1.00  0.00     0.074 A 
ATOM     28  C   UNL A   1      46.704  31.618  29.042  1.00  0.00     0.029 A 
ATOM     29  N   UNL A   1      44.496  31.500  29.308  1.00  0.00    -0.354 N 
ATOM     30  N   UNL A   1      41.813  32.546  30.221  1.00  0.00    -0.248 NA
ATOM     31  C   UNL A   1      40.554  34.221  31.260  1.00  0.00     0.031 C 
ATOM     32  C   UNL A   1      46.270  32.759  29.727  1.00  0.00     0.029 A 
ATOM     33  C   UNL A   1      44.889  32.702  29.862  1.00  0.00     0.049 A 
ATOM     34  H   UNL A   1      43.568  31.173  29.268  1.00  0.00     0.167 HD
ATOM     35  C   UNL A   1      42.662  33.579  30.594  1.00  0.00     0.074 A 
ATOM     36  C   UNL A   1      41.825  34.596  31.206  1.00  0.00     0.031 C 
ATOM     37  C   UNL A   1      44.008  33.686  30.447  1.00  0.00     0.037 A 
BRANCH  24  38
ATOM     38  C   UNL A   1      46.798  28.855  27.709  1.00  0.00     0.058 A 
ATOM     39  C   UNL A   1      47.154  28.797  26.352  1.00  0.00     0.135 A 
ATOM     40  C   UNL A   1      47.633  28.200  28.630  1.00  0.00     0.135 A 
ATOM     41  F   UNL A   1      46.372  29.371  25.423  1.00  0.00    -0.206 F 
ATOM     42  C   UNL A   1      48.270  28.084  25.922  1.00  0.00     0.059 A 
ATOM     43  C   UNL A   1      48.768  27.506  28.226  1.00  0.00     0.059 A 
ATOM     44  F   UNL A   1      47.331  28.206  29.938  1.00  0.00    -0.206 F 
ATOM     45  C   UNL A   1      49.068  27.436  26.867  1.00  0.00     0.060 A 
BRANCH  45  46
ATOM     46  S   UNL A   1      50.495  26.490  26.296  1.00  0.00     0.124 S 
ATOM     47  O   UNL A   1      51.517  26.895  27.257  1.00  0.00    -0.237 OA
ATOM     48  O   UNL A   1      50.024  25.113  26.414  1.00  0.00    -0.237 OA
ATOM     49  O   UNL A   1      50.695  26.965  24.931  1.00  0.00    -0.744 OA
ENDBRANCH  45  46
ENDBRANCH  24  38
BRANCH  25  50
ATOM     50  C   UNL A   1      38.001  32.786  30.829  1.00  0.00     0.058 A 
ATOM     51  C   UNL A   1      37.103  33.338  29.905  1.00  0.00     0.135 A 
ATOM     52  C   UNL A   1      37.628  32.806  32.185  1.00  0.00     0.135 A 
ATOM     53  F   UNL A   1      37.409  33.350  28.598  1.00  0.00    -0.206 F 
ATOM     54  C   UNL A   1      35.894  33.904  30.306  1.00  0.00     0.059 A 
ATOM     55  C   UNL A   1      36.413  33.339  32.607  1.00  0.00     0.059 A 
ATOM     56  F   UNL A   1      38.442  32.284  33.116  1.00  0.00    -0.206 F 
ATOM     57  C   UNL A   1      35.558  33.897  31.661  1.00  0.00     0.060 A 
BRANCH  57  58
ATOM     58  S   UNL A   1      33.978  34.609  32.169  1.00  0.00     0.124 S 
ATOM     59  O   UNL A   1      33.373  33.495  32.892  1.00  0.00    -0.237 OA
ATOM     60  O   UNL A   1      34.400  35.744  32.982  1.00  0.00    -0.237 OA
ATOM     61  O   UNL A   1      33.342  34.956  30.902  1.00  0.00    -0.744 OA
ENDBRANCH  57  58
ENDBRANCH  25  50
BRANCH  37  62
ATOM     62  C   UNL A   1      44.636  34.972  30.896  1.00  0.00     0.058 A 
ATOM     63  C   UNL A   1      45.155  35.132  32.190  1.00  0.00     0.135 A 
ATOM     64  C   UNL A   1      44.765  36.039  29.994  1.00  0.00     0.135 A 
ATOM     65  F   UNL A   1      45.051  34.141  33.090  1.00  0.00    -0.206 F 
ATOM     66  C   UNL A   1      45.757  36.321  32.582  1.00  0.00     0.059 A 
ATOM     67  C   UNL A   1      45.392  37.224  30.354  1.00  0.00     0.059 A 
ATOM     68  F   UNL A   1      44.296  35.926  28.740  1.00  0.00    -0.206 F 
ATOM     69  C   UNL A   1      45.872  37.361  31.656  1.00  0.00     0.060 A 
BRANCH  69  70
ATOM     70  S   UNL A   1      46.680  38.889  32.168  1.00  0.00     0.124 S 
ATOM     71  O   UNL A   1      46.224  39.820  31.142  1.00  0.00    -0.237 OA
ATOM     72  O   UNL A   1      46.131  39.098  33.505  1.00  0.00    -0.237 OA
ATOM     73  O   UNL A   1      48.100  38.553  32.126  1.00  0.00    -0.744 OA
ENDBRANCH  69  70
ENDBRANCH  37  62
ENDBRANCH  11  12
ENDBRANCH   4   6
ENDBRANCH   3   4
ENDBRANCH   2   3
ENDBRANCH   1   2
BRANCH   1  74
ATOM     74  O   UNL A   1      42.879  20.013  26.279  1.00  0.00    -0.374 OA
BRANCH  74  75
ATOM     75  C   UNL A   1      43.328  18.739  25.812  1.00  0.00     0.202 C 
BRANCH  75  76
ATOM     76  C   UNL A   1      44.532  18.945  24.890  1.00  0.00     0.261 C 
BRANCH  76  77
ATOM     77  O   UNL A   1      44.321  20.145  24.129  1.00  0.00    -0.461 OA
BRANCH  77  78
ATOM     78  C   UNL A   1      45.214  21.150  24.336  1.00  0.00     0.343 C 
ATOM     79  O   UNL A   1      46.371  20.990  24.714  1.00  0.00    -0.249 OA
BRANCH  78  80
ATOM     80  C   UNL A   1      44.642  22.496  23.933  1.00  0.00     0.308 C 
ATOM     81  F   UNL A   1      43.306  22.604  24.209  1.00  0.00    -0.232 F 
BRANCH  80  82
ATOM     82  C   UNL A   1      45.388  23.717  24.506  1.00  0.00     0.190 C 
BRANCH  82  83
ATOM     83  C   UNL A   1      45.444  23.945  26.018  1.00  0.00    -0.015 A 
ATOM     84  C   UNL A   1      46.604  24.479  26.607  1.00  0.00     0.006 A 
ATOM     85  C   UNL A   1      44.357  23.678  26.865  1.00  0.00     0.027 A 
ATOM     86  C   UNL A   1      46.710  24.646  27.990  1.00  0.00     0.002 A 
ATOM     87  C   UNL A   1      44.471  23.824  28.252  1.00  0.00     0.041 A 
ATOM     88  C   UNL A   1      45.647  24.298  28.819  1.00  0.00     0.020 A 
ATOM     89  Cl  UNL A   1      43.147  23.402  29.268  1.00  0.00    -0.084 Cl
ENDBRANCH  82  83
BRANCH  82  90
ATOM     90  O   UNL A   1      46.720  23.716  23.963  1.00  0.00    -0.385 OA
ATOM     91  H   UNL A   1      47.274  24.337  24.463  1.00  0.00     0.211 HD
ENDBRANCH  82  90
ENDBRANCH  80  82
ENDBRANCH  78  80
ENDBRANCH  77  78
ENDBRANCH  76  77
ENDBRANCH  75  76
ENDBRANCH  74  75
ENDBRANCH   1  74
TORSDOF 20
ENDMDL
MODEL 2
REMARK VINA RESULT:      -9.3      4.844      6.631
REMARK SMILES O=C(OCCOCCOC(=O)[C@@H](F)[C@H](O)c1cccc(Cl)c1)c1ccc(-c2c3nc(c(-c4c(F)cc(S(=O)(=O)[O-])cc4F)c4ccc([nH]4)c(-c4c(F)cc(S(=O)(=O)[O-])cc4F)c4nc(c(-c5c(F)cc(S(=O)(=O)[O-])cc5F)c5ccc2[nH]5)C=C4)C=C3)cc1
REMARK SMILES IDX 5 1 4 2 3 3 2 4 1 5 23 6 24 7 88 8 25 9 87 10 26 11 27 12
REMARK SMILES IDX 28 13 81 14 29 15 86 16 80 17 82 18 30 19 85 20 79 21 78 22
REMARK SMILES IDX 31 24 65 25 44 26 64 27 45 28 48 29 63 30 83 31 46 32 47 33
REMARK SMILES IDX 62 35 84 36 49 37 32 38 33 39 42 40 34 41 35 42 41 43 43 44
REMARK SMILES IDX 36 45 37 46 38 47 39 48 40 49 66 50 67 51 76 52 68 53 69 54
REMARK SMILES IDX 75 55 77 56 70 57 71 58 72 59 73 60 74 61 50 62 51 63 60 64
REMARK SMILES IDX 52 65 53 66 59 67 61 68 54 69 55 70 56 71 57 72 58 73 6 74
REMARK SMILES IDX 7 75 8 76 9 77 10 78 11 79 12 80 13 81 14 82 16 83 17 84
REMARK SMILES IDX 22 85 18 86 20 87 19 88 21 89 15 90
REMARK H PARENT 82 23 48 34 15 91
REMARK Flexibility Score: inf
ROOT
ATOM      1  C   UNL A   1      45.070  22.968  24.236  1.00  0.00     0.202 C 
ENDROOT
BRANCH   1   2
ATOM      2  C   UNL A   1      45.322  24.212  25.093  1.00  0.00     0.261 C 
BRANCH   2   3
ATOM      3  O   UNL A   1      44.210  24.443  25.975  1.00  0.00    -0.460 OA
BRANCH   3   4
ATOM      4  C   UNL A   1      43.205  25.339  25.842  1.00  0.00     0.338 C 
ATOM      5  O   UNL A   1      42.680  25.471  24.737  1.00  0.00    -0.246 OA
BRANCH   4   6
ATOM      6  C   UNL A   1      42.690  26.182  26.965  1.00  0.00     0.060 A 
ATOM      7  C   UNL A   1      43.015  27.523  27.173  1.00  0.00     0.016 A 
ATOM      8  C   UNL A   1      41.748  25.596  27.826  1.00  0.00     0.016 A 
ATOM      9  C   UNL A   1      42.481  28.254  28.211  1.00  0.00     0.010 A 
ATOM     10  C   UNL A   1      41.186  26.328  28.878  1.00  0.00     0.010 A 
ATOM     11  C   UNL A   1      41.579  27.654  29.078  1.00  0.00    -0.014 A 
BRANCH  11  12
ATOM     12  C   UNL A   1      41.254  28.420  30.285  1.00  0.00     0.031 A 
ATOM     13  C   UNL A   1      42.218  28.334  31.428  1.00  0.00     0.074 A 
ATOM     14  C   UNL A   1      40.263  29.327  30.238  1.00  0.00     0.049 A 
ATOM     15  N   UNL A   1      42.197  28.950  32.574  1.00  0.00    -0.248 NA
ATOM     16  C   UNL A   1      43.385  27.451  31.238  1.00  0.00     0.031 C 
ATOM     17  C   UNL A   1      39.410  29.580  29.072  1.00  0.00     0.029 A 
ATOM     18  N   UNL A   1      39.846  30.241  31.162  1.00  0.00    -0.354 N 
ATOM     19  C   UNL A   1      43.320  28.502  33.257  1.00  0.00     0.074 A 
ATOM     20  C   UNL A   1      44.008  27.568  32.397  1.00  0.00     0.031 C 
ATOM     21  C   UNL A   1      38.585  30.604  29.347  1.00  0.00     0.029 A 
ATOM     22  C   UNL A   1      38.808  31.029  30.724  1.00  0.00     0.049 A 
ATOM     23  H   UNL A   1      40.248  30.327  32.056  1.00  0.00     0.167 HD
ATOM     24  C   UNL A   1      43.721  28.839  34.503  1.00  0.00     0.037 A 
ATOM     25  C   UNL A   1      38.108  31.967  31.386  1.00  0.00     0.037 A 
ATOM     26  C   UNL A   1      42.998  29.777  35.317  1.00  0.00     0.049 A 
ATOM     27  C   UNL A   1      38.509  32.246  32.811  1.00  0.00     0.074 A 
ATOM     28  C   UNL A   1      43.239  30.157  36.622  1.00  0.00     0.029 A 
ATOM     29  N   UNL A   1      41.879  30.483  34.889  1.00  0.00    -0.354 N 
ATOM     30  N   UNL A   1      39.515  31.747  33.495  1.00  0.00    -0.248 NA
ATOM     31  C   UNL A   1      37.681  33.196  33.558  1.00  0.00     0.031 C 
ATOM     32  C   UNL A   1      42.232  31.052  37.000  1.00  0.00     0.029 A 
ATOM     33  C   UNL A   1      41.403  31.282  35.910  1.00  0.00     0.049 A 
ATOM     34  H   UNL A   1      41.483  30.422  33.989  1.00  0.00     0.167 HD
ATOM     35  C   UNL A   1      39.462  32.348  34.745  1.00  0.00     0.074 A 
ATOM     36  C   UNL A   1      38.326  33.252  34.716  1.00  0.00     0.031 C 
ATOM     37  C   UNL A   1      40.273  32.176  35.821  1.00  0.00     0.037 A 
BRANCH  24  38
ATOM     38  C   UNL A   1      44.905  28.104  35.063  1.00  0.00     0.058 A 
ATOM     39  C   UNL A   1      44.782  26.917  35.803  1.00  0.00     0.135 A 
ATOM     40  C   UNL A   1      46.194  28.642  34.905  1.00  0.00     0.135 A 
ATOM     41  F   UNL A   1      43.571  26.378  36.020  1.00  0.00    -0.206 F 
ATOM     42  C   UNL A   1      45.886  26.311  36.397  1.00  0.00     0.059 A 
ATOM     43  C   UNL A   1      47.314  28.039  35.465  1.00  0.00     0.059 A 
ATOM     44  F   UNL A   1      46.369  29.785  34.223  1.00  0.00    -0.206 F 
ATOM     45  C   UNL A   1      47.148  26.884  36.226  1.00  0.00     0.060 A 
BRANCH  45  46
ATOM     46  S   UNL A   1      48.569  26.107  37.025  1.00  0.00     0.124 S 
ATOM     47  O   UNL A   1      48.394  26.533  38.410  1.00  0.00    -0.237 OA
ATOM     48  O   UNL A   1      48.336  24.689  36.764  1.00  0.00    -0.237 OA
ATOM     49  O   UNL A   1      49.712  26.689  36.329  1.00  0.00    -0.744 OA
ENDBRANCH  45  46
ENDBRANCH  24  38
BRANCH  25  50
ATOM     50  C   UNL A   1      36.960  32.658  30.738  1.00  0.00     0.058 A 
ATOM     51  C   UNL A   1      35.635  32.273  30.986  1.00  0.00     0.135 A 
ATOM     52  C   UNL A   1      37.168  33.728  29.849  1.00  0.00     0.135 A 
ATOM     53  F   UNL A   1      35.378  31.255  31.822  1.00  0.00    -0.206 F 
ATOM     54  C   UNL A   1      34.560  32.909  30.369  1.00  0.00     0.059 A 
ATOM     55  C   UNL A   1      36.109  34.398  29.243  1.00  0.00     0.059 A 
ATOM     56  F   UNL A   1      38.413  34.147  29.578  1.00  0.00    -0.206 F 
ATOM     57  C   UNL A   1      34.808  33.973  29.499  1.00  0.00     0.060 A 
BRANCH  57  58
ATOM     58  S   UNL A   1      33.407  34.808  28.724  1.00  0.00     0.124 S 
ATOM     59  O   UNL A   1      32.510  34.994  29.859  1.00  0.00    -0.237 OA
ATOM     60  O   UNL A   1      34.027  36.019  28.195  1.00  0.00    -0.237 OA
ATOM     61  O   UNL A   1      32.959  33.851  27.717  1.00  0.00    -0.744 OA
ENDBRANCH  57  58
ENDBRANCH  25  50
BRANCH  37  62
ATOM     62  C   UNL A   1      39.993  33.032  37.021  1.00  0.00     0.058 A 
ATOM     63  C   UNL A   1      40.724  34.199  37.287  1.00  0.00     0.135 A 
ATOM     64  C   UNL A   1      38.938  32.699  37.885  1.00  0.00     0.135 A 
ATOM     65  F   UNL A   1      41.745  34.556  36.491  1.00  0.00    -0.206 F 
ATOM     66  C   UNL A   1      40.435  34.995  38.389  1.00  0.00     0.059 A 
ATOM     67  C   UNL A   1      38.610  33.496  38.972  1.00  0.00     0.059 A 
ATOM     68  F   UNL A   1      38.201  31.598  37.661  1.00  0.00    -0.206 F 
ATOM     69  C   UNL A   1      39.374  34.635  39.225  1.00  0.00     0.060 A 
BRANCH  69  70
ATOM     70  S   UNL A   1      38.991  35.689  40.636  1.00  0.00     0.124 S 
ATOM     71  O   UNL A   1      40.243  35.643  41.384  1.00  0.00    -0.237 OA
ATOM     72  O   UNL A   1      38.680  36.965  39.996  1.00  0.00    -0.237 OA
ATOM     73  O   UNL A   1      37.858  35.017  41.264  1.00  0.00    -0.744 OA
ENDBRANCH  69  70
ENDBRANCH  37  62
ENDBRANCH  11  12
ENDBRANCH   4   6
ENDBRANCH   3   4
ENDBRANCH   2   3
ENDBRANCH   1   2
BRANCH   1  74
ATOM     74  O   UNL A   1      46.073  21.954  24.302  1.00  0.00    -0.374 OA
BRANCH  74  75
ATOM     75  C   UNL A   1      45.811  20.825  25.138  1.00  0.00     0.202 C 
BRANCH  75  76
ATOM     76  C   UNL A   1      44.541  20.127  24.648  1.00  0.00     0.261 C 
BRANCH  76  77
ATOM     77  O   UNL A   1      43.787  19.700  25.795  1.00  0.00    -0.461 OA
BRANCH  77  78
ATOM     78  C   UNL A   1      42.461  20.007  25.787  1.00  0.00     0.343 C 
ATOM     79  O   UNL A   1      41.561  19.210  25.544  1.00  0.00    -0.249 OA
BRANCH  78  80
ATOM     80  C   UNL A   1      42.218  21.438  26.230  1.00  0.00     0.308 C 
ATOM     81  F   UNL A   1      42.113  22.305  25.175  1.00  0.00    -0.232 F 
BRANCH  80  82
ATOM     82  C   UNL A   1      41.017  21.630  27.178  1.00  0.00     0.190 C 
BRANCH  82  83
ATOM     83  C   UNL A   1      39.700  22.197  26.646  1.00  0.00    -0.015 A 
ATOM     84  C   UNL A   1      39.367  23.543  26.882  1.00  0.00     0.006 A 
ATOM     85  C   UNL A   1      38.800  21.436  25.884  1.00  0.00     0.027 A 
ATOM     86  C   UNL A   1      38.147  24.077  26.461  1.00  0.00     0.002 A 
ATOM     87  C   UNL A   1      37.569  21.964  25.482  1.00  0.00     0.041 A 
ATOM     88  C   UNL A   1      37.234  23.280  25.776  1.00  0.00     0.020 A 
ATOM     89  Cl  UNL A   1      36.451  20.974  24.625  1.00  0.00    -0.084 Cl
ENDBRANCH  82  83
BRANCH  82  90
ATOM     90  O   UNL A   1      40.778  20.379  27.845  1.00  0.00    -0.385 OA
ATOM     91  H   UNL A   1      39.858  20.106  27.698  1.00  0.00     0.211 HD
ENDBRANCH  82  90
ENDBRANCH  80  82
ENDBRANCH  78  80
ENDBRANCH  77  78
ENDBRANCH  76  77
ENDBRANCH  75  76
ENDBRANCH  74  75
ENDBRANCH   1  74
TORSDOF 20
ENDMDL
MODEL 3
REMARK VINA RESULT:      -9.3      3.278     11.864
REMARK SMILES O=C(OCCOCCOC(=O)[C@@H](F)[C@H](O)c1cccc(Cl)c1)c1ccc(-c2c3nc(c(-c4c(F)cc(S(=O)(=O)[O-])cc4F)c4ccc([nH]4)c(-c4c(F)cc(S(=O)(=O)[O-])cc4F)c4nc(c(-c5c(F)cc(S(=O)(=O)[O-])cc5F)c5ccc2[nH]5)C=C4)C=C3)cc1
REMARK SMILES IDX 5 1 4 2 3 3 2 4 1 5 23 6 24 7 88 8 25 9 87 10 26 11 27 12
REMARK SMILES IDX 28 13 81 14 29 15 86 16 80 17 82 18 30 19 85 20 79 21 78 22
REMARK SMILES IDX 31 24 65 25 44 26 64 27 45 28 48 29 63 30 83 31 46 32 47 33
REMARK SMILES IDX 62 35 84 36 49 37 32 38 33 39 42 40 34 41 35 42 41 43 43 44
REMARK SMILES IDX 36 45 37 46 38 47 39 48 40 49 66 50 67 51 76 52 68 53 69 54
REMARK SMILES IDX 75 55 77 56 70 57 71 58 72 59 73 60 74 61 50 62 51 63 60 64
REMARK SMILES IDX 52 65 53 66 59 67 61 68 54 69 55 70 56 71 57 72 58 73 6 74
REMARK SMILES IDX 7 75 8 76 9 77 10 78 11 79 12 80 13 81 14 82 16 83 17 84
REMARK SMILES IDX 22 85 18 86 20 87 19 88 21 89 15 90
REMARK H PARENT 82 23 48 34 15 91
REMARK Flexibility Score: inf
ROOT
ATOM      1  C   UNL A   1      36.338  34.541  32.525  1.00  0.00     0.202 C 
ENDROOT
BRANCH   1   2
ATOM      2  C   UNL A   1      36.241  33.227  33.306  1.00  0.00     0.261 C 
BRANCH   2   3
ATOM      3  O   UNL A   1      37.248  32.304  32.856  1.00  0.00    -0.460 OA
BRANCH   3   4
ATOM      4  C   UNL A   1      37.159  31.379  31.873  1.00  0.00     0.338 C 
ATOM      5  O   UNL A   1      36.042  30.999  31.524  1.00  0.00    -0.246 OA
BRANCH   4   6
ATOM      6  C   UNL A   1      38.345  30.789  31.179  1.00  0.00     0.060 A 
ATOM      7  C   UNL A   1      39.387  30.111  31.812  1.00  0.00     0.016 A 
ATOM      8  C   UNL A   1      38.367  30.858  29.776  1.00  0.00     0.016 A 
ATOM      9  C   UNL A   1      40.438  29.562  31.109  1.00  0.00     0.010 A 
ATOM     10  C   UNL A   1      39.420  30.296  29.047  1.00  0.00     0.010 A 
ATOM     11  C   UNL A   1      40.467  29.669  29.727  1.00  0.00    -0.014 A 
BRANCH  11  12
ATOM     12  C   UNL A   1      41.728  29.280  29.087  1.00  0.00     0.031 A 
ATOM     13  C   UNL A   1      42.852  30.268  29.139  1.00  0.00     0.074 A 
ATOM     14  C   UNL A   1      41.900  28.004  28.702  1.00  0.00     0.049 A 
ATOM     15  N   UNL A   1      44.074  30.153  28.706  1.00  0.00    -0.248 NA
ATOM     16  C   UNL A   1      42.564  31.557  29.797  1.00  0.00     0.031 C 
ATOM     17  C   UNL A   1      40.886  26.950  28.806  1.00  0.00     0.029 A 
ATOM     18  N   UNL A   1      42.998  27.363  28.204  1.00  0.00    -0.354 N 
ATOM     19  C   UNL A   1      44.689  31.362  29.002  1.00  0.00     0.074 A 
ATOM     20  C   UNL A   1      43.712  32.198  29.659  1.00  0.00     0.031 C 
ATOM     21  C   UNL A   1      41.423  25.785  28.407  1.00  0.00     0.029 A 
ATOM     22  C   UNL A   1      42.788  26.027  27.959  1.00  0.00     0.049 A 
ATOM     23  H   UNL A   1      43.857  27.814  28.037  1.00  0.00     0.167 HD
ATOM     24  C   UNL A   1      45.959  31.734  28.728  1.00  0.00     0.037 A 
ATOM     25  C   UNL A   1      43.613  25.120  27.405  1.00  0.00     0.037 A 
ATOM     26  C   UNL A   1      46.893  30.861  28.073  1.00  0.00     0.049 A 
ATOM     27  C   UNL A   1      44.988  25.591  27.011  1.00  0.00     0.074 A 
ATOM     28  C   UNL A   1      48.185  31.124  27.663  1.00  0.00     0.029 A 
ATOM     29  N   UNL A   1      46.620  29.540  27.731  1.00  0.00    -0.354 N 
ATOM     30  N   UNL A   1      45.540  26.769  27.200  1.00  0.00    -0.248 NA
ATOM     31  C   UNL A   1      45.846  24.625  26.319  1.00  0.00     0.031 C 
ATOM     32  C   UNL A   1      48.673  29.979  27.022  1.00  0.00     0.029 A 
ATOM     33  C   UNL A   1      47.711  28.980  27.095  1.00  0.00     0.049 A 
ATOM     34  H   UNL A   1      45.773  29.072  27.916  1.00  0.00     0.167 HD
ATOM     35  C   UNL A   1      46.824  26.677  26.680  1.00  0.00     0.074 A 
ATOM     36  C   UNL A   1      46.964  25.324  26.175  1.00  0.00     0.031 C 
ATOM     37  C   UNL A   1      47.801  27.618  26.624  1.00  0.00     0.037 A 
BRANCH  24  38
ATOM     38  C   UNL A   1      46.337  33.155  29.035  1.00  0.00     0.058 A 
ATOM     39  C   UNL A   1      46.149  34.205  28.121  1.00  0.00     0.135 A 
ATOM     40  C   UNL A   1      46.963  33.458  30.256  1.00  0.00     0.135 A 
ATOM     41  F   UNL A   1      45.593  33.966  26.922  1.00  0.00    -0.206 F 
ATOM     42  C   UNL A   1      46.601  35.494  28.391  1.00  0.00     0.059 A 
ATOM     43  C   UNL A   1      47.396  34.744  30.558  1.00  0.00     0.059 A 
ATOM     44  F   UNL A   1      47.186  32.491  31.160  1.00  0.00    -0.206 F 
ATOM     45  C   UNL A   1      47.229  35.752  29.611  1.00  0.00     0.060 A 
BRANCH  45  46
ATOM     46  S   UNL A   1      47.838  37.421  29.938  1.00  0.00     0.124 S 
ATOM     47  O   UNL A   1      46.596  38.134  30.219  1.00  0.00    -0.237 OA
ATOM     48  O   UNL A   1      48.721  37.212  31.081  1.00  0.00    -0.237 OA
ATOM     49  O   UNL A   1      48.506  37.790  28.694  1.00  0.00    -0.744 OA
ENDBRANCH  45  46
ENDBRANCH  24  38
BRANCH  25  50
ATOM     50  C   UNL A   1      43.153  23.725  27.159  1.00  0.00     0.058 A 
ATOM     51  C   UNL A   1      42.730  23.304  25.891  1.00  0.00     0.135 A 
ATOM     52  C   UNL A   1      43.130  22.778  28.197  1.00  0.00     0.135 A 
ATOM     53  F   UNL A   1      42.726  24.168  24.864  1.00  0.00    -0.206 F 
ATOM     54  C   UNL A   1      42.285  22.004  25.662  1.00  0.00     0.059 A 
ATOM     55  C   UNL A   1      42.718  21.464  27.987  1.00  0.00     0.059 A 
ATOM     56  F   UNL A   1      43.532  23.119  29.432  1.00  0.00    -0.206 F 
ATOM     57  C   UNL A   1      42.285  21.090  26.718  1.00  0.00     0.060 A 
BRANCH  57  58
ATOM     58  S   UNL A   1      41.732  19.399  26.406  1.00  0.00     0.124 S 
ATOM     59  O   UNL A   1      41.888  18.791  27.723  1.00  0.00    -0.237 OA
ATOM     60  O   UNL A   1      40.360  19.604  25.956  1.00  0.00    -0.237 OA
ATOM     61  O   UNL A   1      42.657  18.926  25.381  1.00  0.00    -0.744 OA
ENDBRANCH  57  58
ENDBRANCH  25  50
BRANCH  37  62
ATOM     62  C   UNL A   1      49.121  27.187  26.054  1.00  0.00     0.058 A 
ATOM     63  C   UNL A   1      49.414  27.308  24.688  1.00  0.00     0.135 A 
ATOM     64  C   UNL A   1      50.122  26.696  26.907  1.00  0.00     0.135 A 
ATOM     65  F   UNL A   1      48.486  27.768  23.833  1.00  0.00    -0.206 F 
ATOM     66  C   UNL A   1      50.651  26.928  24.180  1.00  0.00     0.059 A 
ATOM     67  C   UNL A   1      51.376  26.343  26.427  1.00  0.00     0.059 A 
ATOM     68  F   UNL A   1      49.891  26.577  28.224  1.00  0.00    -0.206 F 
ATOM     69  C   UNL A   1      51.625  26.448  25.059  1.00  0.00     0.060 A 
BRANCH  69  70
ATOM     70  S   UNL A   1      53.235  25.984  24.393  1.00  0.00     0.124 S 
ATOM     71  O   UNL A   1      53.013  26.135  22.959  1.00  0.00    -0.237 OA
ATOM     72  O   UNL A   1      54.121  26.970  25.006  1.00  0.00    -0.237 OA
ATOM     73  O   UNL A   1      53.414  24.613  24.861  1.00  0.00    -0.744 OA
ENDBRANCH  69  70
ENDBRANCH  37  62
ENDBRANCH  11  12
ENDBRANCH   4   6
ENDBRANCH   3   4
ENDBRANCH   2   3
ENDBRANCH   1   2
BRANCH   1  74
ATOM     74  O   UNL A   1      35.385  35.544  32.876  1.00  0.00    -0.374 OA
BRANCH  74  75
ATOM     75  C   UNL A   1      34.002  35.203  32.763  1.00  0.00     0.202 C 
BRANCH  75  76
ATOM     76  C   UNL A   1      33.456  35.769  31.450  1.00  0.00     0.261 C 
BRANCH  76  77
ATOM     77  O   UNL A   1      33.342  34.693  30.505  1.00  0.00    -0.461 OA
BRANCH  77  78
ATOM     78  C   UNL A   1      33.047  35.049  29.225  1.00  0.00     0.343 C 
ATOM     79  O   UNL A   1      32.455  36.075  28.904  1.00  0.00    -0.249 OA
BRANCH  78  80
ATOM     80  C   UNL A   1      33.643  34.076  28.225  1.00  0.00     0.308 C 
ATOM     81  F   UNL A   1      34.584  34.659  27.420  1.00  0.00    -0.232 F 
BRANCH  80  82
ATOM     82  C   UNL A   1      34.216  32.783  28.837  1.00  0.00     0.190 C 
BRANCH  82  83
ATOM     83  C   UNL A   1      34.186  31.477  28.043  1.00  0.00    -0.015 A 
ATOM     84  C   UNL A   1      35.267  30.580  28.123  1.00  0.00     0.006 A 
ATOM     85  C   UNL A   1      33.093  31.097  27.249  1.00  0.00     0.027 A 
ATOM     86  C   UNL A   1      35.297  29.405  27.366  1.00  0.00     0.002 A 
ATOM     87  C   UNL A   1      33.133  29.933  26.474  1.00  0.00     0.041 A 
ATOM     88  C   UNL A   1      34.236  29.090  26.522  1.00  0.00     0.020 A 
ATOM     89  Cl  UNL A   1      31.811  29.545  25.443  1.00  0.00    -0.084 Cl
ENDBRANCH  82  83
BRANCH  82  90
ATOM     90  O   UNL A   1      35.558  33.059  29.274  1.00  0.00    -0.385 OA
ATOM     91  H   UNL A   1      35.859  33.897  28.886  1.00  0.00     0.211 HD
ENDBRANCH  82  90
ENDBRANCH  80  82
ENDBRANCH  78  80
ENDBRANCH  77  78
ENDBRANCH  76  77
ENDBRANCH  75  76
ENDBRANCH  74  75
ENDBRANCH   1  74
TORSDOF 20
ENDMDL
