MODEL 1
REMARK VINA RESULT:     -11.9      0.000      0.000
REMARK SMILES CC1(C)S[C@H](c2ccc(-c3cccc([N+](=O)[O-])c3)o2)[NH2+][C@@H]1C(=O)OCCOCCOC(=O)c1ccc(-c2c3nc(c(-c4c(F)cc(S(=O)(=O)[O-])cc4F)c4ccc([nH]4)c(-c4c(F)cc(S(=O)(=O)[O-])cc4F)c4nc(c(-c5c(F)cc(S(=O)(=O)[O-])cc5F)c5ccc2[nH]5)C=C4)C=C3)cc1
REMARK SMILES IDX 27 1 26 2 25 3 24 4 22 5 23 6 21 7 1 8 2 9 3 10 4 11 5 12
REMARK SMILES IDX 20 13 6 16 7 17 19 18 8 19 9 20 10 21 11 22 18 23 12 24
REMARK SMILES IDX 14 25 13 26 15 27 16 28 17 29 28 30 29 31 30 32 31 33 32 34
REMARK SMILES IDX 33 35 34 36 98 37 35 38 97 39 36 40 37 41 38 42 91 43 39 44
REMARK SMILES IDX 96 45 90 46 92 47 40 48 95 49 89 50 88 51 41 53 75 54 54 55
REMARK SMILES IDX 74 56 55 57 58 58 73 59 93 60 56 61 57 62 72 64 94 65 59 66
REMARK SMILES IDX 42 67 43 68 52 69 44 70 45 71 51 72 53 73 46 74 47 75 48 76
REMARK SMILES IDX 49 77 50 78 76 79 77 80 86 81 78 82 79 83 85 84 87 85 80 86
REMARK SMILES IDX 81 87 82 88 83 89 84 90 60 91 61 92 70 93 62 94 63 95 69 96
REMARK SMILES IDX 71 97 64 98 65 99 66 100 67 101 68 102
REMARK H PARENT 20 14 20 15 92 52 58 63
REMARK Flexibility Score: inf
ROOT
ATOM      1  O   UNL A   1      37.733  22.220  25.562  1.00  0.00    -0.374 OA
ENDROOT
BRANCH   1   2
ATOM      2  C   UNL A   1      37.029  22.068  24.339  1.00  0.00     0.202 C 
BRANCH   2   3
ATOM      3  C   UNL A   1      36.625  23.327  23.570  1.00  0.00     0.261 C 
BRANCH   3   4
ATOM      4  O   UNL A   1      35.228  23.584  23.502  1.00  0.00    -0.459 OA
BRANCH   4   5
ATOM      5  C   UNL A   1      34.781  24.518  24.397  1.00  0.00     0.366 C 
ATOM      6  O   UNL A   1      35.268  24.712  25.503  1.00  0.00    -0.245 OA
BRANCH   5   7
ATOM      7  C   UNL A   1      33.606  25.296  23.779  1.00  0.00     0.310 C 
ATOM      8  C   UNL A   1      32.077  27.326  23.927  1.00  0.00     0.030 C 
ATOM      9  C   UNL A   1      32.864  26.266  24.726  1.00  0.00     0.079 C 
ATOM     10  C   UNL A   1      33.746  27.011  25.735  1.00  0.00     0.030 C 
ATOM     11  S   UNL A   1      31.652  25.175  25.549  1.00  0.00    -0.078 SA
ATOM     12  C   UNL A   1      31.802  23.829  24.312  1.00  0.00     0.311 C 
ATOM     13  N   UNL A   1      32.619  24.342  23.203  1.00  0.00    -0.316 N 
ATOM     14  H   UNL A   1      32.025  24.821  22.525  1.00  0.00     0.348 HD
ATOM     15  H   UNL A   1      33.095  23.578  22.723  1.00  0.00     0.348 HD
BRANCH  12  16
ATOM     16  C   UNL A   1      32.266  22.534  24.927  1.00  0.00     0.172 A 
ATOM     17  C   UNL A   1      32.527  22.204  26.246  1.00  0.00     0.054 A 
ATOM     18  O   UNL A   1      32.404  21.404  24.146  1.00  0.00    -0.454 OA
ATOM     19  C   UNL A   1      32.820  20.823  26.281  1.00  0.00     0.051 A 
ATOM     20  C   UNL A   1      32.739  20.371  24.982  1.00  0.00     0.134 A 
BRANCH  20  21
ATOM     21  C   UNL A   1      32.947  19.052  24.401  1.00  0.00     0.024 A 
ATOM     22  C   UNL A   1      32.652  18.819  23.051  1.00  0.00     0.012 A 
ATOM     23  C   UNL A   1      33.587  18.040  25.125  1.00  0.00     0.097 A 
ATOM     24  C   UNL A   1      32.892  17.581  22.447  1.00  0.00     0.008 A 
ATOM     25  C   UNL A   1      33.903  16.823  24.494  1.00  0.00     0.270 A 
ATOM     26  C   UNL A   1      33.519  16.574  23.170  1.00  0.00     0.085 A 
BRANCH  25  27
ATOM     27  N   UNL A   1      34.726  15.832  25.196  1.00  0.00     0.062 N 
ATOM     28  O   UNL A   1      35.849  16.186  25.580  1.00  0.00    -0.258 OA
ATOM     29  O   UNL A   1      34.236  14.709  25.375  1.00  0.00    -0.258 OA
ENDBRANCH  25  27
ENDBRANCH  20  21
ENDBRANCH  12  16
ENDBRANCH   5   7
ENDBRANCH   4   5
ENDBRANCH   3   4
ENDBRANCH   2   3
ENDBRANCH   1   2
BRANCH   1  30
ATOM     30  C   UNL A   1      38.929  21.470  25.754  1.00  0.00     0.202 C 
BRANCH  30  31
ATOM     31  C   UNL A   1      40.095  22.103  26.527  1.00  0.00     0.261 C 
BRANCH  31  32
ATOM     32  O   UNL A   1      40.012  23.537  26.658  1.00  0.00    -0.460 OA
BRANCH  32  33
ATOM     33  C   UNL A   1      41.081  24.115  27.254  1.00  0.00     0.338 C 
ATOM     34  O   UNL A   1      42.252  23.753  27.168  1.00  0.00    -0.246 OA
BRANCH  33  35
ATOM     35  C   UNL A   1      40.715  25.355  27.957  1.00  0.00     0.060 A 
ATOM     36  C   UNL A   1      41.704  26.332  28.131  1.00  0.00     0.016 A 
ATOM     37  C   UNL A   1      39.483  25.470  28.605  1.00  0.00     0.016 A 
ATOM     38  C   UNL A   1      41.481  27.402  28.998  1.00  0.00     0.010 A 
ATOM     39  C   UNL A   1      39.268  26.537  29.486  1.00  0.00     0.010 A 
ATOM     40  C   UNL A   1      40.280  27.485  29.719  1.00  0.00    -0.014 A 
BRANCH  40  41
ATOM     41  C   UNL A   1      40.154  28.482  30.810  1.00  0.00     0.031 A 
ATOM     42  C   UNL A   1      41.125  28.449  31.959  1.00  0.00     0.074 A 
ATOM     43  C   UNL A   1      39.189  29.418  30.776  1.00  0.00     0.049 A 
ATOM     44  N   UNL A   1      41.212  29.245  32.992  1.00  0.00    -0.248 NA
ATOM     45  C   UNL A   1      42.114  27.360  31.951  1.00  0.00     0.031 C 
ATOM     46  C   UNL A   1      38.157  29.515  29.747  1.00  0.00     0.029 A 
ATOM     47  N   UNL A   1      38.924  30.465  31.623  1.00  0.00    -0.354 N 
ATOM     48  C   UNL A   1      42.237  28.733  33.780  1.00  0.00     0.074 A 
ATOM     49  C   UNL A   1      42.747  27.563  33.098  1.00  0.00     0.031 C 
ATOM     50  C   UNL A   1      37.388  30.584  30.011  1.00  0.00     0.029 A 
ATOM     51  C   UNL A   1      37.886  31.263  31.205  1.00  0.00     0.049 A 
ATOM     52  H   UNL A   1      39.428  30.628  32.453  1.00  0.00     0.167 HD
ATOM     53  C   UNL A   1      42.695  29.188  34.971  1.00  0.00     0.037 A 
ATOM     54  C   UNL A   1      37.411  32.419  31.711  1.00  0.00     0.037 A 
ATOM     55  C   UNL A   1      42.182  30.350  35.650  1.00  0.00     0.049 A 
ATOM     56  C   UNL A   1      38.002  32.957  32.990  1.00  0.00     0.074 A 
ATOM     57  C   UNL A   1      42.574  30.882  36.867  1.00  0.00     0.029 A 
ATOM     58  N   UNL A   1      41.163  31.161  35.172  1.00  0.00    -0.354 N 
ATOM     59  N   UNL A   1      38.980  32.469  33.718  1.00  0.00    -0.248 NA
ATOM     60  C   UNL A   1      37.402  34.183  33.537  1.00  0.00     0.031 C 
ATOM     61  C   UNL A   1      41.770  31.994  37.140  1.00  0.00     0.029 A 
ATOM     62  C   UNL A   1      40.907  32.182  36.073  1.00  0.00     0.049 A 
ATOM     63  H   UNL A   1      40.692  31.031  34.318  1.00  0.00     0.167 HD
ATOM     64  C   UNL A   1      39.101  33.320  34.811  1.00  0.00     0.074 A 
ATOM     65  C   UNL A   1      38.129  34.379  34.629  1.00  0.00     0.031 C 
ATOM     66  C   UNL A   1      39.926  33.222  35.883  1.00  0.00     0.037 A 
BRANCH  53  67
ATOM     67  C   UNL A   1      43.777  28.389  35.643  1.00  0.00     0.058 A 
ATOM     68  C   UNL A   1      45.137  28.618  35.384  1.00  0.00     0.135 A 
ATOM     69  C   UNL A   1      43.446  27.385  36.568  1.00  0.00     0.135 A 
ATOM     70  F   UNL A   1      45.508  29.553  34.495  1.00  0.00    -0.206 F 
ATOM     71  C   UNL A   1      46.130  27.861  35.998  1.00  0.00     0.059 A 
ATOM     72  C   UNL A   1      44.422  26.631  37.211  1.00  0.00     0.059 A 
ATOM     73  F   UNL A   1      42.160  27.122  36.848  1.00  0.00    -0.206 F 
ATOM     74  C   UNL A   1      45.763  26.866  36.906  1.00  0.00     0.060 A 
BRANCH  74  75
ATOM     75  S   UNL A   1      47.059  25.881  37.685  1.00  0.00     0.124 S 
ATOM     76  O   UNL A   1      48.246  26.346  36.973  1.00  0.00    -0.237 OA
ATOM     77  O   UNL A   1      46.963  26.285  39.085  1.00  0.00    -0.237 OA
ATOM     78  O   UNL A   1      46.657  24.507  37.405  1.00  0.00    -0.744 OA
ENDBRANCH  74  75
ENDBRANCH  53  67
BRANCH  54  79
ATOM     79  C   UNL A   1      36.344  33.177  30.997  1.00  0.00     0.058 A 
ATOM     80  C   UNL A   1      36.636  33.879  29.815  1.00  0.00     0.135 A 
ATOM     81  C   UNL A   1      35.024  33.223  31.468  1.00  0.00     0.135 A 
ATOM     82  F   UNL A   1      37.889  33.889  29.333  1.00  0.00    -0.206 F 
ATOM     83  C   UNL A   1      35.665  34.611  29.137  1.00  0.00     0.059 A 
ATOM     84  C   UNL A   1      34.030  33.928  30.794  1.00  0.00     0.059 A 
ATOM     85  F   UNL A   1      34.688  32.565  32.589  1.00  0.00    -0.206 F 
ATOM     86  C   UNL A   1      34.361  34.629  29.636  1.00  0.00     0.060 A 
BRANCH  86  87
ATOM     87  S   UNL A   1      33.091  35.555  28.745  1.00  0.00     0.124 S 
ATOM     88  O   UNL A   1      33.896  36.531  28.019  1.00  0.00    -0.237 OA
ATOM     89  O   UNL A   1      32.453  34.526  27.929  1.00  0.00    -0.237 OA
ATOM     90  O   UNL A   1      32.259  36.096  29.815  1.00  0.00    -0.744 OA
ENDBRANCH  86  87
ENDBRANCH  54  79
BRANCH  66  91
ATOM     91  C   UNL A   1      39.802  34.274  36.951  1.00  0.00     0.058 A 
ATOM     92  C   UNL A   1      39.024  34.061  38.101  1.00  0.00     0.135 A 
ATOM     93  C   UNL A   1      40.504  35.486  36.851  1.00  0.00     0.135 A 
ATOM     94  F   UNL A   1      38.333  32.918  38.246  1.00  0.00    -0.206 F 
ATOM     95  C   UNL A   1      38.925  35.021  39.103  1.00  0.00     0.059 A 
ATOM     96  C   UNL A   1      40.438  36.453  37.852  1.00  0.00     0.059 A 
ATOM     97  F   UNL A   1      41.271  35.736  35.780  1.00  0.00    -0.206 F 
ATOM     98  C   UNL A   1      39.635  36.216  38.969  1.00  0.00     0.060 A 
BRANCH  98  99
ATOM     99  S   UNL A   1      39.524  37.444  40.287  1.00  0.00     0.124 S 
ATOM    100  O   UNL A   1      40.927  37.785  40.492  1.00  0.00    -0.237 OA
ATOM    101  O   UNL A   1      38.702  38.486  39.680  1.00  0.00    -0.237 OA
ATOM    102  O   UNL A   1      38.889  36.712  41.380  1.00  0.00    -0.744 OA
ENDBRANCH  98  99
ENDBRANCH  66  91
ENDBRANCH  40  41
ENDBRANCH  33  35
ENDBRANCH  32  33
ENDBRANCH  31  32
ENDBRANCH  30  31
ENDBRANCH   1  30
TORSDOF 20
ENDMDL
MODEL 2
REMARK VINA RESULT:     -11.8      6.052      8.020
REMARK SMILES CC1(C)S[C@H](c2ccc(-c3cccc([N+](=O)[O-])c3)o2)[NH2+][C@@H]1C(=O)OCCOCCOC(=O)c1ccc(-c2c3nc(c(-c4c(F)cc(S(=O)(=O)[O-])cc4F)c4ccc([nH]4)c(-c4c(F)cc(S(=O)(=O)[O-])cc4F)c4nc(c(-c5c(F)cc(S(=O)(=O)[O-])cc5F)c5ccc2[nH]5)C=C4)C=C3)cc1
REMARK SMILES IDX 27 1 26 2 25 3 24 4 22 5 23 6 21 7 1 8 2 9 3 10 4 11 5 12
REMARK SMILES IDX 20 13 6 16 7 17 19 18 8 19 9 20 10 21 11 22 18 23 12 24
REMARK SMILES IDX 14 25 13 26 15 27 16 28 17 29 28 30 29 31 30 32 31 33 32 34
REMARK SMILES IDX 33 35 34 36 98 37 35 38 97 39 36 40 37 41 38 42 91 43 39 44
REMARK SMILES IDX 96 45 90 46 92 47 40 48 95 49 89 50 88 51 41 53 75 54 54 55
REMARK SMILES IDX 74 56 55 57 58 58 73 59 93 60 56 61 57 62 72 64 94 65 59 66
REMARK SMILES IDX 42 67 43 68 52 69 44 70 45 71 51 72 53 73 46 74 47 75 48 76
REMARK SMILES IDX 49 77 50 78 76 79 77 80 86 81 78 82 79 83 85 84 87 85 80 86
REMARK SMILES IDX 81 87 82 88 83 89 84 90 60 91 61 92 70 93 62 94 63 95 69 96
REMARK SMILES IDX 71 97 64 98 65 99 66 100 67 101 68 102
REMARK H PARENT 20 14 20 15 92 52 58 63
REMARK Flexibility Score: inf
ROOT
ATOM      1  O   UNL A   1      36.881  21.559  24.693  1.00  0.00    -0.374 OA
ENDROOT
BRANCH   1   2
ATOM      2  C   UNL A   1      36.605  22.564  23.729  1.00  0.00     0.202 C 
BRANCH   2   3
ATOM      3  C   UNL A   1      35.143  22.890  23.416  1.00  0.00     0.261 C 
BRANCH   3   4
ATOM      4  O   UNL A   1      34.838  24.272  23.276  1.00  0.00    -0.459 OA
BRANCH   4   5
ATOM      5  C   UNL A   1      34.296  24.847  24.394  1.00  0.00     0.366 C 
ATOM      6  O   UNL A   1      34.824  24.855  25.498  1.00  0.00    -0.245 OA
BRANCH   5   7
ATOM      7  C   UNL A   1      32.953  25.502  24.032  1.00  0.00     0.310 C 
ATOM      8  C   UNL A   1      31.268  27.342  24.541  1.00  0.00     0.030 C 
ATOM      9  C   UNL A   1      32.296  26.358  25.138  1.00  0.00     0.079 C 
ATOM     10  C   UNL A   1      33.263  27.172  26.006  1.00  0.00     0.030 C 
ATOM     11  S   UNL A   1      31.378  25.117  26.114  1.00  0.00    -0.078 SA
ATOM     12  C   UNL A   1      31.443  23.828  24.811  1.00  0.00     0.311 C 
ATOM     13  N   UNL A   1      31.984  24.457  23.598  1.00  0.00    -0.316 N 
ATOM     14  H   UNL A   1      31.229  24.883  23.060  1.00  0.00     0.348 HD
ATOM     15  H   UNL A   1      32.443  23.764  23.008  1.00  0.00     0.348 HD
BRANCH  12  16
ATOM     16  C   UNL A   1      32.147  22.579  25.275  1.00  0.00     0.172 A 
ATOM     17  C   UNL A   1      32.786  22.293  26.470  1.00  0.00     0.054 A 
ATOM     18  O   UNL A   1      32.140  21.444  24.488  1.00  0.00    -0.454 OA
ATOM     19  C   UNL A   1      33.170  20.935  26.423  1.00  0.00     0.051 A 
ATOM     20  C   UNL A   1      32.764  20.453  25.199  1.00  0.00     0.134 A 
BRANCH  20  21
ATOM     21  C   UNL A   1      32.892  19.138  24.584  1.00  0.00     0.024 A 
ATOM     22  C   UNL A   1      32.542  18.948  23.242  1.00  0.00     0.012 A 
ATOM     23  C   UNL A   1      33.510  18.084  25.265  1.00  0.00     0.097 A 
ATOM     24  C   UNL A   1      32.705  17.713  22.605  1.00  0.00     0.008 A 
ATOM     25  C   UNL A   1      33.749  16.868  24.601  1.00  0.00     0.270 A 
ATOM     26  C   UNL A   1      33.310  16.664  23.286  1.00  0.00     0.085 A 
BRANCH  25  27
ATOM     27  N   UNL A   1      34.550  15.826  25.254  1.00  0.00     0.062 N 
ATOM     28  O   UNL A   1      34.041  14.703  25.376  1.00  0.00    -0.258 OA
ATOM     29  O   UNL A   1      35.690  16.134  25.625  1.00  0.00    -0.258 OA
ENDBRANCH  25  27
ENDBRANCH  20  21
ENDBRANCH  12  16
ENDBRANCH   5   7
ENDBRANCH   4   5
ENDBRANCH   3   4
ENDBRANCH   2   3
ENDBRANCH   1   2
BRANCH   1  30
ATOM     30  C   UNL A   1      38.135  21.594  25.368  1.00  0.00     0.202 C 
BRANCH  30  31
ATOM     31  C   UNL A   1      38.967  20.307  25.469  1.00  0.00     0.261 C 
BRANCH  31  32
ATOM     32  O   UNL A   1      39.882  20.277  26.582  1.00  0.00    -0.460 OA
BRANCH  32  33
ATOM     33  C   UNL A   1      41.158  19.955  26.261  1.00  0.00     0.338 C 
ATOM     34  O   UNL A   1      41.544  18.896  25.773  1.00  0.00    -0.246 OA
BRANCH  33  35
ATOM     35  C   UNL A   1      42.075  21.090  26.447  1.00  0.00     0.060 A 
ATOM     36  C   UNL A   1      42.444  21.434  27.754  1.00  0.00     0.016 A 
ATOM     37  C   UNL A   1      42.407  21.921  25.374  1.00  0.00     0.016 A 
ATOM     38  C   UNL A   1      43.102  22.641  27.998  1.00  0.00     0.010 A 
ATOM     39  C   UNL A   1      43.054  23.138  25.624  1.00  0.00     0.010 A 
ATOM     40  C   UNL A   1      43.367  23.523  26.939  1.00  0.00    -0.014 A 
BRANCH  40  41
ATOM     41  C   UNL A   1      43.841  24.896  27.239  1.00  0.00     0.031 A 
ATOM     42  C   UNL A   1      45.267  25.269  26.938  1.00  0.00     0.074 A 
ATOM     43  C   UNL A   1      43.007  25.810  27.767  1.00  0.00     0.049 A 
ATOM     44  N   UNL A   1      45.873  26.419  27.090  1.00  0.00    -0.248 NA
ATOM     45  C   UNL A   1      46.130  24.198  26.416  1.00  0.00     0.031 C 
ATOM     46  C   UNL A   1      41.624  25.551  28.155  1.00  0.00     0.029 A 
ATOM     47  N   UNL A   1      43.200  27.136  28.062  1.00  0.00    -0.354 N 
ATOM     48  C   UNL A   1      47.196  26.202  26.723  1.00  0.00     0.074 A 
ATOM     49  C   UNL A   1      47.301  24.812  26.331  1.00  0.00     0.031 C 
ATOM     50  C   UNL A   1      41.085  26.694  28.610  1.00  0.00     0.029 A 
ATOM     51  C   UNL A   1      42.070  27.769  28.521  1.00  0.00     0.049 A 
ATOM     52  H   UNL A   1      44.067  27.591  27.956  1.00  0.00     0.167 HD
ATOM     53  C   UNL A   1      48.230  27.077  26.732  1.00  0.00     0.037 A 
ATOM     54  C   UNL A   1      41.849  29.068  28.810  1.00  0.00     0.037 A 
ATOM     55  C   UNL A   1      48.123  28.458  27.129  1.00  0.00     0.049 A 
ATOM     56  C   UNL A   1      42.995  30.044  28.721  1.00  0.00     0.074 A 
ATOM     57  C   UNL A   1      49.118  29.420  27.182  1.00  0.00     0.029 A 
ATOM     58  N   UNL A   1      46.951  29.075  27.541  1.00  0.00    -0.354 N 
ATOM     59  N   UNL A   1      44.238  29.828  28.360  1.00  0.00    -0.248 NA
ATOM     60  C   UNL A   1      42.718  31.434  29.114  1.00  0.00     0.031 C 
ATOM     61  C   UNL A   1      48.554  30.608  27.659  1.00  0.00     0.029 A 
ATOM     62  C   UNL A   1      47.199  30.400  27.860  1.00  0.00     0.049 A 
ATOM     63  H   UNL A   1      46.072  28.636  27.598  1.00  0.00     0.167 HD
ATOM     64  C   UNL A   1      44.891  31.048  28.494  1.00  0.00     0.074 A 
ATOM     65  C   UNL A   1      43.898  32.010  28.927  1.00  0.00     0.031 C 
ATOM     66  C   UNL A   1      46.201  31.343  28.302  1.00  0.00     0.037 A 
BRANCH  53  67
ATOM     67  C   UNL A   1      49.583  26.548  26.349  1.00  0.00     0.058 A 
ATOM     68  C   UNL A   1      50.410  25.888  27.271  1.00  0.00     0.135 A 
ATOM     69  C   UNL A   1      50.055  26.694  25.034  1.00  0.00     0.135 A 
ATOM     70  F   UNL A   1      50.016  25.738  28.546  1.00  0.00    -0.206 F 
ATOM     71  C   UNL A   1      51.668  25.416  26.910  1.00  0.00     0.059 A 
ATOM     72  C   UNL A   1      51.300  26.211  24.645  1.00  0.00     0.059 A 
ATOM     73  F   UNL A   1      49.305  27.321  24.114  1.00  0.00    -0.206 F 
ATOM     74  C   UNL A   1      52.107  25.587  25.596  1.00  0.00     0.060 A 
BRANCH  74  75
ATOM     75  S   UNL A   1      53.747  24.984  25.143  1.00  0.00     0.124 S 
ATOM     76  O   UNL A   1      53.542  23.539  25.165  1.00  0.00    -0.237 OA
ATOM     77  O   UNL A   1      53.945  25.575  23.823  1.00  0.00    -0.237 OA
ATOM     78  O   UNL A   1      54.607  25.513  26.197  1.00  0.00    -0.744 OA
ENDBRANCH  74  75
ENDBRANCH  53  67
BRANCH  54  79
ATOM     79  C   UNL A   1      40.482  29.540  29.174  1.00  0.00     0.058 A 
ATOM     80  C   UNL A   1      39.486  29.670  28.191  1.00  0.00     0.135 A 
ATOM     81  C   UNL A   1      40.139  29.875  30.492  1.00  0.00     0.135 A 
ATOM     82  F   UNL A   1      39.768  29.387  26.910  1.00  0.00    -0.206 F 
ATOM     83  C   UNL A   1      38.207  30.127  28.498  1.00  0.00     0.059 A 
ATOM     84  C   UNL A   1      38.860  30.310  30.827  1.00  0.00     0.059 A 
ATOM     85  F   UNL A   1      41.050  29.763  31.472  1.00  0.00    -0.206 F 
ATOM     86  C   UNL A   1      37.903  30.446  29.822  1.00  0.00     0.060 A 
BRANCH  86  87
ATOM     87  S   UNL A   1      36.237  31.013  30.231  1.00  0.00     0.124 S 
ATOM     88  O   UNL A   1      35.510  30.688  29.008  1.00  0.00    -0.237 OA
ATOM     89  O   UNL A   1      35.899  30.210  31.402  1.00  0.00    -0.237 OA
ATOM     90  O   UNL A   1      36.423  32.437  30.493  1.00  0.00    -0.744 OA
ENDBRANCH  86  87
ENDBRANCH  54  79
BRANCH  66  91
ATOM     91  C   UNL A   1      46.640  32.756  28.574  1.00  0.00     0.058 A 
ATOM     92  C   UNL A   1      46.622  33.734  27.567  1.00  0.00     0.135 A 
ATOM     93  C   UNL A   1      47.036  33.150  29.862  1.00  0.00     0.135 A 
ATOM     94  F   UNL A   1      46.251  33.410  26.318  1.00  0.00    -0.206 F 
ATOM     95  C   UNL A   1      47.004  35.048  27.819  1.00  0.00     0.059 A 
ATOM     96  C   UNL A   1      47.401  34.464  30.144  1.00  0.00     0.059 A 
ATOM     97  F   UNL A   1      47.060  32.258  30.864  1.00  0.00    -0.206 F 
ATOM     98  C   UNL A   1      47.394  35.404  29.112  1.00  0.00     0.060 A 
BRANCH  98  99
ATOM     99  S   UNL A   1      47.861  37.117  29.437  1.00  0.00     0.124 S 
ATOM    100  O   UNL A   1      48.927  36.951  30.419  1.00  0.00    -0.237 OA
ATOM    101  O   UNL A   1      48.280  37.585  28.120  1.00  0.00    -0.237 OA
ATOM    102  O   UNL A   1      46.628  37.715  29.942  1.00  0.00    -0.744 OA
ENDBRANCH  98  99
ENDBRANCH  66  91
ENDBRANCH  40  41
ENDBRANCH  33  35
ENDBRANCH  32  33
ENDBRANCH  31  32
ENDBRANCH  30  31
ENDBRANCH   1  30
TORSDOF 20
ENDMDL
MODEL 3
REMARK VINA RESULT:     -11.8      1.708      4.397
REMARK SMILES CC1(C)S[C@H](c2ccc(-c3cccc([N+](=O)[O-])c3)o2)[NH2+][C@@H]1C(=O)OCCOCCOC(=O)c1ccc(-c2c3nc(c(-c4c(F)cc(S(=O)(=O)[O-])cc4F)c4ccc([nH]4)c(-c4c(F)cc(S(=O)(=O)[O-])cc4F)c4nc(c(-c5c(F)cc(S(=O)(=O)[O-])cc5F)c5ccc2[nH]5)C=C4)C=C3)cc1
REMARK SMILES IDX 27 1 26 2 25 3 24 4 22 5 23 6 21 7 1 8 2 9 3 10 4 11 5 12
REMARK SMILES IDX 20 13 6 16 7 17 19 18 8 19 9 20 10 21 11 22 18 23 12 24
REMARK SMILES IDX 14 25 13 26 15 27 16 28 17 29 28 30 29 31 30 32 31 33 32 34
REMARK SMILES IDX 33 35 34 36 98 37 35 38 97 39 36 40 37 41 38 42 91 43 39 44
REMARK SMILES IDX 96 45 90 46 92 47 40 48 95 49 89 50 88 51 41 53 75 54 54 55
REMARK SMILES IDX 74 56 55 57 58 58 73 59 93 60 56 61 57 62 72 64 94 65 59 66
REMARK SMILES IDX 42 67 43 68 52 69 44 70 45 71 51 72 53 73 46 74 47 75 48 76
REMARK SMILES IDX 49 77 50 78 76 79 77 80 86 81 78 82 79 83 85 84 87 85 80 86
REMARK SMILES IDX 81 87 82 88 83 89 84 90 60 91 61 92 70 93 62 94 63 95 69 96
REMARK SMILES IDX 71 97 64 98 65 99 66 100 67 101 68 102
REMARK H PARENT 20 14 20 15 92 52 58 63
REMARK Flexibility Score: inf
ROOT
ATOM      1  O   UNL A   1      37.952  22.269  25.498  1.00  0.00    -0.374 OA
ENDROOT
BRANCH   1   2
ATOM      2  C   UNL A   1      37.323  21.818  24.308  1.00  0.00     0.202 C 
BRANCH   2   3
ATOM      3  C   UNL A   1      36.652  22.853  23.404  1.00  0.00     0.261 C 
BRANCH   3   4
ATOM      4  O   UNL A   1      35.517  23.509  23.956  1.00  0.00    -0.459 OA
BRANCH   4   5
ATOM      5  C   UNL A   1      34.337  22.838  23.784  1.00  0.00     0.366 C 
ATOM      6  O   UNL A   1      33.566  23.013  22.849  1.00  0.00    -0.245 OA
BRANCH   5   7
ATOM      7  C   UNL A   1      34.158  21.819  24.922  1.00  0.00     0.310 C 
ATOM      8  C   UNL A   1      33.116  19.622  25.678  1.00  0.00     0.030 C 
ATOM      9  C   UNL A   1      32.932  20.885  24.808  1.00  0.00     0.079 C 
ATOM     10  C   UNL A   1      32.584  20.420  23.389  1.00  0.00     0.030 C 
ATOM     11  S   UNL A   1      31.595  21.882  25.552  1.00  0.00    -0.078 SA
ATOM     12  C   UNL A   1      32.733  23.059  26.379  1.00  0.00     0.311 C 
ATOM     13  N   UNL A   1      34.096  22.531  26.230  1.00  0.00    -0.316 N 
ATOM     14  H   UNL A   1      34.304  21.882  26.989  1.00  0.00     0.348 HD
ATOM     15  H   UNL A   1      34.780  23.286  26.260  1.00  0.00     0.348 HD
BRANCH  12  16
ATOM     16  C   UNL A   1      32.523  24.479  25.919  1.00  0.00     0.172 A 
ATOM     17  C   UNL A   1      33.387  25.560  25.904  1.00  0.00     0.054 A 
ATOM     18  O   UNL A   1      31.334  24.846  25.320  1.00  0.00    -0.454 OA
ATOM     19  C   UNL A   1      32.715  26.622  25.261  1.00  0.00     0.051 A 
ATOM     20  C   UNL A   1      31.466  26.151  24.924  1.00  0.00     0.134 A 
BRANCH  20  21
ATOM     21  C   UNL A   1      30.337  26.787  24.258  1.00  0.00     0.024 A 
ATOM     22  C   UNL A   1      29.044  26.269  24.406  1.00  0.00     0.012 A 
ATOM     23  C   UNL A   1      30.490  28.009  23.593  1.00  0.00     0.097 A 
ATOM     24  C   UNL A   1      27.931  26.887  23.827  1.00  0.00     0.008 A 
ATOM     25  C   UNL A   1      29.360  28.673  23.082  1.00  0.00     0.270 A 
ATOM     26  C   UNL A   1      28.086  28.095  23.159  1.00  0.00     0.085 A 
BRANCH  25  27
ATOM     27  N   UNL A   1      29.496  30.030  22.541  1.00  0.00     0.062 N 
ATOM     28  O   UNL A   1      29.928  30.147  21.386  1.00  0.00    -0.258 OA
ATOM     29  O   UNL A   1      29.153  30.969  23.270  1.00  0.00    -0.258 OA
ENDBRANCH  25  27
ENDBRANCH  20  21
ENDBRANCH  12  16
ENDBRANCH   5   7
ENDBRANCH   4   5
ENDBRANCH   3   4
ENDBRANCH   2   3
ENDBRANCH   1   2
BRANCH   1  30
ATOM     30  C   UNL A   1      39.032  21.503  26.026  1.00  0.00     0.202 C 
BRANCH  30  31
ATOM     31  C   UNL A   1      40.195  22.227  26.718  1.00  0.00     0.261 C 
BRANCH  31  32
ATOM     32  O   UNL A   1      40.255  23.644  26.455  1.00  0.00    -0.460 OA
BRANCH  32  33
ATOM     33  C   UNL A   1      41.312  24.281  27.010  1.00  0.00     0.338 C 
ATOM     34  O   UNL A   1      42.499  23.994  26.864  1.00  0.00    -0.246 OA
BRANCH  33  35
ATOM     35  C   UNL A   1      40.904  25.486  27.747  1.00  0.00     0.060 A 
ATOM     36  C   UNL A   1      41.829  26.530  27.873  1.00  0.00     0.016 A 
ATOM     37  C   UNL A   1      39.708  25.508  28.470  1.00  0.00     0.016 A 
ATOM     38  C   UNL A   1      41.584  27.575  28.765  1.00  0.00     0.010 A 
ATOM     39  C   UNL A   1      39.472  26.551  29.375  1.00  0.00     0.010 A 
ATOM     40  C   UNL A   1      40.427  27.566  29.557  1.00  0.00    -0.014 A 
BRANCH  40  41
ATOM     41  C   UNL A   1      40.297  28.544  30.666  1.00  0.00     0.031 A 
ATOM     42  C   UNL A   1      41.282  28.508  31.803  1.00  0.00     0.074 A 
ATOM     43  C   UNL A   1      39.317  29.465  30.657  1.00  0.00     0.049 A 
ATOM     44  N   UNL A   1      41.368  29.289  32.849  1.00  0.00    -0.248 NA
ATOM     45  C   UNL A   1      42.287  27.435  31.767  1.00  0.00     0.031 C 
ATOM     46  C   UNL A   1      38.273  29.562  29.642  1.00  0.00     0.029 A 
ATOM     47  N   UNL A   1      39.045  30.494  31.524  1.00  0.00    -0.354 N 
ATOM     48  C   UNL A   1      42.410  28.781  33.616  1.00  0.00     0.074 A 
ATOM     49  C   UNL A   1      42.930  27.630  32.910  1.00  0.00     0.031 C 
ATOM     50  C   UNL A   1      37.490  30.614  29.932  1.00  0.00     0.029 A 
ATOM     51  C   UNL A   1      37.991  31.282  31.130  1.00  0.00     0.049 A 
ATOM     52  H   UNL A   1      39.557  30.651  32.351  1.00  0.00     0.167 HD
ATOM     53  C   UNL A   1      42.874  29.224  34.810  1.00  0.00     0.037 A 
ATOM     54  C   UNL A   1      37.503  32.422  31.661  1.00  0.00     0.037 A 
ATOM     55  C   UNL A   1      42.350  30.366  35.513  1.00  0.00     0.049 A 
ATOM     56  C   UNL A   1      38.100  32.949  32.942  1.00  0.00     0.074 A 
ATOM     57  C   UNL A   1      42.748  30.885  36.734  1.00  0.00     0.029 A 
ATOM     58  N   UNL A   1      41.314  31.169  35.059  1.00  0.00    -0.354 N 
ATOM     59  N   UNL A   1      39.093  32.465  33.650  1.00  0.00    -0.248 NA
ATOM     60  C   UNL A   1      37.487  34.156  33.515  1.00  0.00     0.031 C 
ATOM     61  C   UNL A   1      41.929  31.979  37.034  1.00  0.00     0.029 A 
ATOM     62  C   UNL A   1      41.052  32.171  35.979  1.00  0.00     0.049 A 
ATOM     63  H   UNL A   1      40.835  31.045  34.208  1.00  0.00     0.167 HD
ATOM     64  C   UNL A   1      39.214  33.301  34.756  1.00  0.00     0.074 A 
ATOM     65  C   UNL A   1      38.223  34.346  34.601  1.00  0.00     0.031 C 
ATOM     66  C   UNL A   1      40.052  33.198  35.817  1.00  0.00     0.037 A 
BRANCH  53  67
ATOM     67  C   UNL A   1      43.975  28.432  35.456  1.00  0.00     0.058 A 
ATOM     68  C   UNL A   1      45.327  28.653  35.150  1.00  0.00     0.135 A 
ATOM     69  C   UNL A   1      43.673  27.442  36.407  1.00  0.00     0.135 A 
ATOM     70  F   UNL A   1      45.670  29.574  34.234  1.00  0.00    -0.206 F 
ATOM     71  C   UNL A   1      46.338  27.902  35.741  1.00  0.00     0.059 A 
ATOM     72  C   UNL A   1      44.669  26.695  37.028  1.00  0.00     0.059 A 
ATOM     73  F   UNL A   1      42.396  27.187  36.734  1.00  0.00    -0.206 F 
ATOM     74  C   UNL A   1      45.999  26.922  36.675  1.00  0.00     0.060 A 
BRANCH  74  75
ATOM     75  S   UNL A   1      47.318  25.944  37.425  1.00  0.00     0.124 S 
ATOM     76  O   UNL A   1      47.336  26.474  38.785  1.00  0.00    -0.237 OA
ATOM     77  O   UNL A   1      46.817  24.580  37.284  1.00  0.00    -0.237 OA
ATOM     78  O   UNL A   1      48.485  26.266  36.611  1.00  0.00    -0.744 OA
ENDBRANCH  74  75
ENDBRANCH  53  67
BRANCH  54  79
ATOM     79  C   UNL A   1      36.417  33.174  30.970  1.00  0.00     0.058 A 
ATOM     80  C   UNL A   1      36.697  33.953  29.835  1.00  0.00     0.135 A 
ATOM     81  C   UNL A   1      35.089  33.140  31.420  1.00  0.00     0.135 A 
ATOM     82  F   UNL A   1      37.955  34.041  29.377  1.00  0.00    -0.206 F 
ATOM     83  C   UNL A   1      35.707  34.681  29.181  1.00  0.00     0.059 A 
ATOM     84  C   UNL A   1      34.076  33.839  30.768  1.00  0.00     0.059 A 
ATOM     85  F   UNL A   1      34.763  32.406  32.496  1.00  0.00    -0.206 F 
ATOM     86  C   UNL A   1      34.396  34.618  29.656  1.00  0.00     0.060 A 
BRANCH  86  87
ATOM     87  S   UNL A   1      33.101  35.538  28.796  1.00  0.00     0.124 S 
ATOM     88  O   UNL A   1      32.372  36.131  29.912  1.00  0.00    -0.237 OA
ATOM     89  O   UNL A   1      33.862  36.471  27.969  1.00  0.00    -0.237 OA
ATOM     90  O   UNL A   1      32.387  34.501  28.057  1.00  0.00    -0.744 OA
ENDBRANCH  86  87
ENDBRANCH  54  79
BRANCH  66  91
ATOM     91  C   UNL A   1      39.923  34.231  36.903  1.00  0.00     0.058 A 
ATOM     92  C   UNL A   1      40.641  35.437  36.853  1.00  0.00     0.135 A 
ATOM     93  C   UNL A   1      39.040  34.038  37.978  1.00  0.00     0.135 A 
ATOM     94  F   UNL A   1      41.498  35.672  35.847  1.00  0.00    -0.206 F 
ATOM     95  C   UNL A   1      40.507  36.407  37.843  1.00  0.00     0.059 A 
ATOM     96  C   UNL A   1      38.873  35.004  38.967  1.00  0.00     0.059 A 
ATOM     97  F   UNL A   1      38.321  32.910  38.067  1.00  0.00    -0.206 F 
ATOM     98  C   UNL A   1      39.621  36.180  38.898  1.00  0.00     0.060 A 
BRANCH  98  99
ATOM     99  S   UNL A   1      39.432  37.455  40.162  1.00  0.00     0.124 S 
ATOM    100  O   UNL A   1      38.884  36.688  41.275  1.00  0.00    -0.237 OA
ATOM    101  O   UNL A   1      40.801  37.932  40.335  1.00  0.00    -0.237 OA
ATOM    102  O   UNL A   1      38.517  38.412  39.546  1.00  0.00    -0.744 OA
ENDBRANCH  98  99
ENDBRANCH  66  91
ENDBRANCH  40  41
ENDBRANCH  33  35
ENDBRANCH  32  33
ENDBRANCH  31  32
ENDBRANCH  30  31
ENDBRANCH   1  30
TORSDOF 20
ENDMDL
