MODEL 1
REMARK VINA RESULT:     -11.5      0.000      0.000
REMARK SMILES CC1=C[C@H](C)[C@H](CN2C[C@@]34C=C[C@@H](O3)[C@H](C(=O)OCCOCCOC(=O)c3ccc(-c5c6nc(c(-c7c(F)cc(S(=O)(=O)[O-])cc7F)c7ccc([nH]7)c(-c7c(F)cc(S(=O)(=O)[O-])cc7F)c7nc(c(-c8c(F)cc(S(=O)(=O)[O-])cc8F)c8ccc5[nH]8)C=C7)C=C6)cc3)[C@@H]4C2=O)[C@H](C)C1
REMARK SMILES IDX 22 1 21 2 20 3 19 4 18 5 16 6 17 7 15 8 8 9 9 10 94 11 10 12
REMARK SMILES IDX 93 13 95 14 11 15 14 16 12 17 13 18 7 19 6 20 1 21 2 22 3 23
REMARK SMILES IDX 98 24 4 25 96 26 5 27 97 28 23 29 24 30 25 31 26 32 27 33
REMARK SMILES IDX 28 34 92 35 29 36 91 37 30 38 31 39 32 40 85 41 33 42 90 43
REMARK SMILES IDX 84 44 86 45 34 46 89 47 83 48 82 49 35 51 69 52 48 53 68 54
REMARK SMILES IDX 49 55 52 56 67 57 87 58 50 59 51 60 66 62 88 63 53 64 36 65
REMARK SMILES IDX 37 66 46 67 38 68 39 69 45 70 47 71 40 72 41 73 42 74 43 75
REMARK SMILES IDX 44 76 70 77 71 78 80 79 72 80 73 81 79 82 81 83 74 84 75 85
REMARK SMILES IDX 76 86 77 87 78 88 54 89 55 90 64 91 56 92 57 93 63 94 65 95
REMARK SMILES IDX 58 96 59 97 60 98 61 99 62 100
REMARK H PARENT 86 50 52 61
REMARK Flexibility Score: inf
ROOT
ATOM      1  C   UNL A   1      34.601  31.202  27.868  1.00  0.00     0.202 C 
ENDROOT
BRANCH   1   2
ATOM      2  O   UNL A   1      33.566  31.462  26.922  1.00  0.00    -0.374 OA
BRANCH   2   3
ATOM      3  C   UNL A   1      32.297  30.844  27.113  1.00  0.00     0.202 C 
BRANCH   3   4
ATOM      4  C   UNL A   1      32.210  29.313  27.022  1.00  0.00     0.261 C 
BRANCH   4   5
ATOM      5  O   UNL A   1      31.565  28.849  25.824  1.00  0.00    -0.463 OA
BRANCH   5   6
ATOM      6  C   UNL A   1      31.261  27.535  25.852  1.00  0.00     0.312 C 
ATOM      7  O   UNL A   1      31.023  26.885  26.868  1.00  0.00    -0.252 OA
BRANCH   6   8
ATOM      8  C   UNL A   1      31.131  26.877  24.517  1.00  0.00     0.148 C 
ATOM      9  N   UNL A   1      34.242  24.856  23.953  1.00  0.00    -0.339 N 
ATOM     10  C   UNL A   1      33.645  25.031  22.594  1.00  0.00     0.160 C 
ATOM     11  C   UNL A   1      33.676  25.898  24.784  1.00  0.00     0.230 C 
ATOM     12  C   UNL A   1      32.649  26.187  22.780  1.00  0.00     0.117 C 
ATOM     13  C   UNL A   1      32.292  25.976  24.244  1.00  0.00     0.133 C 
ATOM     14  O   UNL A   1      34.112  26.355  25.827  1.00  0.00    -0.274 OA
ATOM     15  C   UNL A   1      33.082  27.599  22.475  1.00  0.00     0.009 C 
ATOM     16  O   UNL A   1      31.297  26.253  22.294  1.00  0.00    -0.360 OA
ATOM     17  C   UNL A   1      32.012  28.376  22.687  1.00  0.00     0.004 C 
ATOM     18  C   UNL A   1      30.918  27.463  23.122  1.00  0.00     0.157 C 
BRANCH   9  19
ATOM     19  C   UNL A   1      34.052  23.604  24.666  1.00  0.00     0.124 C 
BRANCH  19  20
ATOM     20  C   UNL A   1      34.123  22.220  24.025  1.00  0.00     0.018 C 
ATOM     21  C   UNL A   1      33.199  17.941  24.982  1.00  0.00     0.039 C 
ATOM     22  C   UNL A   1      33.563  19.353  24.624  1.00  0.00    -0.077 C 
ATOM     23  C   UNL A   1      34.755  19.877  24.941  1.00  0.00    -0.025 C 
ATOM     24  C   UNL A   1      32.531  20.123  23.868  1.00  0.00     0.034 C 
ATOM     25  C   UNL A   1      35.207  21.283  24.648  1.00  0.00     0.014 C 
ATOM     26  C   UNL A   1      32.643  21.646  23.979  1.00  0.00    -0.005 C 
ATOM     27  C   UNL A   1      35.917  21.813  25.903  1.00  0.00     0.012 C 
ATOM     28  C   UNL A   1      31.685  22.142  25.096  1.00  0.00     0.008 C 
ENDBRANCH  19  20
ENDBRANCH   9  19
ENDBRANCH   6   8
ENDBRANCH   5   6
ENDBRANCH   4   5
ENDBRANCH   3   4
ENDBRANCH   2   3
ENDBRANCH   1   2
BRANCH   1  29
ATOM     29  C   UNL A   1      34.980  32.293  28.881  1.00  0.00     0.261 C 
BRANCH  29  30
ATOM     30  O   UNL A   1      36.390  32.337  29.176  1.00  0.00    -0.460 OA
BRANCH  30  31
ATOM     31  C   UNL A   1      36.766  31.532  30.203  1.00  0.00     0.338 C 
ATOM     32  O   UNL A   1      36.212  31.424  31.285  1.00  0.00    -0.246 OA
BRANCH  31  33
ATOM     33  C   UNL A   1      37.870  30.641  29.807  1.00  0.00     0.060 A 
ATOM     34  C   UNL A   1      38.810  30.296  30.787  1.00  0.00     0.016 A 
ATOM     35  C   UNL A   1      38.086  30.309  28.469  1.00  0.00     0.016 A 
ATOM     36  C   UNL A   1      39.999  29.664  30.422  1.00  0.00     0.010 A 
ATOM     37  C   UNL A   1      39.286  29.684  28.104  1.00  0.00     0.010 A 
ATOM     38  C   UNL A   1      40.265  29.399  29.073  1.00  0.00    -0.014 A 
BRANCH  38  39
ATOM     39  C   UNL A   1      41.632  28.970  28.678  1.00  0.00     0.031 A 
ATOM     40  C   UNL A   1      42.745  29.986  28.664  1.00  0.00     0.074 A 
ATOM     41  C   UNL A   1      41.888  27.685  28.380  1.00  0.00     0.049 A 
ATOM     42  N   UNL A   1      44.009  29.826  28.368  1.00  0.00    -0.248 NA
ATOM     43  C   UNL A   1      42.385  31.364  29.036  1.00  0.00     0.031 C 
ATOM     44  C   UNL A   1      40.902  26.605  28.381  1.00  0.00     0.029 A 
ATOM     45  N   UNL A   1      43.061  27.070  28.016  1.00  0.00    -0.354 N 
ATOM     46  C   UNL A   1      44.595  31.078  28.509  1.00  0.00     0.074 A 
ATOM     47  C   UNL A   1      43.544  31.994  28.899  1.00  0.00     0.031 C 
ATOM     48  C   UNL A   1      41.508  25.462  28.017  1.00  0.00     0.029 A 
ATOM     49  C   UNL A   1      42.919  25.731  27.740  1.00  0.00     0.049 A 
ATOM     50  H   UNL A   1      43.921  27.544  27.957  1.00  0.00     0.167 HD
ATOM     51  C   UNL A   1      45.891  31.432  28.336  1.00  0.00     0.037 A 
ATOM     52  C   UNL A   1      43.819  24.830  27.299  1.00  0.00     0.037 A 
ATOM     53  C   UNL A   1      46.938  30.519  27.960  1.00  0.00     0.049 A 
ATOM     54  C   UNL A   1      45.247  25.255  27.083  1.00  0.00     0.074 A 
ATOM     55  C   UNL A   1      48.289  30.776  27.800  1.00  0.00     0.029 A 
ATOM     56  N   UNL A   1      46.752  29.174  27.677  1.00  0.00    -0.354 N 
ATOM     57  N   UNL A   1      45.794  26.435  27.262  1.00  0.00    -0.248 NA
ATOM     58  C   UNL A   1      46.185  24.225  26.611  1.00  0.00     0.031 C 
ATOM     59  C   UNL A   1      48.913  29.595  27.380  1.00  0.00     0.029 A 
ATOM     60  C   UNL A   1      47.957  28.594  27.319  1.00  0.00     0.049 A 
ATOM     61  H   UNL A   1      45.889  28.701  27.724  1.00  0.00     0.167 HD
ATOM     62  C   UNL A   1      47.140  26.284  26.942  1.00  0.00     0.074 A 
ATOM     63  C   UNL A   1      47.328  24.896  26.571  1.00  0.00     0.031 C 
ATOM     64  C   UNL A   1      48.129  27.210  26.953  1.00  0.00     0.037 A 
BRANCH  51  65
ATOM     65  C   UNL A   1      46.252  32.878  28.531  1.00  0.00     0.058 A 
ATOM     66  C   UNL A   1      46.674  33.372  29.775  1.00  0.00     0.135 A 
ATOM     67  C   UNL A   1      46.217  33.770  27.448  1.00  0.00     0.135 A 
ATOM     68  F   UNL A   1      46.709  32.564  30.847  1.00  0.00    -0.206 F 
ATOM     69  C   UNL A   1      47.033  34.706  29.943  1.00  0.00     0.059 A 
ATOM     70  C   UNL A   1      46.591  35.103  27.588  1.00  0.00     0.059 A 
ATOM     71  F   UNL A   1      45.818  33.348  26.238  1.00  0.00    -0.206 F 
ATOM     72  C   UNL A   1      46.987  35.565  28.843  1.00  0.00     0.060 A 
BRANCH  72  73
ATOM     73  S   UNL A   1      47.467  37.291  29.070  1.00  0.00     0.124 S 
ATOM     74  O   UNL A   1      47.346  37.438  30.517  1.00  0.00    -0.237 OA
ATOM     75  O   UNL A   1      48.828  37.311  28.542  1.00  0.00    -0.237 OA
ATOM     76  O   UNL A   1      46.482  38.023  28.280  1.00  0.00    -0.744 OA
ENDBRANCH  72  73
ENDBRANCH  51  65
BRANCH  52  77
ATOM     77  C   UNL A   1      43.390  23.437  27.011  1.00  0.00     0.058 A 
ATOM     78  C   UNL A   1      43.160  22.516  28.042  1.00  0.00     0.135 A 
ATOM     79  C   UNL A   1      43.206  23.000  25.689  1.00  0.00     0.135 A 
ATOM     80  F   UNL A   1      43.334  22.884  29.321  1.00  0.00    -0.206 F 
ATOM     81  C   UNL A   1      42.776  21.205  27.775  1.00  0.00     0.059 A 
ATOM     82  C   UNL A   1      42.801  21.702  25.398  1.00  0.00     0.059 A 
ATOM     83  F   UNL A   1      43.406  23.847  24.667  1.00  0.00    -0.206 F 
ATOM     84  C   UNL A   1      42.598  20.808  26.449  1.00  0.00     0.060 A 
BRANCH  84  85
ATOM     85  S   UNL A   1      42.060  19.118  26.110  1.00  0.00     0.124 S 
ATOM     86  O   UNL A   1      42.934  18.749  25.004  1.00  0.00    -0.237 OA
ATOM     87  O   UNL A   1      42.321  18.449  27.381  1.00  0.00    -0.237 OA
ATOM     88  O   UNL A   1      40.648  19.278  25.774  1.00  0.00    -0.744 OA
ENDBRANCH  84  85
ENDBRANCH  52  77
BRANCH  64  89
ATOM     89  C   UNL A   1      49.509  26.752  26.574  1.00  0.00     0.058 A 
ATOM     90  C   UNL A   1      50.395  26.225  27.527  1.00  0.00     0.135 A 
ATOM     91  C   UNL A   1      49.935  26.798  25.237  1.00  0.00     0.135 A 
ATOM     92  F   UNL A   1      50.038  26.162  28.819  1.00  0.00    -0.206 F 
ATOM     93  C   UNL A   1      51.664  25.779  27.170  1.00  0.00     0.059 A 
ATOM     94  C   UNL A   1      51.191  26.338  24.854  1.00  0.00     0.059 A 
ATOM     95  F   UNL A   1      49.121  27.283  24.286  1.00  0.00    -0.206 F 
ATOM     96  C   UNL A   1      52.054  25.842  25.831  1.00  0.00     0.060 A 
BRANCH  96  97
ATOM     97  S   UNL A   1      53.692  25.236  25.373  1.00  0.00     0.124 S 
ATOM     98  O   UNL A   1      53.370  23.946  24.770  1.00  0.00    -0.237 OA
ATOM     99  O   UNL A   1      54.164  26.265  24.451  1.00  0.00    -0.237 OA
ATOM    100  O   UNL A   1      54.399  25.176  26.648  1.00  0.00    -0.744 OA
ENDBRANCH  96  97
ENDBRANCH  64  89
ENDBRANCH  38  39
ENDBRANCH  31  33
ENDBRANCH  30  31
ENDBRANCH  29  30
ENDBRANCH   1  29
TORSDOF 19
ENDMDL
MODEL 2
REMARK VINA RESULT:     -11.5      6.406     12.067
REMARK SMILES CC1=C[C@H](C)[C@H](CN2C[C@@]34C=C[C@@H](O3)[C@H](C(=O)OCCOCCOC(=O)c3ccc(-c5c6nc(c(-c7c(F)cc(S(=O)(=O)[O-])cc7F)c7ccc([nH]7)c(-c7c(F)cc(S(=O)(=O)[O-])cc7F)c7nc(c(-c8c(F)cc(S(=O)(=O)[O-])cc8F)c8ccc5[nH]8)C=C7)C=C6)cc3)[C@@H]4C2=O)[C@H](C)C1
REMARK SMILES IDX 22 1 21 2 20 3 19 4 18 5 16 6 17 7 15 8 8 9 9 10 94 11 10 12
REMARK SMILES IDX 93 13 95 14 11 15 14 16 12 17 13 18 7 19 6 20 1 21 2 22 3 23
REMARK SMILES IDX 98 24 4 25 96 26 5 27 97 28 23 29 24 30 25 31 26 32 27 33
REMARK SMILES IDX 28 34 92 35 29 36 91 37 30 38 31 39 32 40 85 41 33 42 90 43
REMARK SMILES IDX 84 44 86 45 34 46 89 47 83 48 82 49 35 51 69 52 48 53 68 54
REMARK SMILES IDX 49 55 52 56 67 57 87 58 50 59 51 60 66 62 88 63 53 64 36 65
REMARK SMILES IDX 37 66 46 67 38 68 39 69 45 70 47 71 40 72 41 73 42 74 43 75
REMARK SMILES IDX 44 76 70 77 71 78 80 79 72 80 73 81 79 82 81 83 74 84 75 85
REMARK SMILES IDX 76 86 77 87 78 88 54 89 55 90 64 91 56 92 57 93 63 94 65 95
REMARK SMILES IDX 58 96 59 97 60 98 61 99 62 100
REMARK H PARENT 86 50 52 61
REMARK Flexibility Score: inf
ROOT
ATOM      1  C   UNL A   1      38.692  22.297  26.249  1.00  0.00     0.202 C 
ENDROOT
BRANCH   1   2
ATOM      2  O   UNL A   1      38.829  20.983  25.711  1.00  0.00    -0.374 OA
BRANCH   2   3
ATOM      3  C   UNL A   1      37.906  20.556  24.714  1.00  0.00     0.202 C 
BRANCH   3   4
ATOM      4  C   UNL A   1      36.404  20.634  25.029  1.00  0.00     0.261 C 
BRANCH   4   5
ATOM      5  O   UNL A   1      35.933  21.977  25.228  1.00  0.00    -0.463 OA
BRANCH   5   6
ATOM      6  C   UNL A   1      35.029  22.372  24.307  1.00  0.00     0.312 C 
ATOM      7  O   UNL A   1      35.297  22.737  23.163  1.00  0.00    -0.252 OA
BRANCH   6   8
ATOM      8  C   UNL A   1      33.599  22.261  24.722  1.00  0.00     0.148 C 
ATOM      9  N   UNL A   1      32.609  25.553  26.228  1.00  0.00    -0.339 N 
ATOM     10  C   UNL A   1      31.584  24.581  26.719  1.00  0.00     0.160 C 
ATOM     11  C   UNL A   1      33.755  24.766  25.821  1.00  0.00     0.230 C 
ATOM     12  C   UNL A   1      32.231  23.210  26.461  1.00  0.00     0.117 C 
ATOM     13  C   UNL A   1      33.091  23.561  25.256  1.00  0.00     0.133 C 
ATOM     14  O   UNL A   1      34.913  25.125  25.694  1.00  0.00    -0.274 OA
ATOM     15  C   UNL A   1      33.006  22.534  27.563  1.00  0.00     0.009 C 
ATOM     16  O   UNL A   1      31.605  22.053  25.880  1.00  0.00    -0.360 OA
ATOM     17  C   UNL A   1      33.412  21.357  27.072  1.00  0.00     0.004 C 
ATOM     18  C   UNL A   1      32.898  21.293  25.674  1.00  0.00     0.157 C 
BRANCH   9  19
ATOM     19  C   UNL A   1      32.291  26.433  25.116  1.00  0.00     0.124 C 
BRANCH  19  20
ATOM     20  C   UNL A   1      31.029  27.287  25.019  1.00  0.00     0.018 C 
ATOM     21  C   UNL A   1      28.854  29.875  22.078  1.00  0.00     0.039 C 
ATOM     22  C   UNL A   1      29.561  29.050  23.114  1.00  0.00    -0.077 C 
ATOM     23  C   UNL A   1      30.520  29.568  23.894  1.00  0.00    -0.025 C 
ATOM     24  C   UNL A   1      29.111  27.633  23.241  1.00  0.00     0.034 C 
ATOM     25  C   UNL A   1      31.302  28.823  24.943  1.00  0.00     0.014 C 
ATOM     26  C   UNL A   1      30.136  26.676  23.856  1.00  0.00    -0.005 C 
ATOM     27  C   UNL A   1      32.775  29.241  24.809  1.00  0.00     0.012 C 
ATOM     28  C   UNL A   1      30.904  25.958  22.713  1.00  0.00     0.008 C 
ENDBRANCH  19  20
ENDBRANCH   9  19
ENDBRANCH   6   8
ENDBRANCH   5   6
ENDBRANCH   4   5
ENDBRANCH   3   4
ENDBRANCH   2   3
ENDBRANCH   1   2
BRANCH   1  29
ATOM     29  C   UNL A   1      39.911  23.232  26.260  1.00  0.00     0.261 C 
BRANCH  29  30
ATOM     30  O   UNL A   1      39.562  24.630  26.288  1.00  0.00    -0.460 OA
BRANCH  30  31
ATOM     31  C   UNL A   1      40.632  25.466  26.286  1.00  0.00     0.338 C 
ATOM     32  O   UNL A   1      41.319  25.770  25.324  1.00  0.00    -0.246 OA
BRANCH  31  33
ATOM     33  C   UNL A   1      40.795  26.127  27.593  1.00  0.00     0.060 A 
ATOM     34  C   UNL A   1      39.743  26.021  28.511  1.00  0.00     0.016 A 
ATOM     35  C   UNL A   1      41.867  26.987  27.838  1.00  0.00     0.016 A 
ATOM     36  C   UNL A   1      39.732  26.818  29.656  1.00  0.00     0.010 A 
ATOM     37  C   UNL A   1      41.848  27.795  28.983  1.00  0.00     0.010 A 
ATOM     38  C   UNL A   1      40.760  27.745  29.873  1.00  0.00    -0.014 A 
BRANCH  38  39
ATOM     39  C   UNL A   1      40.601  28.759  30.947  1.00  0.00     0.031 A 
ATOM     40  C   UNL A   1      41.486  28.683  32.165  1.00  0.00     0.074 A 
ATOM     41  C   UNL A   1      39.714  29.761  30.819  1.00  0.00     0.049 A 
ATOM     42  N   UNL A   1      41.527  29.470  33.209  1.00  0.00    -0.248 NA
ATOM     43  C   UNL A   1      42.454  27.574  32.210  1.00  0.00     0.031 C 
ATOM     44  C   UNL A   1      38.820  29.956  29.679  1.00  0.00     0.029 A 
ATOM     45  N   UNL A   1      39.418  30.803  31.662  1.00  0.00    -0.354 N 
ATOM     46  C   UNL A   1      42.514  28.951  34.039  1.00  0.00     0.074 A 
ATOM     47  C   UNL A   1      43.036  27.769  33.385  1.00  0.00     0.031 C 
ATOM     48  C   UNL A   1      38.062  31.044  29.902  1.00  0.00     0.029 A 
ATOM     49  C   UNL A   1      38.404  31.611  31.205  1.00  0.00     0.049 A 
ATOM     50  H   UNL A   1      39.888  30.957  32.514  1.00  0.00     0.167 HD
ATOM     51  C   UNL A   1      42.952  29.420  35.232  1.00  0.00     0.037 A 
ATOM     52  C   UNL A   1      37.809  32.674  31.781  1.00  0.00     0.037 A 
ATOM     53  C   UNL A   1      42.441  30.602  35.876  1.00  0.00     0.049 A 
ATOM     54  C   UNL A   1      38.291  33.158  33.123  1.00  0.00     0.074 A 
ATOM     55  C   UNL A   1      42.849  31.179  37.066  1.00  0.00     0.029 A 
ATOM     56  N   UNL A   1      41.406  31.384  35.388  1.00  0.00    -0.354 N 
ATOM     57  N   UNL A   1      39.255  32.680  33.875  1.00  0.00    -0.248 NA
ATOM     58  C   UNL A   1      37.609  34.328  33.694  1.00  0.00     0.031 C 
ATOM     59  C   UNL A   1      42.032  32.287  37.319  1.00  0.00     0.029 A 
ATOM     60  C   UNL A   1      41.143  32.424  36.265  1.00  0.00     0.049 A 
ATOM     61  H   UNL A   1      40.927  31.224  34.542  1.00  0.00     0.167 HD
ATOM     62  C   UNL A   1      39.307  33.502  34.996  1.00  0.00     0.074 A 
ATOM     63  C   UNL A   1      38.286  34.514  34.819  1.00  0.00     0.031 C 
ATOM     64  C   UNL A   1      40.124  33.425  36.075  1.00  0.00     0.037 A 
BRANCH  51  65
ATOM     65  C   UNL A   1      44.027  28.641  35.936  1.00  0.00     0.058 A 
ATOM     66  C   UNL A   1      45.389  28.929  35.752  1.00  0.00     0.135 A 
ATOM     67  C   UNL A   1      43.688  27.623  36.842  1.00  0.00     0.135 A 
ATOM     68  F   UNL A   1      45.766  29.881  34.885  1.00  0.00    -0.206 F 
ATOM     69  C   UNL A   1      46.378  28.222  36.428  1.00  0.00     0.059 A 
ATOM     70  C   UNL A   1      44.660  26.917  37.544  1.00  0.00     0.059 A 
ATOM     71  F   UNL A   1      42.400  27.307  37.051  1.00  0.00    -0.206 F 
ATOM     72  C   UNL A   1      46.004  27.216  37.322  1.00  0.00     0.060 A 
BRANCH  72  73
ATOM     73  S   UNL A   1      47.297  26.314  38.202  1.00  0.00     0.124 S 
ATOM     74  O   UNL A   1      48.397  27.273  38.166  1.00  0.00    -0.237 OA
ATOM     75  O   UNL A   1      46.690  26.094  39.512  1.00  0.00    -0.237 OA
ATOM     76  O   UNL A   1      47.484  25.114  37.393  1.00  0.00    -0.744 OA
ENDBRANCH  72  73
ENDBRANCH  51  65
BRANCH  52  77
ATOM     77  C   UNL A   1      36.672  33.345  31.097  1.00  0.00     0.058 A 
ATOM     78  C   UNL A   1      36.875  34.169  29.982  1.00  0.00     0.135 A 
ATOM     79  C   UNL A   1      35.356  33.173  31.554  1.00  0.00     0.135 A 
ATOM     80  F   UNL A   1      38.117  34.373  29.515  1.00  0.00    -0.206 F 
ATOM     81  C   UNL A   1      35.815  34.813  29.350  1.00  0.00     0.059 A 
ATOM     82  C   UNL A   1      34.278  33.786  30.926  1.00  0.00     0.059 A 
ATOM     83  F   UNL A   1      35.110  32.385  32.613  1.00  0.00    -0.206 F 
ATOM     84  C   UNL A   1      34.519  34.614  29.830  1.00  0.00     0.060 A 
BRANCH  84  85
ATOM     85  S   UNL A   1      33.143  35.419  28.981  1.00  0.00     0.124 S 
ATOM     86  O   UNL A   1      32.613  34.323  28.179  1.00  0.00    -0.237 OA
ATOM     87  O   UNL A   1      32.308  35.859  30.093  1.00  0.00    -0.237 OA
ATOM     88  O   UNL A   1      33.794  36.491  28.233  1.00  0.00    -0.744 OA
ENDBRANCH  84  85
ENDBRANCH  52  77
BRANCH  64  89
ATOM     89  C   UNL A   1      39.965  34.474  37.139  1.00  0.00     0.058 A 
ATOM     90  C   UNL A   1      40.689  35.675  37.100  1.00  0.00     0.135 A 
ATOM     91  C   UNL A   1      39.045  34.295  38.185  1.00  0.00     0.135 A 
ATOM     92  F   UNL A   1      41.584  35.893  36.123  1.00  0.00    -0.206 F 
ATOM     93  C   UNL A   1      40.523  36.656  38.073  1.00  0.00     0.059 A 
ATOM     94  C   UNL A   1      38.847  35.271  39.157  1.00  0.00     0.059 A 
ATOM     95  F   UNL A   1      38.320  33.169  38.262  1.00  0.00    -0.206 F 
ATOM     96  C   UNL A   1      39.601  36.443  39.099  1.00  0.00     0.060 A 
BRANCH  96  97
ATOM     97  S   UNL A   1      39.372  37.732  40.344  1.00  0.00     0.124 S 
ATOM     98  O   UNL A   1      39.230  36.941  41.562  1.00  0.00    -0.237 OA
ATOM     99  O   UNL A   1      40.605  38.504  40.230  1.00  0.00    -0.237 OA
ATOM    100  O   UNL A   1      38.166  38.422  39.898  1.00  0.00    -0.744 OA
ENDBRANCH  96  97
ENDBRANCH  64  89
ENDBRANCH  38  39
ENDBRANCH  31  33
ENDBRANCH  30  31
ENDBRANCH  29  30
ENDBRANCH   1  29
TORSDOF 19
ENDMDL
MODEL 3
REMARK VINA RESULT:     -11.3      0.906      1.792
REMARK SMILES CC1=C[C@H](C)[C@H](CN2C[C@@]34C=C[C@@H](O3)[C@H](C(=O)OCCOCCOC(=O)c3ccc(-c5c6nc(c(-c7c(F)cc(S(=O)(=O)[O-])cc7F)c7ccc([nH]7)c(-c7c(F)cc(S(=O)(=O)[O-])cc7F)c7nc(c(-c8c(F)cc(S(=O)(=O)[O-])cc8F)c8ccc5[nH]8)C=C7)C=C6)cc3)[C@@H]4C2=O)[C@H](C)C1
REMARK SMILES IDX 22 1 21 2 20 3 19 4 18 5 16 6 17 7 15 8 8 9 9 10 94 11 10 12
REMARK SMILES IDX 93 13 95 14 11 15 14 16 12 17 13 18 7 19 6 20 1 21 2 22 3 23
REMARK SMILES IDX 98 24 4 25 96 26 5 27 97 28 23 29 24 30 25 31 26 32 27 33
REMARK SMILES IDX 28 34 92 35 29 36 91 37 30 38 31 39 32 40 85 41 33 42 90 43
REMARK SMILES IDX 84 44 86 45 34 46 89 47 83 48 82 49 35 51 69 52 48 53 68 54
REMARK SMILES IDX 49 55 52 56 67 57 87 58 50 59 51 60 66 62 88 63 53 64 36 65
REMARK SMILES IDX 37 66 46 67 38 68 39 69 45 70 47 71 40 72 41 73 42 74 43 75
REMARK SMILES IDX 44 76 70 77 71 78 80 79 72 80 73 81 79 82 81 83 74 84 75 85
REMARK SMILES IDX 76 86 77 87 78 88 54 89 55 90 64 91 56 92 57 93 63 94 65 95
REMARK SMILES IDX 58 96 59 97 60 98 61 99 62 100
REMARK H PARENT 86 50 52 61
REMARK Flexibility Score: inf
ROOT
ATOM      1  C   UNL A   1      34.284  32.302  28.305  1.00  0.00     0.202 C 
ENDROOT
BRANCH   1   2
ATOM      2  O   UNL A   1      34.698  31.235  27.454  1.00  0.00    -0.374 OA
BRANCH   2   3
ATOM      3  C   UNL A   1      33.706  30.359  26.927  1.00  0.00     0.202 C 
BRANCH   3   4
ATOM      4  C   UNL A   1      34.061  28.874  26.756  1.00  0.00     0.261 C 
BRANCH   4   5
ATOM      5  O   UNL A   1      34.403  28.522  25.405  1.00  0.00    -0.463 OA
BRANCH   5   6
ATOM      6  C   UNL A   1      33.344  28.505  24.569  1.00  0.00     0.312 C 
ATOM      7  O   UNL A   1      33.261  29.138  23.518  1.00  0.00    -0.252 OA
BRANCH   6   8
ATOM      8  C   UNL A   1      32.244  27.569  24.946  1.00  0.00     0.148 C 
ATOM      9  N   UNL A   1      32.335  24.697  22.532  1.00  0.00    -0.339 N 
ATOM     10  C   UNL A   1      30.968  24.649  23.135  1.00  0.00     0.160 C 
ATOM     11  C   UNL A   1      32.829  26.041  22.748  1.00  0.00     0.230 C 
ATOM     12  C   UNL A   1      30.802  26.039  23.771  1.00  0.00     0.117 C 
ATOM     13  C   UNL A   1      32.259  26.345  24.088  1.00  0.00     0.133 C 
ATOM     14  O   UNL A   1      33.712  26.629  22.147  1.00  0.00    -0.274 OA
ATOM     15  C   UNL A   1      30.125  27.137  22.992  1.00  0.00     0.009 C 
ATOM     16  O   UNL A   1      30.287  26.337  25.080  1.00  0.00    -0.360 OA
ATOM     17  C   UNL A   1      30.087  28.205  23.799  1.00  0.00     0.004 C 
ATOM     18  C   UNL A   1      30.736  27.783  25.072  1.00  0.00     0.157 C 
BRANCH   9  19
ATOM     19  C   UNL A   1      33.365  23.791  23.011  1.00  0.00     0.124 C 
BRANCH  19  20
ATOM     20  C   UNL A   1      33.135  22.674  24.026  1.00  0.00     0.018 C 
ATOM     21  C   UNL A   1      34.481  18.487  24.887  1.00  0.00     0.039 C 
ATOM     22  C   UNL A   1      33.967  19.873  24.623  1.00  0.00    -0.077 C 
ATOM     23  C   UNL A   1      32.931  20.097  23.804  1.00  0.00    -0.025 C 
ATOM     24  C   UNL A   1      34.659  20.977  25.351  1.00  0.00     0.034 C 
ATOM     25  C   UNL A   1      32.356  21.446  23.457  1.00  0.00     0.014 C 
ATOM     26  C   UNL A   1      34.535  22.361  24.707  1.00  0.00    -0.005 C 
ATOM     27  C   UNL A   1      32.085  21.460  21.944  1.00  0.00     0.012 C 
ATOM     28  C   UNL A   1      35.791  22.625  23.834  1.00  0.00     0.008 C 
ENDBRANCH  19  20
ENDBRANCH   9  19
ENDBRANCH   6   8
ENDBRANCH   5   6
ENDBRANCH   4   5
ENDBRANCH   3   4
ENDBRANCH   2   3
ENDBRANCH   1   2
BRANCH   1  29
ATOM     29  C   UNL A   1      34.947  32.463  29.681  1.00  0.00     0.261 C 
BRANCH  29  30
ATOM     30  O   UNL A   1      35.694  31.303  30.098  1.00  0.00    -0.460 OA
BRANCH  30  31
ATOM     31  C   UNL A   1      36.883  31.594  30.687  1.00  0.00     0.338 C 
ATOM     32  O   UNL A   1      37.071  32.382  31.600  1.00  0.00    -0.246 OA
BRANCH  31  33
ATOM     33  C   UNL A   1      37.953  30.707  30.198  1.00  0.00     0.060 A 
ATOM     34  C   UNL A   1      38.900  30.258  31.127  1.00  0.00     0.016 A 
ATOM     35  C   UNL A   1      38.133  30.479  28.833  1.00  0.00     0.016 A 
ATOM     36  C   UNL A   1      40.062  29.624  30.687  1.00  0.00     0.010 A 
ATOM     37  C   UNL A   1      39.308  29.852  28.394  1.00  0.00     0.010 A 
ATOM     38  C   UNL A   1      40.295  29.462  29.316  1.00  0.00    -0.014 A 
BRANCH  38  39
ATOM     39  C   UNL A   1      41.641  29.028  28.859  1.00  0.00     0.031 A 
ATOM     40  C   UNL A   1      42.759  30.037  28.806  1.00  0.00     0.074 A 
ATOM     41  C   UNL A   1      41.876  27.744  28.540  1.00  0.00     0.049 A 
ATOM     42  N   UNL A   1      44.008  29.872  28.455  1.00  0.00    -0.248 NA
ATOM     43  C   UNL A   1      42.425  31.415  29.205  1.00  0.00     0.031 C 
ATOM     44  C   UNL A   1      40.884  26.670  28.574  1.00  0.00     0.029 A 
ATOM     45  N   UNL A   1      43.028  27.125  28.121  1.00  0.00    -0.354 N 
ATOM     46  C   UNL A   1      44.608  31.120  28.580  1.00  0.00     0.074 A 
ATOM     47  C   UNL A   1      43.580  32.039  29.023  1.00  0.00     0.031 C 
ATOM     48  C   UNL A   1      41.467  25.527  28.175  1.00  0.00     0.029 A 
ATOM     49  C   UNL A   1      42.866  25.790  27.841  1.00  0.00     0.049 A 
ATOM     50  H   UNL A   1      43.888  27.594  28.029  1.00  0.00     0.167 HD
ATOM     51  C   UNL A   1      45.898  31.467  28.355  1.00  0.00     0.037 A 
ATOM     52  C   UNL A   1      43.741  24.887  27.354  1.00  0.00     0.037 A 
ATOM     53  C   UNL A   1      46.922  30.551  27.927  1.00  0.00     0.049 A 
ATOM     54  C   UNL A   1      45.161  25.305  27.081  1.00  0.00     0.074 A 
ATOM     55  C   UNL A   1      48.266  30.801  27.711  1.00  0.00     0.029 A 
ATOM     56  N   UNL A   1      46.715  29.210  27.641  1.00  0.00    -0.354 N 
ATOM     57  N   UNL A   1      45.723  26.480  27.245  1.00  0.00    -0.248 NA
ATOM     58  C   UNL A   1      46.071  24.273  26.560  1.00  0.00     0.031 C 
ATOM     59  C   UNL A   1      48.864  29.620  27.256  1.00  0.00     0.029 A 
ATOM     60  C   UNL A   1      47.900  28.625  27.227  1.00  0.00     0.049 A 
ATOM     61  H   UNL A   1      45.852  28.742  27.721  1.00  0.00     0.167 HD
ATOM     62  C   UNL A   1      47.052  26.324  26.866  1.00  0.00     0.074 A 
ATOM     63  C   UNL A   1      47.215  24.938  26.477  1.00  0.00     0.031 C 
ATOM     64  C   UNL A   1      48.047  27.244  26.843  1.00  0.00     0.037 A 
BRANCH  51  65
ATOM     65  C   UNL A   1      46.276  32.909  28.546  1.00  0.00     0.058 A 
ATOM     66  C   UNL A   1      46.756  33.390  29.775  1.00  0.00     0.135 A 
ATOM     67  C   UNL A   1      46.198  33.811  27.473  1.00  0.00     0.135 A 
ATOM     68  F   UNL A   1      46.834  32.572  30.836  1.00  0.00    -0.206 F 
ATOM     69  C   UNL A   1      47.131  34.720  29.937  1.00  0.00     0.059 A 
ATOM     70  C   UNL A   1      46.587  35.141  27.609  1.00  0.00     0.059 A 
ATOM     71  F   UNL A   1      45.742  33.402  26.279  1.00  0.00    -0.206 F 
ATOM     72  C   UNL A   1      47.041  35.589  28.848  1.00  0.00     0.060 A 
BRANCH  72  73
ATOM     73  S   UNL A   1      47.541  37.310  29.068  1.00  0.00     0.124 S 
ATOM     74  O   UNL A   1      48.276  37.560  27.832  1.00  0.00    -0.237 OA
ATOM     75  O   UNL A   1      46.258  37.996  29.192  1.00  0.00    -0.237 OA
ATOM     76  O   UNL A   1      48.348  37.276  30.283  1.00  0.00    -0.744 OA
ENDBRANCH  72  73
ENDBRANCH  51  65
BRANCH  52  77
ATOM     77  C   UNL A   1      43.291  23.499  27.073  1.00  0.00     0.058 A 
ATOM     78  C   UNL A   1      43.078  23.052  25.762  1.00  0.00     0.135 A 
ATOM     79  C   UNL A   1      43.063  22.591  28.120  1.00  0.00     0.135 A 
ATOM     80  F   UNL A   1      43.272  23.887  24.729  1.00  0.00    -0.206 F 
ATOM     81  C   UNL A   1      42.640  21.758  25.496  1.00  0.00     0.059 A 
ATOM     82  C   UNL A   1      42.648  21.286  27.879  1.00  0.00     0.059 A 
ATOM     83  F   UNL A   1      43.262  22.969  29.392  1.00  0.00    -0.206 F 
ATOM     84  C   UNL A   1      42.428  20.882  26.562  1.00  0.00     0.060 A 
BRANCH  84  85
ATOM     85  S   UNL A   1      41.900  19.191  26.209  1.00  0.00     0.124 S 
ATOM     86  O   UNL A   1      40.463  19.365  26.035  1.00  0.00    -0.237 OA
ATOM     87  O   UNL A   1      42.656  18.877  25.001  1.00  0.00    -0.237 OA
ATOM     88  O   UNL A   1      42.308  18.458  27.403  1.00  0.00    -0.744 OA
ENDBRANCH  84  85
ENDBRANCH  52  77
BRANCH  64  89
ATOM     89  C   UNL A   1      49.407  26.780  26.402  1.00  0.00     0.058 A 
ATOM     90  C   UNL A   1      50.339  26.264  27.315  1.00  0.00     0.135 A 
ATOM     91  C   UNL A   1      49.765  26.810  25.044  1.00  0.00     0.135 A 
ATOM     92  F   UNL A   1      50.047  26.217  28.625  1.00  0.00    -0.206 F 
ATOM     93  C   UNL A   1      51.589  25.814  26.901  1.00  0.00     0.059 A 
ATOM     94  C   UNL A   1      51.001  26.345  24.605  1.00  0.00     0.059 A 
ATOM     95  F   UNL A   1      48.905  27.284  24.129  1.00  0.00    -0.206 F 
ATOM     96  C   UNL A   1      51.911  25.860  25.544  1.00  0.00     0.060 A 
BRANCH  96  97
ATOM     97  S   UNL A   1      53.525  25.248  25.012  1.00  0.00     0.124 S 
ATOM     98  O   UNL A   1      53.355  23.806  25.158  1.00  0.00    -0.237 OA
ATOM     99  O   UNL A   1      53.613  25.740  23.640  1.00  0.00    -0.237 OA
ATOM    100  O   UNL A   1      54.450  25.871  25.954  1.00  0.00    -0.744 OA
ENDBRANCH  96  97
ENDBRANCH  64  89
ENDBRANCH  38  39
ENDBRANCH  31  33
ENDBRANCH  30  31
ENDBRANCH  29  30
ENDBRANCH   1  29
TORSDOF 19
ENDMDL
