MODEL 1
REMARK VINA RESULT:      -9.8      0.000      0.000
REMARK SMILES C[N@H+](CC(=O)OCCOCCOC(=O)c1ccc(-c2c3nc(c(-c4c(F)cc(S(=O)(=O)[O-])cc4F)c4ccc([nH]4)c(-c4c(F)cc(S(=O)(=O)[O-])cc4F)c4nc(c(-c5c(F)cc(S(=O)(=O)[O-])cc5F)c5ccc2[nH]5)C=C4)C=C3)cc1)Cc1nc(-c2ccsc2)no1
REMARK SMILES IDX 8 1 7 2 6 3 4 4 5 5 3 6 2 7 1 8 81 10 82 11 83 12 91 13
REMARK SMILES IDX 84 14 90 15 85 16 86 17 89 18 87 19 88 20 9 21 10 22 11 23
REMARK SMILES IDX 12 24 13 25 14 26 15 27 16 28 80 29 17 30 79 31 18 32 19 33
REMARK SMILES IDX 20 34 73 35 21 36 78 37 72 38 74 39 22 40 77 41 71 42 70 43
REMARK SMILES IDX 23 45 57 46 36 47 56 48 37 49 40 50 55 51 75 52 38 53 39 54
REMARK SMILES IDX 54 56 76 57 41 58 24 59 25 60 34 61 26 62 27 63 33 64 35 65
REMARK SMILES IDX 28 66 29 67 30 68 31 69 32 70 58 71 59 72 68 73 60 74 61 75
REMARK SMILES IDX 67 76 69 77 62 78 63 79 64 80 65 81 66 82 42 83 43 84 52 85
REMARK SMILES IDX 44 86 45 87 51 88 53 89 46 90 47 91 48 92 49 93 50 94
REMARK H PARENT 2 9 74 44 40 55
REMARK Flexibility Score: inf
ROOT
ATOM      1  C   UNL A   1      45.170  20.675  24.093  1.00  0.00     0.202 C 
ENDROOT
BRANCH   1   2
ATOM      2  C   UNL A   1      44.397  19.745  25.082  1.00  0.00     0.261 C 
BRANCH   2   3
ATOM      3  O   UNL A   1      42.988  19.712  24.878  1.00  0.00    -0.459 OA
BRANCH   3   4
ATOM      4  C   UNL A   1      42.288  19.169  25.896  1.00  0.00     0.361 C 
ATOM      5  O   UNL A   1      41.824  18.036  25.882  1.00  0.00    -0.245 OA
BRANCH   4   6
ATOM      6  C   UNL A   1      42.254  20.088  27.109  1.00  0.00     0.386 C 
BRANCH   6   7
ATOM      7  N   UNL A   1      40.938  20.778  27.340  1.00  0.00    -0.320 N 
ATOM      8  C   UNL A   1      41.195  21.926  28.223  1.00  0.00     0.333 C 
ATOM      9  H   UNL A   1      40.285  20.105  27.740  1.00  0.00     0.348 HD
BRANCH   7  10
ATOM     10  C   UNL A   1      40.350  21.305  26.072  1.00  0.00     0.364 C 
BRANCH  10  11
ATOM     11  C   UNL A   1      39.125  22.225  26.084  1.00  0.00     0.282 A 
ATOM     12  N   UNL A   1      37.935  21.988  25.556  1.00  0.00    -0.186 NA
ATOM     13  O   UNL A   1      39.212  23.511  26.543  1.00  0.00    -0.333 OA
ATOM     14  C   UNL A   1      37.230  23.126  25.738  1.00  0.00     0.203 A 
ATOM     15  N   UNL A   1      37.929  24.102  26.331  1.00  0.00    -0.057 NA
BRANCH  14  16
ATOM     16  C   UNL A   1      35.828  23.158  25.280  1.00  0.00     0.033 A 
ATOM     17  C   UNL A   1      34.895  24.201  25.593  1.00  0.00     0.024 A 
ATOM     18  C   UNL A   1      35.273  22.263  24.389  1.00  0.00     0.077 A 
ATOM     19  C   UNL A   1      33.655  24.003  25.020  1.00  0.00     0.065 A 
ATOM     20  S   UNL A   1      33.635  22.618  24.022  1.00  0.00    -0.152 S 
ENDBRANCH  14  16
ENDBRANCH  10  11
ENDBRANCH   7  10
ENDBRANCH   6   7
ENDBRANCH   4   6
ENDBRANCH   3   4
ENDBRANCH   2   3
ENDBRANCH   1   2
BRANCH   1  21
ATOM     21  O   UNL A   1      44.577  21.986  23.928  1.00  0.00    -0.374 OA
BRANCH  21  22
ATOM     22  C   UNL A   1      44.456  22.778  25.117  1.00  0.00     0.202 C 
BRANCH  22  23
ATOM     23  C   UNL A   1      43.175  23.721  25.364  1.00  0.00     0.261 C 
BRANCH  23  24
ATOM     24  O   UNL A   1      43.246  25.192  25.302  1.00  0.00    -0.460 OA
BRANCH  24  25
ATOM     25  C   UNL A   1      42.125  25.899  25.700  1.00  0.00     0.338 C 
ATOM     26  O   UNL A   1      41.074  25.927  25.073  1.00  0.00    -0.246 OA
BRANCH  25  27
ATOM     27  C   UNL A   1      42.186  26.498  27.104  1.00  0.00     0.060 A 
ATOM     28  C   UNL A   1      41.030  26.420  27.896  1.00  0.00     0.016 A 
ATOM     29  C   UNL A   1      43.250  27.219  27.650  1.00  0.00     0.016 A 
ATOM     30  C   UNL A   1      40.934  26.935  29.205  1.00  0.00     0.010 A 
ATOM     31  C   UNL A   1      43.135  27.815  28.952  1.00  0.00     0.010 A 
ATOM     32  C   UNL A   1      41.975  27.680  29.753  1.00  0.00    -0.014 A 
BRANCH  32  33
ATOM     33  C   UNL A   1      41.698  28.513  30.986  1.00  0.00     0.031 A 
ATOM     34  C   UNL A   1      40.514  29.461  30.947  1.00  0.00     0.074 A 
ATOM     35  C   UNL A   1      42.340  28.389  32.174  1.00  0.00     0.049 A 
ATOM     36  N   UNL A   1      40.109  30.345  31.827  1.00  0.00    -0.248 NA
ATOM     37  C   UNL A   1      39.660  29.374  29.753  1.00  0.00     0.031 C 
ATOM     38  C   UNL A   1      43.387  27.420  32.486  1.00  0.00     0.029 A 
ATOM     39  N   UNL A   1      42.188  29.094  33.359  1.00  0.00    -0.354 N 
ATOM     40  C   UNL A   1      38.973  30.937  31.282  1.00  0.00     0.074 A 
ATOM     41  C   UNL A   1      38.750  30.304  29.999  1.00  0.00     0.031 C 
ATOM     42  C   UNL A   1      43.799  27.607  33.757  1.00  0.00     0.029 A 
ATOM     43  C   UNL A   1      43.079  28.738  34.352  1.00  0.00     0.049 A 
ATOM     44  H   UNL A   1      41.501  29.789  33.481  1.00  0.00     0.167 HD
ATOM     45  C   UNL A   1      38.185  31.921  31.783  1.00  0.00     0.037 A 
ATOM     46  C   UNL A   1      43.319  29.271  35.577  1.00  0.00     0.037 A 
ATOM     47  C   UNL A   1      38.370  32.561  33.060  1.00  0.00     0.049 A 
ATOM     48  C   UNL A   1      42.515  30.461  36.069  1.00  0.00     0.074 A 
ATOM     49  C   UNL A   1      37.635  33.597  33.614  1.00  0.00     0.029 A 
ATOM     50  N   UNL A   1      39.347  32.232  33.984  1.00  0.00    -0.354 N 
ATOM     51  N   UNL A   1      41.498  31.066  35.501  1.00  0.00    -0.248 NA
ATOM     52  C   UNL A   1      42.900  31.051  37.365  1.00  0.00     0.031 C 
ATOM     53  C   UNL A   1      38.200  33.929  34.849  1.00  0.00     0.029 A 
ATOM     54  C   UNL A   1      39.250  33.059  35.092  1.00  0.00     0.049 A 
ATOM     55  H   UNL A   1      40.013  31.516  33.871  1.00  0.00     0.167 HD
ATOM     56  C   UNL A   1      41.109  32.079  36.381  1.00  0.00     0.074 A 
ATOM     57  C   UNL A   1      41.991  32.005  37.523  1.00  0.00     0.031 C 
ATOM     58  C   UNL A   1      40.109  32.986  36.246  1.00  0.00     0.037 A 
BRANCH  45  59
ATOM     59  C   UNL A   1      37.075  32.428  30.902  1.00  0.00     0.058 A 
ATOM     60  C   UNL A   1      35.777  31.897  30.951  1.00  0.00     0.135 A 
ATOM     61  C   UNL A   1      37.319  33.482  30.006  1.00  0.00     0.135 A 
ATOM     62  F   UNL A   1      35.495  30.875  31.775  1.00  0.00    -0.206 F 
ATOM     63  C   UNL A   1      34.767  32.373  30.120  1.00  0.00     0.059 A 
ATOM     64  C   UNL A   1      36.317  33.993  29.187  1.00  0.00     0.059 A 
ATOM     65  F   UNL A   1      38.543  34.025  29.919  1.00  0.00    -0.206 F 
ATOM     66  C   UNL A   1      35.049  33.420  29.238  1.00  0.00     0.060 A 
BRANCH  66  67
ATOM     67  S   UNL A   1      33.733  34.020  28.159  1.00  0.00     0.124 S 
ATOM     68  O   UNL A   1      33.202  32.769  27.625  1.00  0.00    -0.237 OA
ATOM     69  O   UNL A   1      32.863  34.731  29.092  1.00  0.00    -0.237 OA
ATOM     70  O   UNL A   1      34.437  34.861  27.197  1.00  0.00    -0.744 OA
ENDBRANCH  66  67
ENDBRANCH  45  59
BRANCH  46  71
ATOM     71  C   UNL A   1      44.432  28.748  36.435  1.00  0.00     0.058 A 
ATOM     72  C   UNL A   1      44.251  27.659  37.307  1.00  0.00     0.135 A 
ATOM     73  C   UNL A   1      45.684  29.383  36.456  1.00  0.00     0.135 A 
ATOM     74  F   UNL A   1      43.062  27.039  37.368  1.00  0.00    -0.206 F 
ATOM     75  C   UNL A   1      45.263  27.224  38.163  1.00  0.00     0.059 A 
ATOM     76  C   UNL A   1      46.720  28.948  37.280  1.00  0.00     0.059 A 
ATOM     77  F   UNL A   1      45.912  30.443  35.667  1.00  0.00    -0.206 F 
ATOM     78  C   UNL A   1      46.499  27.872  38.137  1.00  0.00     0.060 A 
BRANCH  78  79
ATOM     79  S   UNL A   1      47.827  27.269  39.206  1.00  0.00     0.124 S 
ATOM     80  O   UNL A   1      48.292  28.503  39.831  1.00  0.00    -0.237 OA
ATOM     81  O   UNL A   1      47.120  26.339  40.081  1.00  0.00    -0.237 OA
ATOM     82  O   UNL A   1      48.758  26.649  38.268  1.00  0.00    -0.744 OA
ENDBRANCH  78  79
ENDBRANCH  46  71
BRANCH  58  83
ATOM     83  C   UNL A   1      39.859  33.957  37.375  1.00  0.00     0.058 A 
ATOM     84  C   UNL A   1      39.034  33.637  38.465  1.00  0.00     0.135 A 
ATOM     85  C   UNL A   1      40.517  35.199  37.404  1.00  0.00     0.135 A 
ATOM     86  F   UNL A   1      38.380  32.465  38.495  1.00  0.00    -0.206 F 
ATOM     87  C   UNL A   1      38.854  34.518  39.530  1.00  0.00     0.059 A 
ATOM     88  C   UNL A   1      40.372  36.085  38.471  1.00  0.00     0.059 A 
ATOM     89  F   UNL A   1      41.330  35.556  36.398  1.00  0.00    -0.206 F 
ATOM     90  C   UNL A   1      39.529  35.740  39.525  1.00  0.00     0.060 A 
BRANCH  90  91
ATOM     91  S   UNL A   1      39.315  36.857  40.929  1.00  0.00     0.124 S 
ATOM     92  O   UNL A   1      38.611  37.976  40.312  1.00  0.00    -0.237 OA
ATOM     93  O   UNL A   1      38.533  36.049  41.858  1.00  0.00    -0.237 OA
ATOM     94  O   UNL A   1      40.686  37.137  41.354  1.00  0.00    -0.744 OA
ENDBRANCH  90  91
ENDBRANCH  58  83
ENDBRANCH  32  33
ENDBRANCH  25  27
ENDBRANCH  24  25
ENDBRANCH  23  24
ENDBRANCH  22  23
ENDBRANCH  21  22
ENDBRANCH   1  21
TORSDOF 21
ENDMDL
MODEL 2
REMARK VINA RESULT:      -9.7      6.527      9.739
REMARK SMILES C[N@H+](CC(=O)OCCOCCOC(=O)c1ccc(-c2c3nc(c(-c4c(F)cc(S(=O)(=O)[O-])cc4F)c4ccc([nH]4)c(-c4c(F)cc(S(=O)(=O)[O-])cc4F)c4nc(c(-c5c(F)cc(S(=O)(=O)[O-])cc5F)c5ccc2[nH]5)C=C4)C=C3)cc1)Cc1nc(-c2ccsc2)no1
REMARK SMILES IDX 8 1 7 2 6 3 4 4 5 5 3 6 2 7 1 8 81 10 82 11 83 12 91 13
REMARK SMILES IDX 84 14 90 15 85 16 86 17 89 18 87 19 88 20 9 21 10 22 11 23
REMARK SMILES IDX 12 24 13 25 14 26 15 27 16 28 80 29 17 30 79 31 18 32 19 33
REMARK SMILES IDX 20 34 73 35 21 36 78 37 72 38 74 39 22 40 77 41 71 42 70 43
REMARK SMILES IDX 23 45 57 46 36 47 56 48 37 49 40 50 55 51 75 52 38 53 39 54
REMARK SMILES IDX 54 56 76 57 41 58 24 59 25 60 34 61 26 62 27 63 33 64 35 65
REMARK SMILES IDX 28 66 29 67 30 68 31 69 32 70 58 71 59 72 68 73 60 74 61 75
REMARK SMILES IDX 67 76 69 77 62 78 63 79 64 80 65 81 66 82 42 83 43 84 52 85
REMARK SMILES IDX 44 86 45 87 51 88 53 89 46 90 47 91 48 92 49 93 50 94
REMARK H PARENT 2 9 74 44 40 55
REMARK Flexibility Score: inf
ROOT
ATOM      1  C   UNL A   1      36.947  22.944  25.111  1.00  0.00     0.202 C 
ENDROOT
BRANCH   1   2
ATOM      2  C   UNL A   1      35.691  23.870  25.055  1.00  0.00     0.261 C 
BRANCH   2   3
ATOM      3  O   UNL A   1      34.913  23.733  23.870  1.00  0.00    -0.459 OA
BRANCH   3   4
ATOM      4  C   UNL A   1      33.900  24.619  23.760  1.00  0.00     0.361 C 
ATOM      5  O   UNL A   1      34.036  25.833  23.856  1.00  0.00    -0.245 OA
BRANCH   4   6
ATOM      6  C   UNL A   1      32.595  23.936  23.379  1.00  0.00     0.386 C 
BRANCH   6   7
ATOM      7  N   UNL A   1      31.429  24.263  24.270  1.00  0.00    -0.320 N 
ATOM      8  C   UNL A   1      30.290  24.590  23.398  1.00  0.00     0.333 C 
ATOM      9  H   UNL A   1      31.695  25.032  24.884  1.00  0.00     0.348 HD
BRANCH   7  10
ATOM     10  C   UNL A   1      31.028  23.102  25.120  1.00  0.00     0.364 C 
BRANCH  10  11
ATOM     11  C   UNL A   1      31.958  21.900  25.317  1.00  0.00     0.282 A 
ATOM     12  N   UNL A   1      31.813  20.681  24.823  1.00  0.00    -0.186 NA
ATOM     13  O   UNL A   1      33.004  21.953  26.197  1.00  0.00    -0.333 OA
ATOM     14  C   UNL A   1      32.825  19.958  25.353  1.00  0.00     0.203 A 
ATOM     15  N   UNL A   1      33.596  20.653  26.197  1.00  0.00    -0.057 NA
BRANCH  14  16
ATOM     16  C   UNL A   1      32.954  18.544  24.953  1.00  0.00     0.033 A 
ATOM     17  C   UNL A   1      33.483  18.101  23.695  1.00  0.00     0.024 A 
ATOM     18  C   UNL A   1      32.707  17.468  25.781  1.00  0.00     0.077 A 
ATOM     19  C   UNL A   1      33.517  16.725  23.581  1.00  0.00     0.065 A 
ATOM     20  S   UNL A   1      33.010  15.960  25.021  1.00  0.00    -0.152 S 
ENDBRANCH  14  16
ENDBRANCH  10  11
ENDBRANCH   7  10
ENDBRANCH   6   7
ENDBRANCH   4   6
ENDBRANCH   3   4
ENDBRANCH   2   3
ENDBRANCH   1   2
BRANCH   1  21
ATOM     21  O   UNL A   1      36.695  21.578  24.700  1.00  0.00    -0.374 OA
BRANCH  21  22
ATOM     22  C   UNL A   1      37.727  20.628  24.999  1.00  0.00     0.202 C 
BRANCH  22  23
ATOM     23  C   UNL A   1      39.065  21.069  25.777  1.00  0.00     0.261 C 
BRANCH  23  24
ATOM     24  O   UNL A   1      39.795  20.163  26.683  1.00  0.00    -0.460 OA
BRANCH  24  25
ATOM     25  C   UNL A   1      41.103  19.857  26.356  1.00  0.00     0.338 C 
ATOM     26  O   UNL A   1      41.460  18.787  25.881  1.00  0.00    -0.246 OA
BRANCH  25  27
ATOM     27  C   UNL A   1      42.090  21.021  26.424  1.00  0.00     0.060 A 
ATOM     28  C   UNL A   1      42.327  21.602  27.680  1.00  0.00     0.016 A 
ATOM     29  C   UNL A   1      42.707  21.648  25.339  1.00  0.00     0.016 A 
ATOM     30  C   UNL A   1      43.203  22.686  27.896  1.00  0.00     0.010 A 
ATOM     31  C   UNL A   1      43.540  22.801  25.539  1.00  0.00     0.010 A 
ATOM     32  C   UNL A   1      43.803  23.338  26.822  1.00  0.00    -0.014 A 
BRANCH  32  33
ATOM     33  C   UNL A   1      44.427  24.697  27.057  1.00  0.00     0.031 A 
ATOM     34  C   UNL A   1      43.530  25.805  27.577  1.00  0.00     0.074 A 
ATOM     35  C   UNL A   1      45.750  24.976  26.968  1.00  0.00     0.049 A 
ATOM     36  N   UNL A   1      43.787  27.075  27.781  1.00  0.00    -0.248 NA
ATOM     37  C   UNL A   1      42.161  25.408  27.937  1.00  0.00     0.031 C 
ATOM     38  C   UNL A   1      46.810  24.020  26.658  1.00  0.00     0.029 A 
ATOM     39  N   UNL A   1      46.434  26.170  27.145  1.00  0.00    -0.354 N 
ATOM     40  C   UNL A   1      42.606  27.632  28.264  1.00  0.00     0.074 A 
ATOM     41  C   UNL A   1      41.636  26.559  28.331  1.00  0.00     0.031 C 
ATOM     42  C   UNL A   1      47.996  24.664  26.641  1.00  0.00     0.029 A 
ATOM     43  C   UNL A   1      47.790  26.093  26.897  1.00  0.00     0.049 A 
ATOM     44  H   UNL A   1      45.989  27.003  27.426  1.00  0.00     0.167 HD
ATOM     45  C   UNL A   1      42.334  28.914  28.614  1.00  0.00     0.037 A 
ATOM     46  C   UNL A   1      48.749  27.052  26.844  1.00  0.00     0.037 A 
ATOM     47  C   UNL A   1      43.277  30.002  28.574  1.00  0.00     0.049 A 
ATOM     48  C   UNL A   1      48.401  28.505  27.108  1.00  0.00     0.074 A 
ATOM     49  C   UNL A   1      43.059  31.338  28.873  1.00  0.00     0.029 A 
ATOM     50  N   UNL A   1      44.611  29.889  28.220  1.00  0.00    -0.354 N 
ATOM     51  N   UNL A   1      47.256  29.028  27.480  1.00  0.00    -0.248 NA
ATOM     52  C   UNL A   1      49.473  29.503  26.931  1.00  0.00     0.031 C 
ATOM     53  C   UNL A   1      44.247  32.040  28.649  1.00  0.00     0.029 A 
ATOM     54  C   UNL A   1      45.221  31.133  28.269  1.00  0.00     0.049 A 
ATOM     55  H   UNL A   1      45.059  29.050  27.969  1.00  0.00     0.167 HD
ATOM     56  C   UNL A   1      47.482  30.401  27.610  1.00  0.00     0.074 A 
ATOM     57  C   UNL A   1      48.871  30.631  27.285  1.00  0.00     0.031 C 
ATOM     58  C   UNL A   1      46.609  31.376  27.966  1.00  0.00     0.037 A 
BRANCH  45  59
ATOM     59  C   UNL A   1      40.917  29.233  29.009  1.00  0.00     0.058 A 
ATOM     60  C   UNL A   1      40.532  29.410  30.347  1.00  0.00     0.135 A 
ATOM     61  C   UNL A   1      39.932  29.384  28.018  1.00  0.00     0.135 A 
ATOM     62  F   UNL A   1      41.429  29.257  31.334  1.00  0.00    -0.206 F 
ATOM     63  C   UNL A   1      39.214  29.693  30.691  1.00  0.00     0.059 A 
ATOM     64  C   UNL A   1      38.615  29.697  28.338  1.00  0.00     0.059 A 
ATOM     65  F   UNL A   1      40.246  29.226  26.724  1.00  0.00    -0.206 F 
ATOM     66  C   UNL A   1      38.261  29.832  29.678  1.00  0.00     0.060 A 
BRANCH  66  67
ATOM     67  S   UNL A   1      36.553  30.189  30.140  1.00  0.00     0.124 S 
ATOM     68  O   UNL A   1      36.624  31.619  30.426  1.00  0.00    -0.237 OA
ATOM     69  O   UNL A   1      35.820  29.820  28.932  1.00  0.00    -0.237 OA
ATOM     70  O   UNL A   1      36.325  29.330  31.296  1.00  0.00    -0.744 OA
ENDBRANCH  66  67
ENDBRANCH  45  59
BRANCH  46  71
ATOM     71  C   UNL A   1      50.154  26.707  26.447  1.00  0.00     0.058 A 
ATOM     72  C   UNL A   1      51.165  26.488  27.401  1.00  0.00     0.135 A 
ATOM     73  C   UNL A   1      50.532  26.668  25.095  1.00  0.00     0.135 A 
ATOM     74  F   UNL A   1      50.878  26.558  28.710  1.00  0.00    -0.206 F 
ATOM     75  C   UNL A   1      52.489  26.247  27.030  1.00  0.00     0.059 A 
ATOM     76  C   UNL A   1      51.841  26.400  24.700  1.00  0.00     0.059 A 
ATOM     77  F   UNL A   1      49.621  26.895  24.137  1.00  0.00    -0.206 F 
ATOM     78  C   UNL A   1      52.816  26.198  25.674  1.00  0.00     0.060 A 
BRANCH  78  79
ATOM     79  S   UNL A   1      54.520  25.828  25.198  1.00  0.00     0.124 S 
ATOM     80  O   UNL A   1      54.645  26.560  23.941  1.00  0.00    -0.237 OA
ATOM     81  O   UNL A   1      55.278  26.362  26.325  1.00  0.00    -0.237 OA
ATOM     82  O   UNL A   1      54.528  24.373  25.082  1.00  0.00    -0.744 OA
ENDBRANCH  78  79
ENDBRANCH  46  71
BRANCH  58  83
ATOM     83  C   UNL A   1      47.119  32.793  28.082  1.00  0.00     0.058 A 
ATOM     84  C   UNL A   1      47.825  33.242  29.208  1.00  0.00     0.135 A 
ATOM     85  C   UNL A   1      46.963  33.694  27.014  1.00  0.00     0.135 A 
ATOM     86  F   UNL A   1      48.007  32.427  30.260  1.00  0.00    -0.206 F 
ATOM     87  C   UNL A   1      48.341  34.535  29.282  1.00  0.00     0.059 A 
ATOM     88  C   UNL A   1      47.492  34.983  27.055  1.00  0.00     0.059 A 
ATOM     89  F   UNL A   1      46.309  33.319  25.903  1.00  0.00    -0.206 F 
ATOM     90  C   UNL A   1      48.170  35.399  28.198  1.00  0.00     0.060 A 
BRANCH  90  91
ATOM     91  S   UNL A   1      48.875  37.061  28.292  1.00  0.00     0.124 S 
ATOM     92  O   UNL A   1      48.783  37.500  26.905  1.00  0.00    -0.237 OA
ATOM     93  O   UNL A   1      47.981  37.729  29.232  1.00  0.00    -0.237 OA
ATOM     94  O   UNL A   1      50.232  36.827  28.787  1.00  0.00    -0.744 OA
ENDBRANCH  90  91
ENDBRANCH  58  83
ENDBRANCH  32  33
ENDBRANCH  25  27
ENDBRANCH  24  25
ENDBRANCH  23  24
ENDBRANCH  22  23
ENDBRANCH  21  22
ENDBRANCH   1  21
TORSDOF 21
ENDMDL
MODEL 3
REMARK VINA RESULT:      -9.6      2.184      8.901
REMARK SMILES C[N@H+](CC(=O)OCCOCCOC(=O)c1ccc(-c2c3nc(c(-c4c(F)cc(S(=O)(=O)[O-])cc4F)c4ccc([nH]4)c(-c4c(F)cc(S(=O)(=O)[O-])cc4F)c4nc(c(-c5c(F)cc(S(=O)(=O)[O-])cc5F)c5ccc2[nH]5)C=C4)C=C3)cc1)Cc1nc(-c2ccsc2)no1
REMARK SMILES IDX 8 1 7 2 6 3 4 4 5 5 3 6 2 7 1 8 81 10 82 11 83 12 91 13
REMARK SMILES IDX 84 14 90 15 85 16 86 17 89 18 87 19 88 20 9 21 10 22 11 23
REMARK SMILES IDX 12 24 13 25 14 26 15 27 16 28 80 29 17 30 79 31 18 32 19 33
REMARK SMILES IDX 20 34 73 35 21 36 78 37 72 38 74 39 22 40 77 41 71 42 70 43
REMARK SMILES IDX 23 45 57 46 36 47 56 48 37 49 40 50 55 51 75 52 38 53 39 54
REMARK SMILES IDX 54 56 76 57 41 58 24 59 25 60 34 61 26 62 27 63 33 64 35 65
REMARK SMILES IDX 28 66 29 67 30 68 31 69 32 70 58 71 59 72 68 73 60 74 61 75
REMARK SMILES IDX 67 76 69 77 62 78 63 79 64 80 65 81 66 82 42 83 43 84 52 85
REMARK SMILES IDX 44 86 45 87 51 88 53 89 46 90 47 91 48 92 49 93 50 94
REMARK H PARENT 2 9 74 44 40 55
REMARK Flexibility Score: inf
ROOT
ATOM      1  C   UNL A   1      39.137  20.681  25.752  1.00  0.00     0.202 C 
ENDROOT
BRANCH   1   2
ATOM      2  C   UNL A   1      37.756  21.260  25.310  1.00  0.00     0.261 C 
BRANCH   2   3
ATOM      3  O   UNL A   1      37.575  22.641  25.607  1.00  0.00    -0.459 OA
BRANCH   3   4
ATOM      4  C   UNL A   1      36.295  23.000  25.845  1.00  0.00     0.361 C 
ATOM      5  O   UNL A   1      35.607  22.533  26.744  1.00  0.00    -0.245 OA
BRANCH   4   6
ATOM      6  C   UNL A   1      35.856  24.144  24.942  1.00  0.00     0.386 C 
BRANCH   6   7
ATOM      7  N   UNL A   1      34.378  24.198  24.669  1.00  0.00    -0.320 N 
ATOM      8  C   UNL A   1      34.101  25.488  24.017  1.00  0.00     0.333 C 
ATOM      9  H   UNL A   1      33.881  24.082  25.551  1.00  0.00     0.348 HD
BRANCH   7  10
ATOM     10  C   UNL A   1      33.939  23.117  23.737  1.00  0.00     0.364 C 
BRANCH  10  11
ATOM     11  C   UNL A   1      33.366  21.796  24.260  1.00  0.00     0.282 A 
ATOM     12  N   UNL A   1      33.972  20.621  24.314  1.00  0.00    -0.186 NA
ATOM     13  O   UNL A   1      32.046  21.685  24.602  1.00  0.00    -0.333 OA
ATOM     14  C   UNL A   1      33.033  19.755  24.758  1.00  0.00     0.203 A 
ATOM     15  N   UNL A   1      31.835  20.318  24.958  1.00  0.00    -0.057 NA
BRANCH  14  16
ATOM     16  C   UNL A   1      33.424  18.347  24.960  1.00  0.00     0.033 A 
ATOM     17  C   UNL A   1      32.600  17.358  25.594  1.00  0.00     0.024 A 
ATOM     18  C   UNL A   1      34.570  17.770  24.453  1.00  0.00     0.077 A 
ATOM     19  C   UNL A   1      33.192  16.112  25.635  1.00  0.00     0.065 A 
ATOM     20  S   UNL A   1      34.694  16.100  24.823  1.00  0.00    -0.152 S 
ENDBRANCH  14  16
ENDBRANCH  10  11
ENDBRANCH   7  10
ENDBRANCH   6   7
ENDBRANCH   4   6
ENDBRANCH   3   4
ENDBRANCH   2   3
ENDBRANCH   1   2
BRANCH   1  21
ATOM     21  O   UNL A   1      39.994  21.639  26.419  1.00  0.00    -0.374 OA
BRANCH  21  22
ATOM     22  C   UNL A   1      41.008  21.091  27.272  1.00  0.00     0.202 C 
BRANCH  22  23
ATOM     23  C   UNL A   1      42.015  22.044  28.090  1.00  0.00     0.261 C 
BRANCH  23  24
ATOM     24  O   UNL A   1      42.987  22.932  27.425  1.00  0.00    -0.460 OA
BRANCH  24  25
ATOM     25  C   UNL A   1      42.483  24.008  26.718  1.00  0.00     0.338 C 
ATOM     26  O   UNL A   1      42.338  24.023  25.503  1.00  0.00    -0.246 OA
BRANCH  25  27
ATOM     27  C   UNL A   1      41.904  25.141  27.563  1.00  0.00     0.060 A 
ATOM     28  C   UNL A   1      42.717  26.260  27.799  1.00  0.00     0.016 A 
ATOM     29  C   UNL A   1      40.674  25.134  28.226  1.00  0.00     0.016 A 
ATOM     30  C   UNL A   1      42.322  27.377  28.565  1.00  0.00     0.010 A 
ATOM     31  C   UNL A   1      40.294  26.231  29.073  1.00  0.00     0.010 A 
ATOM     32  C   UNL A   1      41.112  27.372  29.253  1.00  0.00    -0.014 A 
BRANCH  32  33
ATOM     33  C   UNL A   1      40.893  28.404  30.340  1.00  0.00     0.031 A 
ATOM     34  C   UNL A   1      41.841  28.394  31.524  1.00  0.00     0.074 A 
ATOM     35  C   UNL A   1      40.002  29.424  30.281  1.00  0.00     0.049 A 
ATOM     36  N   UNL A   1      41.825  29.107  32.625  1.00  0.00    -0.248 NA
ATOM     37  C   UNL A   1      42.975  27.463  31.433  1.00  0.00     0.031 C 
ATOM     38  C   UNL A   1      39.117  29.726  29.159  1.00  0.00     0.029 A 
ATOM     39  N   UNL A   1      39.702  30.414  31.205  1.00  0.00    -0.354 N 
ATOM     40  C   UNL A   1      42.927  28.690  33.367  1.00  0.00     0.074 A 
ATOM     41  C   UNL A   1      43.593  27.670  32.586  1.00  0.00     0.031 C 
ATOM     42  C   UNL A   1      38.362  30.801  29.469  1.00  0.00     0.029 A 
ATOM     43  C   UNL A   1      38.670  31.251  30.829  1.00  0.00     0.049 A 
ATOM     44  H   UNL A   1      40.186  30.512  32.057  1.00  0.00     0.167 HD
ATOM     45  C   UNL A   1      43.352  29.100  34.589  1.00  0.00     0.037 A 
ATOM     46  C   UNL A   1      38.023  32.236  31.502  1.00  0.00     0.037 A 
ATOM     47  C   UNL A   1      42.723  30.121  35.386  1.00  0.00     0.049 A 
ATOM     48  C   UNL A   1      38.426  32.593  32.922  1.00  0.00     0.074 A 
ATOM     49  C   UNL A   1      43.074  30.558  36.654  1.00  0.00     0.029 A 
ATOM     50  N   UNL A   1      41.622  30.868  35.002  1.00  0.00    -0.354 N 
ATOM     51  N   UNL A   1      39.419  32.127  33.642  1.00  0.00    -0.248 NA
ATOM     52  C   UNL A   1      37.611  33.601  33.626  1.00  0.00     0.031 C 
ATOM     53  C   UNL A   1      42.155  31.532  37.056  1.00  0.00     0.029 A 
ATOM     54  C   UNL A   1      41.267  31.745  36.016  1.00  0.00     0.049 A 
ATOM     55  H   UNL A   1      41.160  30.789  34.137  1.00  0.00     0.167 HD
ATOM     56  C   UNL A   1      39.363  32.805  34.862  1.00  0.00     0.074 A 
ATOM     57  C   UNL A   1      38.246  33.719  34.785  1.00  0.00     0.031 C 
ATOM     58  C   UNL A   1      40.168  32.675  35.946  1.00  0.00     0.037 A 
BRANCH  45  59
ATOM     59  C   UNL A   1      44.533  28.380  35.182  1.00  0.00     0.058 A 
ATOM     60  C   UNL A   1      45.845  28.863  35.060  1.00  0.00     0.135 A 
ATOM     61  C   UNL A   1      44.337  27.192  35.905  1.00  0.00     0.135 A 
ATOM     62  F   UNL A   1      46.091  29.983  34.362  1.00  0.00    -0.206 F 
ATOM     63  C   UNL A   1      46.925  28.176  35.607  1.00  0.00     0.059 A 
ATOM     64  C   UNL A   1      45.398  26.505  36.486  1.00  0.00     0.059 A 
ATOM     65  F   UNL A   1      43.103  26.686  36.053  1.00  0.00    -0.206 F 
ATOM     66  C   UNL A   1      46.690  26.995  36.316  1.00  0.00     0.060 A 
BRANCH  66  67
ATOM     67  S   UNL A   1      48.101  26.109  37.011  1.00  0.00     0.124 S 
ATOM     68  O   UNL A   1      48.931  25.909  35.827  1.00  0.00    -0.237 OA
ATOM     69  O   UNL A   1      48.615  27.061  37.992  1.00  0.00    -0.237 OA
ATOM     70  O   UNL A   1      47.503  24.900  37.569  1.00  0.00    -0.744 OA
ENDBRANCH  66  67
ENDBRANCH  45  59
BRANCH  46  71
ATOM     71  C   UNL A   1      36.848  32.938  30.888  1.00  0.00     0.058 A 
ATOM     72  C   UNL A   1      35.523  32.581  31.197  1.00  0.00     0.135 A 
ATOM     73  C   UNL A   1      37.032  33.932  29.914  1.00  0.00     0.135 A 
ATOM     74  F   UNL A   1      35.281  31.605  32.086  1.00  0.00    -0.206 F 
ATOM     75  C   UNL A   1      34.432  33.180  30.565  1.00  0.00     0.059 A 
ATOM     76  C   UNL A   1      35.959  34.566  29.290  1.00  0.00     0.059 A 
ATOM     77  F   UNL A   1      38.272  34.299  29.555  1.00  0.00    -0.206 F 
ATOM     78  C   UNL A   1      34.661  34.178  29.617  1.00  0.00     0.060 A 
BRANCH  78  79
ATOM     79  S   UNL A   1      33.243  34.992  28.843  1.00  0.00     0.124 S 
ATOM     80  O   UNL A   1      32.713  33.929  27.997  1.00  0.00    -0.237 OA
ATOM     81  O   UNL A   1      32.429  35.355  29.998  1.00  0.00    -0.237 OA
ATOM     82  O   UNL A   1      33.848  36.117  28.135  1.00  0.00    -0.744 OA
ENDBRANCH  78  79
ENDBRANCH  46  71
BRANCH  58  83
ATOM     83  C   UNL A   1      39.925  33.570  37.138  1.00  0.00     0.058 A 
ATOM     84  C   UNL A   1      40.593  34.793  37.300  1.00  0.00     0.135 A 
ATOM     85  C   UNL A   1      38.950  33.233  38.093  1.00  0.00     0.135 A 
ATOM     86  F   UNL A   1      41.534  35.170  36.420  1.00  0.00    -0.206 F 
ATOM     87  C   UNL A   1      40.321  35.639  38.374  1.00  0.00     0.059 A 
ATOM     88  C   UNL A   1      38.643  34.074  39.161  1.00  0.00     0.059 A 
ATOM     89  F   UNL A   1      38.267  32.082  37.984  1.00  0.00    -0.206 F 
ATOM     90  C   UNL A   1      39.341  35.271  39.300  1.00  0.00     0.060 A 
BRANCH  90  91
ATOM     91  S   UNL A   1      38.973  36.394  40.667  1.00  0.00     0.124 S 
ATOM     92  O   UNL A   1      37.901  35.682  41.353  1.00  0.00    -0.237 OA
ATOM     93  O   UNL A   1      40.247  36.459  41.373  1.00  0.00    -0.237 OA
ATOM     94  O   UNL A   1      38.574  37.630  39.994  1.00  0.00    -0.744 OA
ENDBRANCH  90  91
ENDBRANCH  58  83
ENDBRANCH  32  33
ENDBRANCH  25  27
ENDBRANCH  24  25
ENDBRANCH  23  24
ENDBRANCH  22  23
ENDBRANCH  21  22
ENDBRANCH   1  21
TORSDOF 21
ENDMDL
