MODEL 1
REMARK VINA RESULT:      -8.6      0.000      0.000
REMARK SMILES CC(C)(C)C[C@@H](O)[C@@H](F)C(=O)OCCOCCOC(=O)c1ccc(-c2c3nc(c(-c4c(F)cc(S(=O)(=O)[O-])cc4F)c4ccc([nH]4)c(-c4c(F)cc(S(=O)(=O)[O-])cc4F)c4nc(c(-c5c(F)cc(S(=O)(=O)[O-])cc5F)c5ccc2[nH]5)C=C4)C=C3)cc1
REMARK SMILES IDX 15 1 14 2 13 3 12 4 10 5 11 6 8 7 9 8 6 9 5 10 2 11 1 12
REMARK SMILES IDX 3 13 4 14 7 15 16 17 17 18 18 19 19 20 20 21 21 22 22 23
REMARK SMILES IDX 86 24 23 25 85 26 24 27 25 28 26 29 79 30 27 31 84 32 78 33
REMARK SMILES IDX 80 34 28 35 83 36 77 37 76 38 29 40 63 41 42 42 62 43 43 44
REMARK SMILES IDX 46 45 61 46 81 47 44 48 45 49 60 51 82 52 47 53 30 54 31 55
REMARK SMILES IDX 40 56 32 57 33 58 39 59 41 60 34 61 35 62 36 63 37 64 38 65
REMARK SMILES IDX 64 66 65 67 74 68 66 69 67 70 73 71 75 72 68 73 69 74 70 75
REMARK SMILES IDX 71 76 72 77 48 78 49 79 58 80 50 81 51 82 57 83 59 84 52 85
REMARK SMILES IDX 53 86 54 87 55 88 56 89
REMARK H PARENT 7 16 80 39 46 50
REMARK Flexibility Score: inf
ROOT
ATOM      1  O   UNL A   1      33.646  35.628  28.435  1.00  0.00    -0.374 OA
ENDROOT
BRANCH   1   2
ATOM      2  C   UNL A   1      33.306  36.431  29.566  1.00  0.00     0.202 C 
BRANCH   2   3
ATOM      3  C   UNL A   1      32.684  35.694  30.756  1.00  0.00     0.261 C 
BRANCH   3   4
ATOM      4  O   UNL A   1      33.113  36.243  32.022  1.00  0.00    -0.461 OA
BRANCH   4   5
ATOM      5  C   UNL A   1      34.198  35.648  32.591  1.00  0.00     0.343 C 
ATOM      6  O   UNL A   1      35.050  36.245  33.245  1.00  0.00    -0.249 OA
BRANCH   5   7
ATOM      7  C   UNL A   1      34.316  34.162  32.283  1.00  0.00     0.304 C 
ATOM      8  F   UNL A   1      33.686  33.424  33.249  1.00  0.00    -0.232 F 
BRANCH   7   9
ATOM      9  C   UNL A   1      35.740  33.603  32.094  1.00  0.00     0.160 C 
BRANCH   9  10
ATOM     10  C   UNL A   1      36.069  32.661  33.273  1.00  0.00     0.041 C 
BRANCH  10  11
ATOM     11  C   UNL A   1      37.009  33.172  34.403  1.00  0.00    -0.036 C 
ATOM     12  C   UNL A   1      38.076  34.160  33.899  1.00  0.00     0.011 C 
ATOM     13  C   UNL A   1      37.749  31.942  34.974  1.00  0.00     0.011 C 
ATOM     14  C   UNL A   1      36.201  33.828  35.532  1.00  0.00     0.011 C 
ENDBRANCH  10  11
ENDBRANCH   9  10
BRANCH   9  15
ATOM     15  O   UNL A   1      35.823  32.849  30.887  1.00  0.00    -0.389 OA
ATOM     16  H   UNL A   1      35.052  33.043  30.330  1.00  0.00     0.211 HD
ENDBRANCH   9  15
ENDBRANCH   7   9
ENDBRANCH   5   7
ENDBRANCH   4   5
ENDBRANCH   3   4
ENDBRANCH   2   3
ENDBRANCH   1   2
BRANCH   1  17
ATOM     17  C   UNL A   1      33.259  34.255  28.483  1.00  0.00     0.202 C 
BRANCH  17  18
ATOM     18  C   UNL A   1      34.296  33.249  27.964  1.00  0.00     0.261 C 
BRANCH  18  19
ATOM     19  O   UNL A   1      34.204  31.971  28.628  1.00  0.00    -0.460 OA
BRANCH  19  20
ATOM     20  C   UNL A   1      34.440  30.907  27.821  1.00  0.00     0.338 C 
ATOM     21  O   UNL A   1      33.776  30.559  26.851  1.00  0.00    -0.246 OA
BRANCH  20  22
ATOM     22  C   UNL A   1      35.732  30.273  28.141  1.00  0.00     0.060 A 
ATOM     23  C   UNL A   1      35.861  29.688  29.407  1.00  0.00     0.016 A 
ATOM     24  C   UNL A   1      36.830  30.340  27.279  1.00  0.00     0.016 A 
ATOM     25  C   UNL A   1      37.100  29.218  29.840  1.00  0.00     0.010 A 
ATOM     26  C   UNL A   1      38.076  29.871  27.719  1.00  0.00     0.010 A 
ATOM     27  C   UNL A   1      38.226  29.344  29.016  1.00  0.00    -0.014 A 
BRANCH  27  28
ATOM     28  C   UNL A   1      39.571  29.064  29.582  1.00  0.00     0.031 A 
ATOM     29  C   UNL A   1      40.080  29.910  30.720  1.00  0.00     0.074 A 
ATOM     30  C   UNL A   1      40.310  28.032  29.132  1.00  0.00     0.049 A 
ATOM     31  N   UNL A   1      41.212  29.829  31.373  1.00  0.00    -0.248 NA
ATOM     32  C   UNL A   1      39.193  30.987  31.187  1.00  0.00     0.031 C 
ATOM     33  C   UNL A   1      39.915  27.113  28.064  1.00  0.00     0.029 A 
ATOM     34  N   UNL A   1      41.548  27.583  29.520  1.00  0.00    -0.354 N 
ATOM     35  C   UNL A   1      41.176  30.844  32.321  1.00  0.00     0.074 A 
ATOM     36  C   UNL A   1      39.923  31.545  32.143  1.00  0.00     0.031 C 
ATOM     37  C   UNL A   1      40.894  26.211  27.883  1.00  0.00     0.029 A 
ATOM     38  C   UNL A   1      41.994  26.501  28.801  1.00  0.00     0.049 A 
ATOM     39  H   UNL A   1      42.067  27.998  30.247  1.00  0.00     0.167 HD
ATOM     40  C   UNL A   1      42.098  31.159  33.263  1.00  0.00     0.037 A 
ATOM     41  C   UNL A   1      43.162  25.830  28.865  1.00  0.00     0.037 A 
ATOM     42  C   UNL A   1      43.341  30.456  33.450  1.00  0.00     0.049 A 
ATOM     43  C   UNL A   1      44.198  26.236  29.880  1.00  0.00     0.074 A 
ATOM     44  C   UNL A   1      44.326  30.686  34.395  1.00  0.00     0.029 A 
ATOM     45  N   UNL A   1      43.773  29.392  32.673  1.00  0.00    -0.354 N 
ATOM     46  N   UNL A   1      44.139  27.183  30.787  1.00  0.00    -0.248 NA
ATOM     47  C   UNL A   1      45.460  25.480  29.885  1.00  0.00     0.031 C 
ATOM     48  C   UNL A   1      45.375  29.790  34.162  1.00  0.00     0.029 A 
ATOM     49  C   UNL A   1      45.022  28.971  33.101  1.00  0.00     0.049 A 
ATOM     50  H   UNL A   1      43.268  28.994  31.929  1.00  0.00     0.167 HD
ATOM     51  C   UNL A   1      45.342  27.120  31.484  1.00  0.00     0.074 A 
ATOM     52  C   UNL A   1      46.107  26.038  30.900  1.00  0.00     0.031 C 
ATOM     53  C   UNL A   1      45.772  27.888  32.515  1.00  0.00     0.037 A 
BRANCH  40  54
ATOM     54  C   UNL A   1      41.808  32.336  34.153  1.00  0.00     0.058 A 
ATOM     55  C   UNL A   1      42.052  33.655  33.738  1.00  0.00     0.135 A 
ATOM     56  C   UNL A   1      41.251  32.142  35.427  1.00  0.00     0.135 A 
ATOM     57  F   UNL A   1      42.600  33.894  32.535  1.00  0.00    -0.206 F 
ATOM     58  C   UNL A   1      41.776  34.739  34.564  1.00  0.00     0.059 A 
ATOM     59  C   UNL A   1      40.944  33.213  36.261  1.00  0.00     0.059 A 
ATOM     60  F   UNL A   1      41.000  30.901  35.873  1.00  0.00    -0.206 F 
ATOM     61  C   UNL A   1      41.224  34.507  35.826  1.00  0.00     0.060 A 
BRANCH  61  62
ATOM     62  S   UNL A   1      40.872  35.923  36.890  1.00  0.00     0.124 S 
ATOM     63  O   UNL A   1      39.665  36.458  36.269  1.00  0.00    -0.237 OA
ATOM     64  O   UNL A   1      40.689  35.297  38.195  1.00  0.00    -0.237 OA
ATOM     65  O   UNL A   1      42.066  36.752  36.757  1.00  0.00    -0.744 OA
ENDBRANCH  61  62
ENDBRANCH  40  54
BRANCH  41  66
ATOM     66  C   UNL A   1      43.421  24.702  27.931  1.00  0.00     0.058 A 
ATOM     67  C   UNL A   1      43.112  23.381  28.285  1.00  0.00     0.135 A 
ATOM     68  C   UNL A   1      43.987  24.926  26.666  1.00  0.00     0.135 A 
ATOM     69  F   UNL A   1      42.582  23.115  29.488  1.00  0.00    -0.206 F 
ATOM     70  C   UNL A   1      43.362  22.318  27.422  1.00  0.00     0.059 A 
ATOM     71  C   UNL A   1      44.225  23.883  25.777  1.00  0.00     0.059 A 
ATOM     72  F   UNL A   1      44.294  26.174  26.278  1.00  0.00    -0.206 F 
ATOM     73  C   UNL A   1      43.916  22.581  26.168  1.00  0.00     0.060 A 
BRANCH  73  74
ATOM     74  S   UNL A   1      44.188  21.203  25.031  1.00  0.00     0.124 S 
ATOM     75  O   UNL A   1      43.053  20.341  25.339  1.00  0.00    -0.237 OA
ATOM     76  O   UNL A   1      44.155  21.866  23.731  1.00  0.00    -0.237 OA
ATOM     77  O   UNL A   1      45.497  20.693  25.433  1.00  0.00    -0.744 OA
ENDBRANCH  73  74
ENDBRANCH  41  66
BRANCH  53  78
ATOM     78  C   UNL A   1      47.118  27.571  33.104  1.00  0.00     0.058 A 
ATOM     79  C   UNL A   1      48.288  28.199  32.651  1.00  0.00     0.135 A 
ATOM     80  C   UNL A   1      47.232  26.666  34.173  1.00  0.00     0.135 A 
ATOM     81  F   UNL A   1      48.235  29.067  31.629  1.00  0.00    -0.206 F 
ATOM     82  C   UNL A   1      49.528  27.927  33.223  1.00  0.00     0.059 A 
ATOM     83  C   UNL A   1      48.457  26.396  34.776  1.00  0.00     0.059 A 
ATOM     84  F   UNL A   1      46.142  26.045  34.653  1.00  0.00    -0.206 F 
ATOM     85  C   UNL A   1      49.602  27.024  34.286  1.00  0.00     0.060 A 
BRANCH  85  86
ATOM     86  S   UNL A   1      51.210  26.704  35.042  1.00  0.00     0.124 S 
ATOM     87  O   UNL A   1      52.106  26.848  33.901  1.00  0.00    -0.237 OA
ATOM     88  O   UNL A   1      51.296  27.754  36.052  1.00  0.00    -0.237 OA
ATOM     89  O   UNL A   1      51.073  25.349  35.568  1.00  0.00    -0.744 OA
ENDBRANCH  85  86
ENDBRANCH  53  78
ENDBRANCH  27  28
ENDBRANCH  20  22
ENDBRANCH  19  20
ENDBRANCH  18  19
ENDBRANCH  17  18
ENDBRANCH   1  17
TORSDOF 21
ENDMDL
MODEL 2
REMARK VINA RESULT:      -8.5      4.865     11.944
REMARK SMILES CC(C)(C)C[C@@H](O)[C@@H](F)C(=O)OCCOCCOC(=O)c1ccc(-c2c3nc(c(-c4c(F)cc(S(=O)(=O)[O-])cc4F)c4ccc([nH]4)c(-c4c(F)cc(S(=O)(=O)[O-])cc4F)c4nc(c(-c5c(F)cc(S(=O)(=O)[O-])cc5F)c5ccc2[nH]5)C=C4)C=C3)cc1
REMARK SMILES IDX 15 1 14 2 13 3 12 4 10 5 11 6 8 7 9 8 6 9 5 10 2 11 1 12
REMARK SMILES IDX 3 13 4 14 7 15 16 17 17 18 18 19 19 20 20 21 21 22 22 23
REMARK SMILES IDX 86 24 23 25 85 26 24 27 25 28 26 29 79 30 27 31 84 32 78 33
REMARK SMILES IDX 80 34 28 35 83 36 77 37 76 38 29 40 63 41 42 42 62 43 43 44
REMARK SMILES IDX 46 45 61 46 81 47 44 48 45 49 60 51 82 52 47 53 30 54 31 55
REMARK SMILES IDX 40 56 32 57 33 58 39 59 41 60 34 61 35 62 36 63 37 64 38 65
REMARK SMILES IDX 64 66 65 67 74 68 66 69 67 70 73 71 75 72 68 73 69 74 70 75
REMARK SMILES IDX 71 76 72 77 48 78 49 79 58 80 50 81 51 82 57 83 59 84 52 85
REMARK SMILES IDX 53 86 54 87 55 88 56 89
REMARK H PARENT 7 16 80 39 46 50
REMARK Flexibility Score: inf
ROOT
ATOM      1  O   UNL A   1      38.691  22.314  25.931  1.00  0.00    -0.374 OA
ENDROOT
BRANCH   1   2
ATOM      2  C   UNL A   1      37.755  21.701  25.042  1.00  0.00     0.202 C 
BRANCH   2   3
ATOM      3  C   UNL A   1      36.327  22.254  25.079  1.00  0.00     0.261 C 
BRANCH   3   4
ATOM      4  O   UNL A   1      35.378  21.356  24.463  1.00  0.00    -0.461 OA
BRANCH   4   5
ATOM      5  C   UNL A   1      34.067  21.591  24.746  1.00  0.00     0.343 C 
ATOM      6  O   UNL A   1      33.654  22.594  25.326  1.00  0.00    -0.249 OA
BRANCH   5   7
ATOM      7  C   UNL A   1      33.137  20.456  24.344  1.00  0.00     0.304 C 
ATOM      8  F   UNL A   1      31.854  20.915  24.208  1.00  0.00    -0.232 F 
BRANCH   7   9
ATOM      9  C   UNL A   1      33.117  19.217  25.262  1.00  0.00     0.160 C 
BRANCH   9  10
ATOM     10  C   UNL A   1      34.312  18.307  24.900  1.00  0.00     0.041 C 
BRANCH  10  11
ATOM     11  C   UNL A   1      34.036  16.826  24.510  1.00  0.00    -0.036 C 
ATOM     12  C   UNL A   1      34.019  16.596  22.989  1.00  0.00     0.011 C 
ATOM     13  C   UNL A   1      32.635  16.463  25.050  1.00  0.00     0.011 C 
ATOM     14  C   UNL A   1      35.069  15.889  25.154  1.00  0.00     0.011 C 
ENDBRANCH  10  11
ENDBRANCH   9  10
BRANCH   9  15
ATOM     15  O   UNL A   1      33.253  19.606  26.627  1.00  0.00    -0.389 OA
ATOM     16  H   UNL A   1      33.786  18.946  27.099  1.00  0.00     0.211 HD
ENDBRANCH   9  15
ENDBRANCH   7   9
ENDBRANCH   5   7
ENDBRANCH   4   5
ENDBRANCH   3   4
ENDBRANCH   2   3
ENDBRANCH   1   2
BRANCH   1  17
ATOM     17  C   UNL A   1      39.786  21.508  26.364  1.00  0.00     0.202 C 
BRANCH  17  18
ATOM     18  C   UNL A   1      41.058  22.270  26.764  1.00  0.00     0.261 C 
BRANCH  18  19
ATOM     19  O   UNL A   1      41.001  23.665  26.405  1.00  0.00    -0.460 OA
BRANCH  19  20
ATOM     20  C   UNL A   1      42.038  24.403  26.872  1.00  0.00     0.338 C 
ATOM     21  O   UNL A   1      43.220  24.280  26.575  1.00  0.00    -0.246 OA
BRANCH  20  22
ATOM     22  C   UNL A   1      41.560  25.535  27.688  1.00  0.00     0.060 A 
ATOM     23  C   UNL A   1      42.416  26.636  27.820  1.00  0.00     0.016 A 
ATOM     24  C   UNL A   1      40.358  25.487  28.400  1.00  0.00     0.016 A 
ATOM     25  C   UNL A   1      42.104  27.666  28.704  1.00  0.00     0.010 A 
ATOM     26  C   UNL A   1      40.049  26.522  29.294  1.00  0.00     0.010 A 
ATOM     27  C   UNL A   1      40.939  27.597  29.480  1.00  0.00    -0.014 A 
BRANCH  27  28
ATOM     28  C   UNL A   1      40.746  28.574  30.584  1.00  0.00     0.031 A 
ATOM     29  C   UNL A   1      41.644  28.503  31.792  1.00  0.00     0.074 A 
ATOM     30  C   UNL A   1      39.824  29.551  30.490  1.00  0.00     0.049 A 
ATOM     31  N   UNL A   1      41.662  29.263  32.857  1.00  0.00    -0.248 NA
ATOM     32  C   UNL A   1      42.658  27.437  31.797  1.00  0.00     0.031 C 
ATOM     33  C   UNL A   1      38.922  29.754  29.357  1.00  0.00     0.029 A 
ATOM     34  N   UNL A   1      39.498  30.558  31.364  1.00  0.00    -0.354 N 
ATOM     35  C   UNL A   1      42.681  28.765  33.661  1.00  0.00     0.074 A 
ATOM     36  C   UNL A   1      43.241  27.622  32.973  1.00  0.00     0.031 C 
ATOM     37  C   UNL A   1      38.143  30.820  29.607  1.00  0.00     0.029 A 
ATOM     38  C   UNL A   1      38.472  31.359  30.926  1.00  0.00     0.049 A 
ATOM     39  H   UNL A   1      39.957  30.693  32.224  1.00  0.00     0.167 HD
ATOM     40  C   UNL A   1      43.119  29.224  34.858  1.00  0.00     0.037 A 
ATOM     41  C   UNL A   1      37.859  32.400  31.525  1.00  0.00     0.037 A 
ATOM     42  C   UNL A   1      42.571  30.367  35.539  1.00  0.00     0.049 A 
ATOM     43  C   UNL A   1      38.323  32.855  32.884  1.00  0.00     0.074 A 
ATOM     44  C   UNL A   1      42.967  30.923  36.744  1.00  0.00     0.029 A 
ATOM     45  N   UNL A   1      41.505  31.126  35.081  1.00  0.00    -0.354 N 
ATOM     46  N   UNL A   1      39.305  32.389  33.619  1.00  0.00    -0.248 NA
ATOM     47  C   UNL A   1      37.599  33.980  33.494  1.00  0.00     0.031 C 
ATOM     48  C   UNL A   1      42.111  31.991  37.036  1.00  0.00     0.029 A 
ATOM     49  C   UNL A   1      41.212  32.130  35.991  1.00  0.00     0.049 A 
ATOM     50  H   UNL A   1      41.027  30.976  34.234  1.00  0.00     0.167 HD
ATOM     51  C   UNL A   1      39.331  33.179  34.765  1.00  0.00     0.074 A 
ATOM     52  C   UNL A   1      38.272  34.157  34.622  1.00  0.00     0.031 C 
ATOM     53  C   UNL A   1      40.159  33.102  35.835  1.00  0.00     0.037 A 
BRANCH  40  54
ATOM     54  C   UNL A   1      44.237  28.470  35.524  1.00  0.00     0.058 A 
ATOM     55  C   UNL A   1      43.987  27.425  36.428  1.00  0.00     0.135 A 
ATOM     56  C   UNL A   1      45.574  28.778  35.231  1.00  0.00     0.135 A 
ATOM     57  F   UNL A   1      42.726  27.101  36.756  1.00  0.00    -0.206 F 
ATOM     58  C   UNL A   1      45.025  26.727  37.037  1.00  0.00     0.059 A 
ATOM     59  C   UNL A   1      46.629  28.078  35.809  1.00  0.00     0.059 A 
ATOM     60  F   UNL A   1      45.867  29.769  34.375  1.00  0.00    -0.206 F 
ATOM     61  C   UNL A   1      46.344  27.063  36.722  1.00  0.00     0.060 A 
BRANCH  61  62
ATOM     62  S   UNL A   1      47.683  26.152  37.520  1.00  0.00     0.124 S 
ATOM     63  O   UNL A   1      48.032  27.051  38.616  1.00  0.00    -0.237 OA
ATOM     64  O   UNL A   1      47.029  24.907  37.906  1.00  0.00    -0.237 OA
ATOM     65  O   UNL A   1      48.686  26.030  36.467  1.00  0.00    -0.744 OA
ENDBRANCH  61  62
ENDBRANCH  40  54
BRANCH  41  66
ATOM     66  C   UNL A   1      36.726  33.084  30.845  1.00  0.00     0.058 A 
ATOM     67  C   UNL A   1      35.402  32.882  31.259  1.00  0.00     0.135 A 
ATOM     68  C   UNL A   1      36.949  33.951  29.765  1.00  0.00     0.135 A 
ATOM     69  F   UNL A   1      35.137  32.051  32.280  1.00  0.00    -0.206 F 
ATOM     70  C   UNL A   1      34.335  33.509  30.622  1.00  0.00     0.059 A 
ATOM     71  C   UNL A   1      35.902  34.607  29.126  1.00  0.00     0.059 A 
ATOM     72  F   UNL A   1      38.199  34.183  29.335  1.00  0.00    -0.206 F 
ATOM     73  C   UNL A   1      34.597  34.373  29.557  1.00  0.00     0.060 A 
BRANCH  73  74
ATOM     74  S   UNL A   1      33.213  35.224  28.769  1.00  0.00     0.124 S 
ATOM     75  O   UNL A   1      32.479  35.725  29.925  1.00  0.00    -0.237 OA
ATOM     76  O   UNL A   1      33.893  36.230  27.957  1.00  0.00    -0.237 OA
ATOM     77  O   UNL A   1      32.554  34.162  28.014  1.00  0.00    -0.744 OA
ENDBRANCH  73  74
ENDBRANCH  41  66
BRANCH  53  78
ATOM     78  C   UNL A   1      39.979  34.118  36.929  1.00  0.00     0.058 A 
ATOM     79  C   UNL A   1      40.547  35.398  36.847  1.00  0.00     0.135 A 
ATOM     80  C   UNL A   1      39.182  33.825  38.048  1.00  0.00     0.135 A 
ATOM     81  F   UNL A   1      41.321  35.727  35.801  1.00  0.00    -0.206 F 
ATOM     82  C   UNL A   1      40.349  36.347  37.847  1.00  0.00     0.059 A 
ATOM     83  C   UNL A   1      38.950  34.765  39.048  1.00  0.00     0.059 A 
ATOM     84  F   UNL A   1      38.606  32.618  38.171  1.00  0.00    -0.206 F 
ATOM     85  C   UNL A   1      39.548  36.021  38.943  1.00  0.00     0.060 A 
BRANCH  85  86
ATOM     86  S   UNL A   1      39.270  37.270  40.217  1.00  0.00     0.124 S 
ATOM     87  O   UNL A   1      38.423  38.225  39.513  1.00  0.00    -0.237 OA
ATOM     88  O   UNL A   1      38.618  36.502  41.273  1.00  0.00    -0.237 OA
ATOM     89  O   UNL A   1      40.617  37.737  40.533  1.00  0.00    -0.744 OA
ENDBRANCH  85  86
ENDBRANCH  53  78
ENDBRANCH  27  28
ENDBRANCH  20  22
ENDBRANCH  19  20
ENDBRANCH  18  19
ENDBRANCH  17  18
ENDBRANCH   1  17
TORSDOF 21
ENDMDL
MODEL 3
REMARK VINA RESULT:      -8.3      5.566     10.595
REMARK SMILES CC(C)(C)C[C@@H](O)[C@@H](F)C(=O)OCCOCCOC(=O)c1ccc(-c2c3nc(c(-c4c(F)cc(S(=O)(=O)[O-])cc4F)c4ccc([nH]4)c(-c4c(F)cc(S(=O)(=O)[O-])cc4F)c4nc(c(-c5c(F)cc(S(=O)(=O)[O-])cc5F)c5ccc2[nH]5)C=C4)C=C3)cc1
REMARK SMILES IDX 15 1 14 2 13 3 12 4 10 5 11 6 8 7 9 8 6 9 5 10 2 11 1 12
REMARK SMILES IDX 3 13 4 14 7 15 16 17 17 18 18 19 19 20 20 21 21 22 22 23
REMARK SMILES IDX 86 24 23 25 85 26 24 27 25 28 26 29 79 30 27 31 84 32 78 33
REMARK SMILES IDX 80 34 28 35 83 36 77 37 76 38 29 40 63 41 42 42 62 43 43 44
REMARK SMILES IDX 46 45 61 46 81 47 44 48 45 49 60 51 82 52 47 53 30 54 31 55
REMARK SMILES IDX 40 56 32 57 33 58 39 59 41 60 34 61 35 62 36 63 37 64 38 65
REMARK SMILES IDX 64 66 65 67 74 68 66 69 67 70 73 71 75 72 68 73 69 74 70 75
REMARK SMILES IDX 71 76 72 77 48 78 49 79 58 80 50 81 51 82 57 83 59 84 52 85
REMARK SMILES IDX 53 86 54 87 55 88 56 89
REMARK H PARENT 7 16 80 39 46 50
REMARK Flexibility Score: inf
ROOT
ATOM      1  O   UNL A   1      33.129  31.197  27.035  1.00  0.00    -0.374 OA
ENDROOT
BRANCH   1   2
ATOM      2  C   UNL A   1      32.946  29.783  26.937  1.00  0.00     0.202 C 
BRANCH   2   3
ATOM      3  C   UNL A   1      33.478  29.120  25.663  1.00  0.00     0.261 C 
BRANCH   3   4
ATOM      4  O   UNL A   1      32.994  27.768  25.508  1.00  0.00    -0.461 OA
BRANCH   4   5
ATOM      5  C   UNL A   1      32.317  27.507  24.355  1.00  0.00     0.343 C 
ATOM      6  O   UNL A   1      32.795  26.908  23.394  1.00  0.00    -0.249 OA
BRANCH   5   7
ATOM      7  C   UNL A   1      30.914  28.094  24.320  1.00  0.00     0.304 C 
ATOM      8  F   UNL A   1      29.981  27.111  24.511  1.00  0.00    -0.232 F 
BRANCH   7   9
ATOM      9  C   UNL A   1      30.528  28.894  23.060  1.00  0.00     0.160 C 
BRANCH   9  10
ATOM     10  C   UNL A   1      29.641  30.088  23.477  1.00  0.00     0.041 C 
BRANCH  10  11
ATOM     11  C   UNL A   1      28.201  30.193  22.897  1.00  0.00    -0.036 C 
ATOM     12  C   UNL A   1      27.388  28.897  23.062  1.00  0.00     0.011 C 
ATOM     13  C   UNL A   1      28.336  30.467  21.383  1.00  0.00     0.011 C 
ATOM     14  C   UNL A   1      27.435  31.358  23.541  1.00  0.00     0.011 C 
ENDBRANCH  10  11
ENDBRANCH   9  10
BRANCH   9  15
ATOM     15  O   UNL A   1      31.693  29.409  22.419  1.00  0.00    -0.389 OA
ATOM     16  H   UNL A   1      31.908  28.859  21.649  1.00  0.00     0.211 HD
ENDBRANCH   9  15
ENDBRANCH   7   9
ENDBRANCH   5   7
ENDBRANCH   4   5
ENDBRANCH   3   4
ENDBRANCH   2   3
ENDBRANCH   1   2
BRANCH   1  17
ATOM     17  C   UNL A   1      34.066  31.657  28.007  1.00  0.00     0.202 C 
BRANCH  17  18
ATOM     18  C   UNL A   1      35.207  30.687  28.346  1.00  0.00     0.261 C 
BRANCH  18  19
ATOM     19  O   UNL A   1      36.006  31.143  29.457  1.00  0.00    -0.460 OA
BRANCH  19  20
ATOM     20  C   UNL A   1      36.671  30.157  30.107  1.00  0.00     0.338 C 
ATOM     21  O   UNL A   1      36.179  29.256  30.776  1.00  0.00    -0.246 OA
BRANCH  20  22
ATOM     22  C   UNL A   1      38.109  30.178  29.777  1.00  0.00     0.060 A 
ATOM     23  C   UNL A   1      38.457  30.047  28.427  1.00  0.00     0.016 A 
ATOM     24  C   UNL A   1      39.100  30.212  30.762  1.00  0.00     0.016 A 
ATOM     25  C   UNL A   1      39.792  29.893  28.058  1.00  0.00     0.010 A 
ATOM     26  C   UNL A   1      40.442  30.051  30.388  1.00  0.00     0.010 A 
ATOM     27  C   UNL A   1      40.791  29.851  29.039  1.00  0.00    -0.014 A 
BRANCH  27  28
ATOM     28  C   UNL A   1      42.168  29.446  28.652  1.00  0.00     0.031 A 
ATOM     29  C   UNL A   1      42.424  28.023  28.231  1.00  0.00     0.074 A 
ATOM     30  C   UNL A   1      43.170  30.345  28.618  1.00  0.00     0.049 A 
ATOM     31  N   UNL A   1      43.539  27.461  27.839  1.00  0.00    -0.248 NA
ATOM     32  C   UNL A   1      41.267  27.113  28.249  1.00  0.00     0.031 C 
ATOM     33  C   UNL A   1      43.045  31.762  28.962  1.00  0.00     0.029 A 
ATOM     34  N   UNL A   1      44.490  30.198  28.274  1.00  0.00    -0.354 N 
ATOM     35  C   UNL A   1      43.222  26.135  27.570  1.00  0.00     0.074 A 
ATOM     36  C   UNL A   1      41.815  25.968  27.869  1.00  0.00     0.031 C 
ATOM     37  C   UNL A   1      44.243  32.353  28.813  1.00  0.00     0.029 A 
ATOM     38  C   UNL A   1      45.223  31.355  28.387  1.00  0.00     0.049 A 
ATOM     39  H   UNL A   1      44.876  29.344  27.973  1.00  0.00     0.167 HD
ATOM     40  C   UNL A   1      44.025  25.147  27.107  1.00  0.00     0.037 A 
ATOM     41  C   UNL A   1      46.537  31.580  28.185  1.00  0.00     0.037 A 
ATOM     42  C   UNL A   1      45.421  25.313  26.799  1.00  0.00     0.049 A 
ATOM     43  C   UNL A   1      47.424  30.452  27.728  1.00  0.00     0.074 A 
ATOM     44  C   UNL A   1      46.310  24.376  26.299  1.00  0.00     0.029 A 
ATOM     45  N   UNL A   1      46.135  26.489  26.967  1.00  0.00    -0.354 N 
ATOM     46  N   UNL A   1      47.103  29.209  27.454  1.00  0.00    -0.248 NA
ATOM     47  C   UNL A   1      48.852  30.756  27.548  1.00  0.00     0.031 C 
ATOM     48  C   UNL A   1      47.572  24.974  26.208  1.00  0.00     0.029 A 
ATOM     49  C   UNL A   1      47.458  26.296  26.606  1.00  0.00     0.049 A 
ATOM     50  H   UNL A   1      45.757  27.337  27.294  1.00  0.00     0.167 HD
ATOM     51  C   UNL A   1      48.282  28.591  27.047  1.00  0.00     0.074 A 
ATOM     52  C   UNL A   1      49.322  29.599  27.103  1.00  0.00     0.031 C 
ATOM     53  C   UNL A   1      48.484  27.308  26.660  1.00  0.00     0.037 A 
BRANCH  40  54
ATOM     54  C   UNL A   1      43.416  23.783  26.926  1.00  0.00     0.058 A 
ATOM     55  C   UNL A   1      42.950  23.341  25.678  1.00  0.00     0.135 A 
ATOM     56  C   UNL A   1      43.327  22.897  28.011  1.00  0.00     0.135 A 
ATOM     57  F   UNL A   1      42.996  24.156  24.611  1.00  0.00    -0.206 F 
ATOM     58  C   UNL A   1      42.394  22.076  25.517  1.00  0.00     0.059 A 
ATOM     59  C   UNL A   1      42.797  21.619  27.868  1.00  0.00     0.059 A 
ATOM     60  F   UNL A   1      43.757  23.271  29.226  1.00  0.00    -0.206 F 
ATOM     61  C   UNL A   1      42.319  21.223  26.620  1.00  0.00     0.060 A 
BRANCH  61  62
ATOM     62  S   UNL A   1      41.593  19.584  26.399  1.00  0.00     0.124 S 
ATOM     63  O   UNL A   1      42.388  19.063  25.291  1.00  0.00    -0.237 OA
ATOM     64  O   UNL A   1      41.828  18.959  27.696  1.00  0.00    -0.237 OA
ATOM     65  O   UNL A   1      40.196  19.871  26.087  1.00  0.00    -0.744 OA
ENDBRANCH  61  62
ENDBRANCH  40  54
BRANCH  41  66
ATOM     66  C   UNL A   1      47.101  32.936  28.422  1.00  0.00     0.058 A 
ATOM     67  C   UNL A   1      47.593  33.308  29.682  1.00  0.00     0.135 A 
ATOM     68  C   UNL A   1      47.156  33.887  27.392  1.00  0.00     0.135 A 
ATOM     69  F   UNL A   1      47.550  32.438  30.703  1.00  0.00    -0.206 F 
ATOM     70  C   UNL A   1      48.112  34.578  29.916  1.00  0.00     0.059 A 
ATOM     71  C   UNL A   1      47.691  35.155  27.594  1.00  0.00     0.059 A 
ATOM     72  F   UNL A   1      46.705  33.577  26.166  1.00  0.00    -0.206 F 
ATOM     73  C   UNL A   1      48.159  35.494  28.863  1.00  0.00     0.060 A 
BRANCH  73  74
ATOM     74  S   UNL A   1      48.883  37.122  29.160  1.00  0.00     0.124 S 
ATOM     75  O   UNL A   1      47.719  37.886  29.594  1.00  0.00    -0.237 OA
ATOM     76  O   UNL A   1      49.879  36.832  30.187  1.00  0.00    -0.237 OA
ATOM     77  O   UNL A   1      49.428  37.487  27.855  1.00  0.00    -0.744 OA
ENDBRANCH  73  74
ENDBRANCH  41  66
BRANCH  53  78
ATOM     78  C   UNL A   1      49.873  26.920  26.236  1.00  0.00     0.058 A 
ATOM     79  C   UNL A   1      50.755  26.267  27.108  1.00  0.00     0.135 A 
ATOM     80  C   UNL A   1      50.307  27.156  24.920  1.00  0.00     0.135 A 
ATOM     81  F   UNL A   1      50.392  26.022  28.377  1.00  0.00    -0.206 F 
ATOM     82  C   UNL A   1      52.029  25.879  26.700  1.00  0.00     0.059 A 
ATOM     83  C   UNL A   1      51.566  26.755  24.482  1.00  0.00     0.059 A 
ATOM     84  F   UNL A   1      49.497  27.767  24.041  1.00  0.00    -0.206 F 
ATOM     85  C   UNL A   1      52.424  26.127  25.384  1.00  0.00     0.060 A 
BRANCH  85  86
ATOM     86  S   UNL A   1      54.065  25.589  24.854  1.00  0.00     0.124 S 
ATOM     87  O   UNL A   1      53.960  24.141  24.996  1.00  0.00    -0.237 OA
ATOM     88  O   UNL A   1      54.132  26.090  23.485  1.00  0.00    -0.237 OA
ATOM     89  O   UNL A   1      54.959  26.250  25.800  1.00  0.00    -0.744 OA
ENDBRANCH  85  86
ENDBRANCH  53  78
ENDBRANCH  27  28
ENDBRANCH  20  22
ENDBRANCH  19  20
ENDBRANCH  18  19
ENDBRANCH  17  18
ENDBRANCH   1  17
TORSDOF 21
ENDMDL
