MODEL 1
REMARK VINA RESULT:      -9.8      0.000      0.000
REMARK SMILES CC(C)C[C@@H](CNC(=O)[C@@H]1CCOC1)C(=O)OCCOCCOC(=O)c1ccc(-c2c3nc(c(-c4c(F)cc(S(=O)(=O)[O-])cc4F)c4ccc([nH]4)c(-c4c(F)cc(S(=O)(=O)[O-])cc4F)c4nc(c(-c5c(F)cc(S(=O)(=O)[O-])cc5F)c5ccc2[nH]5)C=C4)C=C3)cc1
REMARK SMILES IDX 20 1 19 2 18 3 17 4 15 5 16 6 5 7 4 8 2 9 1 10 3 11 6 12
REMARK SMILES IDX 7 13 8 14 9 16 10 17 11 18 14 19 12 20 13 21 21 22 22 23
REMARK SMILES IDX 23 24 24 25 25 26 26 27 27 28 91 29 28 30 90 31 29 32 30 33
REMARK SMILES IDX 31 34 84 35 32 36 89 37 83 38 85 39 33 40 88 41 82 42 81 43
REMARK SMILES IDX 34 45 68 46 47 47 67 48 48 49 51 50 66 51 86 52 49 53 50 54
REMARK SMILES IDX 65 56 87 57 52 58 35 59 36 60 45 61 37 62 38 63 44 64 46 65
REMARK SMILES IDX 39 66 40 67 41 68 42 69 43 70 69 71 70 72 79 73 71 74 72 75
REMARK SMILES IDX 78 76 80 77 73 78 74 79 75 80 76 81 77 82 53 83 54 84 63 85
REMARK SMILES IDX 55 86 56 87 62 88 64 89 57 90 58 91 59 92 60 93 61 94
REMARK H PARENT 7 15 85 44 51 55
REMARK Flexibility Score: inf
ROOT
ATOM      1  O   UNL A   1      34.773  31.245  27.416  1.00  0.00    -0.374 OA
ENDROOT
BRANCH   1   2
ATOM      2  C   UNL A   1      34.092  30.009  27.229  1.00  0.00     0.202 C 
BRANCH   2   3
ATOM      3  C   UNL A   1      32.578  30.064  27.021  1.00  0.00     0.261 C 
BRANCH   3   4
ATOM      4  O   UNL A   1      32.062  29.027  26.164  1.00  0.00    -0.463 OA
BRANCH   4   5
ATOM      5  C   UNL A   1      31.624  27.912  26.807  1.00  0.00     0.310 C 
ATOM      6  O   UNL A   1      31.227  27.877  27.966  1.00  0.00    -0.252 OA
BRANCH   5   7
ATOM      7  C   UNL A   1      31.654  26.672  25.936  1.00  0.00     0.118 C 
BRANCH   7   8
ATOM      8  C   UNL A   1      31.988  25.370  26.689  1.00  0.00     0.020 C 
BRANCH   8   9
ATOM      9  C   UNL A   1      33.386  24.785  26.376  1.00  0.00    -0.017 C 
ATOM     10  C   UNL A   1      33.319  23.403  25.716  1.00  0.00     0.007 C 
ATOM     11  C   UNL A   1      34.160  25.735  25.456  1.00  0.00     0.007 C 
ENDBRANCH   8   9
ENDBRANCH   7   8
BRANCH   7  12
ATOM     12  C   UNL A   1      30.406  26.620  25.052  1.00  0.00     0.131 C 
BRANCH  12  13
ATOM     13  N   UNL A   1      30.211  25.373  24.336  1.00  0.00    -0.355 N 
ATOM     14  C   UNL A   1      30.915  24.767  23.347  1.00  0.00     0.225 C 
ATOM     15  H   UNL A   1      29.415  24.871  24.623  1.00  0.00     0.163 HD
ATOM     16  O   UNL A   1      30.517  23.645  23.012  1.00  0.00    -0.275 OA
BRANCH  14  17
ATOM     17  C   UNL A   1      32.118  25.373  22.635  1.00  0.00     0.106 C 
ATOM     18  C   UNL A   1      31.829  26.158  21.375  1.00  0.00     0.044 C 
ATOM     19  C   UNL A   1      33.154  24.353  22.231  1.00  0.00     0.173 C 
ATOM     20  C   UNL A   1      32.564  25.423  20.269  1.00  0.00     0.161 C 
ATOM     21  O   UNL A   1      33.053  24.197  20.814  1.00  0.00    -0.381 OA
ENDBRANCH  14  17
ENDBRANCH  12  13
ENDBRANCH   7  12
ENDBRANCH   5   7
ENDBRANCH   4   5
ENDBRANCH   3   4
ENDBRANCH   2   3
ENDBRANCH   1   2
BRANCH   1  22
ATOM     22  C   UNL A   1      34.226  32.165  28.357  1.00  0.00     0.202 C 
BRANCH  22  23
ATOM     23  C   UNL A   1      35.076  32.490  29.590  1.00  0.00     0.261 C 
BRANCH  23  24
ATOM     24  O   UNL A   1      35.727  31.332  30.146  1.00  0.00    -0.460 OA
BRANCH  24  25
ATOM     25  C   UNL A   1      36.918  31.595  30.737  1.00  0.00     0.338 C 
ATOM     26  O   UNL A   1      37.113  32.336  31.695  1.00  0.00    -0.246 OA
BRANCH  25  27
ATOM     27  C   UNL A   1      37.990  30.743  30.192  1.00  0.00     0.060 A 
ATOM     28  C   UNL A   1      39.031  30.399  31.062  1.00  0.00     0.016 A 
ATOM     29  C   UNL A   1      38.054  30.400  28.839  1.00  0.00     0.016 A 
ATOM     30  C   UNL A   1      40.175  29.777  30.570  1.00  0.00     0.010 A 
ATOM     31  C   UNL A   1      39.210  29.778  28.345  1.00  0.00     0.010 A 
ATOM     32  C   UNL A   1      40.294  29.509  29.199  1.00  0.00    -0.014 A 
BRANCH  32  33
ATOM     33  C   UNL A   1      41.621  29.097  28.673  1.00  0.00     0.031 A 
ATOM     34  C   UNL A   1      42.739  30.106  28.621  1.00  0.00     0.074 A 
ATOM     35  C   UNL A   1      41.855  27.813  28.341  1.00  0.00     0.049 A 
ATOM     36  N   UNL A   1      43.991  29.940  28.282  1.00  0.00    -0.248 NA
ATOM     37  C   UNL A   1      42.400  31.486  29.008  1.00  0.00     0.031 C 
ATOM     38  C   UNL A   1      40.862  26.740  28.370  1.00  0.00     0.029 A 
ATOM     39  N   UNL A   1      43.007  27.196  27.926  1.00  0.00    -0.354 N 
ATOM     40  C   UNL A   1      44.594  31.185  28.429  1.00  0.00     0.074 A 
ATOM     41  C   UNL A   1      43.560  32.107  28.846  1.00  0.00     0.031 C 
ATOM     42  C   UNL A   1      41.449  25.593  27.986  1.00  0.00     0.029 A 
ATOM     43  C   UNL A   1      42.853  25.854  27.673  1.00  0.00     0.049 A 
ATOM     44  H   UNL A   1      43.864  27.669  27.819  1.00  0.00     0.167 HD
ATOM     45  C   UNL A   1      45.893  31.526  28.252  1.00  0.00     0.037 A 
ATOM     46  C   UNL A   1      43.742  24.941  27.235  1.00  0.00     0.037 A 
ATOM     47  C   UNL A   1      46.921  30.609  27.830  1.00  0.00     0.049 A 
ATOM     48  C   UNL A   1      45.173  25.352  27.007  1.00  0.00     0.074 A 
ATOM     49  C   UNL A   1      48.265  30.861  27.616  1.00  0.00     0.029 A 
ATOM     50  N   UNL A   1      46.719  29.264  27.560  1.00  0.00    -0.354 N 
ATOM     51  N   UNL A   1      45.729  26.530  27.168  1.00  0.00    -0.248 NA
ATOM     52  C   UNL A   1      46.101  24.307  26.553  1.00  0.00     0.031 C 
ATOM     53  C   UNL A   1      48.870  29.675  27.183  1.00  0.00     0.029 A 
ATOM     54  C   UNL A   1      47.911  28.675  27.167  1.00  0.00     0.049 A 
ATOM     55  H   UNL A   1      45.857  28.796  27.636  1.00  0.00     0.167 HD
ATOM     56  C   UNL A   1      47.072  26.364  26.845  1.00  0.00     0.074 A 
ATOM     57  C   UNL A   1      47.250  24.967  26.508  1.00  0.00     0.031 C 
ATOM     58  C   UNL A   1      48.069  27.284  26.825  1.00  0.00     0.037 A 
BRANCH  45  59
ATOM     59  C   UNL A   1      46.277  32.957  28.509  1.00  0.00     0.058 A 
ATOM     60  C   UNL A   1      46.721  33.380  29.772  1.00  0.00     0.135 A 
ATOM     61  C   UNL A   1      46.247  33.905  27.474  1.00  0.00     0.135 A 
ATOM     62  F   UNL A   1      46.752  32.519  30.802  1.00  0.00    -0.206 F 
ATOM     63  C   UNL A   1      47.105  34.698  30.004  1.00  0.00     0.059 A 
ATOM     64  C   UNL A   1      46.648  35.222  27.678  1.00  0.00     0.059 A 
ATOM     65  F   UNL A   1      45.828  33.553  26.248  1.00  0.00    -0.206 F 
ATOM     66  C   UNL A   1      47.066  35.611  28.950  1.00  0.00     0.060 A 
BRANCH  66  67
ATOM     67  S   UNL A   1      47.585  37.312  29.261  1.00  0.00     0.124 S 
ATOM     68  O   UNL A   1      46.323  38.033  29.120  1.00  0.00    -0.237 OA
ATOM     69  O   UNL A   1      48.120  37.234  30.616  1.00  0.00    -0.237 OA
ATOM     70  O   UNL A   1      48.570  37.565  28.215  1.00  0.00    -0.744 OA
ENDBRANCH  66  67
ENDBRANCH  45  59
BRANCH  46  71
ATOM     71  C   UNL A   1      43.303  23.545  26.970  1.00  0.00     0.058 A 
ATOM     72  C   UNL A   1      43.068  22.640  28.015  1.00  0.00     0.135 A 
ATOM     73  C   UNL A   1      43.123  23.087  25.655  1.00  0.00     0.135 A 
ATOM     74  F   UNL A   1      43.236  23.026  29.288  1.00  0.00    -0.206 F 
ATOM     75  C   UNL A   1      42.689  21.324  27.767  1.00  0.00     0.059 A 
ATOM     76  C   UNL A   1      42.720  21.784  25.383  1.00  0.00     0.059 A 
ATOM     77  F   UNL A   1      43.326  23.918  24.621  1.00  0.00    -0.206 F 
ATOM     78  C   UNL A   1      42.519  20.905  26.446  1.00  0.00     0.060 A 
BRANCH  78  79
ATOM     79  S   UNL A   1      41.991  19.207  26.131  1.00  0.00     0.124 S 
ATOM     80  O   UNL A   1      40.557  19.381  25.923  1.00  0.00    -0.237 OA
ATOM     81  O   UNL A   1      42.769  18.854  24.948  1.00  0.00    -0.237 OA
ATOM     82  O   UNL A   1      42.371  18.506  27.354  1.00  0.00    -0.744 OA
ENDBRANCH  78  79
ENDBRANCH  46  71
BRANCH  58  83
ATOM     83  C   UNL A   1      49.438  26.800  26.436  1.00  0.00     0.058 A 
ATOM     84  C   UNL A   1      49.906  26.905  25.116  1.00  0.00     0.135 A 
ATOM     85  C   UNL A   1      50.296  26.233  27.393  1.00  0.00     0.135 A 
ATOM     86  F   UNL A   1      49.125  27.438  24.164  1.00  0.00    -0.206 F 
ATOM     87  C   UNL A   1      51.160  26.427  24.750  1.00  0.00     0.059 A 
ATOM     88  C   UNL A   1      51.564  25.772  27.053  1.00  0.00     0.059 A 
ATOM     89  F   UNL A   1      49.903  26.123  28.672  1.00  0.00    -0.206 F 
ATOM     90  C   UNL A   1      51.979  25.854  25.724  1.00  0.00     0.060 A 
BRANCH  90  91
ATOM     91  S   UNL A   1      53.600  25.225  25.238  1.00  0.00     0.124 S 
ATOM     92  O   UNL A   1      53.682  25.669  23.851  1.00  0.00    -0.237 OA
ATOM     93  O   UNL A   1      54.494  25.902  26.173  1.00  0.00    -0.237 OA
ATOM     94  O   UNL A   1      53.477  23.784  25.432  1.00  0.00    -0.744 OA
ENDBRANCH  90  91
ENDBRANCH  58  83
ENDBRANCH  32  33
ENDBRANCH  25  27
ENDBRANCH  24  25
ENDBRANCH  23  24
ENDBRANCH  22  23
ENDBRANCH   1  22
TORSDOF 22
ENDMDL
MODEL 2
REMARK VINA RESULT:      -9.8      1.204      2.104
REMARK SMILES CC(C)C[C@@H](CNC(=O)[C@@H]1CCOC1)C(=O)OCCOCCOC(=O)c1ccc(-c2c3nc(c(-c4c(F)cc(S(=O)(=O)[O-])cc4F)c4ccc([nH]4)c(-c4c(F)cc(S(=O)(=O)[O-])cc4F)c4nc(c(-c5c(F)cc(S(=O)(=O)[O-])cc5F)c5ccc2[nH]5)C=C4)C=C3)cc1
REMARK SMILES IDX 20 1 19 2 18 3 17 4 15 5 16 6 5 7 4 8 2 9 1 10 3 11 6 12
REMARK SMILES IDX 7 13 8 14 9 16 10 17 11 18 14 19 12 20 13 21 21 22 22 23
REMARK SMILES IDX 23 24 24 25 25 26 26 27 27 28 91 29 28 30 90 31 29 32 30 33
REMARK SMILES IDX 31 34 84 35 32 36 89 37 83 38 85 39 33 40 88 41 82 42 81 43
REMARK SMILES IDX 34 45 68 46 47 47 67 48 48 49 51 50 66 51 86 52 49 53 50 54
REMARK SMILES IDX 65 56 87 57 52 58 35 59 36 60 45 61 37 62 38 63 44 64 46 65
REMARK SMILES IDX 39 66 40 67 41 68 42 69 43 70 69 71 70 72 79 73 71 74 72 75
REMARK SMILES IDX 78 76 80 77 73 78 74 79 75 80 76 81 77 82 53 83 54 84 63 85
REMARK SMILES IDX 55 86 56 87 62 88 64 89 57 90 58 91 59 92 60 93 61 94
REMARK H PARENT 7 15 85 44 51 55
REMARK Flexibility Score: inf
ROOT
ATOM      1  O   UNL A   1      33.960  30.474  27.811  1.00  0.00    -0.374 OA
ENDROOT
BRANCH   1   2
ATOM      2  C   UNL A   1      32.833  30.394  26.943  1.00  0.00     0.202 C 
BRANCH   2   3
ATOM      3  C   UNL A   1      31.809  29.292  27.220  1.00  0.00     0.261 C 
BRANCH   3   4
ATOM      4  O   UNL A   1      32.389  27.994  27.455  1.00  0.00    -0.463 OA
BRANCH   4   5
ATOM      5  C   UNL A   1      32.678  27.279  26.335  1.00  0.00     0.310 C 
ATOM      6  O   UNL A   1      33.776  26.805  26.066  1.00  0.00    -0.252 OA
BRANCH   5   7
ATOM      7  C   UNL A   1      31.484  27.097  25.420  1.00  0.00     0.118 C 
BRANCH   7   8
ATOM      8  C   UNL A   1      31.840  26.953  23.927  1.00  0.00     0.020 C 
BRANCH   8   9
ATOM      9  C   UNL A   1      31.561  28.214  23.074  1.00  0.00    -0.017 C 
ATOM     10  C   UNL A   1      30.648  29.222  23.782  1.00  0.00     0.007 C 
ATOM     11  C   UNL A   1      32.879  28.909  22.715  1.00  0.00     0.007 C 
ENDBRANCH   8   9
ENDBRANCH   7   8
BRANCH   7  12
ATOM     12  C   UNL A   1      30.549  26.024  25.981  1.00  0.00     0.131 C 
BRANCH  12  13
ATOM     13  N   UNL A   1      31.185  25.046  26.844  1.00  0.00    -0.355 N 
ATOM     14  C   UNL A   1      31.743  23.835  26.596  1.00  0.00     0.225 C 
ATOM     15  H   UNL A   1      31.216  25.312  27.791  1.00  0.00     0.163 HD
ATOM     16  O   UNL A   1      32.285  23.283  27.561  1.00  0.00    -0.275 OA
BRANCH  14  17
ATOM     17  C   UNL A   1      31.729  23.127  25.246  1.00  0.00     0.106 C 
ATOM     18  C   UNL A   1      31.734  21.615  25.279  1.00  0.00     0.044 C 
ATOM     19  C   UNL A   1      32.891  23.501  24.360  1.00  0.00     0.173 C 
ATOM     20  C   UNL A   1      33.013  21.204  24.573  1.00  0.00     0.161 C 
ATOM     21  O   UNL A   1      33.783  22.385  24.348  1.00  0.00    -0.381 OA
ENDBRANCH  14  17
ENDBRANCH  12  13
ENDBRANCH   7  12
ENDBRANCH   5   7
ENDBRANCH   4   5
ENDBRANCH   3   4
ENDBRANCH   2   3
ENDBRANCH   1   2
BRANCH   1  22
ATOM     22  C   UNL A   1      34.608  31.737  27.937  1.00  0.00     0.202 C 
BRANCH  22  23
ATOM     23  C   UNL A   1      34.797  32.286  29.355  1.00  0.00     0.261 C 
BRANCH  23  24
ATOM     24  O   UNL A   1      36.181  32.372  29.745  1.00  0.00    -0.460 OA
BRANCH  24  25
ATOM     25  C   UNL A   1      36.561  31.437  30.649  1.00  0.00     0.338 C 
ATOM     26  O   UNL A   1      36.006  31.176  31.711  1.00  0.00    -0.246 OA
BRANCH  25  27
ATOM     27  C   UNL A   1      37.672  30.614  30.139  1.00  0.00     0.060 A 
ATOM     28  C   UNL A   1      38.646  30.219  31.063  1.00  0.00     0.016 A 
ATOM     29  C   UNL A   1      37.838  30.347  28.777  1.00  0.00     0.016 A 
ATOM     30  C   UNL A   1      39.825  29.624  30.623  1.00  0.00     0.010 A 
ATOM     31  C   UNL A   1      39.028  29.752  28.336  1.00  0.00     0.010 A 
ATOM     32  C   UNL A   1      40.046  29.433  29.252  1.00  0.00    -0.014 A 
BRANCH  32  33
ATOM     33  C   UNL A   1      41.409  29.047  28.804  1.00  0.00     0.031 A 
ATOM     34  C   UNL A   1      42.515  30.070  28.847  1.00  0.00     0.074 A 
ATOM     35  C   UNL A   1      41.680  27.774  28.460  1.00  0.00     0.049 A 
ATOM     36  N   UNL A   1      43.789  29.925  28.586  1.00  0.00    -0.248 NA
ATOM     37  C   UNL A   1      42.135  31.436  29.242  1.00  0.00     0.031 C 
ATOM     38  C   UNL A   1      40.701  26.690  28.400  1.00  0.00     0.029 A 
ATOM     39  N   UNL A   1      42.865  27.179  28.106  1.00  0.00    -0.354 N 
ATOM     40  C   UNL A   1      44.365  31.174  28.799  1.00  0.00     0.074 A 
ATOM     41  C   UNL A   1      43.295  32.074  29.169  1.00  0.00     0.031 C 
ATOM     42  C   UNL A   1      41.326  25.559  28.029  1.00  0.00     0.029 A 
ATOM     43  C   UNL A   1      42.744  25.842  27.814  1.00  0.00     0.049 A 
ATOM     44  H   UNL A   1      43.720  27.664  28.065  1.00  0.00     0.167 HD
ATOM     45  C   UNL A   1      45.669  31.533  28.714  1.00  0.00     0.037 A 
ATOM     46  C   UNL A   1      43.670  24.949  27.414  1.00  0.00     0.037 A 
ATOM     47  C   UNL A   1      46.733  30.638  28.340  1.00  0.00     0.049 A 
ATOM     48  C   UNL A   1      45.108  25.382  27.289  1.00  0.00     0.074 A 
ATOM     49  C   UNL A   1      48.085  30.909  28.218  1.00  0.00     0.029 A 
ATOM     50  N   UNL A   1      46.566  29.297  28.027  1.00  0.00    -0.354 N 
ATOM     51  N   UNL A   1      45.637  26.562  27.511  1.00  0.00    -0.248 NA
ATOM     52  C   UNL A   1      46.076  24.357  26.872  1.00  0.00     0.031 C 
ATOM     53  C   UNL A   1      48.731  29.740  27.799  1.00  0.00     0.029 A 
ATOM     54  C   UNL A   1      47.788  28.730  27.699  1.00  0.00     0.049 A 
ATOM     55  H   UNL A   1      45.707  28.818  28.036  1.00  0.00     0.167 HD
ATOM     56  C   UNL A   1      47.001  26.418  27.272  1.00  0.00     0.074 A 
ATOM     57  C   UNL A   1      47.217  25.031  26.916  1.00  0.00     0.031 C 
ATOM     58  C   UNL A   1      47.986  27.349  27.337  1.00  0.00     0.037 A 
BRANCH  45  59
ATOM     59  C   UNL A   1      46.017  32.961  29.027  1.00  0.00     0.058 A 
ATOM     60  C   UNL A   1      46.376  33.360  30.325  1.00  0.00     0.135 A 
ATOM     61  C   UNL A   1      46.040  33.933  28.014  1.00  0.00     0.135 A 
ATOM     62  F   UNL A   1      46.353  32.475  31.334  1.00  0.00    -0.206 F 
ATOM     63  C   UNL A   1      46.727  34.676  30.610  1.00  0.00     0.059 A 
ATOM     64  C   UNL A   1      46.410  35.250  28.272  1.00  0.00     0.059 A 
ATOM     65  F   UNL A   1      45.702  33.605  26.756  1.00  0.00    -0.206 F 
ATOM     66  C   UNL A   1      46.742  35.613  29.577  1.00  0.00     0.060 A 
BRANCH  66  67
ATOM     67  S   UNL A   1      47.219  37.313  29.958  1.00  0.00     0.124 S 
ATOM     68  O   UNL A   1      48.156  37.112  31.060  1.00  0.00    -0.237 OA
ATOM     69  O   UNL A   1      47.809  37.763  28.702  1.00  0.00    -0.237 OA
ATOM     70  O   UNL A   1      45.956  37.949  30.318  1.00  0.00    -0.744 OA
ENDBRANCH  66  67
ENDBRANCH  45  59
BRANCH  46  71
ATOM     71  C   UNL A   1      43.267  23.555  27.090  1.00  0.00     0.058 A 
ATOM     72  C   UNL A   1      43.019  23.152  25.770  1.00  0.00     0.135 A 
ATOM     73  C   UNL A   1      43.109  22.599  28.107  1.00  0.00     0.135 A 
ATOM     74  F   UNL A   1      43.146  24.031  24.765  1.00  0.00    -0.206 F 
ATOM     75  C   UNL A   1      42.609  21.857  25.469  1.00  0.00     0.059 A 
ATOM     76  C   UNL A   1      42.726  21.292  27.828  1.00  0.00     0.059 A 
ATOM     77  F   UNL A   1      43.344  22.933  29.385  1.00  0.00    -0.206 F 
ATOM     78  C   UNL A   1      42.464  20.933  26.507  1.00  0.00     0.060 A 
BRANCH  78  79
ATOM     79  S   UNL A   1      41.970  19.243  26.106  1.00  0.00     0.124 S 
ATOM     80  O   UNL A   1      42.787  18.970  24.929  1.00  0.00    -0.237 OA
ATOM     81  O   UNL A   1      42.334  18.517  27.318  1.00  0.00    -0.237 OA
ATOM     82  O   UNL A   1      40.535  19.363  25.865  1.00  0.00    -0.744 OA
ENDBRANCH  78  79
ENDBRANCH  46  71
BRANCH  58  83
ATOM     83  C   UNL A   1      49.382  26.890  27.027  1.00  0.00     0.058 A 
ATOM     84  C   UNL A   1      49.911  26.973  25.728  1.00  0.00     0.135 A 
ATOM     85  C   UNL A   1      50.206  26.369  28.038  1.00  0.00     0.135 A 
ATOM     86  F   UNL A   1      49.165  27.462  24.726  1.00  0.00    -0.206 F 
ATOM     87  C   UNL A   1      51.192  26.517  25.435  1.00  0.00     0.059 A 
ATOM     88  C   UNL A   1      51.500  25.930  27.771  1.00  0.00     0.059 A 
ATOM     89  F   UNL A   1      49.755  26.281  29.299  1.00  0.00    -0.206 F 
ATOM     90  C   UNL A   1      51.976  25.989  26.462  1.00  0.00     0.060 A 
BRANCH  90  91
ATOM     91  S   UNL A   1      53.633  25.389  26.071  1.00  0.00     0.124 S 
ATOM     92  O   UNL A   1      54.054  26.338  25.046  1.00  0.00    -0.237 OA
ATOM     93  O   UNL A   1      54.320  25.496  27.355  1.00  0.00    -0.237 OA
ATOM     94  O   UNL A   1      53.399  24.025  25.607  1.00  0.00    -0.744 OA
ENDBRANCH  90  91
ENDBRANCH  58  83
ENDBRANCH  32  33
ENDBRANCH  25  27
ENDBRANCH  24  25
ENDBRANCH  23  24
ENDBRANCH  22  23
ENDBRANCH   1  22
TORSDOF 22
ENDMDL
MODEL 3
REMARK VINA RESULT:      -9.7      6.351     12.204
REMARK SMILES CC(C)C[C@@H](CNC(=O)[C@@H]1CCOC1)C(=O)OCCOCCOC(=O)c1ccc(-c2c3nc(c(-c4c(F)cc(S(=O)(=O)[O-])cc4F)c4ccc([nH]4)c(-c4c(F)cc(S(=O)(=O)[O-])cc4F)c4nc(c(-c5c(F)cc(S(=O)(=O)[O-])cc5F)c5ccc2[nH]5)C=C4)C=C3)cc1
REMARK SMILES IDX 20 1 19 2 18 3 17 4 15 5 16 6 5 7 4 8 2 9 1 10 3 11 6 12
REMARK SMILES IDX 7 13 8 14 9 16 10 17 11 18 14 19 12 20 13 21 21 22 22 23
REMARK SMILES IDX 23 24 24 25 25 26 26 27 27 28 91 29 28 30 90 31 29 32 30 33
REMARK SMILES IDX 31 34 84 35 32 36 89 37 83 38 85 39 33 40 88 41 82 42 81 43
REMARK SMILES IDX 34 45 68 46 47 47 67 48 48 49 51 50 66 51 86 52 49 53 50 54
REMARK SMILES IDX 65 56 87 57 52 58 35 59 36 60 45 61 37 62 38 63 44 64 46 65
REMARK SMILES IDX 39 66 40 67 41 68 42 69 43 70 69 71 70 72 79 73 71 74 72 75
REMARK SMILES IDX 78 76 80 77 73 78 74 79 75 80 76 81 77 82 53 83 54 84 63 85
REMARK SMILES IDX 55 86 56 87 62 88 64 89 57 90 58 91 59 92 60 93 61 94
REMARK H PARENT 7 15 85 44 51 55
REMARK Flexibility Score: inf
ROOT
ATOM      1  O   UNL A   1      39.532  20.964  25.961  1.00  0.00    -0.374 OA
ENDROOT
BRANCH   1   2
ATOM      2  C   UNL A   1      38.481  21.911  26.126  1.00  0.00     0.202 C 
BRANCH   2   3
ATOM      3  C   UNL A   1      37.747  22.374  24.867  1.00  0.00     0.261 C 
BRANCH   3   4
ATOM      4  O   UNL A   1      36.479  23.008  25.123  1.00  0.00    -0.463 OA
BRANCH   4   5
ATOM      5  C   UNL A   1      35.767  23.344  24.014  1.00  0.00     0.310 C 
ATOM      6  O   UNL A   1      36.175  23.257  22.862  1.00  0.00    -0.252 OA
BRANCH   5   7
ATOM      7  C   UNL A   1      34.370  23.840  24.330  1.00  0.00     0.118 C 
BRANCH   7   8
ATOM      8  C   UNL A   1      33.411  22.755  24.857  1.00  0.00     0.020 C 
BRANCH   8   9
ATOM      9  C   UNL A   1      33.407  21.444  24.035  1.00  0.00    -0.017 C 
ATOM     10  C   UNL A   1      33.261  20.193  24.910  1.00  0.00     0.007 C 
ATOM     11  C   UNL A   1      32.266  21.467  23.012  1.00  0.00     0.007 C 
ENDBRANCH   8   9
ENDBRANCH   7   8
BRANCH   7  12
ATOM     12  C   UNL A   1      34.443  25.118  25.168  1.00  0.00     0.131 C 
BRANCH  12  13
ATOM     13  N   UNL A   1      33.217  25.471  25.859  1.00  0.00    -0.355 N 
ATOM     14  C   UNL A   1      32.720  26.657  26.291  1.00  0.00     0.225 C 
ATOM     15  H   UNL A   1      32.634  24.701  26.052  1.00  0.00     0.163 HD
ATOM     16  O   UNL A   1      31.583  26.620  26.777  1.00  0.00    -0.275 OA
BRANCH  14  17
ATOM     17  C   UNL A   1      33.461  27.987  26.231  1.00  0.00     0.106 C 
ATOM     18  C   UNL A   1      33.212  28.948  27.372  1.00  0.00     0.044 C 
ATOM     19  C   UNL A   1      33.169  28.781  24.982  1.00  0.00     0.173 C 
ATOM     20  C   UNL A   1      32.601  30.181  26.731  1.00  0.00     0.161 C 
ATOM     21  O   UNL A   1      32.322  29.866  25.366  1.00  0.00    -0.381 OA
ENDBRANCH  14  17
ENDBRANCH  12  13
ENDBRANCH   7  12
ENDBRANCH   5   7
ENDBRANCH   4   5
ENDBRANCH   3   4
ENDBRANCH   2   3
ENDBRANCH   1   2
BRANCH   1  22
ATOM     22  C   UNL A   1      40.790  21.264  26.559  1.00  0.00     0.202 C 
BRANCH  22  23
ATOM     23  C   UNL A   1      41.463  22.579  26.150  1.00  0.00     0.261 C 
BRANCH  23  24
ATOM     24  O   UNL A   1      41.606  23.502  27.247  1.00  0.00    -0.460 OA
BRANCH  24  25
ATOM     25  C   UNL A   1      42.110  24.709  26.893  1.00  0.00     0.338 C 
ATOM     26  O   UNL A   1      42.855  24.944  25.947  1.00  0.00    -0.246 OA
BRANCH  25  27
ATOM     27  C   UNL A   1      41.526  25.794  27.701  1.00  0.00     0.060 A 
ATOM     28  C   UNL A   1      42.298  26.951  27.864  1.00  0.00     0.016 A 
ATOM     29  C   UNL A   1      40.322  25.643  28.394  1.00  0.00     0.016 A 
ATOM     30  C   UNL A   1      41.909  27.926  28.778  1.00  0.00     0.010 A 
ATOM     31  C   UNL A   1      39.934  26.625  29.317  1.00  0.00     0.010 A 
ATOM     32  C   UNL A   1      40.752  27.747  29.548  1.00  0.00    -0.014 A 
BRANCH  32  33
ATOM     33  C   UNL A   1      40.513  28.666  30.689  1.00  0.00     0.031 A 
ATOM     34  C   UNL A   1      41.377  28.553  31.919  1.00  0.00     0.074 A 
ATOM     35  C   UNL A   1      39.605  29.656  30.591  1.00  0.00     0.049 A 
ATOM     36  N   UNL A   1      41.399  29.305  32.989  1.00  0.00    -0.248 NA
ATOM     37  C   UNL A   1      42.349  27.448  31.942  1.00  0.00     0.031 C 
ATOM     38  C   UNL A   1      38.726  29.882  29.445  1.00  0.00     0.029 A 
ATOM     39  N   UNL A   1      39.284  30.661  31.468  1.00  0.00    -0.354 N 
ATOM     40  C   UNL A   1      42.394  28.776  33.805  1.00  0.00     0.074 A 
ATOM     41  C   UNL A   1      42.923  27.614  33.126  1.00  0.00     0.031 C 
ATOM     42  C   UNL A   1      37.960  30.960  29.691  1.00  0.00     0.029 A 
ATOM     43  C   UNL A   1      38.288  31.491  31.013  1.00  0.00     0.049 A 
ATOM     44  H   UNL A   1      39.725  30.777  32.340  1.00  0.00     0.167 HD
ATOM     45  C   UNL A   1      42.839  29.229  35.002  1.00  0.00     0.037 A 
ATOM     46  C   UNL A   1      37.704  32.555  31.597  1.00  0.00     0.037 A 
ATOM     47  C   UNL A   1      42.308  30.382  35.682  1.00  0.00     0.049 A 
ATOM     48  C   UNL A   1      38.190  33.016  32.947  1.00  0.00     0.074 A 
ATOM     49  C   UNL A   1      42.688  30.916  36.901  1.00  0.00     0.029 A 
ATOM     50  N   UNL A   1      41.282  31.181  35.200  1.00  0.00    -0.354 N 
ATOM     51  N   UNL A   1      39.144  32.514  33.696  1.00  0.00    -0.248 NA
ATOM     52  C   UNL A   1      37.531  34.197  33.524  1.00  0.00     0.031 C 
ATOM     53  C   UNL A   1      41.869  32.018  37.173  1.00  0.00     0.029 A 
ATOM     54  C   UNL A   1      41.006  32.196  36.103  1.00  0.00     0.049 A 
ATOM     55  H   UNL A   1      40.818  31.048  34.342  1.00  0.00     0.167 HD
ATOM     56  C   UNL A   1      39.206  33.325  34.826  1.00  0.00     0.074 A 
ATOM     57  C   UNL A   1      38.213  34.365  34.647  1.00  0.00     0.031 C 
ATOM     58  C   UNL A   1      40.008  33.218  35.915  1.00  0.00     0.037 A 
BRANCH  45  59
ATOM     59  C   UNL A   1      43.958  28.469  35.660  1.00  0.00     0.058 A 
ATOM     60  C   UNL A   1      43.706  27.344  36.462  1.00  0.00     0.135 A 
ATOM     61  C   UNL A   1      45.296  28.837  35.450  1.00  0.00     0.135 A 
ATOM     62  F   UNL A   1      42.444  26.960  36.712  1.00  0.00    -0.206 F 
ATOM     63  C   UNL A   1      44.742  26.622  37.048  1.00  0.00     0.059 A 
ATOM     64  C   UNL A   1      46.348  28.116  36.006  1.00  0.00     0.059 A 
ATOM     65  F   UNL A   1      45.591  29.906  34.693  1.00  0.00    -0.206 F 
ATOM     66  C   UNL A   1      46.060  27.016  36.813  1.00  0.00     0.060 A 
BRANCH  66  67
ATOM     67  S   UNL A   1      47.394  26.057  37.564  1.00  0.00     0.124 S 
ATOM     68  O   UNL A   1      47.928  25.345  36.406  1.00  0.00    -0.237 OA
ATOM     69  O   UNL A   1      48.254  27.098  38.118  1.00  0.00    -0.237 OA
ATOM     70  O   UNL A   1      46.706  25.227  38.547  1.00  0.00    -0.744 OA
ENDBRANCH  66  67
ENDBRANCH  45  59
BRANCH  46  71
ATOM     71  C   UNL A   1      36.583  33.255  30.916  1.00  0.00     0.058 A 
ATOM     72  C   UNL A   1      36.801  34.073  29.799  1.00  0.00     0.135 A 
ATOM     73  C   UNL A   1      35.265  33.125  31.385  1.00  0.00     0.135 A 
ATOM     74  F   UNL A   1      38.042  34.238  29.319  1.00  0.00    -0.206 F 
ATOM     75  C   UNL A   1      35.756  34.755  29.181  1.00  0.00     0.059 A 
ATOM     76  C   UNL A   1      34.202  33.774  30.768  1.00  0.00     0.059 A 
ATOM     77  F   UNL A   1      35.004  32.345  32.446  1.00  0.00    -0.206 F 
ATOM     78  C   UNL A   1      34.459  34.599  29.675  1.00  0.00     0.060 A 
BRANCH  78  79
ATOM     79  S   UNL A   1      33.103  35.456  28.845  1.00  0.00     0.124 S 
ATOM     80  O   UNL A   1      33.823  36.452  28.058  1.00  0.00    -0.237 OA
ATOM     81  O   UNL A   1      32.472  34.379  28.089  1.00  0.00    -0.237 OA
ATOM     82  O   UNL A   1      32.310  35.980  29.954  1.00  0.00    -0.744 OA
ENDBRANCH  78  79
ENDBRANCH  46  71
BRANCH  58  83
ATOM     83  C   UNL A   1      39.847  34.259  36.987  1.00  0.00     0.058 A 
ATOM     84  C   UNL A   1      39.028  34.039  38.107  1.00  0.00     0.135 A 
ATOM     85  C   UNL A   1      40.525  35.486  36.901  1.00  0.00     0.135 A 
ATOM     86  F   UNL A   1      38.357  32.885  38.236  1.00  0.00    -0.206 F 
ATOM     87  C   UNL A   1      38.853  35.016  39.082  1.00  0.00     0.059 A 
ATOM     88  C   UNL A   1      40.385  36.467  37.879  1.00  0.00     0.059 A 
ATOM     89  F   UNL A   1      41.332  35.740  35.859  1.00  0.00    -0.206 F 
ATOM     90  C   UNL A   1      39.530  36.231  38.954  1.00  0.00     0.060 A 
BRANCH  90  91
ATOM     91  S   UNL A   1      39.289  37.497  40.218  1.00  0.00     0.124 S 
ATOM     92  O   UNL A   1      40.632  38.056  40.332  1.00  0.00    -0.237 OA
ATOM     93  O   UNL A   1      38.291  38.369  39.606  1.00  0.00    -0.237 OA
ATOM     94  O   UNL A   1      38.823  36.738  41.374  1.00  0.00    -0.744 OA
ENDBRANCH  90  91
ENDBRANCH  58  83
ENDBRANCH  32  33
ENDBRANCH  25  27
ENDBRANCH  24  25
ENDBRANCH  23  24
ENDBRANCH  22  23
ENDBRANCH   1  22
TORSDOF 22
ENDMDL
