MODEL 1
REMARK VINA RESULT:     -10.0      0.000      0.000
REMARK SMILES CC(C)CCNC(=O)[C@@H](C)Oc1ccc(N)cc1C(=O)OCCOCCOC(=O)c1ccc(-c2c3nc(c(-c4c(F)cc(S(=O)(=O)[O-])cc4F)c4ccc([nH]4)c(-c4c(F)cc(S(=O)(=O)[O-])cc4F)c4nc(c(-c5c(F)cc(S(=O)(=O)[O-])cc5F)c5ccc2[nH]5)C=C4)C=C3)cc1
REMARK SMILES IDX 22 1 21 2 19 3 20 4 18 5 12 6 13 7 14 8 17 9 15 10 11 11
REMARK SMILES IDX 9 12 10 13 7 14 6 15 8 17 5 18 4 19 2 20 1 21 3 22 16 23
REMARK SMILES IDX 23 26 24 27 25 28 26 29 27 30 28 31 29 32 30 33 31 34 95 35
REMARK SMILES IDX 32 36 94 37 33 38 34 39 35 40 88 41 36 42 93 43 87 44 89 45
REMARK SMILES IDX 37 46 92 47 86 48 85 49 38 51 72 52 51 53 71 54 52 55 55 56
REMARK SMILES IDX 70 57 90 58 53 59 54 60 69 62 91 63 56 64 39 65 40 66 49 67
REMARK SMILES IDX 41 68 42 69 48 70 50 71 43 72 44 73 45 74 46 75 47 76 73 77
REMARK SMILES IDX 74 78 83 79 75 80 76 81 82 82 84 83 77 84 78 85 79 86 80 87
REMARK SMILES IDX 81 88 57 89 58 90 67 91 59 92 60 93 66 94 68 95 61 96 62 97
REMARK SMILES IDX 63 98 64 99 65 100
REMARK H PARENT 6 16 16 24 16 25 89 50 55 61
REMARK Flexibility Score: inf
ROOT
ATOM      1  C   UNL A   1      33.555  27.019  25.852  1.00  0.00     0.261 C 
ENDROOT
BRANCH   1   2
ATOM      2  O   UNL A   1      33.743  25.617  26.119  1.00  0.00    -0.460 OA
BRANCH   2   3
ATOM      3  C   UNL A   1      34.363  24.954  25.118  1.00  0.00     0.342 C 
ATOM      4  O   UNL A   1      34.372  25.291  23.940  1.00  0.00    -0.246 OA
BRANCH   3   5
ATOM      5  C   UNL A   1      35.165  23.791  25.566  1.00  0.00     0.104 A 
ATOM      6  C   UNL A   1      34.680  22.520  25.880  1.00  0.00     0.135 A 
ATOM      7  C   UNL A   1      35.561  21.448  25.761  1.00  0.00     0.049 A 
ATOM      8  C   UNL A   1      36.941  21.668  25.652  1.00  0.00     0.029 A 
ATOM      9  C   UNL A   1      36.557  24.007  25.539  1.00  0.00     0.045 A 
ATOM     10  C   UNL A   1      37.453  22.959  25.692  1.00  0.00     0.032 A 
BRANCH   6  11
ATOM     11  O   UNL A   1      33.378  22.283  26.194  1.00  0.00    -0.480 OA
BRANCH  11  12
ATOM     12  C   UNL A   1      32.424  22.440  25.129  1.00  0.00     0.258 C 
ATOM     13  C   UNL A   1      31.010  22.700  25.661  1.00  0.00     0.064 C 
BRANCH  12  14
ATOM     14  C   UNL A   1      32.424  21.621  23.785  1.00  0.00     0.260 C 
ATOM     15  N   UNL A   1      32.237  20.266  23.708  1.00  0.00    -0.353 N 
ATOM     16  H   UNL A   1      31.939  19.932  22.832  1.00  0.00     0.163 HD
ATOM     17  O   UNL A   1      32.587  22.203  22.704  1.00  0.00    -0.271 OA
BRANCH  15  18
ATOM     18  C   UNL A   1      32.415  19.256  24.727  1.00  0.00     0.116 C 
BRANCH  18  19
ATOM     19  C   UNL A   1      33.685  18.421  24.608  1.00  0.00     0.024 C 
BRANCH  19  20
ATOM     20  C   UNL A   1      33.492  16.959  24.140  1.00  0.00    -0.016 C 
ATOM     21  C   UNL A   1      34.408  16.553  22.978  1.00  0.00     0.007 C 
ATOM     22  C   UNL A   1      33.751  16.020  25.323  1.00  0.00     0.007 C 
ENDBRANCH  19  20
ENDBRANCH  18  19
ENDBRANCH  15  18
ENDBRANCH  12  14
ENDBRANCH  11  12
ENDBRANCH   6  11
BRANCH  10  23
ATOM     23  N   UNL A   1      38.816  23.191  25.718  1.00  0.00    -0.399 N 
ATOM     24  H   UNL A   1      39.363  22.834  26.453  1.00  0.00     0.156 HD
ATOM     25  H   UNL A   1      39.240  23.715  24.999  1.00  0.00     0.156 HD
ENDBRANCH  10  23
ENDBRANCH   3   5
ENDBRANCH   2   3
ENDBRANCH   1   2
BRANCH   1  26
ATOM     26  C   UNL A   1      32.090  27.427  26.011  1.00  0.00     0.202 C 
BRANCH  26  27
ATOM     27  O   UNL A   1      31.767  28.778  25.681  1.00  0.00    -0.374 OA
BRANCH  27  28
ATOM     28  C   UNL A   1      32.838  29.724  25.699  1.00  0.00     0.202 C 
BRANCH  28  29
ATOM     29  C   UNL A   1      32.903  30.650  26.918  1.00  0.00     0.261 C 
BRANCH  29  30
ATOM     30  O   UNL A   1      33.702  30.078  27.970  1.00  0.00    -0.460 OA
BRANCH  30  31
ATOM     31  C   UNL A   1      34.680  30.887  28.439  1.00  0.00     0.338 C 
ATOM     32  O   UNL A   1      34.534  32.002  28.928  1.00  0.00    -0.246 OA
BRANCH  31  33
ATOM     33  C   UNL A   1      35.971  30.172  28.475  1.00  0.00     0.060 A 
ATOM     34  C   UNL A   1      36.362  29.631  29.707  1.00  0.00     0.016 A 
ATOM     35  C   UNL A   1      36.814  30.088  27.364  1.00  0.00     0.016 A 
ATOM     36  C   UNL A   1      37.638  29.101  29.860  1.00  0.00     0.010 A 
ATOM     37  C   UNL A   1      38.098  29.551  27.520  1.00  0.00     0.010 A 
ATOM     38  C   UNL A   1      38.535  29.118  28.785  1.00  0.00    -0.014 A 
BRANCH  38  39
ATOM     39  C   UNL A   1      39.977  28.911  29.071  1.00  0.00     0.031 A 
ATOM     40  C   UNL A   1      40.599  27.592  28.693  1.00  0.00     0.074 A 
ATOM     41  C   UNL A   1      40.740  29.905  29.560  1.00  0.00     0.049 A 
ATOM     42  N   UNL A   1      41.850  27.215  28.747  1.00  0.00    -0.248 NA
ATOM     43  C   UNL A   1      39.684  26.558  28.182  1.00  0.00     0.031 C 
ATOM     44  C   UNL A   1      40.263  31.237  29.923  1.00  0.00     0.029 A 
ATOM     45  N   UNL A   1      42.088  29.948  29.812  1.00  0.00    -0.354 N 
ATOM     46  C   UNL A   1      41.871  25.904  28.284  1.00  0.00     0.074 A 
ATOM     47  C   UNL A   1      40.503  25.537  27.992  1.00  0.00     0.031 C 
ATOM     48  C   UNL A   1      41.308  31.976  30.335  1.00  0.00     0.029 A 
ATOM     49  C   UNL A   1      42.523  31.164  30.278  1.00  0.00     0.049 A 
ATOM     50  H   UNL A   1      42.687  29.179  29.672  1.00  0.00     0.167 HD
ATOM     51  C   UNL A   1      42.933  25.083  28.100  1.00  0.00     0.037 A 
ATOM     52  C   UNL A   1      43.762  31.575  30.612  1.00  0.00     0.037 A 
ATOM     53  C   UNL A   1      44.294  25.453  28.385  1.00  0.00     0.049 A 
ATOM     54  C   UNL A   1      44.925  30.630  30.446  1.00  0.00     0.074 A 
ATOM     55  C   UNL A   1      45.445  24.703  28.217  1.00  0.00     0.029 A 
ATOM     56  N   UNL A   1      44.687  26.679  28.903  1.00  0.00    -0.354 N 
ATOM     57  N   UNL A   1      44.934  29.403  29.981  1.00  0.00    -0.248 NA
ATOM     58  C   UNL A   1      46.248  31.134  30.840  1.00  0.00     0.031 C 
ATOM     59  C   UNL A   1      46.529  25.461  28.678  1.00  0.00     0.029 A 
ATOM     60  C   UNL A   1      46.059  26.700  29.082  1.00  0.00     0.049 A 
ATOM     61  H   UNL A   1      44.078  27.424  29.112  1.00  0.00     0.167 HD
ATOM     62  C   UNL A   1      46.266  29.003  29.988  1.00  0.00     0.074 A 
ATOM     63  C   UNL A   1      47.033  30.118  30.505  1.00  0.00     0.031 C 
ATOM     64  C   UNL A   1      46.808  27.823  29.591  1.00  0.00     0.037 A 
BRANCH  51  65
ATOM     65  C   UNL A   1      42.645  23.693  27.603  1.00  0.00     0.058 A 
ATOM     66  C   UNL A   1      42.433  22.617  28.481  1.00  0.00     0.135 A 
ATOM     67  C   UNL A   1      42.608  23.428  26.225  1.00  0.00     0.135 A 
ATOM     68  F   UNL A   1      42.476  22.809  29.809  1.00  0.00    -0.206 F 
ATOM     69  C   UNL A   1      42.247  21.320  28.011  1.00  0.00     0.059 A 
ATOM     70  C   UNL A   1      42.394  22.144  25.732  1.00  0.00     0.059 A 
ATOM     71  F   UNL A   1      42.803  24.418  25.340  1.00  0.00    -0.206 F 
ATOM     72  C   UNL A   1      42.240  21.092  26.634  1.00  0.00     0.060 A 
BRANCH  72  73
ATOM     73  S   UNL A   1      42.044  19.400  26.036  1.00  0.00     0.124 S 
ATOM     74  O   UNL A   1      42.931  19.399  24.876  1.00  0.00    -0.237 OA
ATOM     75  O   UNL A   1      42.493  18.609  27.176  1.00  0.00    -0.237 OA
ATOM     76  O   UNL A   1      40.619  19.309  25.737  1.00  0.00    -0.744 OA
ENDBRANCH  72  73
ENDBRANCH  51  65
BRANCH  52  77
ATOM     77  C   UNL A   1      43.974  32.965  31.095  1.00  0.00     0.058 A 
ATOM     78  C   UNL A   1      44.055  33.247  32.467  1.00  0.00     0.135 A 
ATOM     79  C   UNL A   1      44.115  34.035  30.199  1.00  0.00     0.135 A 
ATOM     80  F   UNL A   1      43.916  32.258  33.364  1.00  0.00    -0.206 F 
ATOM     81  C   UNL A   1      44.267  34.540  32.934  1.00  0.00     0.059 A 
ATOM     82  C   UNL A   1      44.349  35.333  30.640  1.00  0.00     0.059 A 
ATOM     83  F   UNL A   1      44.051  33.816  28.876  1.00  0.00    -0.206 F 
ATOM     84  C   UNL A   1      44.418  35.576  32.012  1.00  0.00     0.060 A 
BRANCH  84  85
ATOM     85  S   UNL A   1      44.759  37.239  32.629  1.00  0.00     0.124 S 
ATOM     86  O   UNL A   1      45.768  36.973  33.649  1.00  0.00    -0.237 OA
ATOM     87  O   UNL A   1      45.229  37.921  31.427  1.00  0.00    -0.237 OA
ATOM     88  O   UNL A   1      43.462  37.686  33.127  1.00  0.00    -0.744 OA
ENDBRANCH  84  85
ENDBRANCH  52  77
BRANCH  64  89
ATOM     89  C   UNL A   1      48.307  27.696  29.651  1.00  0.00     0.058 A 
ATOM     90  C   UNL A   1      49.135  28.155  28.615  1.00  0.00     0.135 A 
ATOM     91  C   UNL A   1      48.923  27.131  30.780  1.00  0.00     0.135 A 
ATOM     92  F   UNL A   1      48.598  28.702  27.512  1.00  0.00    -0.206 F 
ATOM     93  C   UNL A   1      50.519  28.027  28.680  1.00  0.00     0.059 A 
ATOM     94  C   UNL A   1      50.305  27.018  30.879  1.00  0.00     0.059 A 
ATOM     95  F   UNL A   1      48.179  26.689  31.806  1.00  0.00    -0.206 F 
ATOM     96  C   UNL A   1      51.096  27.452  29.815  1.00  0.00     0.060 A 
BRANCH  96  97
ATOM     97  S   UNL A   1      52.892  27.295  29.895  1.00  0.00     0.124 S 
ATOM     98  O   UNL A   1      53.080  26.755  31.236  1.00  0.00    -0.237 OA
ATOM     99  O   UNL A   1      53.176  26.376  28.796  1.00  0.00    -0.237 OA
ATOM    100  O   UNL A   1      53.362  28.663  29.695  1.00  0.00    -0.744 OA
ENDBRANCH  96  97
ENDBRANCH  64  89
ENDBRANCH  38  39
ENDBRANCH  31  33
ENDBRANCH  30  31
ENDBRANCH  29  30
ENDBRANCH  28  29
ENDBRANCH  27  28
ENDBRANCH  26  27
ENDBRANCH   1  26
TORSDOF 24
ENDMDL
MODEL 2
REMARK VINA RESULT:     -10.0      1.059      2.121
REMARK SMILES CC(C)CCNC(=O)[C@@H](C)Oc1ccc(N)cc1C(=O)OCCOCCOC(=O)c1ccc(-c2c3nc(c(-c4c(F)cc(S(=O)(=O)[O-])cc4F)c4ccc([nH]4)c(-c4c(F)cc(S(=O)(=O)[O-])cc4F)c4nc(c(-c5c(F)cc(S(=O)(=O)[O-])cc5F)c5ccc2[nH]5)C=C4)C=C3)cc1
REMARK SMILES IDX 22 1 21 2 19 3 20 4 18 5 12 6 13 7 14 8 17 9 15 10 11 11
REMARK SMILES IDX 9 12 10 13 7 14 6 15 8 17 5 18 4 19 2 20 1 21 3 22 16 23
REMARK SMILES IDX 23 26 24 27 25 28 26 29 27 30 28 31 29 32 30 33 31 34 95 35
REMARK SMILES IDX 32 36 94 37 33 38 34 39 35 40 88 41 36 42 93 43 87 44 89 45
REMARK SMILES IDX 37 46 92 47 86 48 85 49 38 51 72 52 51 53 71 54 52 55 55 56
REMARK SMILES IDX 70 57 90 58 53 59 54 60 69 62 91 63 56 64 39 65 40 66 49 67
REMARK SMILES IDX 41 68 42 69 48 70 50 71 43 72 44 73 45 74 46 75 47 76 73 77
REMARK SMILES IDX 74 78 83 79 75 80 76 81 82 82 84 83 77 84 78 85 79 86 80 87
REMARK SMILES IDX 81 88 57 89 58 90 67 91 59 92 60 93 66 94 68 95 61 96 62 97
REMARK SMILES IDX 63 98 64 99 65 100
REMARK H PARENT 6 16 16 24 16 25 89 50 55 61
REMARK Flexibility Score: inf
ROOT
ATOM      1  C   UNL A   1      33.403  27.871  24.411  1.00  0.00     0.261 C 
ENDROOT
BRANCH   1   2
ATOM      2  O   UNL A   1      33.105  26.523  24.003  1.00  0.00    -0.460 OA
BRANCH   2   3
ATOM      3  C   UNL A   1      33.407  25.596  24.937  1.00  0.00     0.342 C 
ATOM      4  O   UNL A   1      34.400  25.606  25.654  1.00  0.00    -0.246 OA
BRANCH   3   5
ATOM      5  C   UNL A   1      32.359  24.566  25.131  1.00  0.00     0.104 A 
ATOM      6  C   UNL A   1      32.458  23.210  24.810  1.00  0.00     0.135 A 
ATOM      7  C   UNL A   1      31.648  22.322  25.513  1.00  0.00     0.049 A 
ATOM      8  C   UNL A   1      30.563  22.790  26.265  1.00  0.00     0.029 A 
ATOM      9  C   UNL A   1      31.220  25.026  25.820  1.00  0.00     0.045 A 
ATOM     10  C   UNL A   1      30.259  24.145  26.296  1.00  0.00     0.032 A 
BRANCH   6  11
ATOM     11  O   UNL A   1      33.369  22.726  23.924  1.00  0.00    -0.480 OA
BRANCH  11  12
ATOM     12  C   UNL A   1      34.673  22.419  24.450  1.00  0.00     0.258 C 
ATOM     13  C   UNL A   1      35.784  22.727  23.441  1.00  0.00     0.064 C 
BRANCH  12  14
ATOM     14  C   UNL A   1      35.012  21.184  25.366  1.00  0.00     0.260 C 
ATOM     15  N   UNL A   1      34.582  19.906  25.127  1.00  0.00    -0.353 N 
ATOM     16  H   UNL A   1      35.107  19.197  25.561  1.00  0.00     0.163 HD
ATOM     17  O   UNL A   1      35.721  21.333  26.370  1.00  0.00    -0.271 OA
BRANCH  15  18
ATOM     18  C   UNL A   1      33.465  19.448  24.330  1.00  0.00     0.116 C 
BRANCH  18  19
ATOM     19  C   UNL A   1      32.738  18.220  24.864  1.00  0.00     0.024 C 
BRANCH  19  20
ATOM     20  C   UNL A   1      33.221  16.856  24.316  1.00  0.00    -0.016 C 
ATOM     21  C   UNL A   1      34.004  16.958  23.001  1.00  0.00     0.007 C 
ATOM     22  C   UNL A   1      34.111  16.186  25.368  1.00  0.00     0.007 C 
ENDBRANCH  19  20
ENDBRANCH  18  19
ENDBRANCH  15  18
ENDBRANCH  12  14
ENDBRANCH  11  12
ENDBRANCH   6  11
BRANCH  10  23
ATOM     23  N   UNL A   1      29.120  24.613  26.924  1.00  0.00    -0.399 N 
ATOM     24  H   UNL A   1      28.451  25.125  26.414  1.00  0.00     0.156 HD
ATOM     25  H   UNL A   1      28.975  24.434  27.882  1.00  0.00     0.156 HD
ENDBRANCH  10  23
ENDBRANCH   3   5
ENDBRANCH   2   3
ENDBRANCH   1   2
BRANCH   1  26
ATOM     26  C   UNL A   1      32.127  28.688  24.621  1.00  0.00     0.202 C 
BRANCH  26  27
ATOM     27  O   UNL A   1      31.469  28.526  25.878  1.00  0.00    -0.374 OA
BRANCH  27  28
ATOM     28  C   UNL A   1      32.200  28.901  27.046  1.00  0.00     0.202 C 
BRANCH  28  29
ATOM     29  C   UNL A   1      32.597  30.377  27.152  1.00  0.00     0.261 C 
BRANCH  29  30
ATOM     30  O   UNL A   1      34.014  30.553  26.976  1.00  0.00    -0.460 OA
BRANCH  30  31
ATOM     31  C   UNL A   1      34.672  30.977  28.079  1.00  0.00     0.338 C 
ATOM     32  O   UNL A   1      34.245  31.745  28.934  1.00  0.00    -0.246 OA
BRANCH  31  33
ATOM     33  C   UNL A   1      35.936  30.233  28.246  1.00  0.00     0.060 A 
ATOM     34  C   UNL A   1      36.293  29.874  29.552  1.00  0.00     0.016 A 
ATOM     35  C   UNL A   1      36.789  29.953  27.175  1.00  0.00     0.016 A 
ATOM     36  C   UNL A   1      37.547  29.330  29.806  1.00  0.00     0.010 A 
ATOM     37  C   UNL A   1      38.052  29.404  27.433  1.00  0.00     0.010 A 
ATOM     38  C   UNL A   1      38.457  29.154  28.757  1.00  0.00    -0.014 A 
BRANCH  38  39
ATOM     39  C   UNL A   1      39.887  28.946  29.096  1.00  0.00     0.031 A 
ATOM     40  C   UNL A   1      40.526  27.632  28.725  1.00  0.00     0.074 A 
ATOM     41  C   UNL A   1      40.630  29.935  29.626  1.00  0.00     0.049 A 
ATOM     42  N   UNL A   1      41.775  27.256  28.823  1.00  0.00    -0.248 NA
ATOM     43  C   UNL A   1      39.633  26.604  28.167  1.00  0.00     0.031 C 
ATOM     44  C   UNL A   1      40.136  31.262  29.986  1.00  0.00     0.029 A 
ATOM     45  N   UNL A   1      41.967  29.976  29.930  1.00  0.00    -0.354 N 
ATOM     46  C   UNL A   1      41.816  25.951  28.345  1.00  0.00     0.074 A 
ATOM     47  C   UNL A   1      40.461  25.586  27.997  1.00  0.00     0.031 C 
ATOM     48  C   UNL A   1      41.164  31.996  30.447  1.00  0.00     0.029 A 
ATOM     49  C   UNL A   1      42.381  31.187  30.427  1.00  0.00     0.049 A 
ATOM     50  H   UNL A   1      42.572  29.209  29.804  1.00  0.00     0.167 HD
ATOM     51  C   UNL A   1      42.885  25.134  28.192  1.00  0.00     0.037 A 
ATOM     52  C   UNL A   1      43.606  31.595  30.814  1.00  0.00     0.037 A 
ATOM     53  C   UNL A   1      44.233  25.502  28.533  1.00  0.00     0.049 A 
ATOM     54  C   UNL A   1      44.776  30.654  30.681  1.00  0.00     0.074 A 
ATOM     55  C   UNL A   1      45.391  24.755  28.401  1.00  0.00     0.029 A 
ATOM     56  N   UNL A   1      44.604  26.722  29.081  1.00  0.00    -0.354 N 
ATOM     57  N   UNL A   1      44.805  29.433  30.201  1.00  0.00    -0.248 NA
ATOM     58  C   UNL A   1      46.082  31.154  31.132  1.00  0.00     0.031 C 
ATOM     59  C   UNL A   1      46.456  25.509  28.913  1.00  0.00     0.029 A 
ATOM     60  C   UNL A   1      45.969  26.742  29.314  1.00  0.00     0.049 A 
ATOM     61  H   UNL A   1      43.987  27.463  29.277  1.00  0.00     0.167 HD
ATOM     62  C   UNL A   1      46.137  29.034  30.255  1.00  0.00     0.074 A 
ATOM     63  C   UNL A   1      46.881  30.144  30.815  1.00  0.00     0.031 C 
ATOM     64  C   UNL A   1      46.696  27.860  29.865  1.00  0.00     0.037 A 
BRANCH  51  65
ATOM     65  C   UNL A   1      42.619  23.749  27.667  1.00  0.00     0.058 A 
ATOM     66  C   UNL A   1      42.368  22.664  28.523  1.00  0.00     0.135 A 
ATOM     67  C   UNL A   1      42.643  23.499  26.286  1.00  0.00     0.135 A 
ATOM     68  F   UNL A   1      42.352  22.841  29.853  1.00  0.00    -0.206 F 
ATOM     69  C   UNL A   1      42.203  21.372  28.031  1.00  0.00     0.059 A 
ATOM     70  C   UNL A   1      42.451  22.221  25.770  1.00  0.00     0.059 A 
ATOM     71  F   UNL A   1      42.877  24.500  25.421  1.00  0.00    -0.206 F 
ATOM     72  C   UNL A   1      42.256  21.160  26.653  1.00  0.00     0.060 A 
BRANCH  72  73
ATOM     73  S   UNL A   1      42.087  19.475  26.027  1.00  0.00     0.124 S 
ATOM     74  O   UNL A   1      42.555  18.694  27.169  1.00  0.00    -0.237 OA
ATOM     75  O   UNL A   1      40.659  19.386  25.742  1.00  0.00    -0.237 OA
ATOM     76  O   UNL A   1      42.959  19.459  24.857  1.00  0.00    -0.744 OA
ENDBRANCH  72  73
ENDBRANCH  51  65
BRANCH  52  77
ATOM     77  C   UNL A   1      43.796  32.979  31.322  1.00  0.00     0.058 A 
ATOM     78  C   UNL A   1      43.705  33.263  32.692  1.00  0.00     0.135 A 
ATOM     79  C   UNL A   1      44.089  34.041  30.452  1.00  0.00     0.135 A 
ATOM     80  F   UNL A   1      43.416  32.283  33.562  1.00  0.00    -0.206 F 
ATOM     81  C   UNL A   1      43.894  34.550  33.184  1.00  0.00     0.059 A 
ATOM     82  C   UNL A   1      44.304  35.333  30.922  1.00  0.00     0.059 A 
ATOM     83  F   UNL A   1      44.194  33.820  29.133  1.00  0.00    -0.206 F 
ATOM     84  C   UNL A   1      44.199  35.578  32.291  1.00  0.00     0.060 A 
BRANCH  84  85
ATOM     85  S   UNL A   1      44.509  37.231  32.949  1.00  0.00     0.124 S 
ATOM     86  O   UNL A   1      44.635  38.016  31.726  1.00  0.00    -0.237 OA
ATOM     87  O   UNL A   1      43.310  37.474  33.745  1.00  0.00    -0.237 OA
ATOM     88  O   UNL A   1      45.739  37.062  33.718  1.00  0.00    -0.744 OA
ENDBRANCH  84  85
ENDBRANCH  52  77
BRANCH  64  89
ATOM     89  C   UNL A   1      48.191  27.734  29.981  1.00  0.00     0.058 A 
ATOM     90  C   UNL A   1      49.051  28.076  28.926  1.00  0.00     0.135 A 
ATOM     91  C   UNL A   1      48.771  27.291  31.181  1.00  0.00     0.135 A 
ATOM     92  F   UNL A   1      48.550  28.505  27.757  1.00  0.00    -0.206 F 
ATOM     93  C   UNL A   1      50.432  27.951  29.044  1.00  0.00     0.059 A 
ATOM     94  C   UNL A   1      50.149  27.183  31.331  1.00  0.00     0.059 A 
ATOM     95  F   UNL A   1      47.995  26.963  32.227  1.00  0.00    -0.206 F 
ATOM     96  C   UNL A   1      50.973  27.498  30.250  1.00  0.00     0.060 A 
BRANCH  96  97
ATOM     97  S   UNL A   1      52.765  27.343  30.398  1.00  0.00     0.124 S 
ATOM     98  O   UNL A   1      53.211  27.862  29.110  1.00  0.00    -0.237 OA
ATOM     99  O   UNL A   1      53.059  28.182  31.556  1.00  0.00    -0.237 OA
ATOM    100  O   UNL A   1      52.966  25.911  30.604  1.00  0.00    -0.744 OA
ENDBRANCH  96  97
ENDBRANCH  64  89
ENDBRANCH  38  39
ENDBRANCH  31  33
ENDBRANCH  30  31
ENDBRANCH  29  30
ENDBRANCH  28  29
ENDBRANCH  27  28
ENDBRANCH  26  27
ENDBRANCH   1  26
TORSDOF 24
ENDMDL
MODEL 3
REMARK VINA RESULT:      -9.8      1.294      2.927
REMARK SMILES CC(C)CCNC(=O)[C@@H](C)Oc1ccc(N)cc1C(=O)OCCOCCOC(=O)c1ccc(-c2c3nc(c(-c4c(F)cc(S(=O)(=O)[O-])cc4F)c4ccc([nH]4)c(-c4c(F)cc(S(=O)(=O)[O-])cc4F)c4nc(c(-c5c(F)cc(S(=O)(=O)[O-])cc5F)c5ccc2[nH]5)C=C4)C=C3)cc1
REMARK SMILES IDX 22 1 21 2 19 3 20 4 18 5 12 6 13 7 14 8 17 9 15 10 11 11
REMARK SMILES IDX 9 12 10 13 7 14 6 15 8 17 5 18 4 19 2 20 1 21 3 22 16 23
REMARK SMILES IDX 23 26 24 27 25 28 26 29 27 30 28 31 29 32 30 33 31 34 95 35
REMARK SMILES IDX 32 36 94 37 33 38 34 39 35 40 88 41 36 42 93 43 87 44 89 45
REMARK SMILES IDX 37 46 92 47 86 48 85 49 38 51 72 52 51 53 71 54 52 55 55 56
REMARK SMILES IDX 70 57 90 58 53 59 54 60 69 62 91 63 56 64 39 65 40 66 49 67
REMARK SMILES IDX 41 68 42 69 48 70 50 71 43 72 44 73 45 74 46 75 47 76 73 77
REMARK SMILES IDX 74 78 83 79 75 80 76 81 82 82 84 83 77 84 78 85 79 86 80 87
REMARK SMILES IDX 81 88 57 89 58 90 67 91 59 92 60 93 66 94 68 95 61 96 62 97
REMARK SMILES IDX 63 98 64 99 65 100
REMARK H PARENT 6 16 16 24 16 25 89 50 55 61
REMARK Flexibility Score: inf
ROOT
ATOM      1  C   UNL A   1      33.597  27.525  26.265  1.00  0.00     0.261 C 
ENDROOT
BRANCH   1   2
ATOM      2  O   UNL A   1      33.903  26.120  26.203  1.00  0.00    -0.460 OA
BRANCH   2   3
ATOM      3  C   UNL A   1      34.144  25.674  24.951  1.00  0.00     0.342 C 
ATOM      4  O   UNL A   1      33.961  26.311  23.921  1.00  0.00    -0.246 OA
BRANCH   3   5
ATOM      5  C   UNL A   1      34.779  24.336  24.895  1.00  0.00     0.104 A 
ATOM      6  C   UNL A   1      34.206  23.166  24.391  1.00  0.00     0.135 A 
ATOM      7  C   UNL A   1      35.069  22.174  23.931  1.00  0.00     0.049 A 
ATOM      8  C   UNL A   1      36.431  22.208  24.257  1.00  0.00     0.029 A 
ATOM      9  C   UNL A   1      36.131  24.323  25.290  1.00  0.00     0.045 A 
ATOM     10  C   UNL A   1      36.937  23.214  25.070  1.00  0.00     0.032 A 
BRANCH   6  11
ATOM     11  O   UNL A   1      32.864  23.005  24.243  1.00  0.00    -0.480 OA
BRANCH  11  12
ATOM     12  C   UNL A   1      32.137  22.588  25.413  1.00  0.00     0.258 C 
ATOM     13  C   UNL A   1      31.763  21.103  25.355  1.00  0.00     0.064 C 
BRANCH  12  14
ATOM     14  C   UNL A   1      31.062  23.454  26.169  1.00  0.00     0.260 C 
ATOM     15  N   UNL A   1      30.271  24.397  25.567  1.00  0.00    -0.353 N 
ATOM     16  H   UNL A   1      29.446  24.625  26.052  1.00  0.00     0.163 HD
ATOM     17  O   UNL A   1      30.880  23.295  27.383  1.00  0.00    -0.271 OA
BRANCH  15  18
ATOM     18  C   UNL A   1      30.474  25.106  24.323  1.00  0.00     0.116 C 
BRANCH  18  19
ATOM     19  C   UNL A   1      29.695  26.408  24.176  1.00  0.00     0.024 C 
BRANCH  19  20
ATOM     20  C   UNL A   1      30.375  27.510  23.330  1.00  0.00    -0.016 C 
ATOM     21  C   UNL A   1      31.110  26.978  22.093  1.00  0.00     0.007 C 
ATOM     22  C   UNL A   1      29.311  28.515  22.876  1.00  0.00     0.007 C 
ENDBRANCH  19  20
ENDBRANCH  18  19
ENDBRANCH  15  18
ENDBRANCH  12  14
ENDBRANCH  11  12
ENDBRANCH   6  11
BRANCH  10  23
ATOM     23  N   UNL A   1      38.247  23.194  25.509  1.00  0.00    -0.399 N 
ATOM     24  H   UNL A   1      38.979  23.041  24.870  1.00  0.00     0.156 HD
ATOM     25  H   UNL A   1      38.449  23.334  26.463  1.00  0.00     0.156 HD
ENDBRANCH  10  23
ENDBRANCH   3   5
ENDBRANCH   2   3
ENDBRANCH   1   2
BRANCH   1  26
ATOM     26  C   UNL A   1      32.116  27.763  26.566  1.00  0.00     0.202 C 
BRANCH  26  27
ATOM     27  O   UNL A   1      31.628  29.086  26.346  1.00  0.00    -0.374 OA
BRANCH  27  28
ATOM     28  C   UNL A   1      32.591  30.087  26.015  1.00  0.00     0.202 C 
BRANCH  28  29
ATOM     29  C   UNL A   1      33.029  31.011  27.156  1.00  0.00     0.261 C 
BRANCH  29  30
ATOM     30  O   UNL A   1      33.878  30.323  28.092  1.00  0.00    -0.460 OA
BRANCH  30  31
ATOM     31  C   UNL A   1      34.865  31.081  28.622  1.00  0.00     0.338 C 
ATOM     32  O   UNL A   1      34.736  32.169  29.171  1.00  0.00    -0.246 OA
BRANCH  31  33
ATOM     33  C   UNL A   1      36.139  30.335  28.635  1.00  0.00     0.060 A 
ATOM     34  C   UNL A   1      36.555  29.813  29.867  1.00  0.00     0.016 A 
ATOM     35  C   UNL A   1      36.946  30.207  27.502  1.00  0.00     0.016 A 
ATOM     36  C   UNL A   1      37.821  29.254  29.994  1.00  0.00     0.010 A 
ATOM     37  C   UNL A   1      38.222  29.643  27.632  1.00  0.00     0.010 A 
ATOM     38  C   UNL A   1      38.686  29.227  28.893  1.00  0.00    -0.014 A 
BRANCH  38  39
ATOM     39  C   UNL A   1      40.131  28.991  29.140  1.00  0.00     0.031 A 
ATOM     40  C   UNL A   1      40.716  27.659  28.747  1.00  0.00     0.074 A 
ATOM     41  C   UNL A   1      40.926  29.970  29.608  1.00  0.00     0.049 A 
ATOM     42  N   UNL A   1      41.960  27.257  28.768  1.00  0.00    -0.248 NA
ATOM     43  C   UNL A   1      39.767  26.644  28.262  1.00  0.00     0.031 C 
ATOM     44  C   UNL A   1      40.486  31.311  29.982  1.00  0.00     0.029 A 
ATOM     45  N   UNL A   1      42.281  29.985  29.823  1.00  0.00    -0.354 N 
ATOM     46  C   UNL A   1      41.943  25.946  28.306  1.00  0.00     0.074 A 
ATOM     47  C   UNL A   1      40.560  25.606  28.051  1.00  0.00     0.031 C 
ATOM     48  C   UNL A   1      41.556  32.029  30.365  1.00  0.00     0.029 A 
ATOM     49  C   UNL A   1      42.753  31.193  30.277  1.00  0.00     0.049 A 
ATOM     50  H   UNL A   1      42.860  29.204  29.668  1.00  0.00     0.167 HD
ATOM     51  C   UNL A   1      42.982  25.104  28.094  1.00  0.00     0.037 A 
ATOM     52  C   UNL A   1      44.009  31.579  30.577  1.00  0.00     0.037 A 
ATOM     53  C   UNL A   1      44.357  25.447  28.342  1.00  0.00     0.049 A 
ATOM     54  C   UNL A   1      45.147  30.611  30.381  1.00  0.00     0.074 A 
ATOM     55  C   UNL A   1      45.488  24.674  28.144  1.00  0.00     0.029 A 
ATOM     56  N   UNL A   1      44.789  26.665  28.848  1.00  0.00    -0.354 N 
ATOM     57  N   UNL A   1      45.119  29.384  29.916  1.00  0.00    -0.248 NA
ATOM     58  C   UNL A   1      46.490  31.088  30.739  1.00  0.00     0.031 C 
ATOM     59  C   UNL A   1      46.599  25.410  28.575  1.00  0.00     0.029 A 
ATOM     60  C   UNL A   1      46.166  26.659  28.991  1.00  0.00     0.049 A 
ATOM     61  H   UNL A   1      44.201  27.422  29.073  1.00  0.00     0.167 HD
ATOM     62  C   UNL A   1      46.443  28.957  29.888  1.00  0.00     0.074 A 
ATOM     63  C   UNL A   1      47.245  30.057  30.383  1.00  0.00     0.031 C 
ATOM     64  C   UNL A   1      46.950  27.766  29.478  1.00  0.00     0.037 A 
BRANCH  51  65
ATOM     65  C   UNL A   1      42.653  23.719  27.606  1.00  0.00     0.058 A 
ATOM     66  C   UNL A   1      42.436  22.650  28.491  1.00  0.00     0.135 A 
ATOM     67  C   UNL A   1      42.581  23.453  26.230  1.00  0.00     0.135 A 
ATOM     68  F   UNL A   1      42.511  22.844  29.817  1.00  0.00    -0.206 F 
ATOM     69  C   UNL A   1      42.212  21.357  28.028  1.00  0.00     0.059 A 
ATOM     70  C   UNL A   1      42.329  22.173  25.744  1.00  0.00     0.059 A 
ATOM     71  F   UNL A   1      42.779  24.438  25.338  1.00  0.00    -0.206 F 
ATOM     72  C   UNL A   1      42.171  21.127  26.652  1.00  0.00     0.060 A 
BRANCH  72  73
ATOM     73  S   UNL A   1      41.926  19.439  26.062  1.00  0.00     0.124 S 
ATOM     74  O   UNL A   1      42.418  18.661  27.195  1.00  0.00    -0.237 OA
ATOM     75  O   UNL A   1      40.485  19.389  25.838  1.00  0.00    -0.237 OA
ATOM     76  O   UNL A   1      42.746  19.379  24.856  1.00  0.00    -0.744 OA
ENDBRANCH  72  73
ENDBRANCH  51  65
BRANCH  52  77
ATOM     77  C   UNL A   1      44.261  32.965  31.053  1.00  0.00     0.058 A 
ATOM     78  C   UNL A   1      44.499  34.007  30.144  1.00  0.00     0.135 A 
ATOM     79  C   UNL A   1      44.252  33.279  32.420  1.00  0.00     0.135 A 
ATOM     80  F   UNL A   1      44.528  33.754  28.827  1.00  0.00    -0.206 F 
ATOM     81  C   UNL A   1      44.722  35.311  30.574  1.00  0.00     0.059 A 
ATOM     82  C   UNL A   1      44.451  34.579  32.873  1.00  0.00     0.059 A 
ATOM     83  F   UNL A   1      44.021  32.318  33.329  1.00  0.00    -0.206 F 
ATOM     84  C   UNL A   1      44.691  35.588  31.941  1.00  0.00     0.060 A 
BRANCH  84  85
ATOM     85  S   UNL A   1      44.915  37.297  32.482  1.00  0.00     0.124 S 
ATOM     86  O   UNL A   1      46.175  37.647  31.837  1.00  0.00    -0.237 OA
ATOM     87  O   UNL A   1      43.721  37.946  31.949  1.00  0.00    -0.237 OA
ATOM     88  O   UNL A   1      44.961  37.185  33.937  1.00  0.00    -0.744 OA
ENDBRANCH  84  85
ENDBRANCH  52  77
BRANCH  64  89
ATOM     89  C   UNL A   1      48.447  27.609  29.498  1.00  0.00     0.058 A 
ATOM     90  C   UNL A   1      49.122  27.045  30.591  1.00  0.00     0.135 A 
ATOM     91  C   UNL A   1      49.213  28.004  28.388  1.00  0.00     0.135 A 
ATOM     92  F   UNL A   1      48.439  26.652  31.678  1.00  0.00    -0.206 F 
ATOM     93  C   UNL A   1      50.507  26.909  30.599  1.00  0.00     0.059 A 
ATOM     94  C   UNL A   1      50.595  27.854  28.363  1.00  0.00     0.059 A 
ATOM     95  F   UNL A   1      48.617  28.537  27.310  1.00  0.00    -0.206 F 
ATOM     96  C   UNL A   1      51.237  27.322  29.481  1.00  0.00     0.060 A 
BRANCH  96  97
ATOM     97  S   UNL A   1      53.032  27.137  29.497  1.00  0.00     0.124 S 
ATOM     98  O   UNL A   1      53.469  28.507  29.255  1.00  0.00    -0.237 OA
ATOM     99  O   UNL A   1      53.283  26.620  30.839  1.00  0.00    -0.237 OA
ATOM    100  O   UNL A   1      53.286  26.194  28.412  1.00  0.00    -0.744 OA
ENDBRANCH  96  97
ENDBRANCH  64  89
ENDBRANCH  38  39
ENDBRANCH  31  33
ENDBRANCH  30  31
ENDBRANCH  29  30
ENDBRANCH  28  29
ENDBRANCH  27  28
ENDBRANCH  26  27
ENDBRANCH   1  26
TORSDOF 24
ENDMDL
