MODEL 1
REMARK VINA RESULT:     -12.4      0.000      0.000
REMARK SMILES O=C(OCCOCCOC(=O)c1ccccc1-c1ccc(/C=C2/SC(=S)N(Cc3ccccc3)C2=O)o1)c1ccc(-c2c3nc(c(-c4c(F)cc(S(=O)(=O)[O-])cc4F)c4ccc([nH]4)c(-c4c(F)cc(S(=O)(=O)[O-])cc4F)c4nc(c(-c5c(F)cc(S(=O)(=O)[O-])cc5F)c5ccc2[nH]5)C=C4)C=C3)cc1
REMARK SMILES IDX 7 1 6 2 5 3 4 4 3 5 2 6 1 7 38 8 39 9 103 10 40 11 102 12
REMARK SMILES IDX 41 13 42 14 43 15 96 16 44 17 101 18 95 19 97 20 45 21
REMARK SMILES IDX 100 22 94 23 93 24 46 26 80 27 59 28 79 29 60 30 63 31 78 32
REMARK SMILES IDX 98 33 61 34 62 35 77 37 99 38 64 39 47 40 48 41 57 42 49 43
REMARK SMILES IDX 50 44 56 45 58 46 51 47 52 48 53 49 54 50 55 51 81 52 82 53
REMARK SMILES IDX 91 54 83 55 84 56 90 57 92 58 85 59 86 60 87 61 88 62 89 63
REMARK SMILES IDX 65 64 66 65 75 66 67 67 68 68 74 69 76 70 69 71 70 72 71 73
REMARK SMILES IDX 72 74 73 75 8 76 9 77 10 78 11 79 12 80 13 81 17 82 14 83
REMARK SMILES IDX 16 84 15 85 18 86 19 87 37 88 20 89 21 90 22 91 23 92 24 93
REMARK SMILES IDX 35 94 25 95 27 96 36 97 26 98 28 99 29 100 30 101 34 102
REMARK SMILES IDX 31 103 33 104 32 105
REMARK H PARENT 97 25 63 36
REMARK Flexibility Score: inf
ROOT
ATOM      1  C   UNL A   1      33.091  29.665  27.126  1.00  0.00     0.202 C 
ENDROOT
BRANCH   1   2
ATOM      2  O   UNL A   1      32.936  31.086  27.109  1.00  0.00    -0.374 OA
BRANCH   2   3
ATOM      3  C   UNL A   1      33.847  31.824  27.924  1.00  0.00     0.202 C 
BRANCH   3   4
ATOM      4  C   UNL A   1      35.259  31.231  27.934  1.00  0.00     0.261 C 
BRANCH   4   5
ATOM      5  O   UNL A   1      35.726  31.057  29.283  1.00  0.00    -0.460 OA
BRANCH   5   6
ATOM      6  C   UNL A   1      36.504  30.073  29.792  1.00  0.00     0.338 C 
ATOM      7  O   UNL A   1      36.026  29.354  30.669  1.00  0.00    -0.246 OA
BRANCH   6   8
ATOM      8  C   UNL A   1      37.910  29.793  29.357  1.00  0.00     0.060 A 
ATOM      9  C   UNL A   1      38.332  29.648  28.035  1.00  0.00     0.016 A 
ATOM     10  C   UNL A   1      38.896  29.752  30.359  1.00  0.00     0.016 A 
ATOM     11  C   UNL A   1      39.659  29.462  27.703  1.00  0.00     0.010 A 
ATOM     12  C   UNL A   1      40.244  29.552  30.040  1.00  0.00     0.010 A 
ATOM     13  C   UNL A   1      40.616  29.394  28.704  1.00  0.00    -0.014 A 
BRANCH  13  14
ATOM     14  C   UNL A   1      41.950  28.955  28.274  1.00  0.00     0.031 A 
ATOM     15  C   UNL A   1      43.076  29.927  28.438  1.00  0.00     0.074 A 
ATOM     16  C   UNL A   1      42.151  27.656  27.991  1.00  0.00     0.049 A 
ATOM     17  N   UNL A   1      44.348  29.768  28.201  1.00  0.00    -0.248 NA
ATOM     18  C   UNL A   1      42.724  31.256  28.974  1.00  0.00     0.031 C 
ATOM     19  C   UNL A   1      41.110  26.622  27.999  1.00  0.00     0.029 A 
ATOM     20  N   UNL A   1      43.299  26.972  27.703  1.00  0.00    -0.354 N 
ATOM     21  C   UNL A   1      44.940  30.983  28.522  1.00  0.00     0.074 A 
ATOM     22  C   UNL A   1      43.897  31.867  28.982  1.00  0.00     0.031 C 
ATOM     23  C   UNL A   1      41.677  25.429  27.756  1.00  0.00     0.029 A 
ATOM     24  C   UNL A   1      43.101  25.625  27.511  1.00  0.00     0.049 A 
ATOM     25  H   UNL A   1      44.182  27.402  27.640  1.00  0.00     0.167 HD
ATOM     26  C   UNL A   1      46.244  31.320  28.419  1.00  0.00     0.037 A 
ATOM     27  C   UNL A   1      43.982  24.673  27.151  1.00  0.00     0.037 A 
ATOM     28  C   UNL A   1      47.247  30.400  27.956  1.00  0.00     0.049 A 
ATOM     29  C   UNL A   1      45.410  25.101  26.942  1.00  0.00     0.074 A 
ATOM     30  C   UNL A   1      48.589  30.625  27.724  1.00  0.00     0.029 A 
ATOM     31  N   UNL A   1      47.001  29.064  27.655  1.00  0.00    -0.354 N 
ATOM     32  N   UNL A   1      45.956  26.279  27.147  1.00  0.00    -0.248 NA
ATOM     33  C   UNL A   1      46.339  24.086  26.436  1.00  0.00     0.031 C 
ATOM     34  C   UNL A   1      49.145  29.436  27.236  1.00  0.00     0.029 A 
ATOM     35  C   UNL A   1      48.162  28.455  27.220  1.00  0.00     0.049 A 
ATOM     36  H   UNL A   1      46.128  28.618  27.741  1.00  0.00     0.167 HD
ATOM     37  C   UNL A   1      47.296  26.143  26.816  1.00  0.00     0.074 A 
ATOM     38  C   UNL A   1      47.480  24.762  26.411  1.00  0.00     0.031 C 
ATOM     39  C   UNL A   1      48.289  27.069  26.838  1.00  0.00     0.037 A 
BRANCH  26  40
ATOM     40  C   UNL A   1      46.606  32.749  28.705  1.00  0.00     0.058 A 
ATOM     41  C   UNL A   1      46.592  33.745  27.715  1.00  0.00     0.135 A 
ATOM     42  C   UNL A   1      47.036  33.114  29.992  1.00  0.00     0.135 A 
ATOM     43  F   UNL A   1      46.228  33.444  26.458  1.00  0.00    -0.206 F 
ATOM     44  C   UNL A   1      47.023  35.042  27.982  1.00  0.00     0.059 A 
ATOM     45  C   UNL A   1      47.448  34.409  30.287  1.00  0.00     0.059 A 
ATOM     46  F   UNL A   1      47.087  32.198  30.971  1.00  0.00    -0.206 F 
ATOM     47  C   UNL A   1      47.456  35.362  29.271  1.00  0.00     0.060 A 
BRANCH  47  48
ATOM     48  S   UNL A   1      48.044  37.037  29.598  1.00  0.00     0.124 S 
ATOM     49  O   UNL A   1      49.326  36.776  30.245  1.00  0.00    -0.237 OA
ATOM     50  O   UNL A   1      48.117  37.610  28.257  1.00  0.00    -0.237 OA
ATOM     51  O   UNL A   1      47.009  37.600  30.460  1.00  0.00    -0.744 OA
ENDBRANCH  47  48
ENDBRANCH  26  40
BRANCH  27  52
ATOM     52  C   UNL A   1      43.535  23.271  26.919  1.00  0.00     0.058 A 
ATOM     53  C   UNL A   1      43.143  22.439  27.976  1.00  0.00     0.135 A 
ATOM     54  C   UNL A   1      43.498  22.730  25.622  1.00  0.00     0.135 A 
ATOM     55  F   UNL A   1      43.165  22.900  29.237  1.00  0.00    -0.206 F 
ATOM     56  C   UNL A   1      42.747  21.121  27.763  1.00  0.00     0.059 A 
ATOM     57  C   UNL A   1      43.077  21.426  25.379  1.00  0.00     0.059 A 
ATOM     58  F   UNL A   1      43.856  23.480  24.568  1.00  0.00    -0.206 F 
ATOM     59  C   UNL A   1      42.717  20.623  26.458  1.00  0.00     0.060 A 
BRANCH  59  60
ATOM     60  S   UNL A   1      42.180  18.920  26.186  1.00  0.00     0.124 S 
ATOM     61  O   UNL A   1      42.444  18.317  27.486  1.00  0.00    -0.237 OA
ATOM     62  O   UNL A   1      40.774  19.093  25.833  1.00  0.00    -0.237 OA
ATOM     63  O   UNL A   1      43.039  18.468  25.095  1.00  0.00    -0.744 OA
ENDBRANCH  59  60
ENDBRANCH  27  52
BRANCH  39  64
ATOM     64  C   UNL A   1      49.660  26.595  26.457  1.00  0.00     0.058 A 
ATOM     65  C   UNL A   1      50.486  25.918  27.367  1.00  0.00     0.135 A 
ATOM     66  C   UNL A   1      50.126  26.776  25.145  1.00  0.00     0.135 A 
ATOM     67  F   UNL A   1      50.084  25.727  28.634  1.00  0.00    -0.206 F 
ATOM     68  C   UNL A   1      51.743  25.460  26.995  1.00  0.00     0.059 A 
ATOM     69  C   UNL A   1      51.366  26.298  24.744  1.00  0.00     0.059 A 
ATOM     70  F   UNL A   1      49.362  27.405  24.237  1.00  0.00    -0.206 F 
ATOM     71  C   UNL A   1      52.173  25.653  25.680  1.00  0.00     0.060 A 
BRANCH  71  72
ATOM     72  S   UNL A   1      53.795  25.026  25.199  1.00  0.00     0.124 S 
ATOM     73  O   UNL A   1      54.624  25.480  26.310  1.00  0.00    -0.237 OA
ATOM     74  O   UNL A   1      53.564  23.587  25.126  1.00  0.00    -0.237 OA
ATOM     75  O   UNL A   1      54.044  25.680  23.919  1.00  0.00    -0.744 OA
ENDBRANCH  71  72
ENDBRANCH  39  64
ENDBRANCH  13  14
ENDBRANCH   6   8
ENDBRANCH   5   6
ENDBRANCH   4   5
ENDBRANCH   3   4
ENDBRANCH   2   3
ENDBRANCH   1   2
BRANCH   1  76
ATOM     76  C   UNL A   1      33.263  29.187  25.697  1.00  0.00     0.261 C 
BRANCH  76  77
ATOM     77  O   UNL A   1      32.039  29.490  25.027  1.00  0.00    -0.460 OA
BRANCH  77  78
ATOM     78  C   UNL A   1      31.827  28.944  23.805  1.00  0.00     0.338 C 
ATOM     79  O   UNL A   1      32.587  28.895  22.856  1.00  0.00    -0.246 OA
BRANCH  78  80
ATOM     80  C   UNL A   1      30.502  28.285  23.866  1.00  0.00     0.071 A 
ATOM     81  C   UNL A   1      29.391  29.036  23.468  1.00  0.00     0.016 A 
ATOM     82  C   UNL A   1      30.380  26.919  24.195  1.00  0.00     0.032 A 
ATOM     83  C   UNL A   1      28.154  28.411  23.333  1.00  0.00     0.001 A 
ATOM     84  C   UNL A   1      29.131  26.307  24.052  1.00  0.00     0.013 A 
ATOM     85  C   UNL A   1      28.028  27.049  23.614  1.00  0.00     0.001 A 
BRANCH  82  86
ATOM     86  C   UNL A   1      31.545  26.183  24.663  1.00  0.00     0.135 A 
ATOM     87  C   UNL A   1      31.927  25.783  25.926  1.00  0.00     0.051 A 
ATOM     88  O   UNL A   1      32.572  26.017  23.781  1.00  0.00    -0.457 OA
ATOM     89  C   UNL A   1      33.301  25.505  25.838  1.00  0.00     0.051 A 
ATOM     90  C   UNL A   1      33.651  25.550  24.492  1.00  0.00     0.128 A 
BRANCH  90  91
ATOM     91  C   UNL A   1      34.876  25.108  23.930  1.00  0.00     0.068 C 
ATOM     92  C   UNL A   1      35.108  23.788  23.904  1.00  0.00     0.084 C 
ATOM     93  S   UNL A   1      36.646  23.038  23.780  1.00  0.00    -0.054 SA
ATOM     94  C   UNL A   1      34.090  22.750  24.219  1.00  0.00     0.266 C 
ATOM     95  C   UNL A   1      36.064  21.580  24.609  1.00  0.00     0.148 C 
ATOM     96  N   UNL A   1      34.700  21.655  24.788  1.00  0.00    -0.288 N 
ATOM     97  O   UNL A   1      32.902  22.839  23.948  1.00  0.00    -0.268 OA
ATOM     98  S   UNL A   1      37.093  20.342  25.043  1.00  0.00    -0.052 S 
BRANCH  96  99
ATOM     99  C   UNL A   1      33.845  20.645  25.407  1.00  0.00     0.163 C 
BRANCH  99 100
ATOM    100  C   UNL A   1      33.578  19.444  24.513  1.00  0.00    -0.028 A 
ATOM    101  C   UNL A   1      34.408  18.316  24.574  1.00  0.00     0.005 A 
ATOM    102  C   UNL A   1      32.552  19.459  23.553  1.00  0.00     0.005 A 
ATOM    103  C   UNL A   1      34.214  17.238  23.704  1.00  0.00     0.000 A 
ATOM    104  C   UNL A   1      32.342  18.371  22.702  1.00  0.00     0.000 A 
ATOM    105  C   UNL A   1      33.178  17.262  22.774  1.00  0.00     0.000 A 
ENDBRANCH  99 100
ENDBRANCH  96  99
ENDBRANCH  90  91
ENDBRANCH  82  86
ENDBRANCH  78  80
ENDBRANCH  77  78
ENDBRANCH  76  77
ENDBRANCH   1  76
TORSDOF 21
ENDMDL
MODEL 2
REMARK VINA RESULT:     -12.2      1.213      2.229
REMARK SMILES O=C(OCCOCCOC(=O)c1ccccc1-c1ccc(/C=C2/SC(=S)N(Cc3ccccc3)C2=O)o1)c1ccc(-c2c3nc(c(-c4c(F)cc(S(=O)(=O)[O-])cc4F)c4ccc([nH]4)c(-c4c(F)cc(S(=O)(=O)[O-])cc4F)c4nc(c(-c5c(F)cc(S(=O)(=O)[O-])cc5F)c5ccc2[nH]5)C=C4)C=C3)cc1
REMARK SMILES IDX 7 1 6 2 5 3 4 4 3 5 2 6 1 7 38 8 39 9 103 10 40 11 102 12
REMARK SMILES IDX 41 13 42 14 43 15 96 16 44 17 101 18 95 19 97 20 45 21
REMARK SMILES IDX 100 22 94 23 93 24 46 26 80 27 59 28 79 29 60 30 63 31 78 32
REMARK SMILES IDX 98 33 61 34 62 35 77 37 99 38 64 39 47 40 48 41 57 42 49 43
REMARK SMILES IDX 50 44 56 45 58 46 51 47 52 48 53 49 54 50 55 51 81 52 82 53
REMARK SMILES IDX 91 54 83 55 84 56 90 57 92 58 85 59 86 60 87 61 88 62 89 63
REMARK SMILES IDX 65 64 66 65 75 66 67 67 68 68 74 69 76 70 69 71 70 72 71 73
REMARK SMILES IDX 72 74 73 75 8 76 9 77 10 78 11 79 12 80 13 81 17 82 14 83
REMARK SMILES IDX 16 84 15 85 18 86 19 87 37 88 20 89 21 90 22 91 23 92 24 93
REMARK SMILES IDX 35 94 25 95 27 96 36 97 26 98 28 99 29 100 30 101 34 102
REMARK SMILES IDX 31 103 33 104 32 105
REMARK H PARENT 97 25 63 36
REMARK Flexibility Score: inf
ROOT
ATOM      1  C   UNL A   1      33.919  28.923  27.032  1.00  0.00     0.202 C 
ENDROOT
BRANCH   1   2
ATOM      2  O   UNL A   1      33.319  30.210  26.861  1.00  0.00    -0.374 OA
BRANCH   2   3
ATOM      3  C   UNL A   1      33.906  31.277  27.606  1.00  0.00     0.202 C 
BRANCH   3   4
ATOM      4  C   UNL A   1      35.397  31.065  27.886  1.00  0.00     0.261 C 
BRANCH   4   5
ATOM      5  O   UNL A   1      35.629  30.900  29.295  1.00  0.00    -0.460 OA
BRANCH   5   6
ATOM      6  C   UNL A   1      36.485  30.057  29.922  1.00  0.00     0.338 C 
ATOM      7  O   UNL A   1      36.085  29.470  30.926  1.00  0.00    -0.246 OA
BRANCH   6   8
ATOM      8  C   UNL A   1      37.888  29.786  29.472  1.00  0.00     0.060 A 
ATOM      9  C   UNL A   1      38.319  29.761  28.146  1.00  0.00     0.016 A 
ATOM     10  C   UNL A   1      38.862  29.622  30.473  1.00  0.00     0.016 A 
ATOM     11  C   UNL A   1      39.644  29.574  27.807  1.00  0.00     0.010 A 
ATOM     12  C   UNL A   1      40.208  29.420  30.147  1.00  0.00     0.010 A 
ATOM     13  C   UNL A   1      40.590  29.384  28.804  1.00  0.00    -0.014 A 
BRANCH  13  14
ATOM     14  C   UNL A   1      41.916  28.955  28.344  1.00  0.00     0.031 A 
ATOM     15  C   UNL A   1      43.040  29.934  28.490  1.00  0.00     0.074 A 
ATOM     16  C   UNL A   1      42.119  27.660  28.048  1.00  0.00     0.049 A 
ATOM     17  N   UNL A   1      44.307  29.783  28.226  1.00  0.00    -0.248 NA
ATOM     18  C   UNL A   1      42.692  31.257  29.042  1.00  0.00     0.031 C 
ATOM     19  C   UNL A   1      41.085  26.619  28.071  1.00  0.00     0.029 A 
ATOM     20  N   UNL A   1      43.264  26.984  27.732  1.00  0.00    -0.354 N 
ATOM     21  C   UNL A   1      44.899  30.999  28.542  1.00  0.00     0.074 A 
ATOM     22  C   UNL A   1      43.862  31.875  29.029  1.00  0.00     0.031 C 
ATOM     23  C   UNL A   1      41.653  25.431  27.809  1.00  0.00     0.029 A 
ATOM     24  C   UNL A   1      43.070  25.637  27.536  1.00  0.00     0.049 A 
ATOM     25  H   UNL A   1      44.143  27.420  27.653  1.00  0.00     0.167 HD
ATOM     26  C   UNL A   1      46.199  31.345  28.414  1.00  0.00     0.037 A 
ATOM     27  C   UNL A   1      43.949  24.693  27.151  1.00  0.00     0.037 A 
ATOM     28  C   UNL A   1      47.198  30.433  27.924  1.00  0.00     0.049 A 
ATOM     29  C   UNL A   1      45.370  25.130  26.914  1.00  0.00     0.074 A 
ATOM     30  C   UNL A   1      48.533  30.667  27.665  1.00  0.00     0.029 A 
ATOM     31  N   UNL A   1      46.953  29.098  27.620  1.00  0.00    -0.354 N 
ATOM     32  N   UNL A   1      45.913  26.310  27.116  1.00  0.00    -0.248 NA
ATOM     33  C   UNL A   1      46.293  24.124  26.383  1.00  0.00     0.031 C 
ATOM     34  C   UNL A   1      49.085  29.485  27.158  1.00  0.00     0.029 A 
ATOM     35  C   UNL A   1      48.108  28.499  27.156  1.00  0.00     0.049 A 
ATOM     36  H   UNL A   1      46.084  28.647  27.721  1.00  0.00     0.167 HD
ATOM     37  C   UNL A   1      47.247  26.184  26.756  1.00  0.00     0.074 A 
ATOM     38  C   UNL A   1      47.430  24.807  26.338  1.00  0.00     0.031 C 
ATOM     39  C   UNL A   1      48.234  27.116  26.763  1.00  0.00     0.037 A 
BRANCH  26  40
ATOM     40  C   UNL A   1      46.559  32.774  28.701  1.00  0.00     0.058 A 
ATOM     41  C   UNL A   1      46.498  33.780  27.723  1.00  0.00     0.135 A 
ATOM     42  C   UNL A   1      47.035  33.129  29.974  1.00  0.00     0.135 A 
ATOM     43  F   UNL A   1      46.089  33.489  26.478  1.00  0.00    -0.206 F 
ATOM     44  C   UNL A   1      46.928  35.078  27.987  1.00  0.00     0.059 A 
ATOM     45  C   UNL A   1      47.446  34.425  30.268  1.00  0.00     0.059 A 
ATOM     46  F   UNL A   1      47.131  32.204  30.941  1.00  0.00    -0.206 F 
ATOM     47  C   UNL A   1      47.406  35.389  29.262  1.00  0.00     0.060 A 
BRANCH  47  48
ATOM     48  S   UNL A   1      47.992  37.066  29.585  1.00  0.00     0.124 S 
ATOM     49  O   UNL A   1      49.434  36.907  29.430  1.00  0.00    -0.237 OA
ATOM     50  O   UNL A   1      47.324  37.836  28.540  1.00  0.00    -0.237 OA
ATOM     51  O   UNL A   1      47.533  37.332  30.945  1.00  0.00    -0.744 OA
ENDBRANCH  47  48
ENDBRANCH  26  40
BRANCH  27  52
ATOM     52  C   UNL A   1      43.505  23.290  26.919  1.00  0.00     0.058 A 
ATOM     53  C   UNL A   1      43.155  22.444  27.980  1.00  0.00     0.135 A 
ATOM     54  C   UNL A   1      43.429  22.762  25.618  1.00  0.00     0.135 A 
ATOM     55  F   UNL A   1      43.216  22.893  29.244  1.00  0.00    -0.206 F 
ATOM     56  C   UNL A   1      42.761  21.125  27.766  1.00  0.00     0.059 A 
ATOM     57  C   UNL A   1      43.010  21.457  25.376  1.00  0.00     0.059 A 
ATOM     58  F   UNL A   1      43.745  23.525  24.561  1.00  0.00    -0.206 F 
ATOM     59  C   UNL A   1      42.692  20.640  26.458  1.00  0.00     0.060 A 
BRANCH  59  60
ATOM     60  S   UNL A   1      42.159  18.936  26.186  1.00  0.00     0.124 S 
ATOM     61  O   UNL A   1      40.757  19.119  25.829  1.00  0.00    -0.237 OA
ATOM     62  O   UNL A   1      43.043  18.505  25.107  1.00  0.00    -0.237 OA
ATOM     63  O   UNL A   1      42.403  18.298  27.477  1.00  0.00    -0.744 OA
ENDBRANCH  59  60
ENDBRANCH  27  52
BRANCH  39  64
ATOM     64  C   UNL A   1      49.600  26.651  26.350  1.00  0.00     0.058 A 
ATOM     65  C   UNL A   1      50.467  26.016  27.252  1.00  0.00     0.135 A 
ATOM     66  C   UNL A   1      50.019  26.800  25.018  1.00  0.00     0.135 A 
ATOM     67  F   UNL A   1      50.111  25.857  28.536  1.00  0.00    -0.206 F 
ATOM     68  C   UNL A   1      51.719  25.566  26.851  1.00  0.00     0.059 A 
ATOM     69  C   UNL A   1      51.252  26.330  24.590  1.00  0.00     0.059 A 
ATOM     70  F   UNL A   1      49.215  27.389  24.118  1.00  0.00    -0.206 F 
ATOM     71  C   UNL A   1      52.102  25.727  25.517  1.00  0.00     0.060 A 
BRANCH  71  72
ATOM     72  S   UNL A   1      53.716  25.111  25.001  1.00  0.00     0.124 S 
ATOM     73  O   UNL A   1      53.678  25.360  23.564  1.00  0.00    -0.237 OA
ATOM     74  O   UNL A   1      54.631  25.951  25.767  1.00  0.00    -0.237 OA
ATOM     75  O   UNL A   1      53.684  23.706  25.397  1.00  0.00    -0.744 OA
ENDBRANCH  71  72
ENDBRANCH  39  64
ENDBRANCH  13  14
ENDBRANCH   6   8
ENDBRANCH   5   6
ENDBRANCH   4   5
ENDBRANCH   3   4
ENDBRANCH   2   3
ENDBRANCH   1   2
BRANCH   1  76
ATOM     76  C   UNL A   1      33.888  28.202  25.698  1.00  0.00     0.261 C 
BRANCH  76  77
ATOM     77  O   UNL A   1      32.555  28.335  25.205  1.00  0.00    -0.460 OA
BRANCH  77  78
ATOM     78  C   UNL A   1      32.380  28.867  23.971  1.00  0.00     0.338 C 
ATOM     79  O   UNL A   1      33.222  29.124  23.132  1.00  0.00    -0.246 OA
BRANCH  78  80
ATOM     80  C   UNL A   1      30.917  28.973  23.765  1.00  0.00     0.071 A 
ATOM     81  C   UNL A   1      30.343  30.245  23.870  1.00  0.00     0.016 A 
ATOM     82  C   UNL A   1      30.154  27.859  23.359  1.00  0.00     0.032 A 
ATOM     83  C   UNL A   1      29.012  30.428  23.508  1.00  0.00     0.001 A 
ATOM     84  C   UNL A   1      28.819  28.060  22.997  1.00  0.00     0.013 A 
ATOM     85  C   UNL A   1      28.256  29.341  23.063  1.00  0.00     0.001 A 
BRANCH  82  86
ATOM     86  C   UNL A   1      30.768  26.540  23.318  1.00  0.00     0.135 A 
ATOM     87  C   UNL A   1      31.424  25.869  22.308  1.00  0.00     0.051 A 
ATOM     88  O   UNL A   1      30.498  25.695  24.353  1.00  0.00    -0.457 OA
ATOM     89  C   UNL A   1      31.415  24.516  22.683  1.00  0.00     0.051 A 
ATOM     90  C   UNL A   1      30.940  24.446  23.988  1.00  0.00     0.128 A 
BRANCH  90  91
ATOM     91  C   UNL A   1      30.983  23.309  24.836  1.00  0.00     0.068 C 
ATOM     92  C   UNL A   1      32.185  22.787  25.115  1.00  0.00     0.084 C 
ATOM     93  S   UNL A   1      32.486  21.184  25.647  1.00  0.00    -0.054 SA
ATOM     94  C   UNL A   1      33.482  23.435  24.780  1.00  0.00     0.266 C 
ATOM     95  C   UNL A   1      34.125  21.206  24.964  1.00  0.00     0.148 C 
ATOM     96  N   UNL A   1      34.431  22.473  24.519  1.00  0.00    -0.288 N 
ATOM     97  O   UNL A   1      33.680  24.641  24.803  1.00  0.00    -0.268 OA
ATOM     98  S   UNL A   1      35.087  19.844  24.936  1.00  0.00    -0.052 S 
BRANCH  96  99
ATOM     99  C   UNL A   1      35.690  22.906  23.916  1.00  0.00     0.163 C 
BRANCH  99 100
ATOM    100  C   UNL A   1      36.854  22.932  24.894  1.00  0.00    -0.028 A 
ATOM    101  C   UNL A   1      37.092  24.065  25.684  1.00  0.00     0.005 A 
ATOM    102  C   UNL A   1      37.763  21.864  24.979  1.00  0.00     0.005 A 
ATOM    103  C   UNL A   1      38.202  24.125  26.532  1.00  0.00     0.000 A 
ATOM    104  C   UNL A   1      38.858  21.913  25.847  1.00  0.00     0.000 A 
ATOM    105  C   UNL A   1      39.081  23.048  26.619  1.00  0.00     0.000 A 
ENDBRANCH  99 100
ENDBRANCH  96  99
ENDBRANCH  90  91
ENDBRANCH  82  86
ENDBRANCH  78  80
ENDBRANCH  77  78
ENDBRANCH  76  77
ENDBRANCH   1  76
TORSDOF 21
ENDMDL
MODEL 3
REMARK VINA RESULT:     -11.8      6.524     11.936
REMARK SMILES O=C(OCCOCCOC(=O)c1ccccc1-c1ccc(/C=C2/SC(=S)N(Cc3ccccc3)C2=O)o1)c1ccc(-c2c3nc(c(-c4c(F)cc(S(=O)(=O)[O-])cc4F)c4ccc([nH]4)c(-c4c(F)cc(S(=O)(=O)[O-])cc4F)c4nc(c(-c5c(F)cc(S(=O)(=O)[O-])cc5F)c5ccc2[nH]5)C=C4)C=C3)cc1
REMARK SMILES IDX 7 1 6 2 5 3 4 4 3 5 2 6 1 7 38 8 39 9 103 10 40 11 102 12
REMARK SMILES IDX 41 13 42 14 43 15 96 16 44 17 101 18 95 19 97 20 45 21
REMARK SMILES IDX 100 22 94 23 93 24 46 26 80 27 59 28 79 29 60 30 63 31 78 32
REMARK SMILES IDX 98 33 61 34 62 35 77 37 99 38 64 39 47 40 48 41 57 42 49 43
REMARK SMILES IDX 50 44 56 45 58 46 51 47 52 48 53 49 54 50 55 51 81 52 82 53
REMARK SMILES IDX 91 54 83 55 84 56 90 57 92 58 85 59 86 60 87 61 88 62 89 63
REMARK SMILES IDX 65 64 66 65 75 66 67 67 68 68 74 69 76 70 69 71 70 72 71 73
REMARK SMILES IDX 72 74 73 75 8 76 9 77 10 78 11 79 12 80 13 81 17 82 14 83
REMARK SMILES IDX 16 84 15 85 18 86 19 87 37 88 20 89 21 90 22 91 23 92 24 93
REMARK SMILES IDX 35 94 25 95 27 96 36 97 26 98 28 99 29 100 30 101 34 102
REMARK SMILES IDX 31 103 33 104 32 105
REMARK H PARENT 97 25 63 36
REMARK Flexibility Score: inf
ROOT
ATOM      1  C   UNL A   1      38.771  20.730  25.538  1.00  0.00     0.202 C 
ENDROOT
BRANCH   1   2
ATOM      2  O   UNL A   1      39.970  21.199  26.161  1.00  0.00    -0.374 OA
BRANCH   2   3
ATOM      3  C   UNL A   1      39.875  22.456  26.831  1.00  0.00     0.202 C 
BRANCH   3   4
ATOM      4  C   UNL A   1      41.074  23.372  26.564  1.00  0.00     0.261 C 
BRANCH   4   5
ATOM      5  O   UNL A   1      40.633  24.667  26.120  1.00  0.00    -0.460 OA
BRANCH   5   6
ATOM      6  C   UNL A   1      41.263  25.861  26.231  1.00  0.00     0.338 C 
ATOM      7  O   UNL A   1      41.864  26.289  25.246  1.00  0.00    -0.246 OA
BRANCH   6   8
ATOM      8  C   UNL A   1      41.273  26.702  27.471  1.00  0.00     0.060 A 
ATOM      9  C   UNL A   1      40.582  26.412  28.647  1.00  0.00     0.016 A 
ATOM     10  C   UNL A   1      42.108  27.833  27.471  1.00  0.00     0.016 A 
ATOM     11  C   UNL A   1      40.694  27.197  29.777  1.00  0.00     0.010 A 
ATOM     12  C   UNL A   1      42.224  28.645  28.605  1.00  0.00     0.010 A 
ATOM     13  C   UNL A   1      41.499  28.326  29.755  1.00  0.00    -0.014 A 
BRANCH  13  14
ATOM     14  C   UNL A   1      41.365  29.221  30.910  1.00  0.00     0.031 A 
ATOM     15  C   UNL A   1      40.182  30.139  30.931  1.00  0.00     0.074 A 
ATOM     16  C   UNL A   1      42.143  29.020  31.989  1.00  0.00     0.049 A 
ATOM     17  N   UNL A   1      39.799  30.974  31.856  1.00  0.00    -0.248 NA
ATOM     18  C   UNL A   1      39.289  30.086  29.757  1.00  0.00     0.031 C 
ATOM     19  C   UNL A   1      43.197  28.004  32.088  1.00  0.00     0.029 A 
ATOM     20  N   UNL A   1      42.131  29.609  33.221  1.00  0.00    -0.354 N 
ATOM     21  C   UNL A   1      38.645  31.569  31.362  1.00  0.00     0.074 A 
ATOM     22  C   UNL A   1      38.380  30.997  30.064  1.00  0.00     0.031 C 
ATOM     23  C   UNL A   1      43.709  28.024  33.329  1.00  0.00     0.029 A 
ATOM     24  C   UNL A   1      43.069  29.094  34.085  1.00  0.00     0.049 A 
ATOM     25  H   UNL A   1      41.511  30.333  33.467  1.00  0.00     0.167 HD
ATOM     26  C   UNL A   1      37.892  32.526  31.948  1.00  0.00     0.037 A 
ATOM     27  C   UNL A   1      43.380  29.476  35.338  1.00  0.00     0.037 A 
ATOM     28  C   UNL A   1      38.198  33.063  33.247  1.00  0.00     0.049 A 
ATOM     29  C   UNL A   1      42.592  30.615  35.926  1.00  0.00     0.074 A 
ATOM     30  C   UNL A   1      37.574  34.089  33.929  1.00  0.00     0.029 A 
ATOM     31  N   UNL A   1      39.229  32.603  34.059  1.00  0.00    -0.354 N 
ATOM     32  N   UNL A   1      41.561  31.253  35.417  1.00  0.00    -0.248 NA
ATOM     33  C   UNL A   1      43.014  31.103  37.242  1.00  0.00     0.031 C 
ATOM     34  C   UNL A   1      38.260  34.281  35.134  1.00  0.00     0.029 A 
ATOM     35  C   UNL A   1      39.273  33.337  35.229  1.00  0.00     0.049 A 
ATOM     36  H   UNL A   1      39.837  31.863  33.833  1.00  0.00     0.167 HD
ATOM     37  C   UNL A   1      41.196  32.204  36.360  1.00  0.00     0.074 A 
ATOM     38  C   UNL A   1      42.110  32.046  37.476  1.00  0.00     0.031 C 
ATOM     39  C   UNL A   1      40.202  33.127  36.314  1.00  0.00     0.037 A 
BRANCH  26  40
ATOM     40  C   UNL A   1      36.765  33.101  31.140  1.00  0.00     0.058 A 
ATOM     41  C   UNL A   1      36.974  34.009  30.090  1.00  0.00     0.135 A 
ATOM     42  C   UNL A   1      35.438  32.778  31.468  1.00  0.00     0.135 A 
ATOM     43  F   UNL A   1      38.220  34.385  29.758  1.00  0.00    -0.206 F 
ATOM     44  C   UNL A   1      35.909  34.602  29.418  1.00  0.00     0.059 A 
ATOM     45  C   UNL A   1      34.358  33.339  30.794  1.00  0.00     0.059 A 
ATOM     46  F   UNL A   1      35.179  31.930  32.475  1.00  0.00    -0.206 F 
ATOM     47  C   UNL A   1      34.603  34.265  29.782  1.00  0.00     0.060 A 
BRANCH  47  48
ATOM     48  S   UNL A   1      33.229  35.064  28.927  1.00  0.00     0.124 S 
ATOM     49  O   UNL A   1      32.817  34.019  27.996  1.00  0.00    -0.237 OA
ATOM     50  O   UNL A   1      32.301  35.342  30.019  1.00  0.00    -0.237 OA
ATOM     51  O   UNL A   1      33.844  36.240  28.318  1.00  0.00    -0.744 OA
ENDBRANCH  47  48
ENDBRANCH  26  40
BRANCH  27  52
ATOM     52  C   UNL A   1      44.498  28.825  36.075  1.00  0.00     0.058 A 
ATOM     53  C   UNL A   1      45.826  29.244  35.918  1.00  0.00     0.135 A 
ATOM     54  C   UNL A   1      44.257  27.756  36.957  1.00  0.00     0.135 A 
ATOM     55  F   UNL A   1      46.117  30.255  35.084  1.00  0.00    -0.206 F 
ATOM     56  C   UNL A   1      46.875  28.621  36.590  1.00  0.00     0.059 A 
ATOM     57  C   UNL A   1      45.284  27.137  37.663  1.00  0.00     0.059 A 
ATOM     58  F   UNL A   1      43.005  27.315  37.155  1.00  0.00    -0.206 F 
ATOM     59  C   UNL A   1      46.593  27.567  37.462  1.00  0.00     0.060 A 
BRANCH  59  60
ATOM     60  S   UNL A   1      47.956  26.778  38.347  1.00  0.00     0.124 S 
ATOM     61  O   UNL A   1      47.892  25.415  37.833  1.00  0.00    -0.237 OA
ATOM     62  O   UNL A   1      49.103  27.571  37.917  1.00  0.00    -0.237 OA
ATOM     63  O   UNL A   1      47.584  26.941  39.750  1.00  0.00    -0.744 OA
ENDBRANCH  59  60
ENDBRANCH  27  52
BRANCH  39  64
ATOM     64  C   UNL A   1      40.034  33.996  37.525  1.00  0.00     0.058 A 
ATOM     65  C   UNL A   1      40.709  35.220  37.653  1.00  0.00     0.135 A 
ATOM     66  C   UNL A   1      39.144  33.618  38.542  1.00  0.00     0.135 A 
ATOM     67  F   UNL A   1      41.574  35.619  36.708  1.00  0.00    -0.206 F 
ATOM     68  C   UNL A   1      40.526  36.029  38.768  1.00  0.00     0.059 A 
ATOM     69  C   UNL A   1      38.922  34.427  39.649  1.00  0.00     0.059 A 
ATOM     70  F   UNL A   1      38.467  32.463  38.453  1.00  0.00    -0.206 F 
ATOM     71  C   UNL A   1      39.628  35.624  39.760  1.00  0.00     0.060 A 
BRANCH  71  72
ATOM     72  S   UNL A   1      39.375  36.698  41.186  1.00  0.00     0.124 S 
ATOM     73  O   UNL A   1      38.783  37.877  40.562  1.00  0.00    -0.237 OA
ATOM     74  O   UNL A   1      38.478  35.904  42.020  1.00  0.00    -0.237 OA
ATOM     75  O   UNL A   1      40.722  36.876  41.719  1.00  0.00    -0.744 OA
ENDBRANCH  71  72
ENDBRANCH  39  64
ENDBRANCH  13  14
ENDBRANCH   6   8
ENDBRANCH   5   6
ENDBRANCH   4   5
ENDBRANCH   3   4
ENDBRANCH   2   3
ENDBRANCH   1   2
BRANCH   1  76
ATOM     76  C   UNL A   1      37.729  21.829  25.622  1.00  0.00     0.261 C 
BRANCH  76  77
ATOM     77  O   UNL A   1      36.569  21.328  24.957  1.00  0.00    -0.460 OA
BRANCH  77  78
ATOM     78  C   UNL A   1      35.447  21.131  25.691  1.00  0.00     0.338 C 
ATOM     79  O   UNL A   1      35.233  21.449  26.845  1.00  0.00    -0.246 OA
BRANCH  78  80
ATOM     80  C   UNL A   1      34.444  20.546  24.772  1.00  0.00     0.071 A 
ATOM     81  C   UNL A   1      34.478  19.160  24.580  1.00  0.00     0.016 A 
ATOM     82  C   UNL A   1      33.420  21.336  24.210  1.00  0.00     0.032 A 
ATOM     83  C   UNL A   1      33.450  18.541  23.875  1.00  0.00     0.001 A 
ATOM     84  C   UNL A   1      32.394  20.697  23.507  1.00  0.00     0.013 A 
ATOM     85  C   UNL A   1      32.406  19.306  23.349  1.00  0.00     0.001 A 
BRANCH  82  86
ATOM     86  C   UNL A   1      33.448  22.781  24.380  1.00  0.00     0.135 A 
ATOM     87  C   UNL A   1      34.127  23.768  23.698  1.00  0.00     0.051 A 
ATOM     88  O   UNL A   1      32.897  23.284  25.522  1.00  0.00    -0.457 OA
ATOM     89  C   UNL A   1      34.117  24.890  24.543  1.00  0.00     0.051 A 
ATOM     90  C   UNL A   1      33.266  24.605  25.606  1.00  0.00     0.128 A 
BRANCH  90  91
ATOM     91  C   UNL A   1      32.785  25.533  26.565  1.00  0.00     0.068 C 
ATOM     92  C   UNL A   1      32.064  26.571  26.119  1.00  0.00     0.084 C 
ATOM     93  S   UNL A   1      31.820  28.055  26.944  1.00  0.00    -0.054 SA
ATOM     94  C   UNL A   1      31.552  26.702  24.728  1.00  0.00     0.266 C 
ATOM     95  C   UNL A   1      31.565  28.926  25.418  1.00  0.00     0.148 C 
ATOM     96  N   UNL A   1      31.506  28.031  24.372  1.00  0.00    -0.288 N 
ATOM     97  O   UNL A   1      31.169  25.769  24.039  1.00  0.00    -0.268 OA
ATOM     98  S   UNL A   1      31.406  30.585  25.364  1.00  0.00    -0.052 S 
BRANCH  96  99
ATOM     99  C   UNL A   1      31.284  28.350  22.963  1.00  0.00     0.163 C 
BRANCH  99 100
ATOM    100  C   UNL A   1      29.907  28.927  22.680  1.00  0.00    -0.028 A 
ATOM    101  C   UNL A   1      29.772  30.115  21.948  1.00  0.00     0.005 A 
ATOM    102  C   UNL A   1      28.744  28.340  23.206  1.00  0.00     0.005 A 
ATOM    103  C   UNL A   1      28.514  30.692  21.746  1.00  0.00     0.000 A 
ATOM    104  C   UNL A   1      27.484  28.902  22.982  1.00  0.00     0.000 A 
ATOM    105  C   UNL A   1      27.370  30.083  22.257  1.00  0.00     0.000 A 
ENDBRANCH  99 100
ENDBRANCH  96  99
ENDBRANCH  90  91
ENDBRANCH  82  86
ENDBRANCH  78  80
ENDBRANCH  77  78
ENDBRANCH  76  77
ENDBRANCH   1  76
TORSDOF 21
ENDMDL
