MODEL 1
REMARK VINA RESULT:     -10.7      0.000      0.000
REMARK SMILES C[C@@H](Oc1ccc(-c2ccccc2)cc1)C(=O)N1CCC[C@H](C(=O)OCCOCCOC(=O)c2ccc(-c3c4nc(c(-c5c(F)cc(S(=O)(=O)[O-])cc5F)c5ccc([nH]5)c(-c5c(F)cc(S(=O)(=O)[O-])cc5F)c5nc(c(-c6c(F)cc(S(=O)(=O)[O-])cc6F)c6ccc3[nH]6)C=C5)C=C4)cc2)C1
REMARK SMILES IDX 27 1 26 2 25 3 23 4 24 5 22 6 18 7 19 8 100 9 20 10 21 11
REMARK SMILES IDX 16 12 17 13 2 14 1 15 3 16 4 17 5 18 15 19 6 20 14 21 7 22
REMARK SMILES IDX 8 23 9 24 13 25 10 26 12 27 11 28 28 29 29 30 30 31 31 32
REMARK SMILES IDX 32 33 33 34 34 35 35 36 99 37 36 38 98 39 37 40 38 41 39 42
REMARK SMILES IDX 92 43 40 44 97 45 91 46 93 47 41 48 96 49 90 50 89 51 42 53
REMARK SMILES IDX 76 54 55 55 75 56 56 57 59 58 74 59 94 60 57 61 58 62 73 64
REMARK SMILES IDX 95 65 60 66 43 67 44 68 53 69 45 70 46 71 52 72 54 73 47 74
REMARK SMILES IDX 48 75 49 76 50 77 51 78 77 79 78 80 87 81 79 82 80 83 86 84
REMARK SMILES IDX 88 85 81 86 82 87 83 88 84 89 85 90 61 91 62 92 71 93 63 94
REMARK SMILES IDX 64 95 70 96 72 97 65 98 66 99 67 100 68 101 69 102
REMARK H PARENT 93 52 59 63
REMARK Flexibility Score: inf
ROOT
ATOM      1  C   UNL A   1      37.827  23.584  26.117  1.00  0.00     0.202 C 
ENDROOT
BRANCH   1   2
ATOM      2  C   UNL A   1      36.310  23.398  26.040  1.00  0.00     0.261 C 
BRANCH   2   3
ATOM      3  O   UNL A   1      35.934  22.065  26.429  1.00  0.00    -0.463 OA
BRANCH   3   4
ATOM      4  C   UNL A   1      35.086  21.392  25.615  1.00  0.00     0.310 C 
ATOM      5  O   UNL A   1      35.213  21.286  24.399  1.00  0.00    -0.252 OA
BRANCH   4   6
ATOM      6  C   UNL A   1      33.897  20.804  26.358  1.00  0.00     0.119 C 
ATOM      7  N   UNL A   1      32.116  21.625  24.893  1.00  0.00    -0.339 N 
ATOM      8  C   UNL A   1      31.439  22.365  25.953  1.00  0.00     0.119 C 
ATOM      9  C   UNL A   1      32.823  20.427  25.341  1.00  0.00     0.134 C 
ATOM     10  C   UNL A   1      32.422  22.808  27.030  1.00  0.00     0.022 C 
ATOM     11  C   UNL A   1      33.316  21.656  27.499  1.00  0.00     0.019 C 
BRANCH   7  12
ATOM     12  C   UNL A   1      32.164  22.165  23.611  1.00  0.00     0.263 C 
ATOM     13  O   UNL A   1      31.685  21.560  22.647  1.00  0.00    -0.271 OA
BRANCH  12  14
ATOM     14  C   UNL A   1      32.822  23.543  23.389  1.00  0.00     0.259 C 
ATOM     15  C   UNL A   1      33.485  23.633  22.017  1.00  0.00     0.064 C 
BRANCH  14  16
ATOM     16  O   UNL A   1      31.812  24.541  23.581  1.00  0.00    -0.481 OA
BRANCH  16  17
ATOM     17  C   UNL A   1      32.179  25.542  24.427  1.00  0.00     0.120 A 
ATOM     18  C   UNL A   1      31.379  26.674  24.543  1.00  0.00     0.047 A 
ATOM     19  C   UNL A   1      33.432  25.494  25.023  1.00  0.00     0.047 A 
ATOM     20  C   UNL A   1      31.846  27.776  25.266  1.00  0.00     0.012 A 
ATOM     21  C   UNL A   1      33.889  26.588  25.752  1.00  0.00     0.012 A 
ATOM     22  C   UNL A   1      33.117  27.758  25.866  1.00  0.00    -0.018 A 
BRANCH  22  23
ATOM     23  C   UNL A   1      33.667  28.937  26.555  1.00  0.00    -0.018 A 
ATOM     24  C   UNL A   1      32.869  30.046  26.870  1.00  0.00     0.009 A 
ATOM     25  C   UNL A   1      35.023  28.970  26.931  1.00  0.00     0.009 A 
ATOM     26  C   UNL A   1      33.403  31.141  27.555  1.00  0.00     0.001 A 
ATOM     27  C   UNL A   1      35.558  30.063  27.616  1.00  0.00     0.001 A 
ATOM     28  C   UNL A   1      34.745  31.147  27.931  1.00  0.00     0.000 A 
ENDBRANCH  22  23
ENDBRANCH  16  17
ENDBRANCH  14  16
ENDBRANCH  12  14
ENDBRANCH   7  12
ENDBRANCH   4   6
ENDBRANCH   3   4
ENDBRANCH   2   3
ENDBRANCH   1   2
BRANCH   1  29
ATOM     29  O   UNL A   1      38.603  22.384  26.101  1.00  0.00    -0.374 OA
BRANCH  29  30
ATOM     30  C   UNL A   1      39.773  22.354  26.914  1.00  0.00     0.202 C 
BRANCH  30  31
ATOM     31  C   UNL A   1      41.082  22.804  26.253  1.00  0.00     0.261 C 
BRANCH  31  32
ATOM     32  O   UNL A   1      41.182  24.234  26.121  1.00  0.00    -0.460 OA
BRANCH  32  33
ATOM     33  C   UNL A   1      42.217  24.792  26.794  1.00  0.00     0.338 C 
ATOM     34  O   UNL A   1      43.408  24.542  26.648  1.00  0.00    -0.246 OA
BRANCH  33  35
ATOM     35  C   UNL A   1      41.748  25.895  27.651  1.00  0.00     0.060 A 
ATOM     36  C   UNL A   1      42.542  27.047  27.719  1.00  0.00     0.016 A 
ATOM     37  C   UNL A   1      40.607  25.773  28.446  1.00  0.00     0.016 A 
ATOM     38  C   UNL A   1      42.226  28.064  28.619  1.00  0.00     0.010 A 
ATOM     39  C   UNL A   1      40.297  26.790  29.357  1.00  0.00     0.010 A 
ATOM     40  C   UNL A   1      41.124  27.924  29.471  1.00  0.00    -0.014 A 
BRANCH  40  41
ATOM     41  C   UNL A   1      40.919  28.887  30.581  1.00  0.00     0.031 A 
ATOM     42  C   UNL A   1      41.766  28.763  31.818  1.00  0.00     0.074 A 
ATOM     43  C   UNL A   1      39.999  29.864  30.486  1.00  0.00     0.049 A 
ATOM     44  N   UNL A   1      41.699  29.429  32.941  1.00  0.00    -0.248 NA
ATOM     45  C   UNL A   1      42.833  27.748  31.784  1.00  0.00     0.031 C 
ATOM     46  C   UNL A   1      39.153  30.117  29.322  1.00  0.00     0.029 A 
ATOM     47  N   UNL A   1      39.614  30.818  31.396  1.00  0.00    -0.354 N 
ATOM     48  C   UNL A   1      42.699  28.907  33.754  1.00  0.00     0.074 A 
ATOM     49  C   UNL A   1      43.348  27.855  33.001  1.00  0.00     0.031 C 
ATOM     50  C   UNL A   1      38.334  31.148  29.593  1.00  0.00     0.029 A 
ATOM     51  C   UNL A   1      38.569  31.600  30.964  1.00  0.00     0.049 A 
ATOM     52  H   UNL A   1      40.045  30.931  32.274  1.00  0.00     0.167 HD
ATOM     53  C   UNL A   1      43.045  29.274  35.010  1.00  0.00     0.037 A 
ATOM     54  C   UNL A   1      37.863  32.548  31.612  1.00  0.00     0.037 A 
ATOM     55  C   UNL A   1      42.399  30.326  35.749  1.00  0.00     0.049 A 
ATOM     56  C   UNL A   1      38.218  32.890  33.037  1.00  0.00     0.074 A 
ATOM     57  C   UNL A   1      42.686  30.783  37.024  1.00  0.00     0.029 A 
ATOM     58  N   UNL A   1      41.332  31.081  35.284  1.00  0.00    -0.354 N 
ATOM     59  N   UNL A   1      39.171  32.396  33.791  1.00  0.00    -0.248 NA
ATOM     60  C   UNL A   1      37.400  33.916  33.703  1.00  0.00     0.031 C 
ATOM     61  C   UNL A   1      41.764  31.782  37.347  1.00  0.00     0.029 A 
ATOM     62  C   UNL A   1      40.934  31.984  36.255  1.00  0.00     0.049 A 
ATOM     63  H   UNL A   1      40.919  30.988  34.395  1.00  0.00     0.167 HD
ATOM     64  C   UNL A   1      39.087  33.070  35.005  1.00  0.00     0.074 A 
ATOM     65  C   UNL A   1      37.990  34.008  34.887  1.00  0.00     0.031 C 
ATOM     66  C   UNL A   1      39.852  32.928  36.115  1.00  0.00     0.037 A 
BRANCH  53  67
ATOM     67  C   UNL A   1      44.156  28.512  35.678  1.00  0.00     0.058 A 
ATOM     68  C   UNL A   1      45.497  28.911  35.570  1.00  0.00     0.135 A 
ATOM     69  C   UNL A   1      43.869  27.388  36.469  1.00  0.00     0.135 A 
ATOM     70  F   UNL A   1      45.829  29.969  34.814  1.00  0.00    -0.206 F 
ATOM     71  C   UNL A   1      46.517  28.208  36.203  1.00  0.00     0.059 A 
ATOM     72  C   UNL A   1      44.871  26.684  37.132  1.00  0.00     0.059 A 
ATOM     73  F   UNL A   1      42.603  26.962  36.605  1.00  0.00    -0.206 F 
ATOM     74  C   UNL A   1      46.194  27.093  36.981  1.00  0.00     0.060 A 
BRANCH  74  75
ATOM     75  S   UNL A   1      47.528  26.191  37.797  1.00  0.00     0.124 S 
ATOM     76  O   UNL A   1      48.686  26.617  37.016  1.00  0.00    -0.237 OA
ATOM     77  O   UNL A   1      47.463  26.702  39.162  1.00  0.00    -0.237 OA
ATOM     78  O   UNL A   1      47.143  24.793  37.635  1.00  0.00    -0.744 OA
ENDBRANCH  74  75
ENDBRANCH  53  67
BRANCH  54  79
ATOM     79  C   UNL A   1      36.729  33.225  30.927  1.00  0.00     0.058 A 
ATOM     80  C   UNL A   1      36.953  34.190  29.935  1.00  0.00     0.135 A 
ATOM     81  C   UNL A   1      35.398  32.916  31.249  1.00  0.00     0.135 A 
ATOM     82  F   UNL A   1      38.208  34.531  29.602  1.00  0.00    -0.206 F 
ATOM     83  C   UNL A   1      35.899  34.833  29.291  1.00  0.00     0.059 A 
ATOM     84  C   UNL A   1      34.327  33.525  30.602  1.00  0.00     0.059 A 
ATOM     85  F   UNL A   1      35.130  31.997  32.189  1.00  0.00    -0.206 F 
ATOM     86  C   UNL A   1      34.588  34.490  29.630  1.00  0.00     0.060 A 
BRANCH  86  87
ATOM     87  S   UNL A   1      33.227  35.296  28.757  1.00  0.00     0.124 S 
ATOM     88  O   UNL A   1      33.943  36.238  27.904  1.00  0.00    -0.237 OA
ATOM     89  O   UNL A   1      32.592  34.173  28.074  1.00  0.00    -0.237 OA
ATOM     90  O   UNL A   1      32.442  35.891  29.834  1.00  0.00    -0.744 OA
ENDBRANCH  86  87
ENDBRANCH  54  79
BRANCH  66  91
ATOM     91  C   UNL A   1      39.575  33.831  37.284  1.00  0.00     0.058 A 
ATOM     92  C   UNL A   1      38.739  33.438  38.340  1.00  0.00     0.135 A 
ATOM     93  C   UNL A   1      40.236  35.066  37.395  1.00  0.00     0.135 A 
ATOM     94  F   UNL A   1      38.079  32.271  38.281  1.00  0.00    -0.206 F 
ATOM     95  C   UNL A   1      38.567  34.238  39.467  1.00  0.00     0.059 A 
ATOM     96  C   UNL A   1      40.097  35.871  38.522  1.00  0.00     0.059 A 
ATOM     97  F   UNL A   1      41.053  35.484  36.416  1.00  0.00    -0.206 F 
ATOM     98  C   UNL A   1      39.258  35.449  39.552  1.00  0.00     0.060 A 
BRANCH  98  99
ATOM     99  S   UNL A   1      39.085  36.441  41.051  1.00  0.00     0.124 S 
ATOM    100  O   UNL A   1      40.413  36.315  41.643  1.00  0.00    -0.237 OA
ATOM    101  O   UNL A   1      38.752  37.759  40.517  1.00  0.00    -0.237 OA
ATOM    102  O   UNL A   1      38.008  35.776  41.777  1.00  0.00    -0.744 OA
ENDBRANCH  98  99
ENDBRANCH  66  91
ENDBRANCH  40  41
ENDBRANCH  33  35
ENDBRANCH  32  33
ENDBRANCH  31  32
ENDBRANCH  30  31
ENDBRANCH  29  30
ENDBRANCH   1  29
TORSDOF 22
ENDMDL
MODEL 2
REMARK VINA RESULT:     -10.6      1.632      2.621
REMARK SMILES C[C@@H](Oc1ccc(-c2ccccc2)cc1)C(=O)N1CCC[C@H](C(=O)OCCOCCOC(=O)c2ccc(-c3c4nc(c(-c5c(F)cc(S(=O)(=O)[O-])cc5F)c5ccc([nH]5)c(-c5c(F)cc(S(=O)(=O)[O-])cc5F)c5nc(c(-c6c(F)cc(S(=O)(=O)[O-])cc6F)c6ccc3[nH]6)C=C5)C=C4)cc2)C1
REMARK SMILES IDX 27 1 26 2 25 3 23 4 24 5 22 6 18 7 19 8 100 9 20 10 21 11
REMARK SMILES IDX 16 12 17 13 2 14 1 15 3 16 4 17 5 18 15 19 6 20 14 21 7 22
REMARK SMILES IDX 8 23 9 24 13 25 10 26 12 27 11 28 28 29 29 30 30 31 31 32
REMARK SMILES IDX 32 33 33 34 34 35 35 36 99 37 36 38 98 39 37 40 38 41 39 42
REMARK SMILES IDX 92 43 40 44 97 45 91 46 93 47 41 48 96 49 90 50 89 51 42 53
REMARK SMILES IDX 76 54 55 55 75 56 56 57 59 58 74 59 94 60 57 61 58 62 73 64
REMARK SMILES IDX 95 65 60 66 43 67 44 68 53 69 45 70 46 71 52 72 54 73 47 74
REMARK SMILES IDX 48 75 49 76 50 77 51 78 77 79 78 80 87 81 79 82 80 83 86 84
REMARK SMILES IDX 88 85 81 86 82 87 83 88 84 89 85 90 61 91 62 92 71 93 63 94
REMARK SMILES IDX 64 95 70 96 72 97 65 98 66 99 67 100 68 101 69 102
REMARK H PARENT 93 52 59 63
REMARK Flexibility Score: inf
ROOT
ATOM      1  C   UNL A   1      37.987  23.709  26.028  1.00  0.00     0.202 C 
ENDROOT
BRANCH   1   2
ATOM      2  C   UNL A   1      36.508  23.710  25.634  1.00  0.00     0.261 C 
BRANCH   2   3
ATOM      3  O   UNL A   1      35.897  22.441  25.929  1.00  0.00    -0.463 OA
BRANCH   3   4
ATOM      4  C   UNL A   1      34.935  21.999  25.084  1.00  0.00     0.310 C 
ATOM      5  O   UNL A   1      34.867  22.273  23.891  1.00  0.00    -0.252 OA
BRANCH   4   6
ATOM      6  C   UNL A   1      33.884  21.149  25.780  1.00  0.00     0.119 C 
ATOM      7  N   UNL A   1      31.941  22.587  25.390  1.00  0.00    -0.339 N 
ATOM      8  C   UNL A   1      31.645  22.752  26.809  1.00  0.00     0.119 C 
ATOM      9  C   UNL A   1      32.558  21.309  25.041  1.00  0.00     0.134 C 
ATOM     10  C   UNL A   1      32.906  22.623  27.654  1.00  0.00     0.022 C 
ATOM     11  C   UNL A   1      33.714  21.373  27.292  1.00  0.00     0.019 C 
BRANCH   7  12
ATOM     12  C   UNL A   1      31.762  23.664  24.528  1.00  0.00     0.263 C 
ATOM     13  O   UNL A   1      31.129  23.538  23.475  1.00  0.00    -0.271 OA
BRANCH  12  14
ATOM     14  C   UNL A   1      32.358  25.039  24.893  1.00  0.00     0.259 C 
ATOM     15  C   UNL A   1      32.980  25.721  23.676  1.00  0.00     0.064 C 
BRANCH  14  16
ATOM     16  O   UNL A   1      31.315  25.820  25.490  1.00  0.00    -0.481 OA
BRANCH  16  17
ATOM     17  C   UNL A   1      30.923  26.884  24.739  1.00  0.00     0.120 A 
ATOM     18  C   UNL A   1      31.466  28.140  24.987  1.00  0.00     0.047 A 
ATOM     19  C   UNL A   1      29.860  26.731  23.859  1.00  0.00     0.047 A 
ATOM     20  C   UNL A   1      30.931  29.261  24.344  1.00  0.00     0.012 A 
ATOM     21  C   UNL A   1      29.337  27.848  23.211  1.00  0.00     0.012 A 
ATOM     22  C   UNL A   1      29.845  29.135  23.461  1.00  0.00    -0.018 A 
BRANCH  22  23
ATOM     23  C   UNL A   1      29.207  30.309  22.842  1.00  0.00    -0.018 A 
ATOM     24  C   UNL A   1      29.122  31.539  23.509  1.00  0.00     0.009 A 
ATOM     25  C   UNL A   1      28.676  30.224  21.542  1.00  0.00     0.009 A 
ATOM     26  C   UNL A   1      28.542  32.651  22.891  1.00  0.00     0.001 A 
ATOM     27  C   UNL A   1      28.098  31.334  20.922  1.00  0.00     0.001 A 
ATOM     28  C   UNL A   1      28.035  32.548  21.597  1.00  0.00     0.000 A 
ENDBRANCH  22  23
ENDBRANCH  16  17
ENDBRANCH  14  16
ENDBRANCH  12  14
ENDBRANCH   7  12
ENDBRANCH   4   6
ENDBRANCH   3   4
ENDBRANCH   2   3
ENDBRANCH   1   2
BRANCH   1  29
ATOM     29  O   UNL A   1      38.689  22.483  25.809  1.00  0.00    -0.374 OA
BRANCH  29  30
ATOM     30  C   UNL A   1      39.733  22.158  26.722  1.00  0.00     0.202 C 
BRANCH  30  31
ATOM     31  C   UNL A   1      41.166  22.466  26.269  1.00  0.00     0.261 C 
BRANCH  31  32
ATOM     32  O   UNL A   1      41.473  23.872  26.289  1.00  0.00    -0.460 OA
BRANCH  32  33
ATOM     33  C   UNL A   1      42.451  24.224  27.159  1.00  0.00     0.338 C 
ATOM     34  O   UNL A   1      43.570  23.732  27.243  1.00  0.00    -0.246 OA
BRANCH  33  35
ATOM     35  C   UNL A   1      42.061  25.420  27.925  1.00  0.00     0.060 A 
ATOM     36  C   UNL A   1      43.075  26.316  28.289  1.00  0.00     0.016 A 
ATOM     37  C   UNL A   1      40.751  25.618  28.363  1.00  0.00     0.016 A 
ATOM     38  C   UNL A   1      42.793  27.389  29.133  1.00  0.00     0.010 A 
ATOM     39  C   UNL A   1      40.471  26.690  29.219  1.00  0.00     0.010 A 
ATOM     40  C   UNL A   1      41.497  27.559  29.635  1.00  0.00    -0.014 A 
BRANCH  40  41
ATOM     41  C   UNL A   1      41.242  28.553  30.707  1.00  0.00     0.031 A 
ATOM     42  C   UNL A   1      42.071  28.496  31.962  1.00  0.00     0.074 A 
ATOM     43  C   UNL A   1      40.295  29.497  30.564  1.00  0.00     0.049 A 
ATOM     44  N   UNL A   1      41.963  29.198  33.061  1.00  0.00    -0.248 NA
ATOM     45  C   UNL A   1      43.168  27.514  31.982  1.00  0.00     0.031 C 
ATOM     46  C   UNL A   1      39.463  29.685  29.377  1.00  0.00     0.029 A 
ATOM     47  N   UNL A   1      39.865  30.469  31.434  1.00  0.00    -0.354 N 
ATOM     48  C   UNL A   1      42.963  28.734  33.907  1.00  0.00     0.074 A 
ATOM     49  C   UNL A   1      43.658  27.678  33.202  1.00  0.00     0.031 C 
ATOM     50  C   UNL A   1      38.609  30.698  29.599  1.00  0.00     0.029 A 
ATOM     51  C   UNL A   1      38.806  31.203  30.958  1.00  0.00     0.049 A 
ATOM     52  H   UNL A   1      40.277  30.625  32.314  1.00  0.00     0.167 HD
ATOM     53  C   UNL A   1      43.276  29.154  35.156  1.00  0.00     0.037 A 
ATOM     54  C   UNL A   1      38.059  32.150  31.561  1.00  0.00     0.037 A 
ATOM     55  C   UNL A   1      42.585  30.210  35.848  1.00  0.00     0.049 A 
ATOM     56  C   UNL A   1      38.378  32.551  32.979  1.00  0.00     0.074 A 
ATOM     57  C   UNL A   1      42.835  30.718  37.111  1.00  0.00     0.029 A 
ATOM     58  N   UNL A   1      41.505  30.915  35.340  1.00  0.00    -0.354 N 
ATOM     59  N   UNL A   1      39.332  32.112  33.766  1.00  0.00    -0.248 NA
ATOM     60  C   UNL A   1      37.518  33.573  33.595  1.00  0.00     0.031 C 
ATOM     61  C   UNL A   1      41.878  31.698  37.384  1.00  0.00     0.029 A 
ATOM     62  C   UNL A   1      41.062  31.838  36.272  1.00  0.00     0.049 A 
ATOM     63  H   UNL A   1      41.111  30.780  34.447  1.00  0.00     0.167 HD
ATOM     64  C   UNL A   1      39.206  32.824  34.955  1.00  0.00     0.074 A 
ATOM     65  C   UNL A   1      38.084  33.724  34.785  1.00  0.00     0.031 C 
ATOM     66  C   UNL A   1      39.954  32.743  36.081  1.00  0.00     0.037 A 
BRANCH  53  67
ATOM     67  C   UNL A   1      44.397  28.449  35.869  1.00  0.00     0.058 A 
ATOM     68  C   UNL A   1      44.169  27.326  36.680  1.00  0.00     0.135 A 
ATOM     69  C   UNL A   1      45.723  28.883  35.708  1.00  0.00     0.135 A 
ATOM     70  F   UNL A   1      42.920  26.880  36.881  1.00  0.00    -0.206 F 
ATOM     71  C   UNL A   1      45.214  26.673  37.326  1.00  0.00     0.059 A 
ATOM     72  C   UNL A   1      46.786  28.229  36.324  1.00  0.00     0.059 A 
ATOM     73  F   UNL A   1      45.997  29.953  34.945  1.00  0.00    -0.206 F 
ATOM     74  C   UNL A   1      46.520  27.134  37.143  1.00  0.00     0.060 A 
BRANCH  74  75
ATOM     75  S   UNL A   1      47.866  26.275  37.987  1.00  0.00     0.124 S 
ATOM     76  O   UNL A   1      47.630  26.661  39.375  1.00  0.00    -0.237 OA
ATOM     77  O   UNL A   1      47.597  24.877  37.664  1.00  0.00    -0.237 OA
ATOM     78  O   UNL A   1      49.066  26.838  37.375  1.00  0.00    -0.744 OA
ENDBRANCH  74  75
ENDBRANCH  53  67
BRANCH  54  79
ATOM     79  C   UNL A   1      36.918  32.768  30.834  1.00  0.00     0.058 A 
ATOM     80  C   UNL A   1      35.593  32.419  31.131  1.00  0.00     0.135 A 
ATOM     81  C   UNL A   1      37.131  33.725  29.829  1.00  0.00     0.135 A 
ATOM     82  F   UNL A   1      35.337  31.497  32.072  1.00  0.00    -0.206 F 
ATOM     83  C   UNL A   1      34.519  32.987  30.452  1.00  0.00     0.059 A 
ATOM     84  C   UNL A   1      36.074  34.328  29.154  1.00  0.00     0.059 A 
ATOM     85  F   UNL A   1      38.381  34.097  29.510  1.00  0.00    -0.206 F 
ATOM     86  C   UNL A   1      34.770  33.945  29.467  1.00  0.00     0.060 A 
BRANCH  86  87
ATOM     87  S   UNL A   1      33.368  34.712  28.624  1.00  0.00     0.124 S 
ATOM     88  O   UNL A   1      32.458  34.962  29.736  1.00  0.00    -0.237 OA
ATOM     89  O   UNL A   1      33.980  35.894  28.023  1.00  0.00    -0.237 OA
ATOM     90  O   UNL A   1      32.942  33.686  27.677  1.00  0.00    -0.744 OA
ENDBRANCH  86  87
ENDBRANCH  54  79
BRANCH  66  91
ATOM     91  C   UNL A   1      39.630  33.676  37.214  1.00  0.00     0.058 A 
ATOM     92  C   UNL A   1      38.780  33.296  38.264  1.00  0.00     0.135 A 
ATOM     93  C   UNL A   1      40.257  34.931  37.298  1.00  0.00     0.135 A 
ATOM     94  F   UNL A   1      38.151  32.112  38.229  1.00  0.00    -0.206 F 
ATOM     95  C   UNL A   1      38.564  34.128  39.360  1.00  0.00     0.059 A 
ATOM     96  C   UNL A   1      40.074  35.768  38.394  1.00  0.00     0.059 A 
ATOM     97  F   UNL A   1      41.085  35.338  36.324  1.00  0.00    -0.206 F 
ATOM     98  C   UNL A   1      39.223  35.358  39.420  1.00  0.00     0.060 A 
BRANCH  98  99
ATOM     99  S   UNL A   1      38.992  36.394  40.881  1.00  0.00     0.124 S 
ATOM    100  O   UNL A   1      38.571  37.657  40.284  1.00  0.00    -0.237 OA
ATOM    101  O   UNL A   1      37.962  35.668  41.619  1.00  0.00    -0.237 OA
ATOM    102  O   UNL A   1      40.312  36.403  41.504  1.00  0.00    -0.744 OA
ENDBRANCH  98  99
ENDBRANCH  66  91
ENDBRANCH  40  41
ENDBRANCH  33  35
ENDBRANCH  32  33
ENDBRANCH  31  32
ENDBRANCH  30  31
ENDBRANCH  29  30
ENDBRANCH   1  29
TORSDOF 22
ENDMDL
MODEL 3
REMARK VINA RESULT:     -10.4      1.859      8.313
REMARK SMILES C[C@@H](Oc1ccc(-c2ccccc2)cc1)C(=O)N1CCC[C@H](C(=O)OCCOCCOC(=O)c2ccc(-c3c4nc(c(-c5c(F)cc(S(=O)(=O)[O-])cc5F)c5ccc([nH]5)c(-c5c(F)cc(S(=O)(=O)[O-])cc5F)c5nc(c(-c6c(F)cc(S(=O)(=O)[O-])cc6F)c6ccc3[nH]6)C=C5)C=C4)cc2)C1
REMARK SMILES IDX 27 1 26 2 25 3 23 4 24 5 22 6 18 7 19 8 100 9 20 10 21 11
REMARK SMILES IDX 16 12 17 13 2 14 1 15 3 16 4 17 5 18 15 19 6 20 14 21 7 22
REMARK SMILES IDX 8 23 9 24 13 25 10 26 12 27 11 28 28 29 29 30 30 31 31 32
REMARK SMILES IDX 32 33 33 34 34 35 35 36 99 37 36 38 98 39 37 40 38 41 39 42
REMARK SMILES IDX 92 43 40 44 97 45 91 46 93 47 41 48 96 49 90 50 89 51 42 53
REMARK SMILES IDX 76 54 55 55 75 56 56 57 59 58 74 59 94 60 57 61 58 62 73 64
REMARK SMILES IDX 95 65 60 66 43 67 44 68 53 69 45 70 46 71 52 72 54 73 47 74
REMARK SMILES IDX 48 75 49 76 50 77 51 78 77 79 78 80 87 81 79 82 80 83 86 84
REMARK SMILES IDX 88 85 81 86 82 87 83 88 84 89 85 90 61 91 62 92 71 93 63 94
REMARK SMILES IDX 64 95 70 96 72 97 65 98 66 99 67 100 68 101 69 102
REMARK H PARENT 93 52 59 63
REMARK Flexibility Score: inf
ROOT
ATOM      1  C   UNL A   1      38.709  22.071  25.628  1.00  0.00     0.202 C 
ENDROOT
BRANCH   1   2
ATOM      2  C   UNL A   1      37.390  21.295  25.596  1.00  0.00     0.261 C 
BRANCH   2   3
ATOM      3  O   UNL A   1      36.313  22.090  26.124  1.00  0.00    -0.463 OA
BRANCH   3   4
ATOM      4  C   UNL A   1      35.067  21.561  26.081  1.00  0.00     0.310 C 
ATOM      5  O   UNL A   1      34.387  21.282  27.064  1.00  0.00    -0.252 OA
BRANCH   4   6
ATOM      6  C   UNL A   1      34.590  21.288  24.664  1.00  0.00     0.119 C 
ATOM      7  N   UNL A   1      32.713  22.859  24.607  1.00  0.00    -0.339 N 
ATOM      8  C   UNL A   1      31.720  21.828  24.322  1.00  0.00     0.119 C 
ATOM      9  C   UNL A   1      34.046  22.587  24.073  1.00  0.00     0.134 C 
ATOM     10  C   UNL A   1      32.153  20.478  24.879  1.00  0.00     0.022 C 
ATOM     11  C   UNL A   1      33.594  20.131  24.489  1.00  0.00     0.019 C 
BRANCH   7  12
ATOM     12  C   UNL A   1      32.376  23.911  25.454  1.00  0.00     0.263 C 
ATOM     13  O   UNL A   1      32.906  24.028  26.563  1.00  0.00    -0.271 OA
BRANCH  12  14
ATOM     14  C   UNL A   1      31.329  24.949  25.001  1.00  0.00     0.259 C 
ATOM     15  C   UNL A   1      30.231  25.130  26.047  1.00  0.00     0.064 C 
BRANCH  14  16
ATOM     16  O   UNL A   1      32.024  26.168  24.713  1.00  0.00    -0.481 OA
BRANCH  16  17
ATOM     17  C   UNL A   1      31.213  27.186  24.315  1.00  0.00     0.120 A 
ATOM     18  C   UNL A   1      30.338  26.994  23.252  1.00  0.00     0.047 A 
ATOM     19  C   UNL A   1      31.400  28.448  24.863  1.00  0.00     0.047 A 
ATOM     20  C   UNL A   1      29.641  28.088  22.728  1.00  0.00     0.012 A 
ATOM     21  C   UNL A   1      30.697  29.533  24.345  1.00  0.00     0.012 A 
ATOM     22  C   UNL A   1      29.825  29.378  23.254  1.00  0.00    -0.018 A 
BRANCH  22  23
ATOM     23  C   UNL A   1      29.173  30.558  22.661  1.00  0.00    -0.018 A 
ATOM     24  C   UNL A   1      29.084  31.776  23.349  1.00  0.00     0.009 A 
ATOM     25  C   UNL A   1      28.630  30.490  21.364  1.00  0.00     0.009 A 
ATOM     26  C   UNL A   1      28.490  32.893  22.753  1.00  0.00     0.001 A 
ATOM     27  C   UNL A   1      28.037  31.605  20.768  1.00  0.00     0.001 A 
ATOM     28  C   UNL A   1      27.972  32.807  21.463  1.00  0.00     0.000 A 
ENDBRANCH  22  23
ENDBRANCH  16  17
ENDBRANCH  14  16
ENDBRANCH  12  14
ENDBRANCH   7  12
ENDBRANCH   4   6
ENDBRANCH   3   4
ENDBRANCH   2   3
ENDBRANCH   1   2
BRANCH   1  29
ATOM     29  O   UNL A   1      39.808  21.405  26.253  1.00  0.00    -0.374 OA
BRANCH  29  30
ATOM     30  C   UNL A   1      40.587  22.161  27.176  1.00  0.00     0.202 C 
BRANCH  30  31
ATOM     31  C   UNL A   1      41.413  23.317  26.596  1.00  0.00     0.261 C 
BRANCH  31  32
ATOM     32  O   UNL A   1      40.612  24.463  26.254  1.00  0.00    -0.460 OA
BRANCH  32  33
ATOM     33  C   UNL A   1      41.296  25.631  26.190  1.00  0.00     0.338 C 
ATOM     34  O   UNL A   1      41.707  26.187  25.178  1.00  0.00    -0.246 OA
BRANCH  33  35
ATOM     35  C   UNL A   1      41.364  26.269  27.516  1.00  0.00     0.060 A 
ATOM     36  C   UNL A   1      40.314  26.021  28.409  1.00  0.00     0.016 A 
ATOM     37  C   UNL A   1      42.379  27.167  27.849  1.00  0.00     0.016 A 
ATOM     38  C   UNL A   1      40.247  26.705  29.622  1.00  0.00     0.010 A 
ATOM     39  C   UNL A   1      42.306  27.862  29.062  1.00  0.00     0.010 A 
ATOM     40  C   UNL A   1      41.222  27.660  29.937  1.00  0.00    -0.014 A 
BRANCH  40  41
ATOM     41  C   UNL A   1      41.035  28.551  31.109  1.00  0.00     0.031 A 
ATOM     42  C   UNL A   1      39.968  29.611  31.052  1.00  0.00     0.074 A 
ATOM     43  C   UNL A   1      41.794  28.414  32.211  1.00  0.00     0.049 A 
ATOM     44  N   UNL A   1      39.690  30.556  31.913  1.00  0.00    -0.248 NA
ATOM     45  C   UNL A   1      39.101  29.608  29.862  1.00  0.00     0.031 C 
ATOM     46  C   UNL A   1      42.823  27.394  32.405  1.00  0.00     0.029 A 
ATOM     47  N   UNL A   1      41.824  29.148  33.371  1.00  0.00    -0.354 N 
ATOM     48  C   UNL A   1      38.629  31.268  31.366  1.00  0.00     0.074 A 
ATOM     49  C   UNL A   1      38.325  30.658  30.089  1.00  0.00     0.031 C 
ATOM     50  C   UNL A   1      43.398  27.578  33.606  1.00  0.00     0.029 A 
ATOM     51  C   UNL A   1      42.806  28.752  34.247  1.00  0.00     0.049 A 
ATOM     52  H   UNL A   1      41.201  29.887  33.557  1.00  0.00     0.167 HD
ATOM     53  C   UNL A   1      37.967  32.330  31.882  1.00  0.00     0.037 A 
ATOM     54  C   UNL A   1      43.204  29.294  35.415  1.00  0.00     0.037 A 
ATOM     55  C   UNL A   1      38.271  32.926  33.156  1.00  0.00     0.049 A 
ATOM     56  C   UNL A   1      42.502  30.522  35.938  1.00  0.00     0.074 A 
ATOM     57  C   UNL A   1      37.649  33.998  33.775  1.00  0.00     0.029 A 
ATOM     58  N   UNL A   1      39.286  32.509  34.004  1.00  0.00    -0.354 N 
ATOM     59  N   UNL A   1      41.494  31.181  35.416  1.00  0.00    -0.248 NA
ATOM     60  C   UNL A   1      42.991  31.084  37.206  1.00  0.00     0.031 C 
ATOM     61  C   UNL A   1      38.318  34.257  34.974  1.00  0.00     0.029 A 
ATOM     62  C   UNL A   1      39.324  33.315  35.129  1.00  0.00     0.049 A 
ATOM     63  H   UNL A   1      39.891  31.751  33.832  1.00  0.00     0.167 HD
ATOM     64  C   UNL A   1      41.210  32.213  36.304  1.00  0.00     0.074 A 
ATOM     65  C   UNL A   1      42.151  32.093  37.398  1.00  0.00     0.031 C 
ATOM     66  C   UNL A   1      40.254  33.170  36.222  1.00  0.00     0.037 A 
BRANCH  53  67
ATOM     67  C   UNL A   1      36.867  32.937  31.056  1.00  0.00     0.058 A 
ATOM     68  C   UNL A   1      35.537  32.499  31.158  1.00  0.00     0.135 A 
ATOM     69  C   UNL A   1      37.142  33.997  30.177  1.00  0.00     0.135 A 
ATOM     70  F   UNL A   1      35.222  31.479  31.970  1.00  0.00    -0.206 F 
ATOM     71  C   UNL A   1      34.523  33.075  30.399  1.00  0.00     0.059 A 
ATOM     72  C   UNL A   1      36.139  34.605  29.427  1.00  0.00     0.059 A 
ATOM     73  F   UNL A   1      38.397  34.454  30.041  1.00  0.00    -0.206 F 
ATOM     74  C   UNL A   1      34.835  34.127  29.535  1.00  0.00     0.060 A 
BRANCH  74  75
ATOM     75  S   UNL A   1      33.509  34.865  28.557  1.00  0.00     0.124 S 
ATOM     76  O   UNL A   1      33.020  33.708  27.812  1.00  0.00    -0.237 OA
ATOM     77  O   UNL A   1      32.610  35.380  29.586  1.00  0.00    -0.237 OA
ATOM     78  O   UNL A   1      34.194  35.879  27.762  1.00  0.00    -0.744 OA
ENDBRANCH  74  75
ENDBRANCH  53  67
BRANCH  54  79
ATOM     79  C   UNL A   1      44.343  28.694  36.161  1.00  0.00     0.058 A 
ATOM     80  C   UNL A   1      45.652  29.167  35.989  1.00  0.00     0.135 A 
ATOM     81  C   UNL A   1      44.143  27.638  37.064  1.00  0.00     0.135 A 
ATOM     82  F   UNL A   1      45.898  30.164  35.126  1.00  0.00    -0.206 F 
ATOM     83  C   UNL A   1      46.725  28.608  36.678  1.00  0.00     0.059 A 
ATOM     84  C   UNL A   1      45.194  27.080  37.784  1.00  0.00     0.059 A 
ATOM     85  F   UNL A   1      42.908  27.152  37.267  1.00  0.00    -0.206 F 
ATOM     86  C   UNL A   1      46.485  27.566  37.577  1.00  0.00     0.060 A 
BRANCH  86  87
ATOM     87  S   UNL A   1      47.877  26.879  38.502  1.00  0.00     0.124 S 
ATOM     88  O   UNL A   1      48.726  28.053  38.670  1.00  0.00    -0.237 OA
ATOM     89  O   UNL A   1      47.228  26.383  39.712  1.00  0.00    -0.237 OA
ATOM     90  O   UNL A   1      48.396  25.847  37.610  1.00  0.00    -0.744 OA
ENDBRANCH  86  87
ENDBRANCH  54  79
BRANCH  66  91
ATOM     91  C   UNL A   1      40.131  34.145  37.360  1.00  0.00     0.058 A 
ATOM     92  C   UNL A   1      40.925  35.299  37.433  1.00  0.00     0.135 A 
ATOM     93  C   UNL A   1      39.137  33.969  38.337  1.00  0.00     0.135 A 
ATOM     94  F   UNL A   1      41.894  35.512  36.530  1.00  0.00    -0.206 F 
ATOM     95  C   UNL A   1      40.736  36.248  38.435  1.00  0.00     0.059 A 
ATOM     96  C   UNL A   1      38.915  34.915  39.333  1.00  0.00     0.059 A 
ATOM     97  F   UNL A   1      38.345  32.886  38.307  1.00  0.00    -0.206 F 
ATOM     98  C   UNL A   1      39.722  36.050  39.376  1.00  0.00     0.060 A 
BRANCH  98  99
ATOM     99  S   UNL A   1      39.439  37.324  40.625  1.00  0.00     0.124 S 
ATOM    100  O   UNL A   1      40.699  38.061  40.585  1.00  0.00    -0.237 OA
ATOM    101  O   UNL A   1      38.276  38.029  40.094  1.00  0.00    -0.237 OA
ATOM    102  O   UNL A   1      39.198  36.558  41.844  1.00  0.00    -0.744 OA
ENDBRANCH  98  99
ENDBRANCH  66  91
ENDBRANCH  40  41
ENDBRANCH  33  35
ENDBRANCH  32  33
ENDBRANCH  31  32
ENDBRANCH  30  31
ENDBRANCH  29  30
ENDBRANCH   1  29
TORSDOF 22
ENDMDL
