MODEL 1
REMARK VINA RESULT:      -9.9      0.000      0.000
REMARK SMILES CC[C@H]1CC[C@](O)([C@H](F)C(=O)OCCOCCOC(=O)c2ccc(-c3c4nc(c(-c5c(F)cc(S(=O)(=O)[O-])cc5F)c5ccc([nH]5)c(-c5c(F)cc(S(=O)(=O)[O-])cc5F)c5nc(c(-c6c(F)cc(S(=O)(=O)[O-])cc6F)c6ccc3[nH]6)C=C5)C=C4)cc2)CC1
REMARK SMILES IDX 16 1 15 2 14 3 13 4 12 5 10 6 11 7 8 8 9 9 6 10 3 11 4 12
REMARK SMILES IDX 88 13 5 14 87 15 2 16 1 17 7 18 17 20 18 21 19 22 20 23
REMARK SMILES IDX 21 24 22 25 86 26 23 27 85 28 24 29 25 30 26 31 79 32 27 33
REMARK SMILES IDX 84 34 78 35 80 36 28 37 83 38 77 39 76 40 29 42 63 43 42 44
REMARK SMILES IDX 62 45 43 46 46 47 61 48 81 49 44 50 45 51 60 53 82 54 47 55
REMARK SMILES IDX 30 56 31 57 40 58 32 59 33 60 39 61 41 62 34 63 35 64 36 65
REMARK SMILES IDX 37 66 38 67 64 68 65 69 74 70 66 71 67 72 73 73 75 74 68 75
REMARK SMILES IDX 69 76 70 77 71 78 72 79 48 80 49 81 58 82 50 83 51 84 57 85
REMARK SMILES IDX 59 86 52 87 53 88 54 89 55 90 56 91
REMARK H PARENT 7 19 80 41 46 52
REMARK Flexibility Score: inf
ROOT
ATOM      1  C   UNL A   1      33.260  34.104  28.271  1.00  0.00     0.202 C 
ENDROOT
BRANCH   1   2
ATOM      2  O   UNL A   1      32.786  34.577  29.528  1.00  0.00    -0.374 OA
BRANCH   2   3
ATOM      3  C   UNL A   1      32.893  35.966  29.808  1.00  0.00     0.202 C 
BRANCH   3   4
ATOM      4  C   UNL A   1      32.750  36.402  31.267  1.00  0.00     0.261 C 
BRANCH   4   5
ATOM      5  O   UNL A   1      32.940  35.341  32.215  1.00  0.00    -0.461 OA
BRANCH   5   6
ATOM      6  C   UNL A   1      34.003  35.469  33.060  1.00  0.00     0.343 C 
ATOM      7  O   UNL A   1      34.373  36.526  33.560  1.00  0.00    -0.249 OA
BRANCH   6   8
ATOM      8  C   UNL A   1      34.686  34.143  33.317  1.00  0.00     0.307 C 
ATOM      9  F   UNL A   1      33.844  33.083  33.077  1.00  0.00    -0.232 F 
BRANCH   8  10
ATOM     10  C   UNL A   1      36.021  33.900  32.561  1.00  0.00     0.107 C 
ATOM     11  C   UNL A   1      37.705  31.860  34.063  1.00  0.00    -0.011 C 
ATOM     12  C   UNL A   1      36.643  31.426  33.034  1.00  0.00     0.006 C 
ATOM     13  C   UNL A   1      37.640  33.342  34.469  1.00  0.00     0.006 C 
ATOM     14  C   UNL A   1      36.218  32.478  32.012  1.00  0.00     0.039 C 
ATOM     15  C   UNL A   1      37.271  34.306  33.352  1.00  0.00     0.039 C 
BRANCH  11  16
ATOM     16  C   UNL A   1      39.106  31.414  33.601  1.00  0.00    -0.000 C 
ATOM     17  C   UNL A   1      40.223  32.326  34.091  1.00  0.00     0.004 C 
ENDBRANCH  11  16
BRANCH  10  18
ATOM     18  O   UNL A   1      35.952  34.755  31.388  1.00  0.00    -0.386 OA
ATOM     19  H   UNL A   1      35.227  35.390  31.493  1.00  0.00     0.211 HD
ENDBRANCH  10  18
ENDBRANCH   8  10
ENDBRANCH   6   8
ENDBRANCH   5   6
ENDBRANCH   4   5
ENDBRANCH   3   4
ENDBRANCH   2   3
ENDBRANCH   1   2
BRANCH   1  20
ATOM     20  C   UNL A   1      34.620  33.395  28.228  1.00  0.00     0.261 C 
BRANCH  20  21
ATOM     21  O   UNL A   1      34.700  32.212  29.044  1.00  0.00    -0.460 OA
BRANCH  21  22
ATOM     22  C   UNL A   1      34.559  31.048  28.360  1.00  0.00     0.338 C 
ATOM     23  O   UNL A   1      33.606  30.707  27.681  1.00  0.00    -0.246 OA
BRANCH  22  24
ATOM     24  C   UNL A   1      35.790  30.240  28.427  1.00  0.00     0.060 A 
ATOM     25  C   UNL A   1      36.168  29.721  29.673  1.00  0.00     0.016 A 
ATOM     26  C   UNL A   1      36.650  30.154  27.331  1.00  0.00     0.016 A 
ATOM     27  C   UNL A   1      37.438  29.168  29.842  1.00  0.00     0.010 A 
ATOM     28  C   UNL A   1      37.927  29.608  27.506  1.00  0.00     0.010 A 
ATOM     29  C   UNL A   1      38.342  29.152  28.771  1.00  0.00    -0.014 A 
BRANCH  29  30
ATOM     30  C   UNL A   1      39.767  28.816  29.011  1.00  0.00     0.031 A 
ATOM     31  C   UNL A   1      40.679  29.869  29.585  1.00  0.00     0.074 A 
ATOM     32  C   UNL A   1      40.243  27.588  28.738  1.00  0.00     0.049 A 
ATOM     33  N   UNL A   1      41.966  29.818  29.810  1.00  0.00    -0.248 NA
ATOM     34  C   UNL A   1      40.054  31.151  29.952  1.00  0.00     0.031 C 
ATOM     35  C   UNL A   1      39.452  26.471  28.225  1.00  0.00     0.029 A 
ATOM     36  N   UNL A   1      41.514  27.081  28.847  1.00  0.00    -0.354 N 
ATOM     37  C   UNL A   1      42.307  31.057  30.340  1.00  0.00     0.074 A 
ATOM     38  C   UNL A   1      41.096  31.848  30.381  1.00  0.00     0.031 C 
ATOM     39  C   UNL A   1      40.261  25.411  28.045  1.00  0.00     0.029 A 
ATOM     40  C   UNL A   1      41.629  25.786  28.402  1.00  0.00     0.049 A 
ATOM     41  H   UNL A   1      42.270  27.595  29.210  1.00  0.00     0.167 HD
ATOM     42  C   UNL A   1      43.519  31.495  30.759  1.00  0.00     0.037 A 
ATOM     43  C   UNL A   1      42.719  25.002  28.273  1.00  0.00     0.037 A 
ATOM     44  C   UNL A   1      44.724  30.709  30.716  1.00  0.00     0.049 A 
ATOM     45  C   UNL A   1      44.068  25.535  28.679  1.00  0.00     0.074 A 
ATOM     46  C   UNL A   1      45.999  31.064  31.121  1.00  0.00     0.029 A 
ATOM     47  N   UNL A   1      44.803  29.410  30.236  1.00  0.00    -0.354 N 
ATOM     48  N   UNL A   1      44.375  26.707  29.182  1.00  0.00    -0.248 NA
ATOM     49  C   UNL A   1      45.220  24.640  28.497  1.00  0.00     0.031 C 
ATOM     50  C   UNL A   1      46.857  29.991  30.853  1.00  0.00     0.029 A 
ATOM     51  C   UNL A   1      46.108  28.955  30.319  1.00  0.00     0.049 A 
ATOM     52  H   UNL A   1      44.044  28.889  29.889  1.00  0.00     0.167 HD
ATOM     53  C   UNL A   1      45.749  26.679  29.401  1.00  0.00     0.074 A 
ATOM     54  C   UNL A   1      46.214  25.373  28.981  1.00  0.00     0.031 C 
ATOM     55  C   UNL A   1      46.553  27.646  29.907  1.00  0.00     0.037 A 
BRANCH  42  56
ATOM     56  C   UNL A   1      43.607  32.901  31.284  1.00  0.00     0.058 A 
ATOM     57  C   UNL A   1      43.528  33.179  32.657  1.00  0.00     0.135 A 
ATOM     58  C   UNL A   1      43.808  33.978  30.407  1.00  0.00     0.135 A 
ATOM     59  F   UNL A   1      43.320  32.186  33.536  1.00  0.00    -0.206 F 
ATOM     60  C   UNL A   1      43.626  34.479  33.142  1.00  0.00     0.059 A 
ATOM     61  C   UNL A   1      43.930  35.285  30.870  1.00  0.00     0.059 A 
ATOM     62  F   UNL A   1      43.887  33.766  29.084  1.00  0.00    -0.206 F 
ATOM     63  C   UNL A   1      43.825  35.526  32.239  1.00  0.00     0.060 A 
BRANCH  63  64
ATOM     64  S   UNL A   1      43.958  37.209  32.881  1.00  0.00     0.124 S 
ATOM     65  O   UNL A   1      43.868  37.996  31.655  1.00  0.00    -0.237 OA
ATOM     66  O   UNL A   1      42.806  37.296  33.775  1.00  0.00    -0.237 OA
ATOM     67  O   UNL A   1      45.260  37.219  33.540  1.00  0.00    -0.744 OA
ENDBRANCH  63  64
ENDBRANCH  42  56
BRANCH  43  68
ATOM     68  C   UNL A   1      42.585  23.632  27.712  1.00  0.00     0.058 A 
ATOM     69  C   UNL A   1      42.608  23.411  26.328  1.00  0.00     0.135 A 
ATOM     70  C   UNL A   1      42.428  22.518  28.551  1.00  0.00     0.135 A 
ATOM     71  F   UNL A   1      42.745  24.446  25.485  1.00  0.00    -0.206 F 
ATOM     72  C   UNL A   1      42.466  22.135  25.792  1.00  0.00     0.059 A 
ATOM     73  C   UNL A   1      42.305  21.231  28.041  1.00  0.00     0.059 A 
ATOM     74  F   UNL A   1      42.408  22.676  29.884  1.00  0.00    -0.206 F 
ATOM     75  C   UNL A   1      42.315  21.050  26.658  1.00  0.00     0.060 A 
BRANCH  75  76
ATOM     76  S   UNL A   1      42.179  19.390  25.959  1.00  0.00     0.124 S 
ATOM     77  O   UNL A   1      42.721  18.572  27.039  1.00  0.00    -0.237 OA
ATOM     78  O   UNL A   1      40.743  19.270  25.725  1.00  0.00    -0.237 OA
ATOM     79  O   UNL A   1      42.997  19.469  24.752  1.00  0.00    -0.744 OA
ENDBRANCH  75  76
ENDBRANCH  43  68
BRANCH  55  80
ATOM     80  C   UNL A   1      48.011  27.325  30.072  1.00  0.00     0.058 A 
ATOM     81  C   UNL A   1      48.929  27.510  29.027  1.00  0.00     0.135 A 
ATOM     82  C   UNL A   1      48.506  26.887  31.311  1.00  0.00     0.135 A 
ATOM     83  F   UNL A   1      48.505  27.921  27.821  1.00  0.00    -0.206 F 
ATOM     84  C   UNL A   1      50.286  27.258  29.200  1.00  0.00     0.059 A 
ATOM     85  C   UNL A   1      49.862  26.649  31.513  1.00  0.00     0.059 A 
ATOM     86  F   UNL A   1      47.671  26.703  32.346  1.00  0.00    -0.206 F 
ATOM     87  C   UNL A   1      50.744  26.830  30.448  1.00  0.00     0.060 A 
BRANCH  87  88
ATOM     88  S   UNL A   1      52.514  26.549  30.675  1.00  0.00     0.124 S 
ATOM     89  O   UNL A   1      52.976  26.457  29.294  1.00  0.00    -0.237 OA
ATOM     90  O   UNL A   1      52.931  27.741  31.406  1.00  0.00    -0.237 OA
ATOM     91  O   UNL A   1      52.564  25.306  31.439  1.00  0.00    -0.744 OA
ENDBRANCH  87  88
ENDBRANCH  55  80
ENDBRANCH  29  30
ENDBRANCH  22  24
ENDBRANCH  21  22
ENDBRANCH  20  21
ENDBRANCH   1  20
TORSDOF 20
ENDMDL
MODEL 2
REMARK VINA RESULT:      -9.4      2.657     12.051
REMARK SMILES CC[C@H]1CC[C@](O)([C@H](F)C(=O)OCCOCCOC(=O)c2ccc(-c3c4nc(c(-c5c(F)cc(S(=O)(=O)[O-])cc5F)c5ccc([nH]5)c(-c5c(F)cc(S(=O)(=O)[O-])cc5F)c5nc(c(-c6c(F)cc(S(=O)(=O)[O-])cc6F)c6ccc3[nH]6)C=C5)C=C4)cc2)CC1
REMARK SMILES IDX 16 1 15 2 14 3 13 4 12 5 10 6 11 7 8 8 9 9 6 10 3 11 4 12
REMARK SMILES IDX 88 13 5 14 87 15 2 16 1 17 7 18 17 20 18 21 19 22 20 23
REMARK SMILES IDX 21 24 22 25 86 26 23 27 85 28 24 29 25 30 26 31 79 32 27 33
REMARK SMILES IDX 84 34 78 35 80 36 28 37 83 38 77 39 76 40 29 42 63 43 42 44
REMARK SMILES IDX 62 45 43 46 46 47 61 48 81 49 44 50 45 51 60 53 82 54 47 55
REMARK SMILES IDX 30 56 31 57 40 58 32 59 33 60 39 61 41 62 34 63 35 64 36 65
REMARK SMILES IDX 37 66 38 67 64 68 65 69 74 70 66 71 67 72 73 73 75 74 68 75
REMARK SMILES IDX 69 76 70 77 71 78 72 79 48 80 49 81 58 82 50 83 51 84 57 85
REMARK SMILES IDX 59 86 52 87 53 88 54 89 55 90 56 91
REMARK H PARENT 7 19 80 41 46 52
REMARK Flexibility Score: inf
ROOT
ATOM      1  C   UNL A   1      41.029  19.806  26.679  1.00  0.00     0.202 C 
ENDROOT
BRANCH   1   2
ATOM      2  O   UNL A   1      42.001  18.939  27.256  1.00  0.00    -0.374 OA
BRANCH   2   3
ATOM      3  C   UNL A   1      43.065  18.479  26.433  1.00  0.00     0.202 C 
BRANCH   3   4
ATOM      4  C   UNL A   1      43.421  19.323  25.209  1.00  0.00     0.261 C 
BRANCH   4   5
ATOM      5  O   UNL A   1      44.692  18.998  24.625  1.00  0.00    -0.461 OA
BRANCH   5   6
ATOM      6  C   UNL A   1      45.649  19.969  24.683  1.00  0.00     0.343 C 
ATOM      7  O   UNL A   1      46.795  19.842  24.266  1.00  0.00    -0.249 OA
BRANCH   6   8
ATOM      8  C   UNL A   1      45.133  21.238  25.326  1.00  0.00     0.307 C 
ATOM      9  F   UNL A   1      45.948  21.654  26.351  1.00  0.00    -0.232 F 
BRANCH   8  10
ATOM     10  C   UNL A   1      44.879  22.437  24.373  1.00  0.00     0.107 C 
ATOM     11  C   UNL A   1      44.875  25.035  25.955  1.00  0.00    -0.011 C 
ATOM     12  C   UNL A   1      46.181  24.428  25.405  1.00  0.00     0.006 C 
ATOM     13  C   UNL A   1      43.656  24.099  25.894  1.00  0.00     0.006 C 
ATOM     14  C   UNL A   1      46.037  23.439  24.251  1.00  0.00     0.039 C 
ATOM     15  C   UNL A   1      43.584  23.205  24.666  1.00  0.00     0.039 C 
BRANCH  11  16
ATOM     16  C   UNL A   1      44.620  26.414  25.317  1.00  0.00    -0.000 C 
ATOM     17  C   UNL A   1      45.007  27.579  26.220  1.00  0.00     0.004 C 
ENDBRANCH  11  16
BRANCH  10  18
ATOM     18  O   UNL A   1      44.745  21.847  23.051  1.00  0.00    -0.386 OA
ATOM     19  H   UNL A   1      45.538  21.329  22.846  1.00  0.00     0.211 HD
ENDBRANCH  10  18
ENDBRANCH   8  10
ENDBRANCH   6   8
ENDBRANCH   5   6
ENDBRANCH   4   5
ENDBRANCH   3   4
ENDBRANCH   2   3
ENDBRANCH   1   2
BRANCH   1  20
ATOM     20  C   UNL A   1      40.876  21.216  27.266  1.00  0.00     0.261 C 
BRANCH  20  21
ATOM     21  O   UNL A   1      40.711  22.255  26.284  1.00  0.00    -0.460 OA
BRANCH  21  22
ATOM     22  C   UNL A   1      39.467  22.798  26.246  1.00  0.00     0.338 C 
ATOM     23  O   UNL A   1      38.437  22.248  25.896  1.00  0.00    -0.246 OA
BRANCH  22  24
ATOM     24  C   UNL A   1      39.465  24.159  26.811  1.00  0.00     0.060 A 
ATOM     25  C   UNL A   1      40.196  25.150  26.143  1.00  0.00     0.016 A 
ATOM     26  C   UNL A   1      38.914  24.410  28.069  1.00  0.00     0.016 A 
ATOM     27  C   UNL A   1      40.431  26.379  26.759  1.00  0.00     0.010 A 
ATOM     28  C   UNL A   1      39.160  25.641  28.690  1.00  0.00     0.010 A 
ATOM     29  C   UNL A   1      39.955  26.613  28.056  1.00  0.00    -0.014 A 
BRANCH  29  30
ATOM     30  C   UNL A   1      40.425  27.800  28.814  1.00  0.00     0.031 A 
ATOM     31  C   UNL A   1      41.814  27.792  29.395  1.00  0.00     0.074 A 
ATOM     32  C   UNL A   1      39.635  28.877  28.971  1.00  0.00     0.049 A 
ATOM     33  N   UNL A   1      42.404  28.685  30.147  1.00  0.00    -0.248 NA
ATOM     34  C   UNL A   1      42.649  26.618  29.087  1.00  0.00     0.031 C 
ATOM     35  C   UNL A   1      38.290  29.025  28.417  1.00  0.00     0.029 A 
ATOM     36  N   UNL A   1      39.850  30.048  29.653  1.00  0.00    -0.354 N 
ATOM     37  C   UNL A   1      43.674  28.182  30.407  1.00  0.00     0.074 A 
ATOM     38  C   UNL A   1      43.763  26.895  29.752  1.00  0.00     0.031 C 
ATOM     39  C   UNL A   1      37.791  30.215  28.799  1.00  0.00     0.029 A 
ATOM     40  C   UNL A   1      38.769  30.896  29.646  1.00  0.00     0.049 A 
ATOM     41  H   UNL A   1      40.698  30.260  30.104  1.00  0.00     0.167 HD
ATOM     42  C   UNL A   1      44.678  28.744  31.122  1.00  0.00     0.037 A 
ATOM     43  C   UNL A   1      38.581  32.074  30.274  1.00  0.00     0.037 A 
ATOM     44  C   UNL A   1      44.589  30.024  31.775  1.00  0.00     0.049 A 
ATOM     45  C   UNL A   1      39.686  32.648  31.123  1.00  0.00     0.074 A 
ATOM     46  C   UNL A   1      45.554  30.680  32.520  1.00  0.00     0.029 A 
ATOM     47  N   UNL A   1      43.469  30.841  31.763  1.00  0.00    -0.354 N 
ATOM     48  N   UNL A   1      40.883  32.164  31.355  1.00  0.00    -0.248 NA
ATOM     49  C   UNL A   1      39.414  33.926  31.796  1.00  0.00     0.031 C 
ATOM     50  C   UNL A   1      45.005  31.878  32.989  1.00  0.00     0.029 A 
ATOM     51  C   UNL A   1      43.712  31.987  32.502  1.00  0.00     0.049 A 
ATOM     52  H   UNL A   1      42.626  30.637  31.298  1.00  0.00     0.167 HD
ATOM     53  C   UNL A   1      41.514  33.090  32.179  1.00  0.00     0.074 A 
ATOM     54  C   UNL A   1      40.570  34.166  32.401  1.00  0.00     0.031 C 
ATOM     55  C   UNL A   1      42.764  33.055  32.703  1.00  0.00     0.037 A 
BRANCH  42  56
ATOM     56  C   UNL A   1      45.958  27.968  31.253  1.00  0.00     0.058 A 
ATOM     57  C   UNL A   1      46.970  28.049  30.285  1.00  0.00     0.135 A 
ATOM     58  C   UNL A   1      46.189  27.161  32.378  1.00  0.00     0.135 A 
ATOM     59  F   UNL A   1      46.792  28.794  29.182  1.00  0.00    -0.206 F 
ATOM     60  C   UNL A   1      48.161  27.341  30.417  1.00  0.00     0.059 A 
ATOM     61  C   UNL A   1      47.381  26.461  32.542  1.00  0.00     0.059 A 
ATOM     62  F   UNL A   1      45.252  27.046  33.332  1.00  0.00    -0.206 F 
ATOM     63  C   UNL A   1      48.356  26.548  31.549  1.00  0.00     0.060 A 
BRANCH  63  64
ATOM     64  S   UNL A   1      49.908  25.640  31.712  1.00  0.00     0.124 S 
ATOM     65  O   UNL A   1      50.118  25.175  30.345  1.00  0.00    -0.237 OA
ATOM     66  O   UNL A   1      50.829  26.673  32.177  1.00  0.00    -0.237 OA
ATOM     67  O   UNL A   1      49.593  24.601  32.687  1.00  0.00    -0.744 OA
ENDBRANCH  63  64
ENDBRANCH  42  56
BRANCH  43  68
ATOM     68  C   UNL A   1      37.283  32.786  30.143  1.00  0.00     0.058 A 
ATOM     69  C   UNL A   1      36.256  32.596  31.079  1.00  0.00     0.135 A 
ATOM     70  C   UNL A   1      37.043  33.666  29.077  1.00  0.00     0.135 A 
ATOM     71  F   UNL A   1      36.433  31.755  32.109  1.00  0.00    -0.206 F 
ATOM     72  C   UNL A   1      35.030  33.243  30.955  1.00  0.00     0.059 A 
ATOM     73  C   UNL A   1      35.835  34.341  28.944  1.00  0.00     0.059 A 
ATOM     74  F   UNL A   1      37.998  33.889  28.160  1.00  0.00    -0.206 F 
ATOM     75  C   UNL A   1      34.829  34.115  29.884  1.00  0.00     0.060 A 
BRANCH  75  76
ATOM     76  S   UNL A   1      33.255  34.990  29.756  1.00  0.00     0.124 S 
ATOM     77  O   UNL A   1      33.688  36.310  29.312  1.00  0.00    -0.237 OA
ATOM     78  O   UNL A   1      32.536  34.188  28.770  1.00  0.00    -0.237 OA
ATOM     79  O   UNL A   1      32.724  34.921  31.114  1.00  0.00    -0.744 OA
ENDBRANCH  75  76
ENDBRANCH  43  68
BRANCH  55  80
ATOM     80  C   UNL A   1      43.204  34.225  33.537  1.00  0.00     0.058 A 
ATOM     81  C   UNL A   1      43.779  35.367  32.958  1.00  0.00     0.135 A 
ATOM     82  C   UNL A   1      42.988  34.229  34.925  1.00  0.00     0.135 A 
ATOM     83  F   UNL A   1      44.011  35.410  31.637  1.00  0.00    -0.206 F 
ATOM     84  C   UNL A   1      44.139  36.468  33.730  1.00  0.00     0.059 A 
ATOM     85  C   UNL A   1      43.321  35.327  35.712  1.00  0.00     0.059 A 
ATOM     86  F   UNL A   1      42.433  33.165  35.525  1.00  0.00    -0.206 F 
ATOM     87  C   UNL A   1      43.904  36.440  35.106  1.00  0.00     0.060 A 
BRANCH  87  88
ATOM     88  S   UNL A   1      44.333  37.891  36.091  1.00  0.00     0.124 S 
ATOM     89  O   UNL A   1      43.981  38.977  35.183  1.00  0.00    -0.237 OA
ATOM     90  O   UNL A   1      43.476  37.741  37.263  1.00  0.00    -0.237 OA
ATOM     91  O   UNL A   1      45.761  37.718  36.343  1.00  0.00    -0.744 OA
ENDBRANCH  87  88
ENDBRANCH  55  80
ENDBRANCH  29  30
ENDBRANCH  22  24
ENDBRANCH  21  22
ENDBRANCH  20  21
ENDBRANCH   1  20
TORSDOF 20
ENDMDL
MODEL 3
REMARK VINA RESULT:      -9.3      0.589      8.411
REMARK SMILES CC[C@H]1CC[C@](O)([C@H](F)C(=O)OCCOCCOC(=O)c2ccc(-c3c4nc(c(-c5c(F)cc(S(=O)(=O)[O-])cc5F)c5ccc([nH]5)c(-c5c(F)cc(S(=O)(=O)[O-])cc5F)c5nc(c(-c6c(F)cc(S(=O)(=O)[O-])cc6F)c6ccc3[nH]6)C=C5)C=C4)cc2)CC1
REMARK SMILES IDX 16 1 15 2 14 3 13 4 12 5 10 6 11 7 8 8 9 9 6 10 3 11 4 12
REMARK SMILES IDX 88 13 5 14 87 15 2 16 1 17 7 18 17 20 18 21 19 22 20 23
REMARK SMILES IDX 21 24 22 25 86 26 23 27 85 28 24 29 25 30 26 31 79 32 27 33
REMARK SMILES IDX 84 34 78 35 80 36 28 37 83 38 77 39 76 40 29 42 63 43 42 44
REMARK SMILES IDX 62 45 43 46 46 47 61 48 81 49 44 50 45 51 60 53 82 54 47 55
REMARK SMILES IDX 30 56 31 57 40 58 32 59 33 60 39 61 41 62 34 63 35 64 36 65
REMARK SMILES IDX 37 66 38 67 64 68 65 69 74 70 66 71 67 72 73 73 75 74 68 75
REMARK SMILES IDX 69 76 70 77 71 78 72 79 48 80 49 81 58 82 50 83 51 84 57 85
REMARK SMILES IDX 59 86 52 87 53 88 54 89 55 90 56 91
REMARK H PARENT 7 19 80 41 46 52
REMARK Flexibility Score: inf
ROOT
ATOM      1  C   UNL A   1      33.688  34.176  28.373  1.00  0.00     0.202 C 
ENDROOT
BRANCH   1   2
ATOM      2  O   UNL A   1      33.063  34.536  29.602  1.00  0.00    -0.374 OA
BRANCH   2   3
ATOM      3  C   UNL A   1      32.887  35.918  29.887  1.00  0.00     0.202 C 
BRANCH   3   4
ATOM      4  C   UNL A   1      32.807  36.326  31.359  1.00  0.00     0.261 C 
BRANCH   4   5
ATOM      5  O   UNL A   1      33.065  35.253  32.277  1.00  0.00    -0.461 OA
BRANCH   5   6
ATOM      6  C   UNL A   1      34.064  35.459  33.183  1.00  0.00     0.343 C 
ATOM      7  O   UNL A   1      34.327  36.542  33.695  1.00  0.00    -0.249 OA
BRANCH   6   8
ATOM      8  C   UNL A   1      34.823  34.186  33.491  1.00  0.00     0.307 C 
ATOM      9  F   UNL A   1      34.019  33.077  33.379  1.00  0.00    -0.232 F 
BRANCH   8  10
ATOM     10  C   UNL A   1      36.121  33.945  32.673  1.00  0.00     0.107 C 
ATOM     11  C   UNL A   1      37.743  31.706  33.941  1.00  0.00    -0.011 C 
ATOM     12  C   UNL A   1      36.630  31.414  32.915  1.00  0.00     0.006 C 
ATOM     13  C   UNL A   1      37.764  33.150  34.472  1.00  0.00     0.006 C 
ATOM     14  C   UNL A   1      36.230  32.569  32.001  1.00  0.00     0.039 C 
ATOM     15  C   UNL A   1      37.412  34.222  33.454  1.00  0.00     0.039 C 
BRANCH  11  16
ATOM     16  C   UNL A   1      39.105  31.235  33.397  1.00  0.00    -0.000 C 
ATOM     17  C   UNL A   1      39.195  29.725  33.217  1.00  0.00     0.004 C 
ENDBRANCH  11  16
BRANCH  10  18
ATOM     18  O   UNL A   1      36.061  34.901  31.580  1.00  0.00    -0.386 OA
ATOM     19  H   UNL A   1      35.467  35.629  31.818  1.00  0.00     0.211 HD
ENDBRANCH  10  18
ENDBRANCH   8  10
ENDBRANCH   6   8
ENDBRANCH   5   6
ENDBRANCH   4   5
ENDBRANCH   3   4
ENDBRANCH   2   3
ENDBRANCH   1   2
BRANCH   1  20
ATOM     20  C   UNL A   1      34.819  33.140  28.411  1.00  0.00     0.261 C 
BRANCH  20  21
ATOM     21  O   UNL A   1      34.488  31.924  29.105  1.00  0.00    -0.460 OA
BRANCH  21  22
ATOM     22  C   UNL A   1      34.510  30.811  28.327  1.00  0.00     0.338 C 
ATOM     23  O   UNL A   1      33.642  30.438  27.558  1.00  0.00    -0.246 OA
BRANCH  22  24
ATOM     24  C   UNL A   1      35.809  30.121  28.424  1.00  0.00     0.060 A 
ATOM     25  C   UNL A   1      36.218  29.663  29.683  1.00  0.00     0.016 A 
ATOM     26  C   UNL A   1      36.687  30.094  27.339  1.00  0.00     0.016 A 
ATOM     27  C   UNL A   1      37.531  29.231  29.877  1.00  0.00     0.010 A 
ATOM     28  C   UNL A   1      38.006  29.670  27.537  1.00  0.00     0.010 A 
ATOM     29  C   UNL A   1      38.445  29.278  28.816  1.00  0.00    -0.014 A 
BRANCH  29  30
ATOM     30  C   UNL A   1      39.892  29.079  29.077  1.00  0.00     0.031 A 
ATOM     31  C   UNL A   1      40.520  27.753  28.735  1.00  0.00     0.074 A 
ATOM     32  C   UNL A   1      40.644  30.067  29.596  1.00  0.00     0.049 A 
ATOM     33  N   UNL A   1      41.743  27.337  28.940  1.00  0.00    -0.248 NA
ATOM     34  C   UNL A   1      39.651  26.765  28.074  1.00  0.00     0.031 C 
ATOM     35  C   UNL A   1      40.164  31.408  29.925  1.00  0.00     0.029 A 
ATOM     36  N   UNL A   1      41.971  30.086  29.945  1.00  0.00    -0.354 N 
ATOM     37  C   UNL A   1      41.791  26.040  28.440  1.00  0.00     0.074 A 
ATOM     38  C   UNL A   1      40.468  25.729  27.942  1.00  0.00     0.031 C 
ATOM     39  C   UNL A   1      41.181  32.117  30.448  1.00  0.00     0.029 A 
ATOM     40  C   UNL A   1      42.371  31.270  30.517  1.00  0.00     0.049 A 
ATOM     41  H   UNL A   1      42.577  29.326  29.801  1.00  0.00     0.167 HD
ATOM     42  C   UNL A   1      42.843  25.188  28.394  1.00  0.00     0.037 A 
ATOM     43  C   UNL A   1      43.556  31.620  31.058  1.00  0.00     0.037 A 
ATOM     44  C   UNL A   1      44.158  25.497  28.891  1.00  0.00     0.049 A 
ATOM     45  C   UNL A   1      44.691  30.631  31.061  1.00  0.00     0.074 A 
ATOM     46  C   UNL A   1      45.290  24.700  28.886  1.00  0.00     0.029 A 
ATOM     47  N   UNL A   1      44.516  26.698  29.484  1.00  0.00    -0.354 N 
ATOM     48  N   UNL A   1      44.724  29.411  30.581  1.00  0.00    -0.248 NA
ATOM     49  C   UNL A   1      45.952  31.065  31.682  1.00  0.00     0.031 C 
ATOM     50  C   UNL A   1      46.324  25.407  29.510  1.00  0.00     0.029 A 
ATOM     51  C   UNL A   1      45.847  26.658  29.865  1.00  0.00     0.049 A 
ATOM     52  H   UNL A   1      43.914  27.465  29.614  1.00  0.00     0.167 HD
ATOM     53  C   UNL A   1      46.012  28.942  30.817  1.00  0.00     0.074 A 
ATOM     54  C   UNL A   1      46.732  30.011  31.479  1.00  0.00     0.031 C 
ATOM     55  C   UNL A   1      46.552  27.737  30.512  1.00  0.00     0.037 A 
BRANCH  42  56
ATOM     56  C   UNL A   1      42.609  23.826  27.803  1.00  0.00     0.058 A 
ATOM     57  C   UNL A   1      42.682  23.604  26.419  1.00  0.00     0.135 A 
ATOM     58  C   UNL A   1      42.345  22.725  28.632  1.00  0.00     0.135 A 
ATOM     59  F   UNL A   1      42.916  24.626  25.582  1.00  0.00    -0.206 F 
ATOM     60  C   UNL A   1      42.481  22.338  25.875  1.00  0.00     0.059 A 
ATOM     61  C   UNL A   1      42.162  21.447  28.112  1.00  0.00     0.059 A 
ATOM     62  F   UNL A   1      42.262  22.884  29.962  1.00  0.00    -0.206 F 
ATOM     63  C   UNL A   1      42.220  21.266  26.731  1.00  0.00     0.060 A 
BRANCH  63  64
ATOM     64  S   UNL A   1      41.968  19.628  26.013  1.00  0.00     0.124 S 
ATOM     65  O   UNL A   1      42.907  19.654  24.895  1.00  0.00    -0.237 OA
ATOM     66  O   UNL A   1      42.325  18.743  27.118  1.00  0.00    -0.237 OA
ATOM     67  O   UNL A   1      40.556  19.631  25.647  1.00  0.00    -0.744 OA
ENDBRANCH  63  64
ENDBRANCH  42  56
BRANCH  43  68
ATOM     68  C   UNL A   1      43.725  32.966  31.665  1.00  0.00     0.058 A 
ATOM     69  C   UNL A   1      44.192  34.049  30.907  1.00  0.00     0.135 A 
ATOM     70  C   UNL A   1      43.427  33.194  33.018  1.00  0.00     0.135 A 
ATOM     71  F   UNL A   1      44.501  33.878  29.612  1.00  0.00    -0.206 F 
ATOM     72  C   UNL A   1      44.371  35.309  31.470  1.00  0.00     0.059 A 
ATOM     73  C   UNL A   1      43.578  34.448  33.598  1.00  0.00     0.059 A 
ATOM     74  F   UNL A   1      42.969  32.192  33.784  1.00  0.00    -0.206 F 
ATOM     75  C   UNL A   1      44.060  35.499  32.817  1.00  0.00     0.060 A 
BRANCH  75  76
ATOM     76  S   UNL A   1      44.248  37.147  33.531  1.00  0.00     0.124 S 
ATOM     77  O   UNL A   1      42.896  37.417  34.006  1.00  0.00    -0.237 OA
ATOM     78  O   UNL A   1      45.256  36.923  34.563  1.00  0.00    -0.237 OA
ATOM     79  O   UNL A   1      44.694  37.952  32.397  1.00  0.00    -0.744 OA
ENDBRANCH  75  76
ENDBRANCH  43  68
BRANCH  55  80
ATOM     80  C   UNL A   1      47.999  27.515  30.853  1.00  0.00     0.058 A 
ATOM     81  C   UNL A   1      49.027  27.872  29.968  1.00  0.00     0.135 A 
ATOM     82  C   UNL A   1      48.361  26.995  32.107  1.00  0.00     0.135 A 
ATOM     83  F   UNL A   1      48.733  28.367  28.756  1.00  0.00    -0.206 F 
ATOM     84  C   UNL A   1      50.367  27.710  30.310  1.00  0.00     0.059 A 
ATOM     85  C   UNL A   1      49.694  26.844  32.477  1.00  0.00     0.059 A 
ATOM     86  F   UNL A   1      47.415  26.646  32.993  1.00  0.00    -0.206 F 
ATOM     87  C   UNL A   1      50.690  27.197  31.567  1.00  0.00     0.060 A 
BRANCH  87  88
ATOM     88  S   UNL A   1      52.432  27.032  32.017  1.00  0.00     0.124 S 
ATOM     89  O   UNL A   1      52.942  26.217  30.920  1.00  0.00    -0.237 OA
ATOM     90  O   UNL A   1      52.884  28.420  32.039  1.00  0.00    -0.237 OA
ATOM     91  O   UNL A   1      52.384  26.376  33.320  1.00  0.00    -0.744 OA
ENDBRANCH  87  88
ENDBRANCH  55  80
ENDBRANCH  29  30
ENDBRANCH  22  24
ENDBRANCH  21  22
ENDBRANCH  20  21
ENDBRANCH   1  20
TORSDOF 20
ENDMDL
