MODEL 1
REMARK VINA RESULT:     -10.5      0.000      0.000
REMARK SMILES CC[C@H](NC(=O)c1nn(C)cc1C(=O)OCCOCCOC(=O)c1ccc(-c2c3nc(c(-c4c(F)cc(S(=O)(=O)[O-])cc4F)c4ccc([nH]4)c(-c4c(F)cc(S(=O)(=O)[O-])cc4F)c4nc(c(-c5c(F)cc(S(=O)(=O)[O-])cc5F)c5ccc2[nH]5)C=C4)C=C3)cc1)c1ccccc1
REMARK SMILES IDX 18 1 17 2 16 3 15 4 13 5 14 6 12 7 7 8 8 9 9 10 11 11 10 12
REMARK SMILES IDX 5 13 4 14 6 16 3 17 2 18 1 19 90 20 91 21 95 22 92 23 94 24
REMARK SMILES IDX 93 25 19 26 20 27 21 28 22 29 23 30 24 31 25 32 89 33 26 34
REMARK SMILES IDX 88 35 27 36 28 37 29 38 82 39 30 40 87 41 81 42 83 43 31 44
REMARK SMILES IDX 86 45 80 46 79 47 32 49 66 50 45 51 65 52 46 53 49 54 64 55
REMARK SMILES IDX 84 56 47 57 48 58 63 60 85 61 50 62 33 63 34 64 43 65 35 66
REMARK SMILES IDX 36 67 42 68 44 69 37 70 38 71 39 72 40 73 41 74 67 75 68 76
REMARK SMILES IDX 77 77 69 78 70 79 76 80 78 81 71 82 72 83 73 84 74 85 75 86
REMARK SMILES IDX 51 87 52 88 61 89 53 90 54 91 60 92 62 93 55 94 56 95 57 96
REMARK SMILES IDX 58 97 59 98
REMARK H PARENT 4 15 83 48 49 59
REMARK Flexibility Score: inf
ROOT
ATOM      1  O   UNL A   1      37.010  22.572  25.703  1.00  0.00    -0.374 OA
ENDROOT
BRANCH   1   2
ATOM      2  C   UNL A   1      36.155  23.603  26.233  1.00  0.00     0.202 C 
BRANCH   2   3
ATOM      3  C   UNL A   1      34.685  23.455  25.805  1.00  0.00     0.261 C 
BRANCH   3   4
ATOM      4  O   UNL A   1      33.962  24.655  26.161  1.00  0.00    -0.460 OA
BRANCH   4   5
ATOM      5  C   UNL A   1      33.995  25.677  25.250  1.00  0.00     0.342 C 
ATOM      6  O   UNL A   1      34.215  25.537  24.060  1.00  0.00    -0.246 OA
BRANCH   5   7
ATOM      7  C   UNL A   1      33.592  26.930  25.855  1.00  0.00     0.111 A 
ATOM      8  C   UNL A   1      32.271  27.394  26.126  1.00  0.00     0.164 A 
ATOM      9  N   UNL A   1      32.294  28.585  26.758  1.00  0.00    -0.167 NA
ATOM     10  N   UNL A   1      33.598  28.855  26.910  1.00  0.00    -0.274 N 
ATOM     11  C   UNL A   1      34.419  27.902  26.390  1.00  0.00     0.125 A 
ATOM     12  C   UNL A   1      33.987  30.058  27.603  1.00  0.00     0.173 C 
BRANCH   8  13
ATOM     13  C   UNL A   1      30.995  26.770  25.791  1.00  0.00     0.273 C 
ATOM     14  N   UNL A   1      30.465  26.890  24.527  1.00  0.00    -0.344 N 
ATOM     15  H   UNL A   1      29.892  26.128  24.279  1.00  0.00     0.164 HD
ATOM     16  O   UNL A   1      30.399  26.043  26.587  1.00  0.00    -0.267 OA
BRANCH  14  17
ATOM     17  C   UNL A   1      30.559  27.894  23.470  1.00  0.00     0.112 C 
BRANCH  17  18
ATOM     18  C   UNL A   1      30.938  27.275  22.097  1.00  0.00     0.026 C 
ATOM     19  C   UNL A   1      31.518  25.870  22.125  1.00  0.00     0.006 C 
ENDBRANCH  17  18
BRANCH  17  20
ATOM     20  C   UNL A   1      29.523  29.003  23.426  1.00  0.00    -0.026 A 
ATOM     21  C   UNL A   1      28.220  28.808  22.955  1.00  0.00     0.006 A 
ATOM     22  C   UNL A   1      29.872  30.307  23.814  1.00  0.00     0.006 A 
ATOM     23  C   UNL A   1      27.296  29.853  22.869  1.00  0.00     0.000 A 
ATOM     24  C   UNL A   1      28.958  31.363  23.719  1.00  0.00     0.000 A 
ATOM     25  C   UNL A   1      27.668  31.136  23.248  1.00  0.00     0.000 A 
ENDBRANCH  17  20
ENDBRANCH  14  17
ENDBRANCH   8  13
ENDBRANCH   5   7
ENDBRANCH   4   5
ENDBRANCH   3   4
ENDBRANCH   2   3
ENDBRANCH   1   2
BRANCH   1  26
ATOM     26  C   UNL A   1      38.393  22.734  26.013  1.00  0.00     0.202 C 
BRANCH  26  27
ATOM     27  C   UNL A   1      38.822  24.156  26.396  1.00  0.00     0.261 C 
BRANCH  27  28
ATOM     28  O   UNL A   1      40.231  24.212  26.617  1.00  0.00    -0.460 OA
BRANCH  28  29
ATOM     29  C   UNL A   1      40.742  25.445  26.375  1.00  0.00     0.338 C 
ATOM     30  O   UNL A   1      40.987  25.938  25.286  1.00  0.00    -0.246 OA
BRANCH  29  31
ATOM     31  C   UNL A   1      40.767  26.211  27.632  1.00  0.00     0.060 A 
ATOM     32  C   UNL A   1      39.754  25.934  28.555  1.00  0.00     0.016 A 
ATOM     33  C   UNL A   1      41.755  27.163  27.915  1.00  0.00     0.016 A 
ATOM     34  C   UNL A   1      39.685  26.654  29.739  1.00  0.00     0.010 A 
ATOM     35  C   UNL A   1      41.683  27.887  29.106  1.00  0.00     0.010 A 
ATOM     36  C   UNL A   1      40.623  27.661  29.997  1.00  0.00    -0.014 A 
BRANCH  36  37
ATOM     37  C   UNL A   1      40.342  28.594  31.107  1.00  0.00     0.031 A 
ATOM     38  C   UNL A   1      41.195  28.498  32.340  1.00  0.00     0.074 A 
ATOM     39  C   UNL A   1      39.422  29.564  30.971  1.00  0.00     0.049 A 
ATOM     40  N   UNL A   1      41.265  29.307  33.362  1.00  0.00    -0.248 NA
ATOM     41  C   UNL A   1      42.100  27.337  32.427  1.00  0.00     0.031 C 
ATOM     42  C   UNL A   1      38.545  29.745  29.814  1.00  0.00     0.029 A 
ATOM     43  N   UNL A   1      39.090  30.594  31.811  1.00  0.00    -0.354 N 
ATOM     44  C   UNL A   1      42.235  28.770  34.200  1.00  0.00     0.074 A 
ATOM     45  C   UNL A   1      42.698  27.544  33.590  1.00  0.00     0.031 C 
ATOM     46  C   UNL A   1      37.777  30.831  30.016  1.00  0.00     0.029 A 
ATOM     47  C   UNL A   1      38.116  31.421  31.309  1.00  0.00     0.049 A 
ATOM     48  H   UNL A   1      39.509  30.727  32.692  1.00  0.00     0.167 HD
ATOM     49  C   UNL A   1      42.712  29.267  35.364  1.00  0.00     0.037 A 
ATOM     50  C   UNL A   1      37.579  32.539  31.833  1.00  0.00     0.037 A 
ATOM     51  C   UNL A   1      42.244  30.486  35.964  1.00  0.00     0.049 A 
ATOM     52  C   UNL A   1      38.107  33.057  33.144  1.00  0.00     0.074 A 
ATOM     53  C   UNL A   1      42.672  31.095  37.128  1.00  0.00     0.029 A 
ATOM     54  N   UNL A   1      41.233  31.278  35.441  1.00  0.00    -0.354 N 
ATOM     55  N   UNL A   1      39.069  32.573  33.894  1.00  0.00    -0.248 NA
ATOM     56  C   UNL A   1      37.486  34.279  33.673  1.00  0.00     0.031 C 
ATOM     57  C   UNL A   1      41.897  32.244  37.326  1.00  0.00     0.029 A 
ATOM     58  C   UNL A   1      41.005  32.360  36.271  1.00  0.00     0.049 A 
ATOM     59  H   UNL A   1      40.748  31.096  34.604  1.00  0.00     0.167 HD
ATOM     60  C   UNL A   1      39.178  33.439  34.976  1.00  0.00     0.074 A 
ATOM     61  C   UNL A   1      38.195  34.484  34.776  1.00  0.00     0.031 C 
ATOM     62  C   UNL A   1      40.016  33.379  36.041  1.00  0.00     0.037 A 
BRANCH  49  63
ATOM     63  C   UNL A   1      43.786  28.486  36.055  1.00  0.00     0.058 A 
ATOM     64  C   UNL A   1      43.478  27.384  36.869  1.00  0.00     0.135 A 
ATOM     65  C   UNL A   1      45.136  28.834  35.901  1.00  0.00     0.135 A 
ATOM     66  F   UNL A   1      42.199  27.028  37.067  1.00  0.00    -0.206 F 
ATOM     67  C   UNL A   1      44.472  26.662  37.520  1.00  0.00     0.059 A 
ATOM     68  C   UNL A   1      46.148  28.118  36.531  1.00  0.00     0.059 A 
ATOM     69  F   UNL A   1      45.479  29.889  35.145  1.00  0.00    -0.206 F 
ATOM     70  C   UNL A   1      45.805  27.039  37.348  1.00  0.00     0.060 A 
BRANCH  70  71
ATOM     71  S   UNL A   1      47.091  26.095  38.193  1.00  0.00     0.124 S 
ATOM     72  O   UNL A   1      47.900  27.162  38.774  1.00  0.00    -0.237 OA
ATOM     73  O   UNL A   1      46.325  25.294  39.140  1.00  0.00    -0.237 OA
ATOM     74  O   UNL A   1      47.724  25.345  37.112  1.00  0.00    -0.744 OA
ENDBRANCH  70  71
ENDBRANCH  49  63
BRANCH  50  75
ATOM     75  C   UNL A   1      36.492  33.253  31.116  1.00  0.00     0.058 A 
ATOM     76  C   UNL A   1      36.750  33.984  29.948  1.00  0.00     0.135 A 
ATOM     77  C   UNL A   1      35.174  33.226  31.598  1.00  0.00     0.135 A 
ATOM     78  F   UNL A   1      37.995  34.043  29.455  1.00  0.00    -0.206 F 
ATOM     79  C   UNL A   1      35.742  34.682  29.290  1.00  0.00     0.059 A 
ATOM     80  C   UNL A   1      34.147  33.902  30.948  1.00  0.00     0.059 A 
ATOM     81  F   UNL A   1      34.877  32.528  32.705  1.00  0.00    -0.206 F 
ATOM     82  C   UNL A   1      34.443  34.639  29.801  1.00  0.00     0.060 A 
BRANCH  82  83
ATOM     83  S   UNL A   1      33.124  35.514  28.930  1.00  0.00     0.124 S 
ATOM     84  O   UNL A   1      33.875  36.540  28.218  1.00  0.00    -0.237 OA
ATOM     85  O   UNL A   1      32.540  34.460  28.105  1.00  0.00    -0.237 OA
ATOM     86  O   UNL A   1      32.272  35.989  30.017  1.00  0.00    -0.744 OA
ENDBRANCH  82  83
ENDBRANCH  50  75
BRANCH  62  87
ATOM     87  C   UNL A   1      39.897  34.472  37.060  1.00  0.00     0.058 A 
ATOM     88  C   UNL A   1      40.690  35.626  36.980  1.00  0.00     0.135 A 
ATOM     89  C   UNL A   1      38.958  34.383  38.098  1.00  0.00     0.135 A 
ATOM     90  F   UNL A   1      41.604  35.751  36.005  1.00  0.00    -0.206 F 
ATOM     91  C   UNL A   1      40.571  36.651  37.911  1.00  0.00     0.059 A 
ATOM     92  C   UNL A   1      38.810  35.404  39.032  1.00  0.00     0.059 A 
ATOM     93  F   UNL A   1      38.171  33.301  38.207  1.00  0.00    -0.206 F 
ATOM     94  C   UNL A   1      39.630  36.528  38.937  1.00  0.00     0.060 A 
BRANCH  94  95
ATOM     95  S   UNL A   1      39.459  37.871  40.131  1.00  0.00     0.124 S 
ATOM     96  O   UNL A   1      38.244  38.526  39.660  1.00  0.00    -0.237 OA
ATOM     97  O   UNL A   1      39.344  37.158  41.400  1.00  0.00    -0.237 OA
ATOM     98  O   UNL A   1      40.693  38.630  39.958  1.00  0.00    -0.744 OA
ENDBRANCH  94  95
ENDBRANCH  62  87
ENDBRANCH  36  37
ENDBRANCH  29  31
ENDBRANCH  28  29
ENDBRANCH  27  28
ENDBRANCH  26  27
ENDBRANCH   1  26
TORSDOF 21
ENDMDL
MODEL 2
REMARK VINA RESULT:     -10.5      2.147      8.870
REMARK SMILES CC[C@H](NC(=O)c1nn(C)cc1C(=O)OCCOCCOC(=O)c1ccc(-c2c3nc(c(-c4c(F)cc(S(=O)(=O)[O-])cc4F)c4ccc([nH]4)c(-c4c(F)cc(S(=O)(=O)[O-])cc4F)c4nc(c(-c5c(F)cc(S(=O)(=O)[O-])cc5F)c5ccc2[nH]5)C=C4)C=C3)cc1)c1ccccc1
REMARK SMILES IDX 18 1 17 2 16 3 15 4 13 5 14 6 12 7 7 8 8 9 9 10 11 11 10 12
REMARK SMILES IDX 5 13 4 14 6 16 3 17 2 18 1 19 90 20 91 21 95 22 92 23 94 24
REMARK SMILES IDX 93 25 19 26 20 27 21 28 22 29 23 30 24 31 25 32 89 33 26 34
REMARK SMILES IDX 88 35 27 36 28 37 29 38 82 39 30 40 87 41 81 42 83 43 31 44
REMARK SMILES IDX 86 45 80 46 79 47 32 49 66 50 45 51 65 52 46 53 49 54 64 55
REMARK SMILES IDX 84 56 47 57 48 58 63 60 85 61 50 62 33 63 34 64 43 65 35 66
REMARK SMILES IDX 36 67 42 68 44 69 37 70 38 71 39 72 40 73 41 74 67 75 68 76
REMARK SMILES IDX 77 77 69 78 70 79 76 80 78 81 71 82 72 83 73 84 74 85 75 86
REMARK SMILES IDX 51 87 52 88 61 89 53 90 54 91 60 92 62 93 55 94 56 95 57 96
REMARK SMILES IDX 58 97 59 98
REMARK H PARENT 4 15 83 48 49 59
REMARK Flexibility Score: inf
ROOT
ATOM      1  O   UNL A   1      34.374  31.043  27.464  1.00  0.00    -0.374 OA
ENDROOT
BRANCH   1   2
ATOM      2  C   UNL A   1      34.840  29.692  27.277  1.00  0.00     0.202 C 
BRANCH   2   3
ATOM      3  C   UNL A   1      33.702  28.679  27.070  1.00  0.00     0.261 C 
BRANCH   3   4
ATOM      4  O   UNL A   1      33.901  27.987  25.817  1.00  0.00    -0.460 OA
BRANCH   4   5
ATOM      5  C   UNL A   1      33.074  26.924  25.572  1.00  0.00     0.342 C 
ATOM      6  O   UNL A   1      33.057  25.895  26.223  1.00  0.00    -0.246 OA
BRANCH   5   7
ATOM      7  C   UNL A   1      32.119  27.235  24.527  1.00  0.00     0.111 A 
ATOM      8  C   UNL A   1      32.224  26.971  23.129  1.00  0.00     0.164 A 
ATOM      9  N   UNL A   1      31.106  27.348  22.477  1.00  0.00    -0.167 NA
ATOM     10  N   UNL A   1      30.300  27.812  23.444  1.00  0.00    -0.274 N 
ATOM     11  C   UNL A   1      30.853  27.768  24.686  1.00  0.00     0.125 A 
ATOM     12  C   UNL A   1      28.976  28.264  23.093  1.00  0.00     0.173 C 
BRANCH   8  13
ATOM     13  C   UNL A   1      33.345  26.403  22.386  1.00  0.00     0.273 C 
ATOM     14  N   UNL A   1      33.593  25.051  22.414  1.00  0.00    -0.344 N 
ATOM     15  H   UNL A   1      34.038  24.727  21.596  1.00  0.00     0.164 HD
ATOM     16  O   UNL A   1      34.045  27.091  21.642  1.00  0.00    -0.267 OA
BRANCH  14  17
ATOM     17  C   UNL A   1      33.344  23.985  23.382  1.00  0.00     0.112 C 
BRANCH  17  18
ATOM     18  C   UNL A   1      32.093  23.138  23.023  1.00  0.00     0.026 C 
ATOM     19  C   UNL A   1      30.751  23.682  23.486  1.00  0.00     0.006 C 
ENDBRANCH  17  18
BRANCH  17  20
ATOM     20  C   UNL A   1      34.529  23.206  23.926  1.00  0.00    -0.026 A 
ATOM     21  C   UNL A   1      34.525  22.597  25.185  1.00  0.00     0.006 A 
ATOM     22  C   UNL A   1      35.717  23.124  23.182  1.00  0.00     0.006 A 
ATOM     23  C   UNL A   1      35.643  21.931  25.694  1.00  0.00     0.000 A 
ATOM     24  C   UNL A   1      36.848  22.472  23.689  1.00  0.00     0.000 A 
ATOM     25  C   UNL A   1      36.810  21.873  24.945  1.00  0.00     0.000 A 
ENDBRANCH  17  20
ENDBRANCH  14  17
ENDBRANCH   8  13
ENDBRANCH   5   7
ENDBRANCH   4   5
ENDBRANCH   3   4
ENDBRANCH   2   3
ENDBRANCH   1   2
BRANCH   1  26
ATOM     26  C   UNL A   1      33.000  31.244  27.142  1.00  0.00     0.202 C 
BRANCH  26  27
ATOM     27  C   UNL A   1      32.431  32.621  27.506  1.00  0.00     0.261 C 
BRANCH  27  28
ATOM     28  O   UNL A   1      33.458  33.612  27.472  1.00  0.00    -0.460 OA
BRANCH  28  29
ATOM     29  C   UNL A   1      33.444  34.406  28.572  1.00  0.00     0.338 C 
ATOM     30  O   UNL A   1      32.562  35.179  28.908  1.00  0.00    -0.246 OA
BRANCH  29  31
ATOM     31  C   UNL A   1      34.578  34.047  29.439  1.00  0.00     0.060 A 
ATOM     32  C   UNL A   1      35.856  34.342  28.954  1.00  0.00     0.016 A 
ATOM     33  C   UNL A   1      34.407  33.452  30.696  1.00  0.00     0.016 A 
ATOM     34  C   UNL A   1      36.973  33.984  29.696  1.00  0.00     0.010 A 
ATOM     35  C   UNL A   1      35.532  33.092  31.439  1.00  0.00     0.010 A 
ATOM     36  C   UNL A   1      36.814  33.320  30.918  1.00  0.00    -0.014 A 
BRANCH  36  37
ATOM     37  C   UNL A   1      38.009  32.696  31.522  1.00  0.00     0.031 A 
ATOM     38  C   UNL A   1      38.487  33.227  32.844  1.00  0.00     0.074 A 
ATOM     39  C   UNL A   1      38.582  31.622  30.954  1.00  0.00     0.049 A 
ATOM     40  N   UNL A   1      39.390  32.739  33.652  1.00  0.00    -0.248 NA
ATOM     41  C   UNL A   1      37.855  34.468  33.324  1.00  0.00     0.031 C 
ATOM     42  C   UNL A   1      38.191  31.028  29.675  1.00  0.00     0.029 A 
ATOM     43  N   UNL A   1      39.606  30.826  31.397  1.00  0.00    -0.354 N 
ATOM     44  C   UNL A   1      39.416  33.597  34.745  1.00  0.00     0.074 A 
ATOM     45  C   UNL A   1      38.471  34.659  34.481  1.00  0.00     0.031 C 
ATOM     46  C   UNL A   1      38.965  29.953  29.440  1.00  0.00     0.029 A 
ATOM     47  C   UNL A   1      39.895  29.782  30.554  1.00  0.00     0.049 A 
ATOM     48  H   UNL A   1      40.088  30.989  32.239  1.00  0.00     0.167 HD
ATOM     49  C   UNL A   1      40.148  33.496  35.877  1.00  0.00     0.037 A 
ATOM     50  C   UNL A   1      40.797  28.791  30.685  1.00  0.00     0.037 A 
ATOM     51  C   UNL A   1      41.087  32.438  36.131  1.00  0.00     0.049 A 
ATOM     52  C   UNL A   1      41.621  28.716  31.943  1.00  0.00     0.074 A 
ATOM     53  C   UNL A   1      41.865  32.225  37.253  1.00  0.00     0.029 A 
ATOM     54  N   UNL A   1      41.376  31.418  35.238  1.00  0.00    -0.354 N 
ATOM     55  N   UNL A   1      41.590  29.499  32.996  1.00  0.00    -0.248 NA
ATOM     56  C   UNL A   1      42.592  27.618  32.036  1.00  0.00     0.031 C 
ATOM     57  C   UNL A   1      42.649  31.087  37.026  1.00  0.00     0.029 A 
ATOM     58  C   UNL A   1      42.339  30.582  35.773  1.00  0.00     0.049 A 
ATOM     59  H   UNL A   1      40.959  31.306  34.354  1.00  0.00     0.167 HD
ATOM     60  C   UNL A   1      42.526  28.979  33.883  1.00  0.00     0.074 A 
ATOM     61  C   UNL A   1      43.096  27.807  33.249  1.00  0.00     0.031 C 
ATOM     62  C   UNL A   1      42.884  29.427  35.111  1.00  0.00     0.037 A 
BRANCH  49  63
ATOM     63  C   UNL A   1      39.959  34.561  36.914  1.00  0.00     0.058 A 
ATOM     64  C   UNL A   1      40.708  35.748  36.885  1.00  0.00     0.135 A 
ATOM     65  C   UNL A   1      39.021  34.398  37.943  1.00  0.00     0.135 A 
ATOM     66  F   UNL A   1      41.637  35.937  35.935  1.00  0.00    -0.206 F 
ATOM     67  C   UNL A   1      40.542  36.734  37.852  1.00  0.00     0.059 A 
ATOM     68  C   UNL A   1      38.827  35.377  38.912  1.00  0.00     0.059 A 
ATOM     69  F   UNL A   1      38.292  33.273  38.021  1.00  0.00    -0.206 F 
ATOM     70  C   UNL A   1      39.601  36.537  38.864  1.00  0.00     0.060 A 
BRANCH  70  71
ATOM     71  S   UNL A   1      39.388  37.824  40.113  1.00  0.00     0.124 S 
ATOM     72  O   UNL A   1      39.247  37.028  41.328  1.00  0.00    -0.237 OA
ATOM     73  O   UNL A   1      40.626  38.586  39.996  1.00  0.00    -0.237 OA
ATOM     74  O   UNL A   1      38.183  38.522  39.677  1.00  0.00    -0.744 OA
ENDBRANCH  70  71
ENDBRANCH  49  63
BRANCH  50  75
ATOM     75  C   UNL A   1      40.963  27.783  29.607  1.00  0.00     0.058 A 
ATOM     76  C   UNL A   1      40.029  26.752  29.427  1.00  0.00     0.135 A 
ATOM     77  C   UNL A   1      42.068  27.827  28.745  1.00  0.00     0.135 A 
ATOM     78  F   UNL A   1      38.960  26.668  30.231  1.00  0.00    -0.206 F 
ATOM     79  C   UNL A   1      40.196  25.786  28.440  1.00  0.00     0.059 A 
ATOM     80  C   UNL A   1      42.248  26.882  27.741  1.00  0.00     0.059 A 
ATOM     81  F   UNL A   1      42.981  28.803  28.872  1.00  0.00    -0.206 F 
ATOM     82  C   UNL A   1      41.312  25.856  27.605  1.00  0.00     0.060 A 
BRANCH  82  83
ATOM     83  S   UNL A   1      41.514  24.625  26.298  1.00  0.00     0.124 S 
ATOM     84  O   UNL A   1      41.737  25.470  25.132  1.00  0.00    -0.237 OA
ATOM     85  O   UNL A   1      42.667  23.859  26.764  1.00  0.00    -0.237 OA
ATOM     86  O   UNL A   1      40.243  23.904  26.327  1.00  0.00    -0.744 OA
ENDBRANCH  82  83
ENDBRANCH  50  75
BRANCH  62  87
ATOM     87  C   UNL A   1      43.937  28.645  35.838  1.00  0.00     0.058 A 
ATOM     88  C   UNL A   1      43.596  27.562  36.660  1.00  0.00     0.135 A 
ATOM     89  C   UNL A   1      45.296  28.956  35.680  1.00  0.00     0.135 A 
ATOM     90  F   UNL A   1      42.308  27.231  36.843  1.00  0.00    -0.206 F 
ATOM     91  C   UNL A   1      44.569  26.821  37.321  1.00  0.00     0.059 A 
ATOM     92  C   UNL A   1      46.288  28.219  36.319  1.00  0.00     0.059 A 
ATOM     93  F   UNL A   1      45.668  29.979  34.894  1.00  0.00    -0.206 F 
ATOM     94  C   UNL A   1      45.913  27.162  37.148  1.00  0.00     0.060 A 
BRANCH  94  95
ATOM     95  S   UNL A   1      47.178  26.184  37.987  1.00  0.00     0.124 S 
ATOM     96  O   UNL A   1      46.373  25.137  38.607  1.00  0.00    -0.237 OA
ATOM     97  O   UNL A   1      48.036  25.757  36.886  1.00  0.00    -0.237 OA
ATOM     98  O   UNL A   1      47.783  27.142  38.907  1.00  0.00    -0.744 OA
ENDBRANCH  94  95
ENDBRANCH  62  87
ENDBRANCH  36  37
ENDBRANCH  29  31
ENDBRANCH  28  29
ENDBRANCH  27  28
ENDBRANCH  26  27
ENDBRANCH   1  26
TORSDOF 21
ENDMDL
MODEL 3
REMARK VINA RESULT:     -10.4      1.961      3.261
REMARK SMILES CC[C@H](NC(=O)c1nn(C)cc1C(=O)OCCOCCOC(=O)c1ccc(-c2c3nc(c(-c4c(F)cc(S(=O)(=O)[O-])cc4F)c4ccc([nH]4)c(-c4c(F)cc(S(=O)(=O)[O-])cc4F)c4nc(c(-c5c(F)cc(S(=O)(=O)[O-])cc5F)c5ccc2[nH]5)C=C4)C=C3)cc1)c1ccccc1
REMARK SMILES IDX 18 1 17 2 16 3 15 4 13 5 14 6 12 7 7 8 8 9 9 10 11 11 10 12
REMARK SMILES IDX 5 13 4 14 6 16 3 17 2 18 1 19 90 20 91 21 95 22 92 23 94 24
REMARK SMILES IDX 93 25 19 26 20 27 21 28 22 29 23 30 24 31 25 32 89 33 26 34
REMARK SMILES IDX 88 35 27 36 28 37 29 38 82 39 30 40 87 41 81 42 83 43 31 44
REMARK SMILES IDX 86 45 80 46 79 47 32 49 66 50 45 51 65 52 46 53 49 54 64 55
REMARK SMILES IDX 84 56 47 57 48 58 63 60 85 61 50 62 33 63 34 64 43 65 35 66
REMARK SMILES IDX 36 67 42 68 44 69 37 70 38 71 39 72 40 73 41 74 67 75 68 76
REMARK SMILES IDX 77 77 69 78 70 79 76 80 78 81 71 82 72 83 73 84 74 85 75 86
REMARK SMILES IDX 51 87 52 88 61 89 53 90 54 91 60 92 62 93 55 94 56 95 57 96
REMARK SMILES IDX 58 97 59 98
REMARK H PARENT 4 15 83 48 49 59
REMARK Flexibility Score: inf
ROOT
ATOM      1  O   UNL A   1      39.891  22.290  27.067  1.00  0.00    -0.374 OA
ENDROOT
BRANCH   1   2
ATOM      2  C   UNL A   1      38.844  23.037  26.418  1.00  0.00     0.202 C 
BRANCH   2   3
ATOM      3  C   UNL A   1      37.976  22.179  25.481  1.00  0.00     0.261 C 
BRANCH   3   4
ATOM      4  O   UNL A   1      36.734  22.870  25.218  1.00  0.00    -0.460 OA
BRANCH   4   5
ATOM      5  C   UNL A   1      36.144  22.619  24.008  1.00  0.00     0.342 C 
ATOM      6  O   UNL A   1      36.662  22.832  22.927  1.00  0.00    -0.246 OA
BRANCH   5   7
ATOM      7  C   UNL A   1      34.879  21.931  24.176  1.00  0.00     0.111 A 
ATOM      8  C   UNL A   1      33.573  22.390  23.831  1.00  0.00     0.164 A 
ATOM      9  N   UNL A   1      32.644  21.444  24.078  1.00  0.00    -0.167 NA
ATOM     10  N   UNL A   1      33.349  20.401  24.541  1.00  0.00    -0.274 N 
ATOM     11  C   UNL A   1      34.687  20.635  24.621  1.00  0.00     0.125 A 
ATOM     12  C   UNL A   1      32.656  19.178  24.867  1.00  0.00     0.173 C 
BRANCH   8  13
ATOM     13  C   UNL A   1      33.169  23.689  23.303  1.00  0.00     0.273 C 
ATOM     14  N   UNL A   1      33.072  24.784  24.129  1.00  0.00    -0.344 N 
ATOM     15  H   UNL A   1      33.231  25.634  23.657  1.00  0.00     0.164 HD
ATOM     16  O   UNL A   1      32.993  23.873  22.098  1.00  0.00    -0.267 OA
BRANCH  14  17
ATOM     17  C   UNL A   1      32.787  24.971  25.550  1.00  0.00     0.112 C 
BRANCH  17  18
ATOM     18  C   UNL A   1      33.531  23.943  26.444  1.00  0.00     0.026 C 
ATOM     19  C   UNL A   1      32.663  23.054  27.320  1.00  0.00     0.006 C 
ENDBRANCH  17  18
BRANCH  17  20
ATOM     20  C   UNL A   1      32.717  26.386  26.097  1.00  0.00    -0.026 A 
ATOM     21  C   UNL A   1      33.807  27.264  26.078  1.00  0.00     0.006 A 
ATOM     22  C   UNL A   1      31.539  26.847  26.707  1.00  0.00     0.006 A 
ATOM     23  C   UNL A   1      33.741  28.544  26.635  1.00  0.00     0.000 A 
ATOM     24  C   UNL A   1      31.468  28.122  27.281  1.00  0.00     0.000 A 
ATOM     25  C   UNL A   1      32.569  28.972  27.243  1.00  0.00     0.000 A 
ENDBRANCH  17  20
ENDBRANCH  14  17
ENDBRANCH   8  13
ENDBRANCH   5   7
ENDBRANCH   4   5
ENDBRANCH   3   4
ENDBRANCH   2   3
ENDBRANCH   1   2
BRANCH   1  26
ATOM     26  C   UNL A   1      40.985  21.947  26.219  1.00  0.00     0.202 C 
BRANCH  26  27
ATOM     27  C   UNL A   1      42.311  22.649  26.535  1.00  0.00     0.261 C 
BRANCH  27  28
ATOM     28  O   UNL A   1      42.109  23.696  27.485  1.00  0.00    -0.460 OA
BRANCH  28  29
ATOM     29  C   UNL A   1      42.213  24.927  26.924  1.00  0.00     0.338 C 
ATOM     30  O   UNL A   1      42.557  25.188  25.783  1.00  0.00    -0.246 OA
BRANCH  29  31
ATOM     31  C   UNL A   1      41.637  25.924  27.842  1.00  0.00     0.060 A 
ATOM     32  C   UNL A   1      42.398  27.073  28.076  1.00  0.00     0.016 A 
ATOM     33  C   UNL A   1      40.386  25.755  28.450  1.00  0.00     0.016 A 
ATOM     34  C   UNL A   1      41.941  28.031  28.970  1.00  0.00     0.010 A 
ATOM     35  C   UNL A   1      39.929  26.719  29.349  1.00  0.00     0.010 A 
ATOM     36  C   UNL A   1      40.727  27.835  29.641  1.00  0.00    -0.014 A 
BRANCH  36  37
ATOM     37  C   UNL A   1      40.428  28.713  30.790  1.00  0.00     0.031 A 
ATOM     38  C   UNL A   1      41.285  28.582  32.017  1.00  0.00     0.074 A 
ATOM     39  C   UNL A   1      39.488  29.669  30.696  1.00  0.00     0.049 A 
ATOM     40  N   UNL A   1      41.339  29.349  33.073  1.00  0.00    -0.248 NA
ATOM     41  C   UNL A   1      42.214  27.438  32.054  1.00  0.00     0.031 C 
ATOM     42  C   UNL A   1      38.606  29.881  29.548  1.00  0.00     0.029 A 
ATOM     43  N   UNL A   1      39.135  30.654  31.580  1.00  0.00    -0.354 N 
ATOM     44  C   UNL A   1      42.321  28.797  33.887  1.00  0.00     0.074 A 
ATOM     45  C   UNL A   1      42.809  27.607  33.225  1.00  0.00     0.031 C 
ATOM     46  C   UNL A   1      37.815  30.941  29.797  1.00  0.00     0.029 A 
ATOM     47  C   UNL A   1      38.144  31.482  31.114  1.00  0.00     0.049 A 
ATOM     48  H   UNL A   1      39.553  30.758  32.465  1.00  0.00     0.167 HD
ATOM     49  C   UNL A   1      42.788  29.253  35.071  1.00  0.00     0.037 A 
ATOM     50  C   UNL A   1      37.584  32.565  31.685  1.00  0.00     0.037 A 
ATOM     51  C   UNL A   1      42.296  30.435  35.723  1.00  0.00     0.049 A 
ATOM     52  C   UNL A   1      38.102  33.037  33.017  1.00  0.00     0.074 A 
ATOM     53  C   UNL A   1      42.713  31.002  36.912  1.00  0.00     0.029 A 
ATOM     54  N   UNL A   1      41.268  31.227  35.235  1.00  0.00    -0.354 N 
ATOM     55  N   UNL A   1      39.075  32.542  33.746  1.00  0.00    -0.248 NA
ATOM     56  C   UNL A   1      37.457  34.222  33.598  1.00  0.00     0.031 C 
ATOM     57  C   UNL A   1      41.914  32.126  37.159  1.00  0.00     0.029 A 
ATOM     58  C   UNL A   1      41.018  32.267  36.110  1.00  0.00     0.049 A 
ATOM     59  H   UNL A   1      40.786  31.071  34.391  1.00  0.00     0.167 HD
ATOM     60  C   UNL A   1      39.168  33.362  34.863  1.00  0.00     0.074 A 
ATOM     61  C   UNL A   1      38.162  34.394  34.709  1.00  0.00     0.031 C 
ATOM     62  C   UNL A   1      40.008  33.274  35.925  1.00  0.00     0.037 A 
BRANCH  49  63
ATOM     63  C   UNL A   1      43.880  28.465  35.727  1.00  0.00     0.058 A 
ATOM     64  C   UNL A   1      43.591  27.384  36.575  1.00  0.00     0.135 A 
ATOM     65  C   UNL A   1      45.227  28.787  35.506  1.00  0.00     0.135 A 
ATOM     66  F   UNL A   1      42.316  27.055  36.838  1.00  0.00    -0.206 F 
ATOM     67  C   UNL A   1      44.601  26.656  37.194  1.00  0.00     0.059 A 
ATOM     68  C   UNL A   1      46.255  28.065  36.103  1.00  0.00     0.059 A 
ATOM     69  F   UNL A   1      45.553  29.822  34.716  1.00  0.00    -0.206 F 
ATOM     70  C   UNL A   1      45.931  27.007  36.955  1.00  0.00     0.060 A 
BRANCH  70  71
ATOM     71  S   UNL A   1      47.238  26.056  37.759  1.00  0.00     0.124 S 
ATOM     72  O   UNL A   1      48.227  25.961  36.690  1.00  0.00    -0.237 OA
ATOM     73  O   UNL A   1      47.603  26.908  38.885  1.00  0.00    -0.237 OA
ATOM     74  O   UNL A   1      46.576  24.805  38.114  1.00  0.00    -0.744 OA
ENDBRANCH  70  71
ENDBRANCH  49  63
BRANCH  50  75
ATOM     75  C   UNL A   1      36.481  33.286  31.000  1.00  0.00     0.058 A 
ATOM     76  C   UNL A   1      36.726  34.093  29.880  1.00  0.00     0.135 A 
ATOM     77  C   UNL A   1      35.161  33.189  31.464  1.00  0.00     0.135 A 
ATOM     78  F   UNL A   1      37.973  34.220  29.406  1.00  0.00    -0.206 F 
ATOM     79  C   UNL A   1      35.703  34.797  29.254  1.00  0.00     0.059 A 
ATOM     80  C   UNL A   1      34.118  33.870  30.845  1.00  0.00     0.059 A 
ATOM     81  F   UNL A   1      34.876  32.417  32.525  1.00  0.00    -0.206 F 
ATOM     82  C   UNL A   1      34.402  34.683  29.747  1.00  0.00     0.060 A 
BRANCH  82  83
ATOM     83  S   UNL A   1      33.063  35.566  28.915  1.00  0.00     0.124 S 
ATOM     84  O   UNL A   1      32.449  34.498  28.136  1.00  0.00    -0.237 OA
ATOM     85  O   UNL A   1      32.277  36.073  30.036  1.00  0.00    -0.237 OA
ATOM     86  O   UNL A   1      33.771  36.587  28.147  1.00  0.00    -0.744 OA
ENDBRANCH  82  83
ENDBRANCH  50  75
BRANCH  62  87
ATOM     87  C   UNL A   1      39.867  34.320  36.990  1.00  0.00     0.058 A 
ATOM     88  C   UNL A   1      39.114  34.079  38.147  1.00  0.00     0.135 A 
ATOM     89  C   UNL A   1      40.521  35.555  36.869  1.00  0.00     0.135 A 
ATOM     90  F   UNL A   1      38.468  32.912  38.302  1.00  0.00    -0.206 F 
ATOM     91  C   UNL A   1      38.997  35.038  39.146  1.00  0.00     0.059 A 
ATOM     92  C   UNL A   1      40.432  36.523  37.864  1.00  0.00     0.059 A 
ATOM     93  F   UNL A   1      41.262  35.825  35.782  1.00  0.00    -0.206 F 
ATOM     94  C   UNL A   1      39.656  36.260  38.992  1.00  0.00     0.060 A 
BRANCH  94  95
ATOM     95  S   UNL A   1      39.522  37.496  40.302  1.00  0.00     0.124 S 
ATOM     96  O   UNL A   1      39.540  36.658  41.496  1.00  0.00    -0.237 OA
ATOM     97  O   UNL A   1      40.709  38.319  40.088  1.00  0.00    -0.237 OA
ATOM     98  O   UNL A   1      38.253  38.154  40.011  1.00  0.00    -0.744 OA
ENDBRANCH  94  95
ENDBRANCH  62  87
ENDBRANCH  36  37
ENDBRANCH  29  31
ENDBRANCH  28  29
ENDBRANCH  27  28
ENDBRANCH  26  27
ENDBRANCH   1  26
TORSDOF 21
ENDMDL
