MODEL 1
REMARK VINA RESULT:      -9.9      0.000      0.000
REMARK SMILES C[C@@H](CC(=O)OCCOCCOC(=O)c1ccc(-c2c3nc(c(-c4c(F)cc(S(=O)(=O)[O-])cc4F)c4ccc([nH]4)c(-c4c(F)cc(S(=O)(=O)[O-])cc4F)c4nc(c(-c5c(F)cc(S(=O)(=O)[O-])cc5F)c5ccc2[nH]5)C=C4)C=C3)cc1)c1cn(C)c(=O)n(C)c1=O
REMARK SMILES IDX 10 1 9 2 8 3 7 4 6 5 4 6 5 7 3 8 2 9 1 10 81 11 82 12 89 13
REMARK SMILES IDX 83 14 87 15 90 16 84 17 85 18 88 19 86 20 11 21 12 22 13 23
REMARK SMILES IDX 14 24 15 25 16 26 80 27 17 28 79 29 18 30 19 31 20 32 73 33
REMARK SMILES IDX 21 34 78 35 72 36 74 37 22 38 77 39 71 40 70 41 23 43 57 44
REMARK SMILES IDX 36 45 56 46 37 47 40 48 55 49 75 50 38 51 39 52 54 54 76 55
REMARK SMILES IDX 41 56 24 57 25 58 34 59 26 60 27 61 33 62 35 63 28 64 29 65
REMARK SMILES IDX 30 66 31 67 32 68 58 69 59 70 68 71 60 72 61 73 67 74 69 75
REMARK SMILES IDX 62 76 63 77 64 78 65 79 66 80 42 81 43 82 52 83 44 84 45 85
REMARK SMILES IDX 51 86 53 87 46 88 47 89 48 90 49 91 50 92
REMARK H PARENT 74 42 40 53
REMARK Flexibility Score: inf
ROOT
ATOM      1  C   UNL A   1      45.230  24.454  25.208  1.00  0.00     0.202 C 
ENDROOT
BRANCH   1   2
ATOM      2  O   UNL A   1      45.743  23.679  24.125  1.00  0.00    -0.374 OA
BRANCH   2   3
ATOM      3  C   UNL A   1      45.102  22.429  23.851  1.00  0.00     0.202 C 
BRANCH   3   4
ATOM      4  C   UNL A   1      45.625  21.229  24.648  1.00  0.00     0.261 C 
BRANCH   4   5
ATOM      5  O   UNL A   1      45.476  19.996  23.918  1.00  0.00    -0.463 OA
BRANCH   5   6
ATOM      6  C   UNL A   1      45.151  18.918  24.682  1.00  0.00     0.306 C 
ATOM      7  O   UNL A   1      45.963  18.196  25.247  1.00  0.00    -0.252 OA
BRANCH   6   8
ATOM      8  C   UNL A   1      43.658  18.799  24.900  1.00  0.00     0.131 C 
BRANCH   8   9
ATOM      9  C   UNL A   1      43.071  19.080  26.300  1.00  0.00     0.034 C 
ATOM     10  C   UNL A   1      43.049  17.868  27.238  1.00  0.00     0.013 C 
BRANCH   9  11
ATOM     11  C   UNL A   1      41.756  19.851  26.210  1.00  0.00     0.037 A 
ATOM     12  C   UNL A   1      40.587  19.365  25.781  1.00  0.00     0.100 A 
ATOM     13  C   UNL A   1      41.766  21.271  26.675  1.00  0.00     0.259 A 
ATOM     14  N   UNL A   1      39.438  20.116  25.708  1.00  0.00    -0.303 N 
ATOM     15  N   UNL A   1      40.553  21.937  26.687  1.00  0.00    -0.263 N 
ATOM     16  O   UNL A   1      42.830  21.793  27.008  1.00  0.00    -0.269 OA
ATOM     17  C   UNL A   1      38.227  19.545  25.134  1.00  0.00     0.154 C 
ATOM     18  C   UNL A   1      39.380  21.437  26.136  1.00  0.00     0.330 A 
ATOM     19  C   UNL A   1      40.508  23.285  27.214  1.00  0.00     0.158 C 
ATOM     20  O   UNL A   1      38.363  22.123  26.016  1.00  0.00    -0.248 OA
ENDBRANCH   9  11
ENDBRANCH   8   9
ENDBRANCH   6   8
ENDBRANCH   5   6
ENDBRANCH   4   5
ENDBRANCH   3   4
ENDBRANCH   2   3
ENDBRANCH   1   2
BRANCH   1  21
ATOM     21  C   UNL A   1      43.730  24.765  25.148  1.00  0.00     0.261 C 
BRANCH  21  22
ATOM     22  O   UNL A   1      43.440  26.151  25.423  1.00  0.00    -0.460 OA
BRANCH  22  23
ATOM     23  C   UNL A   1      42.171  26.395  25.828  1.00  0.00     0.338 C 
ATOM     24  O   UNL A   1      41.145  26.110  25.223  1.00  0.00    -0.246 OA
BRANCH  23  25
ATOM     25  C   UNL A   1      42.155  27.003  27.170  1.00  0.00     0.060 A 
ATOM     26  C   UNL A   1      41.201  26.556  28.090  1.00  0.00     0.016 A 
ATOM     27  C   UNL A   1      42.965  28.102  27.475  1.00  0.00     0.016 A 
ATOM     28  C   UNL A   1      41.031  27.230  29.303  1.00  0.00     0.010 A 
ATOM     29  C   UNL A   1      42.800  28.768  28.696  1.00  0.00     0.010 A 
ATOM     30  C   UNL A   1      41.809  28.359  29.605  1.00  0.00    -0.014 A 
BRANCH  30  31
ATOM     31  C   UNL A   1      41.520  29.161  30.825  1.00  0.00     0.031 A 
ATOM     32  C   UNL A   1      40.358  30.120  30.839  1.00  0.00     0.074 A 
ATOM     33  C   UNL A   1      42.279  29.024  31.929  1.00  0.00     0.049 A 
ATOM     34  N   UNL A   1      39.944  30.904  31.803  1.00  0.00    -0.248 NA
ATOM     35  C   UNL A   1      39.559  30.208  29.607  1.00  0.00     0.031 C 
ATOM     36  C   UNL A   1      43.424  28.124  32.058  1.00  0.00     0.029 A 
ATOM     37  N   UNL A   1      42.201  29.646  33.151  1.00  0.00    -0.354 N 
ATOM     38  C   UNL A   1      38.836  31.576  31.298  1.00  0.00     0.074 A 
ATOM     39  C   UNL A   1      38.663  31.131  29.931  1.00  0.00     0.031 C 
ATOM     40  C   UNL A   1      43.942  28.253  33.292  1.00  0.00     0.029 A 
ATOM     41  C   UNL A   1      43.184  29.261  34.031  1.00  0.00     0.049 A 
ATOM     42  H   UNL A   1      41.505  30.306  33.376  1.00  0.00     0.167 HD
ATOM     43  C   UNL A   1      38.029  32.471  31.918  1.00  0.00     0.037 A 
ATOM     44  C   UNL A   1      43.453  29.681  35.284  1.00  0.00     0.037 A 
ATOM     45  C   UNL A   1      38.191  32.913  33.279  1.00  0.00     0.049 A 
ATOM     46  C   UNL A   1      42.576  30.717  35.934  1.00  0.00     0.074 A 
ATOM     47  C   UNL A   1      37.399  33.795  33.996  1.00  0.00     0.029 A 
ATOM     48  N   UNL A   1      39.215  32.519  34.126  1.00  0.00    -0.354 N 
ATOM     49  N   UNL A   1      41.510  31.311  35.456  1.00  0.00    -0.248 NA
ATOM     50  C   UNL A   1      42.939  31.141  37.296  1.00  0.00     0.031 C 
ATOM     51  C   UNL A   1      37.968  33.964  35.263  1.00  0.00     0.029 A 
ATOM     52  C   UNL A   1      39.090  33.157  35.349  1.00  0.00     0.049 A 
ATOM     53  H   UNL A   1      39.926  31.880  33.893  1.00  0.00     0.167 HD
ATOM     54  C   UNL A   1      41.060  32.157  36.465  1.00  0.00     0.074 A 
ATOM     55  C   UNL A   1      41.967  31.998  37.581  1.00  0.00     0.031 C 
ATOM     56  C   UNL A   1      39.988  32.987  36.463  1.00  0.00     0.037 A 
BRANCH  43  57
ATOM     57  C   UNL A   1      36.890  33.046  31.124  1.00  0.00     0.058 A 
ATOM     58  C   UNL A   1      37.092  34.081  30.198  1.00  0.00     0.135 A 
ATOM     59  C   UNL A   1      35.594  32.524  31.256  1.00  0.00     0.135 A 
ATOM     60  F   UNL A   1      38.310  34.622  30.043  1.00  0.00    -0.206 F 
ATOM     61  C   UNL A   1      36.041  34.595  29.445  1.00  0.00     0.059 A 
ATOM     62  C   UNL A   1      34.532  33.010  30.499  1.00  0.00     0.059 A 
ATOM     63  F   UNL A   1      35.350  31.533  32.127  1.00  0.00    -0.206 F 
ATOM     64  C   UNL A   1      34.763  34.056  29.606  1.00  0.00     0.060 A 
BRANCH  64  65
ATOM     65  S   UNL A   1      33.407  34.735  28.627  1.00  0.00     0.124 S 
ATOM     66  O   UNL A   1      32.450  35.093  29.668  1.00  0.00    -0.237 OA
ATOM     67  O   UNL A   1      34.045  35.855  27.941  1.00  0.00    -0.237 OA
ATOM     68  O   UNL A   1      33.016  33.620  27.770  1.00  0.00    -0.744 OA
ENDBRANCH  64  65
ENDBRANCH  43  57
BRANCH  44  69
ATOM     69  C   UNL A   1      44.621  29.118  36.011  1.00  0.00     0.058 A 
ATOM     70  C   UNL A   1      44.485  27.997  36.843  1.00  0.00     0.135 A 
ATOM     71  C   UNL A   1      45.897  29.689  35.881  1.00  0.00     0.135 A 
ATOM     72  F   UNL A   1      43.283  27.425  37.006  1.00  0.00    -0.206 F 
ATOM     73  C   UNL A   1      45.572  27.465  37.527  1.00  0.00     0.059 A 
ATOM     74  C   UNL A   1      47.002  29.161  36.537  1.00  0.00     0.059 A 
ATOM     75  F   UNL A   1      46.077  30.757  35.088  1.00  0.00    -0.206 F 
ATOM     76  C   UNL A   1      46.828  28.053  37.365  1.00  0.00     0.060 A 
BRANCH  76  77
ATOM     77  S   UNL A   1      48.247  27.320  38.210  1.00  0.00     0.124 S 
ATOM     78  O   UNL A   1      47.594  26.394  39.127  1.00  0.00    -0.237 OA
ATOM     79  O   UNL A   1      48.985  26.715  37.105  1.00  0.00    -0.237 OA
ATOM     80  O   UNL A   1      48.896  28.473  38.828  1.00  0.00    -0.744 OA
ENDBRANCH  76  77
ENDBRANCH  44  69
BRANCH  56  81
ATOM     81  C   UNL A   1      39.707  33.774  37.713  1.00  0.00     0.058 A 
ATOM     82  C   UNL A   1      38.835  33.295  38.702  1.00  0.00     0.135 A 
ATOM     83  C   UNL A   1      40.380  34.981  37.959  1.00  0.00     0.135 A 
ATOM     84  F   UNL A   1      38.162  32.149  38.512  1.00  0.00    -0.206 F 
ATOM     85  C   UNL A   1      38.635  33.989  39.892  1.00  0.00     0.059 A 
ATOM     86  C   UNL A   1      40.210  35.682  39.151  1.00  0.00     0.059 A 
ATOM     87  F   UNL A   1      41.230  35.479  37.048  1.00  0.00    -0.206 F 
ATOM     88  C   UNL A   1      39.332  35.179  40.110  1.00  0.00     0.060 A 
BRANCH  88  89
ATOM     89  S   UNL A   1      39.113  36.040  41.684  1.00  0.00     0.124 S 
ATOM     90  O   UNL A   1      37.826  35.518  42.128  1.00  0.00    -0.237 OA
ATOM     91  O   UNL A   1      40.275  35.596  42.447  1.00  0.00    -0.237 OA
ATOM     92  O   UNL A   1      39.123  37.449  41.303  1.00  0.00    -0.744 OA
ENDBRANCH  88  89
ENDBRANCH  56  81
ENDBRANCH  30  31
ENDBRANCH  23  25
ENDBRANCH  22  23
ENDBRANCH  21  22
ENDBRANCH   1  21
TORSDOF 19
ENDMDL
MODEL 2
REMARK VINA RESULT:      -9.9      0.825      8.329
REMARK SMILES C[C@@H](CC(=O)OCCOCCOC(=O)c1ccc(-c2c3nc(c(-c4c(F)cc(S(=O)(=O)[O-])cc4F)c4ccc([nH]4)c(-c4c(F)cc(S(=O)(=O)[O-])cc4F)c4nc(c(-c5c(F)cc(S(=O)(=O)[O-])cc5F)c5ccc2[nH]5)C=C4)C=C3)cc1)c1cn(C)c(=O)n(C)c1=O
REMARK SMILES IDX 10 1 9 2 8 3 7 4 6 5 4 6 5 7 3 8 2 9 1 10 81 11 82 12 89 13
REMARK SMILES IDX 83 14 87 15 90 16 84 17 85 18 88 19 86 20 11 21 12 22 13 23
REMARK SMILES IDX 14 24 15 25 16 26 80 27 17 28 79 29 18 30 19 31 20 32 73 33
REMARK SMILES IDX 21 34 78 35 72 36 74 37 22 38 77 39 71 40 70 41 23 43 57 44
REMARK SMILES IDX 36 45 56 46 37 47 40 48 55 49 75 50 38 51 39 52 54 54 76 55
REMARK SMILES IDX 41 56 24 57 25 58 34 59 26 60 27 61 33 62 35 63 28 64 29 65
REMARK SMILES IDX 30 66 31 67 32 68 58 69 59 70 68 71 60 72 61 73 67 74 69 75
REMARK SMILES IDX 62 76 63 77 64 78 65 79 66 80 42 81 43 82 52 83 44 84 45 85
REMARK SMILES IDX 51 86 53 87 46 88 47 89 48 90 49 91 50 92
REMARK H PARENT 74 42 40 53
REMARK Flexibility Score: inf
ROOT
ATOM      1  C   UNL A   1      45.876  23.963  25.475  1.00  0.00     0.202 C 
ENDROOT
BRANCH   1   2
ATOM      2  O   UNL A   1      46.276  22.596  25.570  1.00  0.00    -0.374 OA
BRANCH   2   3
ATOM      3  C   UNL A   1      46.272  21.826  24.363  1.00  0.00     0.202 C 
BRANCH   3   4
ATOM      4  C   UNL A   1      46.376  20.308  24.548  1.00  0.00     0.261 C 
BRANCH   4   5
ATOM      5  O   UNL A   1      45.571  19.847  25.650  1.00  0.00    -0.463 OA
BRANCH   5   6
ATOM      6  C   UNL A   1      44.360  19.337  25.296  1.00  0.00     0.306 C 
ATOM      7  O   UNL A   1      44.159  18.166  24.997  1.00  0.00    -0.252 OA
BRANCH   6   8
ATOM      8  C   UNL A   1      43.242  20.341  25.472  1.00  0.00     0.131 C 
BRANCH   8   9
ATOM      9  C   UNL A   1      42.284  20.208  26.675  1.00  0.00     0.034 C 
ATOM     10  C   UNL A   1      42.322  18.845  27.374  1.00  0.00     0.013 C 
BRANCH   9  11
ATOM     11  C   UNL A   1      40.886  20.720  26.335  1.00  0.00     0.037 A 
ATOM     12  C   UNL A   1      39.890  19.998  25.811  1.00  0.00     0.100 A 
ATOM     13  C   UNL A   1      40.591  22.151  26.647  1.00  0.00     0.259 A 
ATOM     14  N   UNL A   1      38.655  20.523  25.512  1.00  0.00    -0.303 N 
ATOM     15  N   UNL A   1      39.295  22.586  26.432  1.00  0.00    -0.263 N 
ATOM     16  O   UNL A   1      41.492  22.880  27.059  1.00  0.00    -0.269 OA
ATOM     17  C   UNL A   1      37.653  19.699  24.849  1.00  0.00     0.154 C 
ATOM     18  C   UNL A   1      38.315  21.842  25.789  1.00  0.00     0.330 A 
ATOM     19  C   UNL A   1      38.949  23.942  26.805  1.00  0.00     0.158 C 
ATOM     20  O   UNL A   1      37.226  22.321  25.467  1.00  0.00    -0.248 OA
ENDBRANCH   9  11
ENDBRANCH   8   9
ENDBRANCH   6   8
ENDBRANCH   5   6
ENDBRANCH   4   5
ENDBRANCH   3   4
ENDBRANCH   2   3
ENDBRANCH   1   2
BRANCH   1  21
ATOM     21  C   UNL A   1      44.365  24.206  25.383  1.00  0.00     0.261 C 
BRANCH  21  22
ATOM     22  O   UNL A   1      44.029  25.608  25.369  1.00  0.00    -0.460 OA
BRANCH  22  23
ATOM     23  C   UNL A   1      42.738  25.885  25.672  1.00  0.00     0.338 C 
ATOM     24  O   UNL A   1      41.754  25.588  25.008  1.00  0.00    -0.246 OA
BRANCH  23  25
ATOM     25  C   UNL A   1      42.638  26.549  26.984  1.00  0.00     0.060 A 
ATOM     26  C   UNL A   1      41.674  26.091  27.888  1.00  0.00     0.016 A 
ATOM     27  C   UNL A   1      43.375  27.704  27.267  1.00  0.00     0.016 A 
ATOM     28  C   UNL A   1      41.421  26.807  29.061  1.00  0.00     0.010 A 
ATOM     29  C   UNL A   1      43.127  28.413  28.450  1.00  0.00     0.010 A 
ATOM     30  C   UNL A   1      42.125  27.990  29.340  1.00  0.00    -0.014 A 
BRANCH  30  31
ATOM     31  C   UNL A   1      41.746  28.826  30.511  1.00  0.00     0.031 A 
ATOM     32  C   UNL A   1      42.540  28.736  31.789  1.00  0.00     0.074 A 
ATOM     33  C   UNL A   1      40.709  29.681  30.433  1.00  0.00     0.049 A 
ATOM     34  N   UNL A   1      42.369  29.383  32.915  1.00  0.00    -0.248 NA
ATOM     35  C   UNL A   1      43.672  27.798  31.800  1.00  0.00     0.031 C 
ATOM     36  C   UNL A   1      39.865  29.878  29.256  1.00  0.00     0.029 A 
ATOM     37  N   UNL A   1      40.186  30.540  31.369  1.00  0.00    -0.354 N 
ATOM     38  C   UNL A   1      43.371  28.933  33.768  1.00  0.00     0.074 A 
ATOM     39  C   UNL A   1      44.126  27.935  33.039  1.00  0.00     0.031 C 
ATOM     40  C   UNL A   1      38.929  30.800  29.540  1.00  0.00     0.029 A 
ATOM     41  C   UNL A   1      39.090  31.240  30.925  1.00  0.00     0.049 A 
ATOM     42  H   UNL A   1      40.563  30.645  32.273  1.00  0.00     0.167 HD
ATOM     43  C   UNL A   1      43.647  29.323  35.037  1.00  0.00     0.037 A 
ATOM     44  C   UNL A   1      38.296  32.123  31.563  1.00  0.00     0.037 A 
ATOM     45  C   UNL A   1      42.906  30.320  35.766  1.00  0.00     0.049 A 
ATOM     46  C   UNL A   1      38.588  32.502  32.991  1.00  0.00     0.074 A 
ATOM     47  C   UNL A   1      43.137  30.797  37.045  1.00  0.00     0.029 A 
ATOM     48  N   UNL A   1      41.786  30.984  35.288  1.00  0.00    -0.354 N 
ATOM     49  N   UNL A   1      39.563  32.096  33.768  1.00  0.00    -0.248 NA
ATOM     50  C   UNL A   1      37.671  33.459  33.630  1.00  0.00     0.031 C 
ATOM     51  C   UNL A   1      42.133  31.722  37.356  1.00  0.00     0.029 A 
ATOM     52  C   UNL A   1      41.302  31.849  36.256  1.00  0.00     0.049 A 
ATOM     53  H   UNL A   1      41.394  30.860  34.395  1.00  0.00     0.167 HD
ATOM     54  C   UNL A   1      39.393  32.766  34.975  1.00  0.00     0.074 A 
ATOM     55  C   UNL A   1      38.223  33.606  34.828  1.00  0.00     0.031 C 
ATOM     56  C   UNL A   1      40.143  32.692  36.101  1.00  0.00     0.037 A 
BRANCH  43  57
ATOM     57  C   UNL A   1      44.804  28.662  35.731  1.00  0.00     0.058 A 
ATOM     58  C   UNL A   1      44.624  27.524  36.532  1.00  0.00     0.135 A 
ATOM     59  C   UNL A   1      46.111  29.143  35.553  1.00  0.00     0.135 A 
ATOM     60  F   UNL A   1      43.393  27.032  36.742  1.00  0.00    -0.206 F 
ATOM     61  C   UNL A   1      45.699  26.897  37.153  1.00  0.00     0.059 A 
ATOM     62  C   UNL A   1      47.203  28.520  36.150  1.00  0.00     0.059 A 
ATOM     63  F   UNL A   1      46.335  30.227  34.795  1.00  0.00    -0.206 F 
ATOM     64  C   UNL A   1      46.985  27.406  36.959  1.00  0.00     0.060 A 
BRANCH  64  65
ATOM     65  S   UNL A   1      48.372  26.587  37.776  1.00  0.00     0.124 S 
ATOM     66  O   UNL A   1      49.510  27.255  37.153  1.00  0.00    -0.237 OA
ATOM     67  O   UNL A   1      48.142  26.905  39.181  1.00  0.00    -0.237 OA
ATOM     68  O   UNL A   1      48.195  25.183  37.417  1.00  0.00    -0.744 OA
ENDBRANCH  64  65
ENDBRANCH  43  57
BRANCH  44  69
ATOM     69  C   UNL A   1      37.134  32.714  30.850  1.00  0.00     0.058 A 
ATOM     70  C   UNL A   1      35.842  32.195  31.015  1.00  0.00     0.135 A 
ATOM     71  C   UNL A   1      37.295  33.815  29.994  1.00  0.00     0.135 A 
ATOM     72  F   UNL A   1      35.642  31.136  31.814  1.00  0.00    -0.206 F 
ATOM     73  C   UNL A   1      34.749  32.742  30.351  1.00  0.00     0.059 A 
ATOM     74  C   UNL A   1      36.215  34.393  29.337  1.00  0.00     0.059 A 
ATOM     75  F   UNL A   1      38.512  34.352  29.812  1.00  0.00    -0.206 F 
ATOM     76  C   UNL A   1      34.946  33.843  29.516  1.00  0.00     0.060 A 
BRANCH  76  77
ATOM     77  S   UNL A   1      33.514  34.585  28.704  1.00  0.00     0.124 S 
ATOM     78  O   UNL A   1      33.076  33.500  27.834  1.00  0.00    -0.237 OA
ATOM     79  O   UNL A   1      32.642  34.891  29.834  1.00  0.00    -0.237 OA
ATOM     80  O   UNL A   1      34.081  35.749  28.028  1.00  0.00    -0.744 OA
ENDBRANCH  76  77
ENDBRANCH  44  69
BRANCH  56  81
ATOM     81  C   UNL A   1      39.752  33.560  37.265  1.00  0.00     0.058 A 
ATOM     82  C   UNL A   1      38.796  33.143  38.204  1.00  0.00     0.135 A 
ATOM     83  C   UNL A   1      40.400  34.786  37.487  1.00  0.00     0.135 A 
ATOM     84  F   UNL A   1      38.143  31.983  38.033  1.00  0.00    -0.206 F 
ATOM     85  C   UNL A   1      38.492  33.915  39.322  1.00  0.00     0.059 A 
ATOM     86  C   UNL A   1      40.126  35.564  38.609  1.00  0.00     0.059 A 
ATOM     87  F   UNL A   1      41.327  35.226  36.623  1.00  0.00    -0.206 F 
ATOM     88  C   UNL A   1      39.167  35.122  39.519  1.00  0.00     0.060 A 
BRANCH  88  89
ATOM     89  S   UNL A   1      38.810  36.085  41.005  1.00  0.00     0.124 S 
ATOM     90  O   UNL A   1      40.066  35.972  41.738  1.00  0.00    -0.237 OA
ATOM     91  O   UNL A   1      38.510  37.405  40.459  1.00  0.00    -0.237 OA
ATOM     92  O   UNL A   1      37.672  35.386  41.596  1.00  0.00    -0.744 OA
ENDBRANCH  88  89
ENDBRANCH  56  81
ENDBRANCH  30  31
ENDBRANCH  23  25
ENDBRANCH  22  23
ENDBRANCH  21  22
ENDBRANCH   1  21
TORSDOF 19
ENDMDL
MODEL 3
REMARK VINA RESULT:      -9.9      5.551     10.929
REMARK SMILES C[C@@H](CC(=O)OCCOCCOC(=O)c1ccc(-c2c3nc(c(-c4c(F)cc(S(=O)(=O)[O-])cc4F)c4ccc([nH]4)c(-c4c(F)cc(S(=O)(=O)[O-])cc4F)c4nc(c(-c5c(F)cc(S(=O)(=O)[O-])cc5F)c5ccc2[nH]5)C=C4)C=C3)cc1)c1cn(C)c(=O)n(C)c1=O
REMARK SMILES IDX 10 1 9 2 8 3 7 4 6 5 4 6 5 7 3 8 2 9 1 10 81 11 82 12 89 13
REMARK SMILES IDX 83 14 87 15 90 16 84 17 85 18 88 19 86 20 11 21 12 22 13 23
REMARK SMILES IDX 14 24 15 25 16 26 80 27 17 28 79 29 18 30 19 31 20 32 73 33
REMARK SMILES IDX 21 34 78 35 72 36 74 37 22 38 77 39 71 40 70 41 23 43 57 44
REMARK SMILES IDX 36 45 56 46 37 47 40 48 55 49 75 50 38 51 39 52 54 54 76 55
REMARK SMILES IDX 41 56 24 57 25 58 34 59 26 60 27 61 33 62 35 63 28 64 29 65
REMARK SMILES IDX 30 66 31 67 32 68 58 69 59 70 68 71 60 72 61 73 67 74 69 75
REMARK SMILES IDX 62 76 63 77 64 78 65 79 66 80 42 81 43 82 52 83 44 84 45 85
REMARK SMILES IDX 51 86 53 87 46 88 47 89 48 90 49 91 50 92
REMARK H PARENT 74 42 40 53
REMARK Flexibility Score: inf
ROOT
ATOM      1  C   UNL A   1      33.177  28.254  25.134  1.00  0.00     0.202 C 
ENDROOT
BRANCH   1   2
ATOM      2  O   UNL A   1      32.693  29.094  24.085  1.00  0.00    -0.374 OA
BRANCH   2   3
ATOM      3  C   UNL A   1      32.340  28.463  22.851  1.00  0.00     0.202 C 
BRANCH   3   4
ATOM      4  C   UNL A   1      32.117  26.948  22.923  1.00  0.00     0.261 C 
BRANCH   4   5
ATOM      5  O   UNL A   1      32.871  26.248  21.913  1.00  0.00    -0.463 OA
BRANCH   5   6
ATOM      6  C   UNL A   1      33.362  25.041  22.304  1.00  0.00     0.306 C 
ATOM      7  O   UNL A   1      33.425  24.050  21.587  1.00  0.00    -0.252 OA
BRANCH   6   8
ATOM      8  C   UNL A   1      33.984  25.095  23.683  1.00  0.00     0.131 C 
BRANCH   8   9
ATOM      9  C   UNL A   1      33.524  24.094  24.764  1.00  0.00     0.034 C 
ATOM     10  C   UNL A   1      33.151  24.731  26.107  1.00  0.00     0.013 C 
BRANCH   9  11
ATOM     11  C   UNL A   1      34.469  22.898  24.856  1.00  0.00     0.037 A 
ATOM     12  C   UNL A   1      35.765  22.943  25.182  1.00  0.00     0.100 A 
ATOM     13  C   UNL A   1      33.885  21.548  24.592  1.00  0.00     0.259 A 
ATOM     14  N   UNL A   1      36.568  21.829  25.233  1.00  0.00    -0.303 N 
ATOM     15  N   UNL A   1      34.717  20.458  24.775  1.00  0.00    -0.263 N 
ATOM     16  O   UNL A   1      32.718  21.455  24.215  1.00  0.00    -0.269 OA
ATOM     17  C   UNL A   1      37.995  21.969  25.495  1.00  0.00     0.154 C 
ATOM     18  C   UNL A   1      36.084  20.546  25.009  1.00  0.00     0.330 A 
ATOM     19  C   UNL A   1      34.165  19.129  24.614  1.00  0.00     0.158 C 
ATOM     20  O   UNL A   1      36.820  19.558  25.000  1.00  0.00    -0.248 OA
ENDBRANCH   9  11
ENDBRANCH   8   9
ENDBRANCH   6   8
ENDBRANCH   5   6
ENDBRANCH   4   5
ENDBRANCH   3   4
ENDBRANCH   2   3
ENDBRANCH   1   2
BRANCH   1  21
ATOM     21  C   UNL A   1      32.789  28.679  26.555  1.00  0.00     0.261 C 
BRANCH  21  22
ATOM     22  O   UNL A   1      33.908  28.657  27.464  1.00  0.00    -0.460 OA
BRANCH  22  23
ATOM     23  C   UNL A   1      34.326  29.878  27.878  1.00  0.00     0.338 C 
ATOM     24  O   UNL A   1      33.636  30.881  27.999  1.00  0.00    -0.246 OA
BRANCH  23  25
ATOM     25  C   UNL A   1      35.751  29.846  28.252  1.00  0.00     0.060 A 
ATOM     26  C   UNL A   1      36.704  30.079  27.254  1.00  0.00     0.016 A 
ATOM     27  C   UNL A   1      36.154  29.445  29.529  1.00  0.00     0.016 A 
ATOM     28  C   UNL A   1      38.060  29.877  27.524  1.00  0.00     0.010 A 
ATOM     29  C   UNL A   1      37.515  29.254  29.799  1.00  0.00     0.010 A 
ATOM     30  C   UNL A   1      38.477  29.435  28.790  1.00  0.00    -0.014 A 
BRANCH  30  31
ATOM     31  C   UNL A   1      39.901  29.076  29.025  1.00  0.00     0.031 A 
ATOM     32  C   UNL A   1      40.848  30.092  29.612  1.00  0.00     0.074 A 
ATOM     33  C   UNL A   1      40.352  27.841  28.734  1.00  0.00     0.049 A 
ATOM     34  N   UNL A   1      42.121  29.970  29.893  1.00  0.00    -0.248 NA
ATOM     35  C   UNL A   1      40.287  31.415  29.924  1.00  0.00     0.031 C 
ATOM     36  C   UNL A   1      39.544  26.759  28.175  1.00  0.00     0.029 A 
ATOM     37  N   UNL A   1      41.604  27.292  28.866  1.00  0.00    -0.354 N 
ATOM     38  C   UNL A   1      42.515  31.197  30.416  1.00  0.00     0.074 A 
ATOM     39  C   UNL A   1      41.351  32.059  30.383  1.00  0.00     0.031 C 
ATOM     40  C   UNL A   1      40.322  25.674  28.011  1.00  0.00     0.029 A 
ATOM     41  C   UNL A   1      41.686  25.992  28.428  1.00  0.00     0.049 A 
ATOM     42  H   UNL A   1      42.371  27.784  29.240  1.00  0.00     0.167 HD
ATOM     43  C   UNL A   1      43.728  31.569  30.891  1.00  0.00     0.037 A 
ATOM     44  C   UNL A   1      42.741  25.155  28.358  1.00  0.00     0.037 A 
ATOM     45  C   UNL A   1      44.888  30.716  30.933  1.00  0.00     0.049 A 
ATOM     46  C   UNL A   1      44.094  25.607  28.841  1.00  0.00     0.074 A 
ATOM     47  C   UNL A   1      46.149  31.003  31.427  1.00  0.00     0.029 A 
ATOM     48  N   UNL A   1      44.934  29.415  30.455  1.00  0.00    -0.354 N 
ATOM     49  N   UNL A   1      44.437  26.757  29.370  1.00  0.00    -0.248 NA
ATOM     50  C   UNL A   1      45.202  24.648  28.719  1.00  0.00     0.031 C 
ATOM     51  C   UNL A   1      46.968  29.890  31.212  1.00  0.00     0.029 A 
ATOM     52  C   UNL A   1      46.207  28.896  30.621  1.00  0.00     0.049 A 
ATOM     53  H   UNL A   1      44.175  28.932  30.057  1.00  0.00     0.167 HD
ATOM     54  C   UNL A   1      45.792  26.650  29.666  1.00  0.00     0.074 A 
ATOM     55  C   UNL A   1      46.207  25.324  29.261  1.00  0.00     0.031 C 
ATOM     56  C   UNL A   1      46.614  27.570  30.227  1.00  0.00     0.037 A 
BRANCH  43  57
ATOM     57  C   UNL A   1      43.873  32.974  31.403  1.00  0.00     0.058 A 
ATOM     58  C   UNL A   1      43.731  33.276  32.767  1.00  0.00     0.135 A 
ATOM     59  C   UNL A   1      44.205  34.021  30.528  1.00  0.00     0.135 A 
ATOM     60  F   UNL A   1      43.403  32.313  33.642  1.00  0.00    -0.206 F 
ATOM     61  C   UNL A   1      43.890  34.573  33.243  1.00  0.00     0.059 A 
ATOM     62  C   UNL A   1      44.388  35.322  30.986  1.00  0.00     0.059 A 
ATOM     63  F   UNL A   1      44.353  33.783  29.216  1.00  0.00    -0.206 F 
ATOM     64  C   UNL A   1      44.215  35.591  32.343  1.00  0.00     0.060 A 
BRANCH  64  65
ATOM     65  S   UNL A   1      44.414  37.271  32.973  1.00  0.00     0.124 S 
ATOM     66  O   UNL A   1      45.651  37.150  33.736  1.00  0.00    -0.237 OA
ATOM     67  O   UNL A   1      44.501  38.058  31.747  1.00  0.00    -0.237 OA
ATOM     68  O   UNL A   1      43.205  37.482  33.764  1.00  0.00    -0.744 OA
ENDBRANCH  64  65
ENDBRANCH  43  57
BRANCH  44  69
ATOM     69  C   UNL A   1      42.559  23.790  27.798  1.00  0.00     0.058 A 
ATOM     70  C   UNL A   1      42.445  22.672  28.635  1.00  0.00     0.135 A 
ATOM     71  C   UNL A   1      42.489  23.583  26.411  1.00  0.00     0.135 A 
ATOM     72  F   UNL A   1      42.518  22.821  29.966  1.00  0.00    -0.206 F 
ATOM     73  C   UNL A   1      42.275  21.392  28.118  1.00  0.00     0.059 A 
ATOM     74  C   UNL A   1      42.297  22.316  25.872  1.00  0.00     0.059 A 
ATOM     75  F   UNL A   1      42.583  24.625  25.570  1.00  0.00    -0.206 F 
ATOM     76  C   UNL A   1      42.200  21.225  26.734  1.00  0.00     0.060 A 
BRANCH  76  77
ATOM     77  S   UNL A   1      41.919  19.568  26.072  1.00  0.00     0.124 S 
ATOM     78  O   UNL A   1      40.497  19.617  25.756  1.00  0.00    -0.237 OA
ATOM     79  O   UNL A   1      42.828  19.533  24.930  1.00  0.00    -0.237 OA
ATOM     80  O   UNL A   1      42.291  18.699  27.185  1.00  0.00    -0.744 OA
ENDBRANCH  76  77
ENDBRANCH  44  69
BRANCH  56  81
ATOM     81  C   UNL A   1      48.045  27.179  30.470  1.00  0.00     0.058 A 
ATOM     82  C   UNL A   1      49.041  27.400  29.508  1.00  0.00     0.135 A 
ATOM     83  C   UNL A   1      48.437  26.653  31.712  1.00  0.00     0.135 A 
ATOM     84  F   UNL A   1      48.718  27.894  28.303  1.00  0.00    -0.206 F 
ATOM     85  C   UNL A   1      50.378  27.107  29.766  1.00  0.00     0.059 A 
ATOM     86  C   UNL A   1      49.770  26.371  31.999  1.00  0.00     0.059 A 
ATOM     87  F   UNL A   1      47.523  26.429  32.669  1.00  0.00    -0.206 F 
ATOM     88  C   UNL A   1      50.733  26.598  31.017  1.00  0.00     0.060 A 
BRANCH  88  89
ATOM     89  S   UNL A   1      52.478  26.281  31.363  1.00  0.00     0.124 S 
ATOM     90  O   UNL A   1      53.076  26.455  30.045  1.00  0.00    -0.237 OA
ATOM     91  O   UNL A   1      52.796  27.313  32.345  1.00  0.00    -0.237 OA
ATOM     92  O   UNL A   1      52.477  24.915  31.878  1.00  0.00    -0.744 OA
ENDBRANCH  88  89
ENDBRANCH  56  81
ENDBRANCH  30  31
ENDBRANCH  23  25
ENDBRANCH  22  23
ENDBRANCH  21  22
ENDBRANCH   1  21
TORSDOF 19
ENDMDL
