MODEL 1
REMARK VINA RESULT:     -13.0      0.000      0.000
REMARK SMILES O=C1CCCC2=C1[C@H](c1ccc([N+](=O)[O-])cc1)CC(=O)N2c1ccccc1C(=O)OCCOCCOC(=O)c1ccc(-c2c3nc(c(-c4c(F)cc(S(=O)(=O)[O-])cc4F)c4ccc([nH]4)c(-c4c(F)cc(S(=O)(=O)[O-])cc4F)c4nc(c(-c5c(F)cc(S(=O)(=O)[O-])cc5F)c5ccc2[nH]5)C=C4)C=C3)cc1
REMARK SMILES IDX 33 1 32 2 31 3 30 4 28 5 29 6 27 7 22 8 23 9 24 10 26 11
REMARK SMILES IDX 25 12 21 13 1 14 2 15 3 16 7 17 4 18 6 19 8 20 5 21 18 22
REMARK SMILES IDX 19 23 20 24 9 25 10 26 17 27 11 28 16 29 12 30 13 31 14 32
REMARK SMILES IDX 15 33 34 34 35 35 36 36 37 37 38 38 39 39 40 40 104 41 41 42
REMARK SMILES IDX 103 43 42 44 43 45 44 46 97 47 45 48 102 49 96 50 98 51
REMARK SMILES IDX 46 52 101 53 95 54 94 55 47 57 81 58 60 59 80 60 61 61 64 62
REMARK SMILES IDX 79 63 99 64 62 65 63 66 78 68 100 69 65 70 48 71 49 72 58 73
REMARK SMILES IDX 50 74 51 75 57 76 59 77 52 78 53 79 54 80 55 81 56 82 82 83
REMARK SMILES IDX 83 84 92 85 84 86 85 87 91 88 93 89 86 90 87 91 88 92 89 93
REMARK SMILES IDX 90 94 66 95 67 96 76 97 68 98 69 99 75 100 77 101 70 102
REMARK SMILES IDX 71 103 72 104 73 105 74 106
REMARK H PARENT 98 56 64 67
REMARK Flexibility Score: inf
ROOT
ATOM      1  O   UNL A   1      39.095  21.717  26.108  1.00  0.00    -0.374 OA
ENDROOT
BRANCH   1   2
ATOM      2  C   UNL A   1      38.004  22.354  25.456  1.00  0.00     0.202 C 
BRANCH   2   3
ATOM      3  C   UNL A   1      37.401  23.651  26.015  1.00  0.00     0.261 C 
BRANCH   3   4
ATOM      4  O   UNL A   1      36.070  23.552  26.533  1.00  0.00    -0.460 OA
BRANCH   4   5
ATOM      5  C   UNL A   1      35.121  23.810  25.602  1.00  0.00     0.340 C 
ATOM      6  O   UNL A   1      35.091  24.785  24.862  1.00  0.00    -0.246 OA
BRANCH   5   7
ATOM      7  C   UNL A   1      34.090  22.755  25.502  1.00  0.00     0.084 A 
ATOM      8  C   UNL A   1      32.745  22.904  25.115  1.00  0.00     0.063 A 
ATOM      9  C   UNL A   1      31.961  21.726  25.043  1.00  0.00     0.027 A 
ATOM     10  C   UNL A   1      32.465  20.466  25.372  1.00  0.00     0.002 A 
ATOM     11  C   UNL A   1      34.582  21.473  25.849  1.00  0.00     0.018 A 
ATOM     12  C   UNL A   1      33.777  20.340  25.794  1.00  0.00     0.001 A 
BRANCH   8  13
ATOM     13  N   UNL A   1      32.058  24.143  24.809  1.00  0.00    -0.284 N 
ATOM     14  O   UNL A   1      30.727  27.611  21.866  1.00  0.00    -0.294 OA
ATOM     15  C   UNL A   1      31.532  26.727  22.134  1.00  0.00     0.161 C 
ATOM     16  C   UNL A   1      32.686  26.390  21.230  1.00  0.00     0.081 C 
ATOM     17  C   UNL A   1      31.482  26.013  23.443  1.00  0.00     0.023 C 
ATOM     18  C   UNL A   1      32.700  24.891  21.037  1.00  0.00     0.015 C 
ATOM     19  C   UNL A   1      32.090  24.811  23.564  1.00  0.00     0.033 C 
ATOM     20  C   UNL A   1      30.732  26.705  24.560  1.00  0.00     0.064 C 
ATOM     21  C   UNL A   1      32.769  24.145  22.373  1.00  0.00     0.055 C 
ATOM     22  C   UNL A   1      30.172  25.617  25.457  1.00  0.00     0.114 C 
ATOM     23  C   UNL A   1      31.249  24.643  25.868  1.00  0.00     0.232 C 
ATOM     24  O   UNL A   1      31.305  24.261  27.039  1.00  0.00    -0.274 OA
BRANCH  20  25
ATOM     25  C   UNL A   1      31.592  27.738  25.303  1.00  0.00    -0.039 A 
ATOM     26  C   UNL A   1      32.998  27.203  26.267  1.00  0.00     0.011 A 
ATOM     27  C   UNL A   1      31.094  29.425  25.206  1.00  0.00     0.011 A 
ATOM     28  C   UNL A   1      34.033  28.301  27.186  1.00  0.00     0.086 A 
ATOM     29  C   UNL A   1      32.049  30.658  26.086  1.00  0.00     0.086 A 
ATOM     30  C   UNL A   1      33.654  30.068  27.171  1.00  0.00     0.269 A 
BRANCH  30  31
ATOM     31  N   UNL A   1      34.887  30.739  27.816  1.00  0.00     0.062 N 
ATOM     32  O   UNL A   1      35.177  31.858  27.364  1.00  0.00    -0.258 OA
ATOM     33  O   UNL A   1      35.571  30.120  28.640  1.00  0.00    -0.258 OA
ENDBRANCH  30  31
ENDBRANCH  20  25
ENDBRANCH   8  13
ENDBRANCH   5   7
ENDBRANCH   4   5
ENDBRANCH   3   4
ENDBRANCH   2   3
ENDBRANCH   1   2
BRANCH   1  34
ATOM     34  C   UNL A   1      40.187  22.482  26.606  1.00  0.00     0.202 C 
BRANCH  34  35
ATOM     35  C   UNL A   1      41.516  22.513  25.848  1.00  0.00     0.261 C 
BRANCH  35  36
ATOM     36  O   UNL A   1      42.458  23.427  26.404  1.00  0.00    -0.460 OA
BRANCH  36  37
ATOM     37  C   UNL A   1      42.269  24.720  26.066  1.00  0.00     0.338 C 
ATOM     38  O   UNL A   1      42.144  25.205  24.957  1.00  0.00    -0.246 OA
BRANCH  37  39
ATOM     39  C   UNL A   1      42.120  25.482  27.303  1.00  0.00     0.060 A 
ATOM     40  C   UNL A   1      40.548  25.591  28.114  1.00  0.00     0.016 A 
ATOM     41  C   UNL A   1      43.455  26.533  27.892  1.00  0.00     0.016 A 
ATOM     42  C   UNL A   1      40.223  26.721  29.470  1.00  0.00     0.010 A 
ATOM     43  C   UNL A   1      43.071  27.798  29.421  1.00  0.00     0.010 A 
ATOM     44  C   UNL A   1      41.426  27.828  30.130  1.00  0.00    -0.014 A 
BRANCH  44  45
ATOM     45  C   UNL A   1      41.162  28.818  31.189  1.00  0.00     0.031 A 
ATOM     46  C   UNL A   1      41.808  28.660  32.530  1.00  0.00     0.074 A 
ATOM     47  C   UNL A   1      40.204  29.744  31.008  1.00  0.00     0.049 A 
ATOM     48  N   UNL A   1      41.931  29.523  33.501  1.00  0.00    -0.248 NA
ATOM     49  C   UNL A   1      42.404  27.354  32.825  1.00  0.00     0.031 C 
ATOM     50  C   UNL A   1      39.398  29.913  29.799  1.00  0.00     0.029 A 
ATOM     51  N   UNL A   1      39.708  30.685  31.870  1.00  0.00    -0.354 N 
ATOM     52  C   UNL A   1      42.738  28.901  34.450  1.00  0.00     0.074 A 
ATOM     53  C   UNL A   1      43.022  27.571  33.974  1.00  0.00     0.031 C 
ATOM     54  C   UNL A   1      38.463  30.853  30.019  1.00  0.00     0.029 A 
ATOM     55  C   UNL A   1      38.642  31.389  31.364  1.00  0.00     0.049 A 
ATOM     56  H   UNL A   1      40.079  30.841  32.769  1.00  0.00     0.167 HD
ATOM     57  C   UNL A   1      43.183  29.394  35.626  1.00  0.00     0.037 A 
ATOM     58  C   UNL A   1      37.918  32.376  31.924  1.00  0.00     0.037 A 
ATOM     59  C   UNL A   1      42.670  30.613  36.185  1.00  0.00     0.049 A 
ATOM     60  C   UNL A   1      38.362  32.896  33.266  1.00  0.00     0.074 A 
ATOM     61  C   UNL A   1      43.013  31.246  37.362  1.00  0.00     0.029 A 
ATOM     62  N   UNL A   1      41.624  31.335  35.623  1.00  0.00    -0.354 N 
ATOM     63  N   UNL A   1      39.328  32.455  34.041  1.00  0.00    -0.248 NA
ATOM     64  C   UNL A   1      37.663  34.075  33.786  1.00  0.00     0.031 C 
ATOM     65  C   UNL A   1      42.121  32.310  37.549  1.00  0.00     0.029 A 
ATOM     66  C   UNL A   1      41.269  32.378  36.455  1.00  0.00     0.049 A 
ATOM     67  H   UNL A   1      41.198  31.132  34.759  1.00  0.00     0.167 HD
ATOM     68  C   UNL A   1      39.385  33.331  35.118  1.00  0.00     0.074 A 
ATOM     69  C   UNL A   1      38.352  34.325  34.891  1.00  0.00     0.031 C 
ATOM     70  C   UNL A   1      40.220  33.332  36.189  1.00  0.00     0.037 A 
BRANCH  57  71
ATOM     71  C   UNL A   1      44.220  28.596  36.368  1.00  0.00     0.058 A 
ATOM     72  C   UNL A   1      45.582  28.938  36.291  1.00  0.00     0.135 A 
ATOM     73  C   UNL A   1      43.872  27.496  37.167  1.00  0.00     0.135 A 
ATOM     74  F   UNL A   1      45.978  29.970  35.527  1.00  0.00    -0.206 F 
ATOM     75  C   UNL A   1      46.560  28.217  36.970  1.00  0.00     0.059 A 
ATOM     76  C   UNL A   1      44.832  26.770  37.871  1.00  0.00     0.059 A 
ATOM     77  F   UNL A   1      42.591  27.107  37.261  1.00  0.00    -0.206 F 
ATOM     78  C   UNL A   1      46.175  27.134  37.762  1.00  0.00     0.060 A 
BRANCH  78  79
ATOM     79  S   UNL A   1      47.453  26.224  38.656  1.00  0.00     0.124 S 
ATOM     80  O   UNL A   1      48.623  27.070  38.443  1.00  0.00    -0.237 OA
ATOM     81  O   UNL A   1      46.925  26.202  40.016  1.00  0.00    -0.237 OA
ATOM     82  O   UNL A   1      47.485  24.931  37.980  1.00  0.00    -0.744 OA
ENDBRANCH  78  79
ENDBRANCH  57  71
BRANCH  58  83
ATOM     83  C   UNL A   1      36.798  32.995  31.165  1.00  0.00     0.058 A 
ATOM     84  C   UNL A   1      35.465  32.729  31.509  1.00  0.00     0.135 A 
ATOM     85  C   UNL A   1      37.032  33.912  30.127  1.00  0.00     0.135 A 
ATOM     86  F   UNL A   1      35.188  31.864  32.496  1.00  0.00    -0.206 F 
ATOM     87  C   UNL A   1      34.403  33.337  30.846  1.00  0.00     0.059 A 
ATOM     88  C   UNL A   1      35.985  34.550  29.463  1.00  0.00     0.059 A 
ATOM     89  F   UNL A   1      38.289  34.214  29.768  1.00  0.00    -0.206 F 
ATOM     90  C   UNL A   1      34.673  34.252  29.827  1.00  0.00     0.060 A 
BRANCH  90  91
ATOM     91  S   UNL A   1      33.281  35.079  29.023  1.00  0.00     0.124 S 
ATOM     92  O   UNL A   1      32.389  35.322  30.151  1.00  0.00    -0.237 OA
ATOM     93  O   UNL A   1      33.919  36.259  28.447  1.00  0.00    -0.237 OA
ATOM     94  O   UNL A   1      32.815  34.091  28.053  1.00  0.00    -0.744 OA
ENDBRANCH  90  91
ENDBRANCH  58  83
BRANCH  70  95
ATOM     95  C   UNL A   1      40.054  34.446  37.178  1.00  0.00     0.058 A 
ATOM     96  C   UNL A   1      40.734  35.665  37.034  1.00  0.00     0.135 A 
ATOM     97  C   UNL A   1      39.152  34.311  38.246  1.00  0.00     0.135 A 
ATOM     98  F   UNL A   1      41.606  35.839  36.030  1.00  0.00    -0.206 F 
ATOM     99  C   UNL A   1      40.546  36.705  37.935  1.00  0.00     0.059 A 
ATOM    100  C   UNL A   1      38.925  35.349  39.140  1.00  0.00     0.059 A 
ATOM    101  F   UNL A   1      38.469  33.168  38.415  1.00  0.00    -0.206 F 
ATOM    102  C   UNL A   1      39.637  36.538  38.983  1.00  0.00     0.060 A 
BRANCH 102 103
ATOM    103  S   UNL A   1      39.378  37.908  40.125  1.00  0.00     0.124 S 
ATOM    104  O   UNL A   1      39.193  37.204  41.390  1.00  0.00    -0.237 OA
ATOM    105  O   UNL A   1      40.620  38.663  39.996  1.00  0.00    -0.237 OA
ATOM    106  O   UNL A   1      38.190  38.573  39.596  1.00  0.00    -0.744 OA
ENDBRANCH 102 103
ENDBRANCH  70  95
ENDBRANCH  44  45
ENDBRANCH  37  39
ENDBRANCH  36  37
ENDBRANCH  35  36
ENDBRANCH  34  35
ENDBRANCH   1  34
TORSDOF 20
ENDMDL
MODEL 2
REMARK VINA RESULT:     -11.7      2.226      8.970
REMARK SMILES O=C1CCCC2=C1[C@H](c1ccc([N+](=O)[O-])cc1)CC(=O)N2c1ccccc1C(=O)OCCOCCOC(=O)c1ccc(-c2c3nc(c(-c4c(F)cc(S(=O)(=O)[O-])cc4F)c4ccc([nH]4)c(-c4c(F)cc(S(=O)(=O)[O-])cc4F)c4nc(c(-c5c(F)cc(S(=O)(=O)[O-])cc5F)c5ccc2[nH]5)C=C4)C=C3)cc1
REMARK SMILES IDX 33 1 32 2 31 3 30 4 28 5 29 6 27 7 22 8 23 9 24 10 26 11
REMARK SMILES IDX 25 12 21 13 1 14 2 15 3 16 7 17 4 18 6 19 8 20 5 21 18 22
REMARK SMILES IDX 19 23 20 24 9 25 10 26 17 27 11 28 16 29 12 30 13 31 14 32
REMARK SMILES IDX 15 33 34 34 35 35 36 36 37 37 38 38 39 39 40 40 104 41 41 42
REMARK SMILES IDX 103 43 42 44 43 45 44 46 97 47 45 48 102 49 96 50 98 51
REMARK SMILES IDX 46 52 101 53 95 54 94 55 47 57 81 58 60 59 80 60 61 61 64 62
REMARK SMILES IDX 79 63 99 64 62 65 63 66 78 68 100 69 65 70 48 71 49 72 58 73
REMARK SMILES IDX 50 74 51 75 57 76 59 77 52 78 53 79 54 80 55 81 56 82 82 83
REMARK SMILES IDX 83 84 92 85 84 86 85 87 91 88 93 89 86 90 87 91 88 92 89 93
REMARK SMILES IDX 90 94 66 95 67 96 76 97 68 98 69 99 75 100 77 101 70 102
REMARK SMILES IDX 71 103 72 104 73 105 74 106
REMARK H PARENT 98 56 64 67
REMARK Flexibility Score: inf
ROOT
ATOM      1  O   UNL A   1      34.389  31.261  28.083  1.00  0.00    -0.374 OA
ENDROOT
BRANCH   1   2
ATOM      2  C   UNL A   1      34.972  30.027  27.688  1.00  0.00     0.202 C 
BRANCH   2   3
ATOM      3  C   UNL A   1      34.099  28.869  27.182  1.00  0.00     0.261 C 
BRANCH   3   4
ATOM      4  O   UNL A   1      34.293  28.486  25.817  1.00  0.00    -0.460 OA
BRANCH   4   5
ATOM      5  C   UNL A   1      33.628  27.353  25.487  1.00  0.00     0.340 C 
ATOM      6  O   UNL A   1      33.756  26.263  26.032  1.00  0.00    -0.246 OA
BRANCH   5   7
ATOM      7  C   UNL A   1      32.648  27.541  24.396  1.00  0.00     0.084 A 
ATOM      8  C   UNL A   1      32.019  26.544  23.628  1.00  0.00     0.063 A 
ATOM      9  C   UNL A   1      31.068  26.973  22.669  1.00  0.00     0.027 A 
ATOM     10  C   UNL A   1      30.778  28.321  22.449  1.00  0.00     0.002 A 
ATOM     11  C   UNL A   1      32.356  28.904  24.150  1.00  0.00     0.018 A 
ATOM     12  C   UNL A   1      31.437  29.293  23.181  1.00  0.00     0.001 A 
BRANCH   8  13
ATOM     13  N   UNL A   1      32.259  25.115  23.687  1.00  0.00    -0.284 N 
ATOM     14  O   UNL A   1      31.507  20.782  25.452  1.00  0.00    -0.294 OA
ATOM     15  C   UNL A   1      31.471  21.995  25.624  1.00  0.00     0.161 C 
ATOM     16  C   UNL A   1      30.943  22.612  26.889  1.00  0.00     0.081 C 
ATOM     17  C   UNL A   1      32.068  22.929  24.626  1.00  0.00     0.023 C 
ATOM     18  C   UNL A   1      29.965  23.698  26.502  1.00  0.00     0.015 C 
ATOM     19  C   UNL A   1      31.681  24.226  24.620  1.00  0.00     0.033 C 
ATOM     20  C   UNL A   1      33.083  22.340  23.672  1.00  0.00     0.064 C 
ATOM     21  C   UNL A   1      30.602  24.733  25.569  1.00  0.00     0.055 C 
ATOM     22  C   UNL A   1      32.996  23.138  22.385  1.00  0.00     0.114 C 
ATOM     23  C   UNL A   1      33.105  24.619  22.655  1.00  0.00     0.232 C 
ATOM     24  O   UNL A   1      33.813  25.317  21.927  1.00  0.00    -0.274 OA
BRANCH  20  25
ATOM     25  C   UNL A   1      34.497  22.279  24.270  1.00  0.00    -0.039 A 
ATOM     26  C   UNL A   1      35.441  23.781  24.482  1.00  0.00     0.011 A 
ATOM     27  C   UNL A   1      35.140  20.688  24.665  1.00  0.00     0.011 A 
ATOM     28  C   UNL A   1      37.086  23.822  25.127  1.00  0.00     0.086 A 
ATOM     29  C   UNL A   1      36.798  20.570  25.332  1.00  0.00     0.086 A 
ATOM     30  C   UNL A   1      37.876  22.265  25.592  1.00  0.00     0.269 A 
BRANCH  30  31
ATOM     31  N   UNL A   1      39.149  22.685  26.360  1.00  0.00     0.062 N 
ATOM     32  O   UNL A   1      39.048  23.734  27.015  1.00  0.00    -0.258 OA
ATOM     33  O   UNL A   1      40.201  22.052  26.212  1.00  0.00    -0.258 OA
ENDBRANCH  30  31
ENDBRANCH  20  25
ENDBRANCH   8  13
ENDBRANCH   5   7
ENDBRANCH   4   5
ENDBRANCH   3   4
ENDBRANCH   2   3
ENDBRANCH   1   2
BRANCH   1  34
ATOM     34  C   UNL A   1      33.192  31.726  27.469  1.00  0.00     0.202 C 
BRANCH  34  35
ATOM     35  C   UNL A   1      32.931  33.227  27.326  1.00  0.00     0.261 C 
BRANCH  35  36
ATOM     36  O   UNL A   1      32.320  33.803  28.477  1.00  0.00    -0.460 OA
BRANCH  36  37
ATOM     37  C   UNL A   1      32.891  34.944  28.918  1.00  0.00     0.338 C 
ATOM     38  O   UNL A   1      32.486  36.087  28.811  1.00  0.00    -0.246 OA
BRANCH  37  39
ATOM     39  C   UNL A   1      34.082  34.577  29.681  1.00  0.00     0.060 A 
ATOM     40  C   UNL A   1      35.679  34.565  28.913  1.00  0.00     0.016 A 
ATOM     41  C   UNL A   1      33.927  33.883  31.333  1.00  0.00     0.016 A 
ATOM     42  C   UNL A   1      37.135  33.867  29.696  1.00  0.00     0.010 A 
ATOM     43  C   UNL A   1      35.578  33.103  32.198  1.00  0.00     0.010 A 
ATOM     44  C   UNL A   1      37.126  33.129  31.297  1.00  0.00    -0.014 A 
BRANCH  44  45
ATOM     45  C   UNL A   1      38.289  32.481  31.927  1.00  0.00     0.031 A 
ATOM     46  C   UNL A   1      38.841  33.028  33.206  1.00  0.00     0.074 A 
ATOM     47  C   UNL A   1      38.959  31.525  31.260  1.00  0.00     0.049 A 
ATOM     48  N   UNL A   1      39.666  32.484  34.057  1.00  0.00    -0.248 NA
ATOM     49  C   UNL A   1      38.406  34.374  33.589  1.00  0.00     0.031 C 
ATOM     50  C   UNL A   1      38.609  31.001  29.940  1.00  0.00     0.029 A 
ATOM     51  N   UNL A   1      40.114  30.863  31.582  1.00  0.00    -0.354 N 
ATOM     52  C   UNL A   1      39.727  33.366  35.132  1.00  0.00     0.074 A 
ATOM     53  C   UNL A   1      38.913  34.508  34.803  1.00  0.00     0.031 C 
ATOM     54  C   UNL A   1      39.565  30.148  29.535  1.00  0.00     0.029 A 
ATOM     55  C   UNL A   1      40.563  30.024  30.591  1.00  0.00     0.049 A 
ATOM     56  H   UNL A   1      40.578  30.978  32.443  1.00  0.00     0.167 HD
ATOM     57  C   UNL A   1      40.423  33.240  36.283  1.00  0.00     0.037 A 
ATOM     58  C   UNL A   1      41.648  29.227  30.565  1.00  0.00     0.037 A 
ATOM     59  C   UNL A   1      41.420  32.224  36.464  1.00  0.00     0.049 A 
ATOM     60  C   UNL A   1      42.472  29.123  31.821  1.00  0.00     0.074 A 
ATOM     61  C   UNL A   1      42.211  31.963  37.565  1.00  0.00     0.029 A 
ATOM     62  N   UNL A   1      41.821  31.353  35.458  1.00  0.00    -0.354 N 
ATOM     63  N   UNL A   1      42.341  29.785  32.948  1.00  0.00    -0.248 NA
ATOM     64  C   UNL A   1      43.551  28.130  31.826  1.00  0.00     0.031 C 
ATOM     65  C   UNL A   1      43.141  30.982  37.197  1.00  0.00     0.029 A 
ATOM     66  C   UNL A   1      42.884  30.586  35.892  1.00  0.00     0.049 A 
ATOM     67  H   UNL A   1      41.407  31.291  34.567  1.00  0.00     0.167 HD
ATOM     68  C   UNL A   1      43.289  29.256  33.815  1.00  0.00     0.074 A 
ATOM     69  C   UNL A   1      43.987  28.221  33.075  1.00  0.00     0.031 C 
ATOM     70  C   UNL A   1      43.555  29.578  35.108  1.00  0.00     0.037 A 
BRANCH  57  71
ATOM     71  C   UNL A   1      40.146  34.236  37.376  1.00  0.00     0.058 A 
ATOM     72  C   UNL A   1      39.264  33.925  38.427  1.00  0.00     0.135 A 
ATOM     73  C   UNL A   1      40.759  35.498  37.397  1.00  0.00     0.135 A 
ATOM     74  F   UNL A   1      38.633  32.739  38.451  1.00  0.00    -0.206 F 
ATOM     75  C   UNL A   1      38.994  34.829  39.451  1.00  0.00     0.059 A 
ATOM     76  C   UNL A   1      40.519  36.412  38.422  1.00  0.00     0.059 A 
ATOM     77  F   UNL A   1      41.592  35.861  36.410  1.00  0.00    -0.206 F 
ATOM     78  C   UNL A   1      39.629  36.071  39.442  1.00  0.00     0.060 A 
BRANCH  78  79
ATOM     79  S   UNL A   1      39.287  37.223  40.791  1.00  0.00     0.124 S 
ATOM     80  O   UNL A   1      40.630  37.676  41.141  1.00  0.00    -0.237 OA
ATOM     81  O   UNL A   1      38.432  38.213  40.144  1.00  0.00    -0.237 OA
ATOM     82  O   UNL A   1      38.628  36.389  41.791  1.00  0.00    -0.744 OA
ENDBRANCH  78  79
ENDBRANCH  57  71
BRANCH  58  83
ATOM     83  C   UNL A   1      41.926  28.396  29.362  1.00  0.00     0.058 A 
ATOM     84  C   UNL A   1      42.955  28.741  28.474  1.00  0.00     0.135 A 
ATOM     85  C   UNL A   1      41.218  27.210  29.109  1.00  0.00     0.135 A 
ATOM     86  F   UNL A   1      43.663  29.863  28.674  1.00  0.00    -0.206 F 
ATOM     87  C   UNL A   1      43.266  27.950  27.372  1.00  0.00     0.059 A 
ATOM     88  C   UNL A   1      41.526  26.390  28.024  1.00  0.00     0.059 A 
ATOM     89  F   UNL A   1      40.235  26.824  29.935  1.00  0.00    -0.206 F 
ATOM     90  C   UNL A   1      42.550  26.772  27.158  1.00  0.00     0.060 A 
BRANCH  90  91
ATOM     91  S   UNL A   1      43.013  25.727  25.757  1.00  0.00     0.124 S 
ATOM     92  O   UNL A   1      44.451  25.588  25.954  1.00  0.00    -0.237 OA
ATOM     93  O   UNL A   1      42.217  24.526  25.996  1.00  0.00    -0.237 OA
ATOM     94  O   UNL A   1      42.609  26.517  24.597  1.00  0.00    -0.744 OA
ENDBRANCH  90  91
ENDBRANCH  58  83
BRANCH  70  95
ATOM     95  C   UNL A   1      44.630  28.792  35.796  1.00  0.00     0.058 A 
ATOM     96  C   UNL A   1      44.341  27.625  36.518  1.00  0.00     0.135 A 
ATOM     97  C   UNL A   1      45.974  29.182  35.674  1.00  0.00     0.135 A 
ATOM     98  F   UNL A   1      43.071  27.216  36.662  1.00  0.00    -0.206 F 
ATOM     99  C   UNL A   1      45.348  26.883  37.121  1.00  0.00     0.059 A 
ATOM    100  C   UNL A   1      46.999  28.438  36.243  1.00  0.00     0.059 A 
ATOM    101  F   UNL A   1      46.299  30.284  34.981  1.00  0.00    -0.206 F 
ATOM    102  C   UNL A   1      46.674  27.297  36.975  1.00  0.00     0.060 A 
BRANCH 102 103
ATOM    103  S   UNL A   1      47.974  26.305  37.735  1.00  0.00     0.124 S 
ATOM    104  O   UNL A   1      47.277  25.742  38.886  1.00  0.00    -0.237 OA
ATOM    105  O   UNL A   1      48.310  25.362  36.673  1.00  0.00    -0.237 OA
ATOM    106  O   UNL A   1      49.011  27.285  38.046  1.00  0.00    -0.744 OA
ENDBRANCH 102 103
ENDBRANCH  70  95
ENDBRANCH  44  45
ENDBRANCH  37  39
ENDBRANCH  36  37
ENDBRANCH  35  36
ENDBRANCH  34  35
ENDBRANCH   1  34
TORSDOF 20
ENDMDL
MODEL 3
REMARK VINA RESULT:     -10.8      3.749      9.773
REMARK SMILES O=C1CCCC2=C1[C@H](c1ccc([N+](=O)[O-])cc1)CC(=O)N2c1ccccc1C(=O)OCCOCCOC(=O)c1ccc(-c2c3nc(c(-c4c(F)cc(S(=O)(=O)[O-])cc4F)c4ccc([nH]4)c(-c4c(F)cc(S(=O)(=O)[O-])cc4F)c4nc(c(-c5c(F)cc(S(=O)(=O)[O-])cc5F)c5ccc2[nH]5)C=C4)C=C3)cc1
REMARK SMILES IDX 33 1 32 2 31 3 30 4 28 5 29 6 27 7 22 8 23 9 24 10 26 11
REMARK SMILES IDX 25 12 21 13 1 14 2 15 3 16 7 17 4 18 6 19 8 20 5 21 18 22
REMARK SMILES IDX 19 23 20 24 9 25 10 26 17 27 11 28 16 29 12 30 13 31 14 32
REMARK SMILES IDX 15 33 34 34 35 35 36 36 37 37 38 38 39 39 40 40 104 41 41 42
REMARK SMILES IDX 103 43 42 44 43 45 44 46 97 47 45 48 102 49 96 50 98 51
REMARK SMILES IDX 46 52 101 53 95 54 94 55 47 57 81 58 60 59 80 60 61 61 64 62
REMARK SMILES IDX 79 63 99 64 62 65 63 66 78 68 100 69 65 70 48 71 49 72 58 73
REMARK SMILES IDX 50 74 51 75 57 76 59 77 52 78 53 79 54 80 55 81 56 82 82 83
REMARK SMILES IDX 83 84 92 85 84 86 85 87 91 88 93 89 86 90 87 91 88 92 89 93
REMARK SMILES IDX 90 94 66 95 67 96 76 97 68 98 69 99 75 100 77 101 70 102
REMARK SMILES IDX 71 103 72 104 73 105 74 106
REMARK H PARENT 98 56 64 67
REMARK Flexibility Score: inf
ROOT
ATOM      1  O   UNL A   1      35.642  30.820  27.834  1.00  0.00    -0.374 OA
ENDROOT
BRANCH   1   2
ATOM      2  C   UNL A   1      35.455  29.415  27.733  1.00  0.00     0.202 C 
BRANCH   2   3
ATOM      3  C   UNL A   1      34.152  28.831  27.169  1.00  0.00     0.261 C 
BRANCH   3   4
ATOM      4  O   UNL A   1      34.102  28.663  25.748  1.00  0.00    -0.460 OA
BRANCH   4   5
ATOM      5  C   UNL A   1      33.640  27.446  25.376  1.00  0.00     0.340 C 
ATOM      6  O   UNL A   1      33.953  26.376  25.885  1.00  0.00    -0.246 OA
BRANCH   5   7
ATOM      7  C   UNL A   1      32.643  27.501  24.286  1.00  0.00     0.084 A 
ATOM      8  C   UNL A   1      32.101  26.422  23.565  1.00  0.00     0.063 A 
ATOM      9  C   UNL A   1      31.112  26.725  22.596  1.00  0.00     0.027 A 
ATOM     10  C   UNL A   1      30.703  28.031  22.323  1.00  0.00     0.002 A 
ATOM     11  C   UNL A   1      32.231  28.822  23.986  1.00  0.00     0.018 A 
ATOM     12  C   UNL A   1      31.277  29.088  23.009  1.00  0.00     0.001 A 
BRANCH   8  13
ATOM     13  N   UNL A   1      32.466  25.023  23.681  1.00  0.00    -0.284 N 
ATOM     14  O   UNL A   1      32.078  20.709  25.603  1.00  0.00    -0.294 OA
ATOM     15  C   UNL A   1      31.932  21.920  25.728  1.00  0.00     0.161 C 
ATOM     16  C   UNL A   1      31.335  22.534  26.963  1.00  0.00     0.081 C 
ATOM     17  C   UNL A   1      32.458  22.866  24.701  1.00  0.00     0.023 C 
ATOM     18  C   UNL A   1      30.269  23.512  26.525  1.00  0.00     0.015 C 
ATOM     19  C   UNL A   1      31.957  24.121  24.642  1.00  0.00     0.033 C 
ATOM     20  C   UNL A   1      33.533  22.334  23.781  1.00  0.00     0.064 C 
ATOM     21  C   UNL A   1      30.824  24.565  25.560  1.00  0.00     0.055 C 
ATOM     22  C   UNL A   1      33.393  23.073  22.463  1.00  0.00     0.114 C 
ATOM     23  C   UNL A   1      33.366  24.566  22.677  1.00  0.00     0.232 C 
ATOM     24  O   UNL A   1      34.019  25.297  21.930  1.00  0.00    -0.274 OA
BRANCH  20  25
ATOM     25  C   UNL A   1      34.939  22.422  24.394  1.00  0.00    -0.039 A 
ATOM     26  C   UNL A   1      35.547  23.985  25.011  1.00  0.00     0.011 A 
ATOM     27  C   UNL A   1      35.913  20.954  24.399  1.00  0.00     0.011 A 
ATOM     28  C   UNL A   1      37.158  24.205  25.704  1.00  0.00     0.086 A 
ATOM     29  C   UNL A   1      37.570  21.022  25.074  1.00  0.00     0.086 A 
ATOM     30  C   UNL A   1      38.269  22.782  25.790  1.00  0.00     0.269 A 
BRANCH  30  31
ATOM     31  N   UNL A   1      39.438  23.251  26.685  1.00  0.00     0.062 N 
ATOM     32  O   UNL A   1      39.781  22.450  27.569  1.00  0.00    -0.258 OA
ATOM     33  O   UNL A   1      39.891  24.396  26.565  1.00  0.00    -0.258 OA
ENDBRANCH  30  31
ENDBRANCH  20  25
ENDBRANCH   8  13
ENDBRANCH   5   7
ENDBRANCH   4   5
ENDBRANCH   3   4
ENDBRANCH   2   3
ENDBRANCH   1   2
BRANCH   1  34
ATOM     34  C   UNL A   1      34.533  31.707  27.735  1.00  0.00     0.202 C 
BRANCH  34  35
ATOM     35  C   UNL A   1      34.318  32.794  28.790  1.00  0.00     0.261 C 
BRANCH  35  36
ATOM     36  O   UNL A   1      34.325  32.292  30.123  1.00  0.00    -0.460 OA
BRANCH  36  37
ATOM     37  C   UNL A   1      35.180  32.913  30.964  1.00  0.00     0.338 C 
ATOM     38  O   UNL A   1      34.976  33.877  31.678  1.00  0.00    -0.246 OA
BRANCH  37  39
ATOM     39  C   UNL A   1      36.425  32.149  30.973  1.00  0.00     0.060 A 
ATOM     40  C   UNL A   1      36.732  30.934  32.226  1.00  0.00     0.016 A 
ATOM     41  C   UNL A   1      37.776  32.597  29.874  1.00  0.00     0.016 A 
ATOM     42  C   UNL A   1      38.332  30.159  32.465  1.00  0.00     0.010 A 
ATOM     43  C   UNL A   1      39.571  31.712  30.158  1.00  0.00     0.010 A 
ATOM     44  C   UNL A   1      39.752  30.522  31.484  1.00  0.00    -0.014 A 
BRANCH  44  45
ATOM     45  C   UNL A   1      41.093  29.958  31.711  1.00  0.00     0.031 A 
ATOM     46  C   UNL A   1      42.071  30.691  32.575  1.00  0.00     0.074 A 
ATOM     47  C   UNL A   1      41.495  28.892  30.996  1.00  0.00     0.049 A 
ATOM     48  N   UNL A   1      43.181  30.272  33.117  1.00  0.00    -0.248 NA
ATOM     49  C   UNL A   1      41.761  32.091  32.879  1.00  0.00     0.031 C 
ATOM     50  C   UNL A   1      40.687  28.171  30.013  1.00  0.00     0.029 A 
ATOM     51  N   UNL A   1      42.711  28.264  30.949  1.00  0.00    -0.354 N 
ATOM     52  C   UNL A   1      43.613  31.314  33.933  1.00  0.00     0.074 A 
ATOM     53  C   UNL A   1      42.689  32.407  33.767  1.00  0.00     0.031 C 
ATOM     54  C   UNL A   1      41.449  27.241  29.411  1.00  0.00     0.029 A 
ATOM     55  C   UNL A   1      42.780  27.267  30.006  1.00  0.00     0.049 A 
ATOM     56  H   UNL A   1      43.464  28.506  31.534  1.00  0.00     0.167 HD
ATOM     57  C   UNL A   1      44.702  31.359  34.731  1.00  0.00     0.037 A 
ATOM     58  C   UNL A   1      43.803  26.451  29.690  1.00  0.00     0.037 A 
ATOM     59  C   UNL A   1      45.733  30.362  34.671  1.00  0.00     0.049 A 
ATOM     60  C   UNL A   1      45.049  26.531  30.531  1.00  0.00     0.074 A 
ATOM     61  C   UNL A   1      46.895  30.263  35.409  1.00  0.00     0.029 A 
ATOM     62  N   UNL A   1      45.752  29.332  33.739  1.00  0.00    -0.354 N 
ATOM     63  N   UNL A   1      45.334  27.369  31.503  1.00  0.00    -0.248 NA
ATOM     64  C   UNL A   1      46.088  25.528  30.276  1.00  0.00     0.031 C 
ATOM     65  C   UNL A   1      47.653  29.215  34.870  1.00  0.00     0.029 A 
ATOM     66  C   UNL A   1      46.931  28.621  33.844  1.00  0.00     0.049 A 
ATOM     67  H   UNL A   1      45.031  29.137  33.098  1.00  0.00     0.167 HD
ATOM     68  C   UNL A   1      46.563  26.965  32.008  1.00  0.00     0.074 A 
ATOM     69  C   UNL A   1      46.965  25.808  31.230  1.00  0.00     0.031 C 
ATOM     70  C   UNL A   1      47.290  27.485  33.031  1.00  0.00     0.037 A 
BRANCH  57  71
ATOM     71  C   UNL A   1      44.824  32.524  35.675  1.00  0.00     0.058 A 
ATOM     72  C   UNL A   1      45.489  33.700  35.283  1.00  0.00     0.135 A 
ATOM     73  C   UNL A   1      44.276  32.489  36.965  1.00  0.00     0.135 A 
ATOM     74  F   UNL A   1      46.051  33.786  34.065  1.00  0.00    -0.206 F 
ATOM     75  C   UNL A   1      45.613  34.793  36.137  1.00  0.00     0.059 A 
ATOM     76  C   UNL A   1      44.372  33.578  37.831  1.00  0.00     0.059 A 
ATOM     77  F   UNL A   1      43.650  31.386  37.404  1.00  0.00    -0.206 F 
ATOM     78  C   UNL A   1      45.048  34.723  37.410  1.00  0.00     0.060 A 
BRANCH  78  79
ATOM     79  S   UNL A   1      45.197  36.158  38.498  1.00  0.00     0.124 S 
ATOM     80  O   UNL A   1      46.508  35.939  39.100  1.00  0.00    -0.237 OA
ATOM     81  O   UNL A   1      45.110  37.271  37.557  1.00  0.00    -0.237 OA
ATOM     82  O   UNL A   1      44.061  36.018  39.403  1.00  0.00    -0.744 OA
ENDBRANCH  78  79
ENDBRANCH  57  71
BRANCH  58  83
ATOM     83  C   UNL A   1      43.633  25.431  28.620  1.00  0.00     0.058 A 
ATOM     84  C   UNL A   1      43.916  25.741  27.282  1.00  0.00     0.135 A 
ATOM     85  C   UNL A   1      43.248  24.113  28.915  1.00  0.00     0.135 A 
ATOM     86  F   UNL A   1      44.292  26.985  26.948  1.00  0.00    -0.206 F 
ATOM     87  C   UNL A   1      43.814  24.788  26.273  1.00  0.00     0.059 A 
ATOM     88  C   UNL A   1      43.158  23.136  27.924  1.00  0.00     0.059 A 
ATOM     89  F   UNL A   1      42.979  23.759  30.181  1.00  0.00    -0.206 F 
ATOM     90  C   UNL A   1      43.440  23.485  26.604  1.00  0.00     0.060 A 
BRANCH  90  91
ATOM     91  S   UNL A   1      43.375  22.248  25.288  1.00  0.00     0.124 S 
ATOM     92  O   UNL A   1      43.353  23.085  24.094  1.00  0.00    -0.237 OA
ATOM     93  O   UNL A   1      44.604  21.494  25.517  1.00  0.00    -0.237 OA
ATOM     94  O   UNL A   1      42.141  21.519  25.569  1.00  0.00    -0.744 OA
ENDBRANCH  90  91
ENDBRANCH  58  83
BRANCH  70  95
ATOM     95  C   UNL A   1      48.579  26.795  33.367  1.00  0.00     0.058 A 
ATOM     96  C   UNL A   1      48.626  25.721  34.268  1.00  0.00     0.135 A 
ATOM     97  C   UNL A   1      49.769  27.177  32.726  1.00  0.00     0.135 A 
ATOM     98  F   UNL A   1      47.514  25.323  34.904  1.00  0.00    -0.206 F 
ATOM     99  C   UNL A   1      49.818  25.065  34.544  1.00  0.00     0.059 A 
ATOM    100  C   UNL A   1      50.966  26.514  32.964  1.00  0.00     0.059 A 
ATOM    101  F   UNL A   1      49.769  28.190  31.846  1.00  0.00    -0.206 F 
ATOM    102  C   UNL A   1      50.982  25.467  33.885  1.00  0.00     0.060 A 
BRANCH 102 103
ATOM    103  S   UNL A   1      52.516  24.584  34.228  1.00  0.00     0.124 S 
ATOM    104  O   UNL A   1      52.017  23.356  34.836  1.00  0.00    -0.237 OA
ATOM    105  O   UNL A   1      53.100  24.442  32.898  1.00  0.00    -0.237 OA
ATOM    106  O   UNL A   1      53.233  25.485  35.127  1.00  0.00    -0.744 OA
ENDBRANCH 102 103
ENDBRANCH  70  95
ENDBRANCH  44  45
ENDBRANCH  37  39
ENDBRANCH  36  37
ENDBRANCH  35  36
ENDBRANCH  34  35
ENDBRANCH   1  34
TORSDOF 20
ENDMDL
