MODEL 1
REMARK VINA RESULT:     -10.6      0.000      0.000
REMARK SMILES O=C(OCCOCCOC(=O)[C@@H](CCCCl)[P@TB3](=O)(c1ccccc1)c1ccccc1)c1ccc(-c2c3nc(c(-c4c(F)cc(S(=O)(=O)[O-])cc4F)c4ccc([nH]4)c(-c4c(F)cc(S(=O)(=O)[O-])cc4F)c4nc(c(-c5c(F)cc(S(=O)(=O)[O-])cc5F)c5ccc2[nH]5)C=C4)C=C3)cc1
REMARK SMILES IDX 6 1 5 2 4 3 3 4 2 5 1 6 31 7 32 8 96 9 33 10 95 11 34 12
REMARK SMILES IDX 35 13 36 14 89 15 37 16 94 17 88 18 90 19 38 20 93 21 87 22
REMARK SMILES IDX 86 23 39 25 73 26 52 27 72 28 53 29 56 30 71 31 91 32 54 33
REMARK SMILES IDX 55 34 70 36 92 37 57 38 40 39 41 40 50 41 42 42 43 43 49 44
REMARK SMILES IDX 51 45 44 46 45 47 46 48 47 49 48 50 74 51 75 52 84 53 76 54
REMARK SMILES IDX 77 55 83 56 85 57 78 58 79 59 80 60 81 61 82 62 58 63 59 64
REMARK SMILES IDX 68 65 60 66 61 67 67 68 69 69 62 70 63 71 64 72 65 73 66 74
REMARK SMILES IDX 7 75 8 76 9 77 10 78 11 79 12 80 13 81 14 82 15 83 16 84
REMARK SMILES IDX 17 85 18 86 19 87 20 88 24 89 21 90 23 91 22 92 25 93 26 94
REMARK SMILES IDX 30 95 27 96 29 97 28 98
REMARK H PARENT 90 24 56 35
REMARK Flexibility Score: inf
ROOT
ATOM      1  O   UNL A   1      33.572  28.261  24.990  1.00  0.00       nan OA
ENDROOT
BRANCH   1   2
ATOM      2  C   UNL A   1      33.749  29.337  25.901  1.00  0.00       nan C 
BRANCH   2   3
ATOM      3  C   UNL A   1      34.401  28.897  27.203  1.00  0.00       nan C 
BRANCH   3   4
ATOM      4  O   UNL A   1      35.353  29.883  27.618  1.00  0.00       nan OA
BRANCH   4   5
ATOM      5  C   UNL A   1      36.189  29.713  28.674  1.00  0.00       nan C 
ATOM      6  O   UNL A   1      35.719  29.617  29.806  1.00  0.00       nan OA
BRANCH   5   7
ATOM      7  C   UNL A   1      37.661  29.539  28.491  1.00  0.00       nan A 
ATOM      8  C   UNL A   1      38.330  29.469  27.261  1.00  0.00       inf A 
ATOM      9  C   UNL A   1      38.421  29.499  29.664  1.00  0.00       inf A 
ATOM     10  C   UNL A   1      39.687  29.317  27.176  1.00  0.00     0.010 A 
ATOM     11  C   UNL A   1      39.802  29.332  29.595  1.00  0.00     0.010 A 
ATOM     12  C   UNL A   1      40.418  29.223  28.343  1.00  0.00    -0.014 A 
BRANCH  12  13
ATOM     13  C   UNL A   1      41.790  28.766  28.169  1.00  0.00     0.031 A 
ATOM     14  C   UNL A   1      42.862  29.772  28.420  1.00  0.00     0.074 A 
ATOM     15  C   UNL A   1      42.022  27.452  28.022  1.00  0.00     0.049 A 
ATOM     16  N   UNL A   1      44.139  29.677  28.208  1.00  0.00    -0.248 NA
ATOM     17  C   UNL A   1      42.439  31.064  29.002  1.00  0.00     0.031 C 
ATOM     18  C   UNL A   1      40.992  26.405  28.023  1.00  0.00     0.029 A 
ATOM     19  N   UNL A   1      43.191  26.768  27.887  1.00  0.00    -0.354 N 
ATOM     20  C   UNL A   1      44.662  30.913  28.561  1.00  0.00     0.074 A 
ATOM     21  C   UNL A   1      43.578  31.736  29.034  1.00  0.00     0.031 C 
ATOM     22  C   UNL A   1      41.583  25.208  27.885  1.00  0.00     0.029 A 
ATOM     23  C   UNL A   1      43.008  25.422  27.685  1.00  0.00     0.049 A 
ATOM     24  H   UNL A   1      44.077  27.195  27.929  1.00  0.00     0.167 HD
ATOM     25  C   UNL A   1      45.948  31.307  28.451  1.00  0.00     0.037 A 
ATOM     26  C   UNL A   1      43.905  24.499  27.299  1.00  0.00     0.037 A 
ATOM     27  C   UNL A   1      46.970  30.415  27.982  1.00  0.00     0.049 A 
ATOM     28  C   UNL A   1      45.310  24.989  27.069  1.00  0.00     0.074 A 
ATOM     29  C   UNL A   1      48.300  30.675  27.726  1.00  0.00     0.029 A 
ATOM     30  N   UNL A   1      46.755  29.069  27.702  1.00  0.00    -0.354 N 
ATOM     31  N   UNL A   1      45.801  26.195  27.261  1.00  0.00    -0.248 NA
ATOM     32  C   UNL A   1      46.274  24.020  26.547  1.00  0.00     0.031 C 
ATOM     33  C   UNL A   1      48.877  29.494  27.244  1.00  0.00     0.029 A 
ATOM     34  C   UNL A   1      47.922  28.484  27.260  1.00  0.00     0.049 A 
ATOM     35  H   UNL A   1      45.894  28.602  27.807  1.00  0.00     0.167 HD
ATOM     36  C   UNL A   1      47.138  26.126  26.902  1.00  0.00     0.074 A 
ATOM     37  C   UNL A   1      47.379  24.751  26.498  1.00  0.00     0.031 C 
ATOM     38  C   UNL A   1      48.085  27.097  26.894  1.00  0.00     0.037 A 
BRANCH  25  39
ATOM     39  C   UNL A   1      46.259  32.746  28.729  1.00  0.00     0.058 A 
ATOM     40  C   UNL A   1      46.249  33.729  27.727  1.00  0.00     0.135 A 
ATOM     41  C   UNL A   1      46.607  33.142  30.030  1.00  0.00     0.135 A 
ATOM     42  F   UNL A   1      45.977  33.397  26.455  1.00  0.00    -0.206 F 
ATOM     43  C   UNL A   1      46.575  35.053  28.007  1.00  0.00     0.059 A 
ATOM     44  C   UNL A   1      46.913  34.464  30.337  1.00  0.00     0.059 A 
ATOM     45  F   UNL A   1      46.668  32.235  31.019  1.00  0.00    -0.206 F 
ATOM     46  C   UNL A   1      46.900  35.413  29.317  1.00  0.00     0.060 A 
BRANCH  46  47
ATOM     47  S   UNL A   1      47.288  37.139  29.670  1.00  0.00     0.124 S 
ATOM     48  O   UNL A   1      48.204  37.463  28.581  1.00  0.00    -0.237 OA
ATOM     49  O   UNL A   1      45.975  37.772  29.602  1.00  0.00    -0.237 OA
ATOM     50  O   UNL A   1      47.888  37.088  31.000  1.00  0.00    -0.744 OA
ENDBRANCH  46  47
ENDBRANCH  25  39
BRANCH  26  51
ATOM     51  C   UNL A   1      43.487  23.101  27.006  1.00  0.00     0.058 A 
ATOM     52  C   UNL A   1      43.201  22.193  28.033  1.00  0.00     0.135 A 
ATOM     53  C   UNL A   1      43.383  22.636  25.683  1.00  0.00     0.135 A 
ATOM     54  F   UNL A   1      43.282  22.583  29.314  1.00  0.00    -0.206 F 
ATOM     55  C   UNL A   1      42.861  20.869  27.765  1.00  0.00     0.059 A 
ATOM     56  C   UNL A   1      43.012  21.327  25.387  1.00  0.00     0.059 A 
ATOM     57  F   UNL A   1      43.631  23.461  24.653  1.00  0.00    -0.206 F 
ATOM     58  C   UNL A   1      42.774  20.444  26.437  1.00  0.00     0.060 A 
BRANCH  58  59
ATOM     59  S   UNL A   1      42.346  18.723  26.098  1.00  0.00     0.124 S 
ATOM     60  O   UNL A   1      40.948  18.844  25.701  1.00  0.00    -0.237 OA
ATOM     61  O   UNL A   1      43.285  18.377  25.035  1.00  0.00    -0.237 OA
ATOM     62  O   UNL A   1      42.585  18.059  27.375  1.00  0.00    -0.744 OA
ENDBRANCH  58  59
ENDBRANCH  26  51
BRANCH  38  63
ATOM     63  C   UNL A   1      49.463  26.679  26.486  1.00  0.00     0.058 A 
ATOM     64  C   UNL A   1      50.344  26.073  27.391  1.00  0.00     0.135 A 
ATOM     65  C   UNL A   1      49.868  26.825  25.151  1.00  0.00     0.135 A 
ATOM     66  F   UNL A   1      49.996  25.923  28.679  1.00  0.00    -0.206 F 
ATOM     67  C   UNL A   1      51.599  25.639  26.988  1.00  0.00     0.059 A 
ATOM     68  C   UNL A   1      51.104  26.368  24.719  1.00  0.00     0.059 A 
ATOM     69  F   UNL A   1      49.046  27.389  24.251  1.00  0.00    -0.206 F 
ATOM     70  C   UNL A   1      51.965  25.786  25.647  1.00  0.00     0.060 A 
BRANCH  70  71
ATOM     71  S   UNL A   1      53.577  25.172  25.126  1.00  0.00     0.124 S 
ATOM     72  O   UNL A   1      53.625  25.620  23.738  1.00  0.00    -0.237 OA
ATOM     73  O   UNL A   1      54.482  25.855  26.045  1.00  0.00    -0.237 OA
ATOM     74  O   UNL A   1      53.469  23.729  25.319  1.00  0.00    -0.744 OA
ENDBRANCH  70  71
ENDBRANCH  38  63
ENDBRANCH  12  13
ENDBRANCH   5   7
ENDBRANCH   4   5
ENDBRANCH   3   4
ENDBRANCH   2   3
ENDBRANCH   1   2
BRANCH   1  75
ATOM     75  C   UNL A   1      33.815  28.397  23.604  1.00  0.00       nan C 
BRANCH  75  76
ATOM     76  C   UNL A   1      34.168  27.017  23.080  1.00  0.00       nan C 
BRANCH  76  77
ATOM     77  O   UNL A   1      33.130  26.592  22.185  1.00  0.00       nan OA
BRANCH  77  78
ATOM     78  C   UNL A   1      32.852  25.255  22.140  1.00  0.00       nan C 
ATOM     79  O   UNL A   1      33.055  24.492  21.200  1.00  0.00       nan OA
BRANCH  78  80
ATOM     80  C   UNL A   1      32.174  24.857  23.391  1.00  0.00       nan C 
BRANCH  80  81
ATOM     81  C   UNL A   1      30.640  25.205  23.386  1.00  0.00       nan C 
BRANCH  81  82
ATOM     82  C   UNL A   1      30.149  26.643  23.731  1.00  0.00       nan C 
BRANCH  82  83
ATOM     83  C   UNL A   1      30.479  27.289  25.075  1.00  0.00       nan C 
ATOM     84  Cl  UNL A   1      31.094  26.111  26.239  1.00  0.00       nan Cl
ENDBRANCH  82  83
ENDBRANCH  81  82
ENDBRANCH  80  81
BRANCH  80  85
ATOM     85  P   UNL A   1      32.264  23.032  23.497  1.00  0.00       nan P 
ATOM     86  O   UNL A   1      31.332  23.139  24.735  1.00  0.00       nan OA
BRANCH  85  87
ATOM     87  C   UNL A   1      34.212  23.001  24.249  1.00  0.00       nan A 
ATOM     88  C   UNL A   1      35.272  22.801  23.342  1.00  0.00       nan A 
ATOM     89  C   UNL A   1      34.537  23.491  25.529  1.00  0.00       nan A 
ATOM     90  C   UNL A   1      36.594  23.099  23.722  1.00  0.00       nan A 
ATOM     91  C   UNL A   1      35.862  23.681  25.934  1.00  0.00       nan A 
ATOM     92  C   UNL A   1      36.891  23.513  25.021  1.00  0.00       nan A 
ENDBRANCH  85  87
BRANCH  85  93
ATOM     93  C   UNL A   1      32.355  21.208  23.602  1.00  0.00       nan A 
ATOM     94  C   UNL A   1      32.508  20.601  24.869  1.00  0.00       nan A 
ATOM     95  C   UNL A   1      32.195  20.342  22.505  1.00  0.00       nan A 
ATOM     96  C   UNL A   1      32.626  19.219  25.020  1.00  0.00       nan A 
ATOM     97  C   UNL A   1      32.349  18.957  22.648  1.00  0.00       nan A 
ATOM     98  C   UNL A   1      32.577  18.397  23.903  1.00  0.00       nan A 
ENDBRANCH  85  93
ENDBRANCH  80  85
ENDBRANCH  78  80
ENDBRANCH  77  78
ENDBRANCH  76  77
ENDBRANCH  75  76
ENDBRANCH   1  75
TORSDOF 23
ENDMDL
MODEL 2
REMARK VINA RESULT:     -10.5      3.067      9.349
REMARK SMILES O=C(OCCOCCOC(=O)[C@@H](CCCCl)[P@TB3](=O)(c1ccccc1)c1ccccc1)c1ccc(-c2c3nc(c(-c4c(F)cc(S(=O)(=O)[O-])cc4F)c4ccc([nH]4)c(-c4c(F)cc(S(=O)(=O)[O-])cc4F)c4nc(c(-c5c(F)cc(S(=O)(=O)[O-])cc5F)c5ccc2[nH]5)C=C4)C=C3)cc1
REMARK SMILES IDX 6 1 5 2 4 3 3 4 2 5 1 6 31 7 32 8 96 9 33 10 95 11 34 12
REMARK SMILES IDX 35 13 36 14 89 15 37 16 94 17 88 18 90 19 38 20 93 21 87 22
REMARK SMILES IDX 86 23 39 25 73 26 52 27 72 28 53 29 56 30 71 31 91 32 54 33
REMARK SMILES IDX 55 34 70 36 92 37 57 38 40 39 41 40 50 41 42 42 43 43 49 44
REMARK SMILES IDX 51 45 44 46 45 47 46 48 47 49 48 50 74 51 75 52 84 53 76 54
REMARK SMILES IDX 77 55 83 56 85 57 78 58 79 59 80 60 81 61 82 62 58 63 59 64
REMARK SMILES IDX 68 65 60 66 61 67 67 68 69 69 62 70 63 71 64 72 65 73 66 74
REMARK SMILES IDX 7 75 8 76 9 77 10 78 11 79 12 80 13 81 14 82 15 83 16 84
REMARK SMILES IDX 17 85 18 86 19 87 20 88 24 89 21 90 23 91 22 92 25 93 26 94
REMARK SMILES IDX 30 95 27 96 29 97 28 98
REMARK H PARENT 90 24 56 35
REMARK Flexibility Score: inf
ROOT
ATOM      1  O   UNL A   1      36.602  22.959  24.510  1.00  0.00       nan OA
ENDROOT
BRANCH   1   2
ATOM      2  C   UNL A   1      36.621  21.541  24.595  1.00  0.00       nan C 
BRANCH   2   3
ATOM      3  C   UNL A   1      37.881  21.015  25.266  1.00  0.00       nan C 
BRANCH   3   4
ATOM      4  O   UNL A   1      38.809  22.090  25.448  1.00  0.00       nan OA
BRANCH   4   5
ATOM      5  C   UNL A   1      39.574  22.233  26.560  1.00  0.00       nan C 
ATOM      6  O   UNL A   1      40.033  21.232  27.109  1.00  0.00       nan OA
BRANCH   5   7
ATOM      7  C   UNL A   1      39.958  23.578  27.082  1.00  0.00       nan A 
ATOM      8  C   UNL A   1      39.403  24.801  26.680  1.00  0.00       inf A 
ATOM      9  C   UNL A   1      40.921  23.586  28.097  1.00  0.00       inf A 
ATOM     10  C   UNL A   1      39.804  25.995  27.214  1.00  0.00     0.010 A 
ATOM     11  C   UNL A   1      41.349  24.794  28.642  1.00  0.00     0.010 A 
ATOM     12  C   UNL A   1      40.795  25.992  28.176  1.00  0.00    -0.014 A 
BRANCH  12  13
ATOM     13  C   UNL A   1      41.367  27.300  28.467  1.00  0.00     0.031 A 
ATOM     14  C   UNL A   1      42.807  27.486  28.127  1.00  0.00     0.074 A 
ATOM     15  C   UNL A   1      40.544  28.308  28.799  1.00  0.00     0.049 A 
ATOM     16  N   UNL A   1      43.591  28.483  28.403  1.00  0.00    -0.248 NA
ATOM     17  C   UNL A   1      43.455  26.400  27.359  1.00  0.00     0.031 C 
ATOM     18  C   UNL A   1      39.082  28.210  28.897  1.00  0.00     0.029 A 
ATOM     19  N   UNL A   1      40.810  29.614  29.074  1.00  0.00    -0.354 N 
ATOM     20  C   UNL A   1      44.835  28.119  27.910  1.00  0.00     0.074 A 
ATOM     21  C   UNL A   1      44.705  26.826  27.285  1.00  0.00     0.031 C 
ATOM     22  C   UNL A   1      38.583  29.413  29.219  1.00  0.00     0.029 A 
ATOM     23  C   UNL A   1      39.695  30.323  29.447  1.00  0.00     0.049 A 
ATOM     24  H   UNL A   1      41.709  30.010  29.012  1.00  0.00     0.167 HD
ATOM     25  C   UNL A   1      45.984  28.818  28.018  1.00  0.00     0.037 A 
ATOM     26  C   UNL A   1      39.620  31.550  29.991  1.00  0.00     0.037 A 
ATOM     27  C   UNL A   1      46.022  30.109  28.646  1.00  0.00     0.049 A 
ATOM     28  C   UNL A   1      40.928  32.263  30.212  1.00  0.00     0.074 A 
ATOM     29  C   UNL A   1      47.109  30.911  28.919  1.00  0.00     0.029 A 
ATOM     30  N   UNL A   1      44.890  30.785  29.095  1.00  0.00    -0.354 N 
ATOM     31  N   UNL A   1      42.141  31.874  29.879  1.00  0.00    -0.248 NA
ATOM     32  C   UNL A   1      40.873  33.553  30.899  1.00  0.00     0.031 C 
ATOM     33  C   UNL A   1      46.638  32.052  29.579  1.00  0.00     0.029 A 
ATOM     34  C   UNL A   1      45.252  31.989  29.660  1.00  0.00     0.049 A 
ATOM     35  H   UNL A   1      43.967  30.452  29.019  1.00  0.00     0.167 HD
ATOM     36  C   UNL A   1      42.994  32.883  30.300  1.00  0.00     0.074 A 
ATOM     37  C   UNL A   1      42.152  33.906  30.894  1.00  0.00     0.031 C 
ATOM     38  C   UNL A   1      44.346  32.966  30.216  1.00  0.00     0.037 A 
BRANCH  25  39
ATOM     39  C   UNL A   1      47.247  28.153  27.563  1.00  0.00     0.058 A 
ATOM     40  C   UNL A   1      48.092  27.455  28.438  1.00  0.00     0.135 A 
ATOM     41  C   UNL A   1      47.634  28.249  26.216  1.00  0.00     0.135 A 
ATOM     42  F   UNL A   1      47.799  27.378  29.746  1.00  0.00    -0.206 F 
ATOM     43  C   UNL A   1      49.278  26.875  27.994  1.00  0.00     0.059 A 
ATOM     44  C   UNL A   1      48.802  27.658  25.746  1.00  0.00     0.059 A 
ATOM     45  F   UNL A   1      46.881  28.938  25.344  1.00  0.00    -0.206 F 
ATOM     46  C   UNL A   1      49.621  26.977  26.644  1.00  0.00     0.060 A 
BRANCH  46  47
ATOM     47  S   UNL A   1      51.144  26.193  26.076  1.00  0.00     0.124 S 
ATOM     48  O   UNL A   1      52.158  27.004  26.744  1.00  0.00    -0.237 OA
ATOM     49  O   UNL A   1      50.995  24.830  26.575  1.00  0.00    -0.237 OA
ATOM     50  O   UNL A   1      51.082  26.337  24.625  1.00  0.00    -0.744 OA
ENDBRANCH  46  47
ENDBRANCH  25  39
BRANCH  26  51
ATOM     51  C   UNL A   1      38.319  32.105  30.452  1.00  0.00     0.058 A 
ATOM     52  C   UNL A   1      37.544  32.931  29.629  1.00  0.00     0.135 A 
ATOM     53  C   UNL A   1      37.829  31.834  31.743  1.00  0.00     0.135 A 
ATOM     54  F   UNL A   1      37.961  33.221  28.387  1.00  0.00    -0.206 F 
ATOM     55  C   UNL A   1      36.351  33.496  30.075  1.00  0.00     0.059 A 
ATOM     56  C   UNL A   1      36.624  32.359  32.200  1.00  0.00     0.059 A 
ATOM     57  F   UNL A   1      38.519  31.038  32.576  1.00  0.00    -0.206 F 
ATOM     58  C   UNL A   1      35.902  33.208  31.365  1.00  0.00     0.060 A 
BRANCH  58  59
ATOM     59  S   UNL A   1      34.362  33.955  31.940  1.00  0.00     0.124 S 
ATOM     60  O   UNL A   1      34.853  35.144  32.627  1.00  0.00    -0.237 OA
ATOM     61  O   UNL A   1      33.648  34.188  30.689  1.00  0.00    -0.237 OA
ATOM     62  O   UNL A   1      33.788  32.923  32.798  1.00  0.00    -0.744 OA
ENDBRANCH  58  59
ENDBRANCH  26  51
BRANCH  38  63
ATOM     63  C   UNL A   1      44.967  34.225  30.733  1.00  0.00     0.058 A 
ATOM     64  C   UNL A   1      45.421  34.331  32.054  1.00  0.00     0.135 A 
ATOM     65  C   UNL A   1      45.172  35.308  29.865  1.00  0.00     0.135 A 
ATOM     66  F   UNL A   1      45.236  33.319  32.918  1.00  0.00    -0.206 F 
ATOM     67  C   UNL A   1      46.046  35.484  32.507  1.00  0.00     0.059 A 
ATOM     68  C   UNL A   1      45.824  36.456  30.287  1.00  0.00     0.059 A 
ATOM     69  F   UNL A   1      44.763  35.240  28.588  1.00  0.00    -0.206 F 
ATOM     70  C   UNL A   1      46.248  36.538  31.613  1.00  0.00     0.060 A 
BRANCH  70  71
ATOM     71  S   UNL A   1      47.106  38.009  32.200  1.00  0.00     0.124 S 
ATOM     72  O   UNL A   1      46.335  39.071  31.562  1.00  0.00    -0.237 OA
ATOM     73  O   UNL A   1      46.959  37.898  33.648  1.00  0.00    -0.237 OA
ATOM     74  O   UNL A   1      48.466  37.831  31.699  1.00  0.00    -0.744 OA
ENDBRANCH  70  71
ENDBRANCH  38  63
ENDBRANCH  12  13
ENDBRANCH   5   7
ENDBRANCH   4   5
ENDBRANCH   3   4
ENDBRANCH   2   3
ENDBRANCH   1   2
BRANCH   1  75
ATOM     75  C   UNL A   1      35.398  23.700  24.523  1.00  0.00       nan C 
BRANCH  75  76
ATOM     76  C   UNL A   1      34.823  23.635  23.120  1.00  0.00       nan C 
BRANCH  76  77
ATOM     77  O   UNL A   1      34.068  24.831  22.882  1.00  0.00       nan OA
BRANCH  77  78
ATOM     78  C   UNL A   1      33.028  24.748  21.999  1.00  0.00       nan C 
ATOM     79  O   UNL A   1      33.105  24.560  20.788  1.00  0.00       nan OA
BRANCH  78  80
ATOM     80  C   UNL A   1      31.761  25.011  22.712  1.00  0.00       nan C 
BRANCH  80  81
ATOM     81  C   UNL A   1      31.168  23.721  23.390  1.00  0.00       nan C 
BRANCH  81  82
ATOM     82  C   UNL A   1      31.564  22.302  22.881  1.00  0.00       nan C 
BRANCH  82  83
ATOM     83  C   UNL A   1      32.217  21.283  23.812  1.00  0.00       nan C 
ATOM     84  Cl  UNL A   1      32.082  21.758  25.508  1.00  0.00       nan Cl
ENDBRANCH  82  83
ENDBRANCH  81  82
ENDBRANCH  80  81
BRANCH  80  85
ATOM     85  P   UNL A   1      32.144  26.156  24.087  1.00  0.00       nan P 
ATOM     86  O   UNL A   1      31.480  25.116  25.031  1.00  0.00       nan OA
BRANCH  85  87
ATOM     87  C   UNL A   1      30.642  27.521  23.595  1.00  0.00       nan A 
ATOM     88  C   UNL A   1      30.997  28.657  22.840  1.00  0.00       nan A 
ATOM     89  C   UNL A   1      29.272  27.204  23.687  1.00  0.00       nan A 
ATOM     90  C   UNL A   1      30.002  29.422  22.203  1.00  0.00       nan A 
ATOM     91  C   UNL A   1      28.284  28.030  23.140  1.00  0.00       nan A 
ATOM     92  C   UNL A   1      28.649  29.125  22.373  1.00  0.00       nan A 
ENDBRANCH  85  87
BRANCH  85  93
ATOM     93  C   UNL A   1      32.526  27.302  25.461  1.00  0.00       nan A 
ATOM     94  C   UNL A   1      31.646  27.367  26.565  1.00  0.00       nan A 
ATOM     95  C   UNL A   1      33.697  28.077  25.543  1.00  0.00       nan A 
ATOM     96  C   UNL A   1      31.852  28.247  27.628  1.00  0.00       nan A 
ATOM     97  C   UNL A   1      33.890  28.987  26.591  1.00  0.00       nan A 
ATOM     98  C   UNL A   1      32.962  29.081  27.626  1.00  0.00       nan A 
ENDBRANCH  85  93
ENDBRANCH  80  85
ENDBRANCH  78  80
ENDBRANCH  77  78
ENDBRANCH  76  77
ENDBRANCH  75  76
ENDBRANCH   1  75
TORSDOF 23
ENDMDL
MODEL 3
REMARK VINA RESULT:     -10.4      5.322      9.339
REMARK SMILES O=C(OCCOCCOC(=O)[C@@H](CCCCl)[P@TB3](=O)(c1ccccc1)c1ccccc1)c1ccc(-c2c3nc(c(-c4c(F)cc(S(=O)(=O)[O-])cc4F)c4ccc([nH]4)c(-c4c(F)cc(S(=O)(=O)[O-])cc4F)c4nc(c(-c5c(F)cc(S(=O)(=O)[O-])cc5F)c5ccc2[nH]5)C=C4)C=C3)cc1
REMARK SMILES IDX 6 1 5 2 4 3 3 4 2 5 1 6 31 7 32 8 96 9 33 10 95 11 34 12
REMARK SMILES IDX 35 13 36 14 89 15 37 16 94 17 88 18 90 19 38 20 93 21 87 22
REMARK SMILES IDX 86 23 39 25 73 26 52 27 72 28 53 29 56 30 71 31 91 32 54 33
REMARK SMILES IDX 55 34 70 36 92 37 57 38 40 39 41 40 50 41 42 42 43 43 49 44
REMARK SMILES IDX 51 45 44 46 45 47 46 48 47 49 48 50 74 51 75 52 84 53 76 54
REMARK SMILES IDX 77 55 83 56 85 57 78 58 79 59 80 60 81 61 82 62 58 63 59 64
REMARK SMILES IDX 68 65 60 66 61 67 67 68 69 69 62 70 63 71 64 72 65 73 66 74
REMARK SMILES IDX 7 75 8 76 9 77 10 78 11 79 12 80 13 81 14 82 15 83 16 84
REMARK SMILES IDX 17 85 18 86 19 87 20 88 24 89 21 90 23 91 22 92 25 93 26 94
REMARK SMILES IDX 30 95 27 96 29 97 28 98
REMARK H PARENT 90 24 56 35
REMARK Flexibility Score: inf
ROOT
ATOM      1  O   UNL A   1      32.709  28.506  24.497  1.00  0.00       nan OA
ENDROOT
BRANCH   1   2
ATOM      2  C   UNL A   1      32.823  29.537  25.469  1.00  0.00       nan C 
BRANCH   2   3
ATOM      3  C   UNL A   1      33.892  29.240  26.509  1.00  0.00       nan C 
BRANCH   3   4
ATOM      4  O   UNL A   1      33.897  30.276  27.498  1.00  0.00       nan OA
BRANCH   4   5
ATOM      5  C   UNL A   1      34.979  31.055  27.753  1.00  0.00       nan C 
ATOM      6  O   UNL A   1      34.914  32.266  27.545  1.00  0.00       nan OA
BRANCH   5   7
ATOM      7  C   UNL A   1      36.219  30.500  28.372  1.00  0.00       nan A 
ATOM      8  C   UNL A   1      36.270  29.457  29.309  1.00  0.00       inf A 
ATOM      9  C   UNL A   1      37.425  31.049  27.923  1.00  0.00       inf A 
ATOM     10  C   UNL A   1      37.450  28.997  29.826  1.00  0.00     0.010 A 
ATOM     11  C   UNL A   1      38.634  30.600  28.448  1.00  0.00     0.010 A 
ATOM     12  C   UNL A   1      38.629  29.587  29.413  1.00  0.00    -0.014 A 
BRANCH  12  13
ATOM     13  C   UNL A   1      39.794  29.252  30.222  1.00  0.00     0.031 A 
ATOM     14  C   UNL A   1      40.722  28.230  29.659  1.00  0.00     0.074 A 
ATOM     15  C   UNL A   1      40.086  30.018  31.285  1.00  0.00     0.049 A 
ATOM     16  N   UNL A   1      41.741  27.653  30.218  1.00  0.00    -0.248 NA
ATOM     17  C   UNL A   1      40.474  27.803  28.264  1.00  0.00     0.031 C 
ATOM     18  C   UNL A   1      39.320  31.194  31.718  1.00  0.00     0.029 A 
ATOM     19  N   UNL A   1      41.121  29.951  32.167  1.00  0.00    -0.354 N 
ATOM     20  C   UNL A   1      42.213  26.748  29.278  1.00  0.00     0.074 A 
ATOM     21  C   UNL A   1      41.396  26.869  28.096  1.00  0.00     0.031 C 
ATOM     22  C   UNL A   1      39.915  31.732  32.794  1.00  0.00     0.029 A 
ATOM     23  C   UNL A   1      41.031  30.880  33.175  1.00  0.00     0.049 A 
ATOM     24  H   UNL A   1      41.859  29.304  32.090  1.00  0.00     0.167 HD
ATOM     25  C   UNL A   1      43.229  25.875  29.436  1.00  0.00     0.037 A 
ATOM     26  C   UNL A   1      41.738  30.958  34.314  1.00  0.00     0.037 A 
ATOM     27  C   UNL A   1      44.002  25.831  30.645  1.00  0.00     0.049 A 
ATOM     28  C   UNL A   1      42.788  29.898  34.521  1.00  0.00     0.074 A 
ATOM     29  C   UNL A   1      45.002  24.954  31.005  1.00  0.00     0.029 A 
ATOM     30  N   UNL A   1      43.846  26.730  31.696  1.00  0.00    -0.354 N 
ATOM     31  N   UNL A   1      43.159  28.938  33.700  1.00  0.00    -0.248 NA
ATOM     32  C   UNL A   1      43.494  29.904  35.802  1.00  0.00     0.031 C 
ATOM     33  C   UNL A   1      45.417  25.294  32.298  1.00  0.00     0.029 A 
ATOM     34  C   UNL A   1      44.720  26.421  32.717  1.00  0.00     0.049 A 
ATOM     35  H   UNL A   1      43.206  27.477  31.709  1.00  0.00     0.167 HD
ATOM     36  C   UNL A   1      44.156  28.236  34.358  1.00  0.00     0.074 A 
ATOM     37  C   UNL A   1      44.342  28.897  35.638  1.00  0.00     0.031 C 
ATOM     38  C   UNL A   1      44.856  27.144  33.959  1.00  0.00     0.037 A 
BRANCH  25  39
ATOM     39  C   UNL A   1      43.455  24.869  28.348  1.00  0.00     0.058 A 
ATOM     40  C   UNL A   1      42.847  23.605  28.349  1.00  0.00     0.135 A 
ATOM     41  C   UNL A   1      44.332  25.173  27.294  1.00  0.00     0.135 A 
ATOM     42  F   UNL A   1      42.042  23.241  29.360  1.00  0.00    -0.206 F 
ATOM     43  C   UNL A   1      43.101  22.677  27.342  1.00  0.00     0.059 A 
ATOM     44  C   UNL A   1      44.583  24.271  26.266  1.00  0.00     0.059 A 
ATOM     45  F   UNL A   1      44.970  26.354  27.265  1.00  0.00    -0.206 F 
ATOM     46  C   UNL A   1      43.966  23.021  26.301  1.00  0.00     0.060 A 
BRANCH  46  47
ATOM     47  S   UNL A   1      44.261  21.820  24.987  1.00  0.00     0.124 S 
ATOM     48  O   UNL A   1      43.319  20.762  25.341  1.00  0.00    -0.237 OA
ATOM     49  O   UNL A   1      43.932  22.585  23.789  1.00  0.00    -0.237 OA
ATOM     50  O   UNL A   1      45.672  21.482  25.144  1.00  0.00    -0.744 OA
ENDBRANCH  46  47
ENDBRANCH  25  39
BRANCH  26  51
ATOM     51  C   UNL A   1      41.407  31.968  35.355  1.00  0.00     0.058 A 
ATOM     52  C   UNL A   1      42.147  33.150  35.488  1.00  0.00     0.135 A 
ATOM     53  C   UNL A   1      40.346  31.763  36.256  1.00  0.00     0.135 A 
ATOM     54  F   UNL A   1      43.168  33.398  34.655  1.00  0.00    -0.206 F 
ATOM     55  C   UNL A   1      41.873  34.074  36.494  1.00  0.00     0.059 A 
ATOM     56  C   UNL A   1      40.031  32.688  37.247  1.00  0.00     0.059 A 
ATOM     57  F   UNL A   1      39.589  30.657  36.171  1.00  0.00    -0.206 F 
ATOM     58  C   UNL A   1      40.816  33.831  37.373  1.00  0.00     0.060 A 
BRANCH  58  59
ATOM     59  S   UNL A   1      40.476  35.027  38.681  1.00  0.00     0.124 S 
ATOM     60  O   UNL A   1      41.215  36.193  38.210  1.00  0.00    -0.237 OA
ATOM     61  O   UNL A   1      39.021  35.130  38.633  1.00  0.00    -0.237 OA
ATOM     62  O   UNL A   1      41.012  34.381  39.875  1.00  0.00    -0.744 OA
ENDBRANCH  58  59
ENDBRANCH  26  51
BRANCH  38  63
ATOM     63  C   UNL A   1      45.909  26.649  34.900  1.00  0.00     0.058 A 
ATOM     64  C   UNL A   1      45.635  25.659  35.853  1.00  0.00     0.135 A 
ATOM     65  C   UNL A   1      47.224  27.127  34.788  1.00  0.00     0.135 A 
ATOM     66  F   UNL A   1      44.388  25.183  35.996  1.00  0.00    -0.206 F 
ATOM     67  C   UNL A   1      46.633  25.169  36.683  1.00  0.00     0.059 A 
ATOM     68  C   UNL A   1      48.243  26.626  35.584  1.00  0.00     0.059 A 
ATOM     69  F   UNL A   1      47.528  28.065  33.878  1.00  0.00    -0.206 F 
ATOM     70  C   UNL A   1      47.934  25.655  36.535  1.00  0.00     0.060 A 
BRANCH  70  71
ATOM     71  S   UNL A   1      49.230  24.972  37.584  1.00  0.00     0.124 S 
ATOM     72  O   UNL A   1      50.317  24.792  36.627  1.00  0.00    -0.237 OA
ATOM     73  O   UNL A   1      49.421  26.029  38.572  1.00  0.00    -0.237 OA
ATOM     74  O   UNL A   1      48.636  23.742  38.100  1.00  0.00    -0.744 OA
ENDBRANCH  70  71
ENDBRANCH  38  63
ENDBRANCH  12  13
ENDBRANCH   5   7
ENDBRANCH   4   5
ENDBRANCH   3   4
ENDBRANCH   2   3
ENDBRANCH   1   2
BRANCH   1  75
ATOM     75  C   UNL A   1      33.575  28.420  23.382  1.00  0.00       nan C 
BRANCH  75  76
ATOM     76  C   UNL A   1      33.911  26.952  23.196  1.00  0.00       nan C 
BRANCH  76  77
ATOM     77  O   UNL A   1      33.080  26.425  22.152  1.00  0.00       nan OA
BRANCH  77  78
ATOM     78  C   UNL A   1      32.835  25.081  22.167  1.00  0.00       nan C 
ATOM     79  O   UNL A   1      33.069  24.280  21.267  1.00  0.00       nan OA
BRANCH  78  80
ATOM     80  C   UNL A   1      32.147  24.726  23.426  1.00  0.00       nan C 
BRANCH  80  81
ATOM     81  C   UNL A   1      30.606  25.039  23.384  1.00  0.00       nan C 
BRANCH  81  82
ATOM     82  C   UNL A   1      29.984  26.100  24.341  1.00  0.00       nan C 
BRANCH  82  83
ATOM     83  C   UNL A   1      29.357  27.382  23.799  1.00  0.00       nan C 
ATOM     84  Cl  UNL A   1      30.133  27.914  22.304  1.00  0.00       nan Cl
ENDBRANCH  82  83
ENDBRANCH  81  82
ENDBRANCH  80  81
BRANCH  80  85
ATOM     85  P   UNL A   1      32.275  22.911  23.617  1.00  0.00       nan P 
ATOM     86  O   UNL A   1      31.398  23.065  24.890  1.00  0.00       nan OA
BRANCH  85  87
ATOM     87  C   UNL A   1      34.255  22.947  24.279  1.00  0.00       nan A 
ATOM     88  C   UNL A   1      35.272  22.639  23.353  1.00  0.00       nan A 
ATOM     89  C   UNL A   1      34.640  23.575  25.480  1.00  0.00       nan A 
ATOM     90  C   UNL A   1      36.611  22.966  23.637  1.00  0.00       nan A 
ATOM     91  C   UNL A   1      35.983  23.799  25.800  1.00  0.00       nan A 
ATOM     92  C   UNL A   1      36.968  23.521  24.867  1.00  0.00       nan A 
ENDBRANCH  85  87
BRANCH  85  93
ATOM     93  C   UNL A   1      32.403  21.095  23.808  1.00  0.00       nan A 
ATOM     94  C   UNL A   1      32.566  20.552  25.102  1.00  0.00       nan A 
ATOM     95  C   UNL A   1      32.264  20.176  22.752  1.00  0.00       nan A 
ATOM     96  C   UNL A   1      32.712  19.181  25.319  1.00  0.00       nan A 
ATOM     97  C   UNL A   1      32.446  18.803  22.961  1.00  0.00       nan A 
ATOM     98  C   UNL A   1      32.682  18.307  24.241  1.00  0.00       nan A 
ENDBRANCH  85  93
ENDBRANCH  80  85
ENDBRANCH  78  80
ENDBRANCH  77  78
ENDBRANCH  76  77
ENDBRANCH  75  76
ENDBRANCH   1  75
TORSDOF 23
ENDMDL
