MODEL 1
REMARK VINA RESULT:     -12.0      0.000      0.000
REMARK SMILES Cc1ccccc1/[NH+]=C1\S[C@@H](CC(=O)Nc2ccc(C(=O)OCCOCCOC(=O)c3ccc(-c4c5nc(c(-c6c(F)cc(S(=O)(=O)[O-])cc6F)c6ccc([nH]6)c(-c6c(F)cc(S(=O)(=O)[O-])cc6F)c6nc(c(-c7c(F)cc(S(=O)(=O)[O-])cc7F)c7ccc4[nH]7)C=C6)C=C5)cc3)cc2)C(=O)N1C
REMARK SMILES IDX 24 1 23 2 22 3 20 4 21 5 19 6 16 7 17 8 98 9 18 10 97 11
REMARK SMILES IDX 15 12 13 13 14 14 12 16 11 17 8 18 9 19 10 21 101 22 99 23
REMARK SMILES IDX 102 24 100 25 7 26 1 27 2 28 3 29 4 30 6 31 5 32 25 33 26 34
REMARK SMILES IDX 27 35 28 36 29 37 30 38 31 39 32 40 96 41 33 42 95 43 34 44
REMARK SMILES IDX 35 45 36 46 89 47 37 48 94 49 88 50 90 51 38 52 93 53 87 54
REMARK SMILES IDX 86 55 39 57 73 58 52 59 72 60 53 61 56 62 71 63 91 64 54 65
REMARK SMILES IDX 55 66 70 68 92 69 57 70 40 71 41 72 50 73 42 74 43 75 49 76
REMARK SMILES IDX 51 77 44 78 45 79 46 80 47 81 48 82 74 83 75 84 84 85 76 86
REMARK SMILES IDX 77 87 83 88 85 89 78 90 79 91 80 92 81 93 82 94 58 95 59 96
REMARK SMILES IDX 68 97 60 98 61 99 67 100 69 101 62 102 63 103 64 104 65 105
REMARK SMILES IDX 66 106
REMARK H PARENT 15 15 8 20 90 56 56 67
REMARK Flexibility Score: inf
ROOT
ATOM      1  C   UNL A   1      39.770  21.774  26.568  1.00  0.00     0.202 C 
ENDROOT
BRANCH   1   2
ATOM      2  C   UNL A   1      38.598  22.563  26.109  1.00  0.00     0.261 C 
BRANCH   2   3
ATOM      3  O   UNL A   1      37.805  21.852  25.120  1.00  0.00    -0.460 OA
BRANCH   3   4
ATOM      4  C   UNL A   1      36.777  22.361  24.373  1.00  0.00     0.338 C 
ATOM      5  O   UNL A   1      36.780  22.896  23.298  1.00  0.00    -0.246 OA
BRANCH   4   6
ATOM      6  C   UNL A   1      35.555  22.120  25.173  1.00  0.00     0.060 A 
ATOM      7  C   UNL A   1      33.227  21.859  26.643  1.00  0.00     0.041 A 
ATOM      8  C   UNL A   1      34.126  22.869  26.928  1.00  0.00     0.027 A 
ATOM      9  C   UNL A   1      33.587  20.831  25.779  1.00  0.00     0.027 A 
ATOM     10  C   UNL A   1      35.239  23.054  26.154  1.00  0.00     0.018 A 
ATOM     11  C   UNL A   1      34.770  20.965  25.031  1.00  0.00     0.018 A 
BRANCH   7  12
ATOM     12  N   UNL A   1      31.939  22.004  27.170  1.00  0.00    -0.326 N 
ATOM     13  C   UNL A   1      31.030  22.945  26.697  1.00  0.00     0.226 C 
ATOM     14  O   UNL A   1      30.078  23.311  27.383  1.00  0.00    -0.275 OA
ATOM     15  H   UNL A   1      31.664  21.414  27.908  1.00  0.00     0.169 HD
BRANCH  13  16
ATOM     16  C   UNL A   1      31.130  23.305  25.211  1.00  0.00     0.128 C 
BRANCH  16  17
ATOM     17  C   UNL A   1      31.999  24.471  24.776  1.00  0.00     0.183 C 
ATOM     18  N   UNL A   1      32.722  27.866  23.766  1.00  0.00    -0.234 N 
ATOM     19  C   UNL A   1      32.123  26.732  23.729  1.00  0.00     0.319 C 
ATOM     20  H   UNL A   1      33.347  28.020  23.021  1.00  0.00     0.313 HD
ATOM     21  S   UNL A   1      30.966  25.997  24.776  1.00  0.00    -0.022 SA
ATOM     22  N   UNL A   1      32.471  25.775  22.821  1.00  0.00    -0.193 N 
ATOM     23  C   UNL A   1      32.640  24.529  23.390  1.00  0.00     0.324 C 
ATOM     24  C   UNL A   1      32.755  26.069  21.430  1.00  0.00     0.301 C 
ATOM     25  O   UNL A   1      33.335  23.636  22.918  1.00  0.00    -0.245 OA
BRANCH  18  26
ATOM     26  C   UNL A   1      32.642  28.926  24.687  1.00  0.00     0.128 A 
ATOM     27  C   UNL A   1      30.332  29.976  24.127  1.00  0.00     0.049 C 
ATOM     28  C   UNL A   1      31.577  29.819  24.947  1.00  0.00    -0.004 A 
ATOM     29  C   UNL A   1      31.645  30.679  26.069  1.00  0.00     0.008 A 
ATOM     30  C   UNL A   1      32.707  30.635  26.963  1.00  0.00     0.001 A 
ATOM     31  C   UNL A   1      33.715  28.928  25.605  1.00  0.00     0.052 A 
ATOM     32  C   UNL A   1      33.750  29.756  26.728  1.00  0.00     0.004 A 
ENDBRANCH  18  26
ENDBRANCH  16  17
ENDBRANCH  13  16
ENDBRANCH   7  12
ENDBRANCH   4   6
ENDBRANCH   3   4
ENDBRANCH   2   3
ENDBRANCH   1   2
BRANCH   1  33
ATOM     33  O   UNL A   1      40.888  22.393  25.960  1.00  0.00    -0.374 OA
BRANCH  33  34
ATOM     34  C   UNL A   1      41.539  23.347  26.757  1.00  0.00     0.202 C 
BRANCH  34  35
ATOM     35  C   UNL A   1      41.873  24.599  25.949  1.00  0.00     0.261 C 
BRANCH  35  36
ATOM     36  O   UNL A   1      41.267  25.757  26.568  1.00  0.00    -0.460 OA
BRANCH  36  37
ATOM     37  C   UNL A   1      41.574  26.964  26.001  1.00  0.00     0.338 C 
ATOM     38  O   UNL A   1      42.022  27.091  24.876  1.00  0.00    -0.246 OA
BRANCH  37  39
ATOM     39  C   UNL A   1      41.310  28.076  26.961  1.00  0.00     0.060 A 
ATOM     40  C   UNL A   1      42.335  28.956  27.366  1.00  0.00     0.016 A 
ATOM     41  C   UNL A   1      40.084  28.100  27.617  1.00  0.00     0.016 A 
ATOM     42  C   UNL A   1      42.178  29.749  28.519  1.00  0.00     0.010 A 
ATOM     43  C   UNL A   1      39.969  28.811  28.790  1.00  0.00     0.010 A 
ATOM     44  C   UNL A   1      41.018  29.611  29.275  1.00  0.00    -0.014 A 
BRANCH  44  45
ATOM     45  C   UNL A   1      40.770  30.161  30.614  1.00  0.00     0.031 A 
ATOM     46  C   UNL A   1      40.063  31.453  30.695  1.00  0.00     0.074 A 
ATOM     47  C   UNL A   1      40.825  29.352  31.701  1.00  0.00     0.049 A 
ATOM     48  N   UNL A   1      39.790  32.055  31.795  1.00  0.00    -0.248 NA
ATOM     49  C   UNL A   1      39.631  32.218  29.523  1.00  0.00     0.031 C 
ATOM     50  C   UNL A   1      40.041  29.387  32.936  1.00  0.00     0.029 A 
ATOM     51  N   UNL A   1      41.600  28.212  31.889  1.00  0.00    -0.354 N 
ATOM     52  C   UNL A   1      38.809  32.974  31.513  1.00  0.00     0.074 A 
ATOM     53  C   UNL A   1      38.927  33.197  30.098  1.00  0.00     0.031 C 
ATOM     54  C   UNL A   1      40.571  28.537  33.838  1.00  0.00     0.029 A 
ATOM     55  C   UNL A   1      41.792  28.003  33.252  1.00  0.00     0.049 A 
ATOM     56  H   UNL A   1      41.958  27.642  31.171  1.00  0.00     0.167 HD
ATOM     57  C   UNL A   1      37.904  33.259  32.492  1.00  0.00     0.037 A 
ATOM     58  C   UNL A   1      43.049  27.994  33.757  1.00  0.00     0.037 A 
ATOM     59  C   UNL A   1      38.330  32.638  33.772  1.00  0.00     0.049 A 
ATOM     60  C   UNL A   1      43.095  29.178  34.668  1.00  0.00     0.074 A 
ATOM     61  C   UNL A   1      37.796  31.664  34.599  1.00  0.00     0.029 A 
ATOM     62  N   UNL A   1      39.655  32.810  34.208  1.00  0.00    -0.354 N 
ATOM     63  N   UNL A   1      42.464  30.299  34.406  1.00  0.00    -0.248 NA
ATOM     64  C   UNL A   1      43.530  29.056  36.056  1.00  0.00     0.031 C 
ATOM     65  C   UNL A   1      38.838  31.200  35.468  1.00  0.00     0.029 A 
ATOM     66  C   UNL A   1      40.010  31.893  35.182  1.00  0.00     0.049 A 
ATOM     67  H   UNL A   1      40.261  33.503  33.860  1.00  0.00     0.167 HD
ATOM     68  C   UNL A   1      42.230  30.933  35.594  1.00  0.00     0.074 A 
ATOM     69  C   UNL A   1      42.953  30.145  36.588  1.00  0.00     0.031 C 
ATOM     70  C   UNL A   1      41.333  31.937  35.810  1.00  0.00     0.037 A 
BRANCH  57  71
ATOM     71  C   UNL A   1      36.539  33.918  32.260  1.00  0.00     0.058 A 
ATOM     72  C   UNL A   1      36.044  34.876  33.174  1.00  0.00     0.135 A 
ATOM     73  C   UNL A   1      35.634  33.629  31.206  1.00  0.00     0.135 A 
ATOM     74  F   UNL A   1      36.754  35.237  34.252  1.00  0.00    -0.206 F 
ATOM     75  C   UNL A   1      34.793  35.502  33.040  1.00  0.00     0.059 A 
ATOM     76  C   UNL A   1      34.403  34.272  31.027  1.00  0.00     0.059 A 
ATOM     77  F   UNL A   1      35.852  32.669  30.306  1.00  0.00    -0.206 F 
ATOM     78  C   UNL A   1      33.985  35.208  31.951  1.00  0.00     0.060 A 
BRANCH  78  79
ATOM     79  S   UNL A   1      32.404  36.051  31.752  1.00  0.00     0.124 S 
ATOM     80  O   UNL A   1      31.491  35.157  32.455  1.00  0.00    -0.237 OA
ATOM     81  O   UNL A   1      32.658  37.336  32.394  1.00  0.00    -0.237 OA
ATOM     82  O   UNL A   1      32.225  36.107  30.302  1.00  0.00    -0.744 OA
ENDBRANCH  78  79
ENDBRANCH  57  71
BRANCH  58  83
ATOM     83  C   UNL A   1      44.048  27.374  32.827  1.00  0.00     0.058 A 
ATOM     84  C   UNL A   1      44.088  25.960  32.818  1.00  0.00     0.135 A 
ATOM     85  C   UNL A   1      44.539  28.007  31.674  1.00  0.00     0.135 A 
ATOM     86  F   UNL A   1      43.574  25.279  33.850  1.00  0.00    -0.206 F 
ATOM     87  C   UNL A   1      44.477  25.212  31.704  1.00  0.00     0.059 A 
ATOM     88  C   UNL A   1      44.901  27.275  30.525  1.00  0.00     0.059 A 
ATOM     89  F   UNL A   1      44.525  29.344  31.583  1.00  0.00    -0.206 F 
ATOM     90  C   UNL A   1      44.817  25.882  30.534  1.00  0.00     0.060 A 
BRANCH  90  91
ATOM     91  S   UNL A   1      44.866  24.916  28.994  1.00  0.00     0.124 S 
ATOM     92  O   UNL A   1      44.101  23.728  29.352  1.00  0.00    -0.237 OA
ATOM     93  O   UNL A   1      44.207  25.821  28.051  1.00  0.00    -0.237 OA
ATOM     94  O   UNL A   1      46.292  24.720  28.768  1.00  0.00    -0.744 OA
ENDBRANCH  90  91
ENDBRANCH  58  83
BRANCH  70  95
ATOM     95  C   UNL A   1      41.723  33.096  36.692  1.00  0.00     0.058 A 
ATOM     96  C   UNL A   1      41.098  33.376  37.925  1.00  0.00     0.135 A 
ATOM     97  C   UNL A   1      42.876  33.864  36.407  1.00  0.00     0.135 A 
ATOM     98  F   UNL A   1      40.068  32.656  38.390  1.00  0.00    -0.206 F 
ATOM     99  C   UNL A   1      41.526  34.391  38.764  1.00  0.00     0.059 A 
ATOM    100  C   UNL A   1      43.364  34.835  37.270  1.00  0.00     0.059 A 
ATOM    101  F   UNL A   1      43.596  33.683  35.291  1.00  0.00    -0.206 F 
ATOM    102  C   UNL A   1      42.661  35.113  38.430  1.00  0.00     0.060 A 
BRANCH 102 103
ATOM    103  S   UNL A   1      43.210  36.400  39.549  1.00  0.00     0.124 S 
ATOM    104  O   UNL A   1      44.660  36.241  39.475  1.00  0.00    -0.237 OA
ATOM    105  O   UNL A   1      42.673  37.606  38.926  1.00  0.00    -0.237 OA
ATOM    106  O   UNL A   1      42.597  36.029  40.820  1.00  0.00    -0.744 OA
ENDBRANCH 102 103
ENDBRANCH  70  95
ENDBRANCH  44  45
ENDBRANCH  37  39
ENDBRANCH  36  37
ENDBRANCH  35  36
ENDBRANCH  34  35
ENDBRANCH  33  34
ENDBRANCH   1  33
TORSDOF 21
ENDMDL
MODEL 2
REMARK VINA RESULT:     -11.7      3.109      7.568
REMARK SMILES Cc1ccccc1/[NH+]=C1\S[C@@H](CC(=O)Nc2ccc(C(=O)OCCOCCOC(=O)c3ccc(-c4c5nc(c(-c6c(F)cc(S(=O)(=O)[O-])cc6F)c6ccc([nH]6)c(-c6c(F)cc(S(=O)(=O)[O-])cc6F)c6nc(c(-c7c(F)cc(S(=O)(=O)[O-])cc7F)c7ccc4[nH]7)C=C6)C=C5)cc3)cc2)C(=O)N1C
REMARK SMILES IDX 24 1 23 2 22 3 20 4 21 5 19 6 16 7 17 8 98 9 18 10 97 11
REMARK SMILES IDX 15 12 13 13 14 14 12 16 11 17 8 18 9 19 10 21 101 22 99 23
REMARK SMILES IDX 102 24 100 25 7 26 1 27 2 28 3 29 4 30 6 31 5 32 25 33 26 34
REMARK SMILES IDX 27 35 28 36 29 37 30 38 31 39 32 40 96 41 33 42 95 43 34 44
REMARK SMILES IDX 35 45 36 46 89 47 37 48 94 49 88 50 90 51 38 52 93 53 87 54
REMARK SMILES IDX 86 55 39 57 73 58 52 59 72 60 53 61 56 62 71 63 91 64 54 65
REMARK SMILES IDX 55 66 70 68 92 69 57 70 40 71 41 72 50 73 42 74 43 75 49 76
REMARK SMILES IDX 51 77 44 78 45 79 46 80 47 81 48 82 74 83 75 84 84 85 76 86
REMARK SMILES IDX 77 87 83 88 85 89 78 90 79 91 80 92 81 93 82 94 58 95 59 96
REMARK SMILES IDX 68 97 60 98 61 99 67 100 69 101 62 102 63 103 64 104 65 105
REMARK SMILES IDX 66 106
REMARK H PARENT 15 15 8 20 90 56 56 67
REMARK Flexibility Score: inf
ROOT
ATOM      1  C   UNL A   1      39.929  21.782  26.605  1.00  0.00     0.202 C 
ENDROOT
BRANCH   1   2
ATOM      2  C   UNL A   1      38.749  22.545  26.123  1.00  0.00     0.261 C 
BRANCH   2   3
ATOM      3  O   UNL A   1      37.880  21.744  25.276  1.00  0.00    -0.460 OA
BRANCH   3   4
ATOM      4  C   UNL A   1      36.881  22.203  24.460  1.00  0.00     0.338 C 
ATOM      5  O   UNL A   1      36.918  22.616  23.334  1.00  0.00    -0.246 OA
BRANCH   4   6
ATOM      6  C   UNL A   1      35.640  22.093  25.260  1.00  0.00     0.060 A 
ATOM      7  C   UNL A   1      33.292  22.078  26.721  1.00  0.00     0.041 A 
ATOM      8  C   UNL A   1      34.268  23.024  26.972  1.00  0.00     0.027 A 
ATOM      9  C   UNL A   1      33.573  20.990  25.902  1.00  0.00     0.027 A 
ATOM     10  C   UNL A   1      35.396  23.087  26.201  1.00  0.00     0.018 A 
ATOM     11  C   UNL A   1      34.766  20.999  25.158  1.00  0.00     0.018 A 
BRANCH   7  12
ATOM     12  N   UNL A   1      32.018  22.346  27.231  1.00  0.00    -0.326 N 
ATOM     13  C   UNL A   1      31.131  23.230  26.626  1.00  0.00     0.226 C 
ATOM     14  O   UNL A   1      30.202  23.731  27.255  1.00  0.00    -0.275 OA
ATOM     15  H   UNL A   1      31.736  21.889  28.056  1.00  0.00     0.169 HD
BRANCH  13  16
ATOM     16  C   UNL A   1      31.219  23.348  25.100  1.00  0.00     0.128 C 
BRANCH  16  17
ATOM     17  C   UNL A   1      31.635  24.665  24.471  1.00  0.00     0.183 C 
ATOM     18  N   UNL A   1      31.194  27.720  22.589  1.00  0.00    -0.234 N 
ATOM     19  C   UNL A   1      31.133  26.458  22.810  1.00  0.00     0.319 C 
ATOM     20  H   UNL A   1      31.887  27.987  21.942  1.00  0.00     0.313 HD
ATOM     21  S   UNL A   1      30.124  25.507  23.835  1.00  0.00    -0.022 SA
ATOM     22  N   UNL A   1      32.073  25.605  22.309  1.00  0.00    -0.193 N 
ATOM     23  C   UNL A   1      32.559  24.724  23.254  1.00  0.00     0.324 C 
ATOM     24  C   UNL A   1      32.593  25.702  20.959  1.00  0.00     0.301 C 
ATOM     25  O   UNL A   1      33.654  24.175  23.199  1.00  0.00    -0.245 OA
BRANCH  18  26
ATOM     26  C   UNL A   1      30.444  28.789  23.112  1.00  0.00     0.128 A 
ATOM     27  C   UNL A   1      31.870  29.520  25.157  1.00  0.00     0.049 C 
ATOM     28  C   UNL A   1      30.744  29.667  24.178  1.00  0.00    -0.004 A 
ATOM     29  C   UNL A   1      29.931  30.805  24.397  1.00  0.00     0.008 A 
ATOM     30  C   UNL A   1      28.871  31.120  23.556  1.00  0.00     0.001 A 
ATOM     31  C   UNL A   1      29.345  29.130  22.295  1.00  0.00     0.052 A 
ATOM     32  C   UNL A   1      28.574  30.277  22.500  1.00  0.00     0.004 A 
ENDBRANCH  18  26
ENDBRANCH  16  17
ENDBRANCH  13  16
ENDBRANCH   7  12
ENDBRANCH   4   6
ENDBRANCH   3   4
ENDBRANCH   2   3
ENDBRANCH   1   2
BRANCH   1  33
ATOM     33  O   UNL A   1      41.044  22.595  26.292  1.00  0.00    -0.374 OA
BRANCH  33  34
ATOM     34  C   UNL A   1      41.283  23.639  27.200  1.00  0.00     0.202 C 
BRANCH  34  35
ATOM     35  C   UNL A   1      41.441  24.972  26.471  1.00  0.00     0.261 C 
BRANCH  35  36
ATOM     36  O   UNL A   1      40.273  25.794  26.698  1.00  0.00    -0.460 OA
BRANCH  36  37
ATOM     37  C   UNL A   1      40.519  27.098  27.030  1.00  0.00     0.338 C 
ATOM     38  O   UNL A   1      40.747  27.974  26.215  1.00  0.00    -0.246 OA
BRANCH  37  39
ATOM     39  C   UNL A   1      40.497  27.276  28.512  1.00  0.00     0.060 A 
ATOM     40  C   UNL A   1      39.283  27.348  29.225  1.00  0.00     0.016 A 
ATOM     41  C   UNL A   1      41.692  27.586  29.154  1.00  0.00     0.016 A 
ATOM     42  C   UNL A   1      39.255  27.872  30.532  1.00  0.00     0.010 A 
ATOM     43  C   UNL A   1      41.647  28.177  30.396  1.00  0.00     0.010 A 
ATOM     44  C   UNL A   1      40.435  28.361  31.084  1.00  0.00    -0.014 A 
BRANCH  44  45
ATOM     45  C   UNL A   1      40.570  29.150  32.315  1.00  0.00     0.031 A 
ATOM     46  C   UNL A   1      40.992  28.434  33.534  1.00  0.00     0.074 A 
ATOM     47  C   UNL A   1      40.691  30.498  32.248  1.00  0.00     0.049 A 
ATOM     48  N   UNL A   1      41.140  28.993  34.680  1.00  0.00    -0.248 NA
ATOM     49  C   UNL A   1      41.248  26.993  33.584  1.00  0.00     0.031 C 
ATOM     50  C   UNL A   1      41.456  31.414  33.094  1.00  0.00     0.029 A 
ATOM     51  N   UNL A   1      40.171  31.364  31.290  1.00  0.00    -0.354 N 
ATOM     52  C   UNL A   1      41.905  28.143  35.441  1.00  0.00     0.074 A 
ATOM     53  C   UNL A   1      41.736  26.859  34.820  1.00  0.00     0.031 C 
ATOM     54  C   UNL A   1      41.121  32.688  32.809  1.00  0.00     0.029 A 
ATOM     55  C   UNL A   1      40.035  32.635  31.842  1.00  0.00     0.049 A 
ATOM     56  H   UNL A   1      39.937  31.116  30.367  1.00  0.00     0.167 HD
ATOM     57  C   UNL A   1      42.736  28.696  36.370  1.00  0.00     0.037 A 
ATOM     58  C   UNL A   1      38.810  33.211  31.899  1.00  0.00     0.037 A 
ATOM     59  C   UNL A   1      42.456  30.149  36.499  1.00  0.00     0.049 A 
ATOM     60  C   UNL A   1      38.523  33.336  33.360  1.00  0.00     0.074 A 
ATOM     61  C   UNL A   1      43.185  31.300  36.254  1.00  0.00     0.029 A 
ATOM     62  N   UNL A   1      41.126  30.578  36.654  1.00  0.00    -0.354 N 
ATOM     63  N   UNL A   1      38.904  32.436  34.236  1.00  0.00    -0.248 NA
ATOM     64  C   UNL A   1      38.130  34.609  33.954  1.00  0.00     0.031 C 
ATOM     65  C   UNL A   1      42.268  32.400  36.179  1.00  0.00     0.029 A 
ATOM     66  C   UNL A   1      40.975  31.928  36.385  1.00  0.00     0.049 A 
ATOM     67  H   UNL A   1      40.387  29.986  36.923  1.00  0.00     0.167 HD
ATOM     68  C   UNL A   1      39.007  33.055  35.450  1.00  0.00     0.074 A 
ATOM     69  C   UNL A   1      38.469  34.396  35.235  1.00  0.00     0.031 C 
ATOM     70  C   UNL A   1      39.676  32.585  36.542  1.00  0.00     0.037 A 
BRANCH  57  71
ATOM     71  C   UNL A   1      43.932  27.984  37.013  1.00  0.00     0.058 A 
ATOM     72  C   UNL A   1      43.734  26.839  37.818  1.00  0.00     0.135 A 
ATOM     73  C   UNL A   1      45.291  28.387  36.937  1.00  0.00     0.135 A 
ATOM     74  F   UNL A   1      42.505  26.346  38.030  1.00  0.00    -0.206 F 
ATOM     75  C   UNL A   1      44.778  26.151  38.457  1.00  0.00     0.059 A 
ATOM     76  C   UNL A   1      46.352  27.692  37.528  1.00  0.00     0.059 A 
ATOM     77  F   UNL A   1      45.681  29.509  36.330  1.00  0.00    -0.206 F 
ATOM     78  C   UNL A   1      46.089  26.572  38.293  1.00  0.00     0.060 A 
BRANCH  78  79
ATOM     79  S   UNL A   1      47.433  25.656  39.071  1.00  0.00     0.124 S 
ATOM     80  O   UNL A   1      46.955  24.281  38.983  1.00  0.00    -0.237 OA
ATOM     81  O   UNL A   1      48.568  25.993  38.218  1.00  0.00    -0.237 OA
ATOM     82  O   UNL A   1      47.488  26.210  40.423  1.00  0.00    -0.744 OA
ENDBRANCH  78  79
ENDBRANCH  57  71
BRANCH  58  83
ATOM     83  C   UNL A   1      37.958  32.891  30.707  1.00  0.00     0.058 A 
ATOM     84  C   UNL A   1      36.738  32.230  30.980  1.00  0.00     0.135 A 
ATOM     85  C   UNL A   1      38.013  33.599  29.496  1.00  0.00     0.135 A 
ATOM     86  F   UNL A   1      36.580  31.592  32.147  1.00  0.00    -0.206 F 
ATOM     87  C   UNL A   1      35.604  32.351  30.173  1.00  0.00     0.059 A 
ATOM     88  C   UNL A   1      36.872  33.767  28.684  1.00  0.00     0.059 A 
ATOM     89  F   UNL A   1      39.122  34.271  29.159  1.00  0.00    -0.206 F 
ATOM     90  C   UNL A   1      35.661  33.182  29.059  1.00  0.00     0.060 A 
BRANCH  90  91
ATOM     91  S   UNL A   1      34.087  33.687  28.302  1.00  0.00     0.124 S 
ATOM     92  O   UNL A   1      34.526  34.627  27.279  1.00  0.00    -0.237 OA
ATOM     93  O   UNL A   1      33.573  32.412  27.799  1.00  0.00    -0.237 OA
ATOM     94  O   UNL A   1      33.346  34.254  29.421  1.00  0.00    -0.744 OA
ENDBRANCH  90  91
ENDBRANCH  58  83
BRANCH  70  95
ATOM     95  C   UNL A   1      39.057  32.740  37.908  1.00  0.00     0.058 A 
ATOM     96  C   UNL A   1      37.930  32.008  38.335  1.00  0.00     0.135 A 
ATOM     97  C   UNL A   1      39.699  33.507  38.908  1.00  0.00     0.135 A 
ATOM     98  F   UNL A   1      37.286  31.145  37.537  1.00  0.00    -0.206 F 
ATOM     99  C   UNL A   1      37.427  32.098  39.623  1.00  0.00     0.059 A 
ATOM    100  C   UNL A   1      39.254  33.550  40.222  1.00  0.00     0.059 A 
ATOM    101  F   UNL A   1      40.804  34.222  38.660  1.00  0.00    -0.206 F 
ATOM    102  C   UNL A   1      38.097  32.869  40.560  1.00  0.00     0.060 A 
BRANCH 102 103
ATOM    103  S   UNL A   1      37.443  32.942  42.226  1.00  0.00     0.124 S 
ATOM    104  O   UNL A   1      38.639  33.296  42.985  1.00  0.00    -0.237 OA
ATOM    105  O   UNL A   1      36.429  33.986  42.118  1.00  0.00    -0.237 OA
ATOM    106  O   UNL A   1      36.928  31.595  42.448  1.00  0.00    -0.744 OA
ENDBRANCH 102 103
ENDBRANCH  70  95
ENDBRANCH  44  45
ENDBRANCH  37  39
ENDBRANCH  36  37
ENDBRANCH  35  36
ENDBRANCH  34  35
ENDBRANCH  33  34
ENDBRANCH   1  33
TORSDOF 21
ENDMDL
MODEL 3
REMARK VINA RESULT:     -11.4      1.074      1.950
REMARK SMILES Cc1ccccc1/[NH+]=C1\S[C@@H](CC(=O)Nc2ccc(C(=O)OCCOCCOC(=O)c3ccc(-c4c5nc(c(-c6c(F)cc(S(=O)(=O)[O-])cc6F)c6ccc([nH]6)c(-c6c(F)cc(S(=O)(=O)[O-])cc6F)c6nc(c(-c7c(F)cc(S(=O)(=O)[O-])cc7F)c7ccc4[nH]7)C=C6)C=C5)cc3)cc2)C(=O)N1C
REMARK SMILES IDX 24 1 23 2 22 3 20 4 21 5 19 6 16 7 17 8 98 9 18 10 97 11
REMARK SMILES IDX 15 12 13 13 14 14 12 16 11 17 8 18 9 19 10 21 101 22 99 23
REMARK SMILES IDX 102 24 100 25 7 26 1 27 2 28 3 29 4 30 6 31 5 32 25 33 26 34
REMARK SMILES IDX 27 35 28 36 29 37 30 38 31 39 32 40 96 41 33 42 95 43 34 44
REMARK SMILES IDX 35 45 36 46 89 47 37 48 94 49 88 50 90 51 38 52 93 53 87 54
REMARK SMILES IDX 86 55 39 57 73 58 52 59 72 60 53 61 56 62 71 63 91 64 54 65
REMARK SMILES IDX 55 66 70 68 92 69 57 70 40 71 41 72 50 73 42 74 43 75 49 76
REMARK SMILES IDX 51 77 44 78 45 79 46 80 47 81 48 82 74 83 75 84 84 85 76 86
REMARK SMILES IDX 77 87 83 88 85 89 78 90 79 91 80 92 81 93 82 94 58 95 59 96
REMARK SMILES IDX 68 97 60 98 61 99 67 100 69 101 62 102 63 103 64 104 65 105
REMARK SMILES IDX 66 106
REMARK H PARENT 15 15 8 20 90 56 56 67
REMARK Flexibility Score: inf
ROOT
ATOM      1  C   UNL A   1      37.473  23.632  25.418  1.00  0.00     0.202 C 
ENDROOT
BRANCH   1   2
ATOM      2  C   UNL A   1      37.024  22.433  24.664  1.00  0.00     0.261 C 
BRANCH   2   3
ATOM      3  O   UNL A   1      36.343  21.469  25.513  1.00  0.00    -0.460 OA
BRANCH   3   4
ATOM      4  C   UNL A   1      35.547  20.434  25.102  1.00  0.00     0.338 C 
ATOM      5  O   UNL A   1      35.830  19.328  24.729  1.00  0.00    -0.246 OA
BRANCH   4   6
ATOM      6  C   UNL A   1      34.160  20.942  25.205  1.00  0.00     0.060 A 
ATOM      7  C   UNL A   1      31.635  22.022  25.529  1.00  0.00     0.041 A 
ATOM      8  C   UNL A   1      32.384  21.649  26.629  1.00  0.00     0.027 A 
ATOM      9  C   UNL A   1      32.040  21.646  24.252  1.00  0.00     0.027 A 
ATOM     10  C   UNL A   1      33.664  21.190  26.480  1.00  0.00     0.018 A 
ATOM     11  C   UNL A   1      33.324  21.098  24.089  1.00  0.00     0.018 A 
BRANCH   7  12
ATOM     12  N   UNL A   1      30.551  22.872  25.771  1.00  0.00    -0.326 N 
ATOM     13  C   UNL A   1      30.695  24.146  26.310  1.00  0.00     0.226 C 
ATOM     14  O   UNL A   1      29.752  24.719  26.853  1.00  0.00    -0.275 OA
ATOM     15  H   UNL A   1      29.646  22.554  25.551  1.00  0.00     0.169 HD
BRANCH  13  16
ATOM     16  C   UNL A   1      31.993  24.888  25.974  1.00  0.00     0.128 C 
BRANCH  16  17
ATOM     17  C   UNL A   1      31.986  25.979  24.919  1.00  0.00     0.183 C 
ATOM     18  N   UNL A   1      30.530  28.223  22.487  1.00  0.00    -0.234 N 
ATOM     19  C   UNL A   1      30.767  27.094  23.050  1.00  0.00     0.319 C 
ATOM     20  H   UNL A   1      30.983  28.349  21.622  1.00  0.00     0.313 HD
ATOM     21  S   UNL A   1      30.234  26.405  24.539  1.00  0.00    -0.022 SA
ATOM     22  N   UNL A   1      31.705  26.237  22.553  1.00  0.00    -0.193 N 
ATOM     23  C   UNL A   1      32.563  25.757  23.521  1.00  0.00     0.324 C 
ATOM     24  C   UNL A   1      31.858  25.965  21.137  1.00  0.00     0.301 C 
ATOM     25  O   UNL A   1      33.697  25.343  23.306  1.00  0.00    -0.245 OA
BRANCH  18  26
ATOM     26  C   UNL A   1      29.736  29.311  22.893  1.00  0.00     0.128 A 
ATOM     27  C   UNL A   1      31.058  30.232  24.932  1.00  0.00     0.049 C 
ATOM     28  C   UNL A   1      29.973  30.276  23.898  1.00  0.00    -0.004 A 
ATOM     29  C   UNL A   1      29.129  31.408  23.992  1.00  0.00     0.008 A 
ATOM     30  C   UNL A   1      28.100  31.632  23.086  1.00  0.00     0.001 A 
ATOM     31  C   UNL A   1      28.667  29.562  22.006  1.00  0.00     0.052 A 
ATOM     32  C   UNL A   1      27.866  30.703  22.089  1.00  0.00     0.004 A 
ENDBRANCH  18  26
ENDBRANCH  16  17
ENDBRANCH  13  16
ENDBRANCH   7  12
ENDBRANCH   4   6
ENDBRANCH   3   4
ENDBRANCH   2   3
ENDBRANCH   1   2
BRANCH   1  33
ATOM     33  O   UNL A   1      38.558  23.182  26.207  1.00  0.00    -0.374 OA
BRANCH  33  34
ATOM     34  C   UNL A   1      39.245  24.196  26.895  1.00  0.00     0.202 C 
BRANCH  34  35
ATOM     35  C   UNL A   1      40.697  24.286  26.430  1.00  0.00     0.261 C 
BRANCH  35  36
ATOM     36  O   UNL A   1      41.330  25.440  27.028  1.00  0.00    -0.460 OA
BRANCH  36  37
ATOM     37  C   UNL A   1      41.257  26.600  26.307  1.00  0.00     0.338 C 
ATOM     38  O   UNL A   1      41.415  26.660  25.101  1.00  0.00    -0.246 OA
BRANCH  37  39
ATOM     39  C   UNL A   1      40.989  27.761  27.206  1.00  0.00     0.060 A 
ATOM     40  C   UNL A   1      41.977  28.734  27.463  1.00  0.00     0.016 A 
ATOM     41  C   UNL A   1      39.820  27.752  27.960  1.00  0.00     0.016 A 
ATOM     42  C   UNL A   1      41.854  29.599  28.567  1.00  0.00     0.010 A 
ATOM     43  C   UNL A   1      39.747  28.539  29.086  1.00  0.00     0.010 A 
ATOM     44  C   UNL A   1      40.770  29.441  29.426  1.00  0.00    -0.014 A 
BRANCH  44  45
ATOM     45  C   UNL A   1      40.589  30.071  30.739  1.00  0.00     0.031 A 
ATOM     46  C   UNL A   1      39.893  31.372  30.776  1.00  0.00     0.074 A 
ATOM     47  C   UNL A   1      40.692  29.328  31.868  1.00  0.00     0.049 A 
ATOM     48  N   UNL A   1      39.676  32.040  31.850  1.00  0.00    -0.248 NA
ATOM     49  C   UNL A   1      39.411  32.069  29.583  1.00  0.00     0.031 C 
ATOM     50  C   UNL A   1      39.968  29.443  33.136  1.00  0.00     0.029 A 
ATOM     51  N   UNL A   1      41.469  28.195  32.088  1.00  0.00    -0.354 N 
ATOM     52  C   UNL A   1      38.688  32.949  31.560  1.00  0.00     0.074 A 
ATOM     53  C   UNL A   1      38.740  33.086  30.131  1.00  0.00     0.031 C 
ATOM     54  C   UNL A   1      40.536  28.643  34.060  1.00  0.00     0.029 A 
ATOM     55  C   UNL A   1      41.725  28.066  33.451  1.00  0.00     0.049 A 
ATOM     56  H   UNL A   1      41.790  27.581  31.389  1.00  0.00     0.167 HD
ATOM     57  C   UNL A   1      37.832  33.299  32.562  1.00  0.00     0.037 A 
ATOM     58  C   UNL A   1      43.004  28.077  33.895  1.00  0.00     0.037 A 
ATOM     59  C   UNL A   1      38.315  32.751  33.855  1.00  0.00     0.049 A 
ATOM     60  C   UNL A   1      43.100  29.312  34.730  1.00  0.00     0.074 A 
ATOM     61  C   UNL A   1      37.817  31.833  34.764  1.00  0.00     0.029 A 
ATOM     62  N   UNL A   1      39.661  32.939  34.217  1.00  0.00    -0.354 N 
ATOM     63  N   UNL A   1      42.463  30.421  34.432  1.00  0.00    -0.248 NA
ATOM     64  C   UNL A   1      43.600  29.270  36.101  1.00  0.00     0.031 C 
ATOM     65  C   UNL A   1      38.896  31.413  35.609  1.00  0.00     0.029 A 
ATOM     66  C   UNL A   1      40.057  32.078  35.227  1.00  0.00     0.049 A 
ATOM     67  H   UNL A   1      40.253  33.605  33.800  1.00  0.00     0.167 HD
ATOM     68  C   UNL A   1      42.290  31.126  35.590  1.00  0.00     0.074 A 
ATOM     69  C   UNL A   1      43.055  30.393  36.594  1.00  0.00     0.031 C 
ATOM     70  C   UNL A   1      41.409  32.148  35.787  1.00  0.00     0.037 A 
BRANCH  57  71
ATOM     71  C   UNL A   1      36.461  33.954  32.357  1.00  0.00     0.058 A 
ATOM     72  C   UNL A   1      35.955  34.867  33.310  1.00  0.00     0.135 A 
ATOM     73  C   UNL A   1      35.561  33.702  31.289  1.00  0.00     0.135 A 
ATOM     74  F   UNL A   1      36.660  35.187  34.404  1.00  0.00    -0.206 F 
ATOM     75  C   UNL A   1      34.699  35.485  33.200  1.00  0.00     0.059 A 
ATOM     76  C   UNL A   1      34.324  34.340  31.135  1.00  0.00     0.059 A 
ATOM     77  F   UNL A   1      35.791  32.784  30.349  1.00  0.00    -0.206 F 
ATOM     78  C   UNL A   1      33.895  35.231  32.098  1.00  0.00     0.060 A 
BRANCH  78  79
ATOM     79  S   UNL A   1      32.306  36.066  31.932  1.00  0.00     0.124 S 
ATOM     80  O   UNL A   1      32.186  36.208  30.486  1.00  0.00    -0.237 OA
ATOM     81  O   UNL A   1      31.393  35.117  32.559  1.00  0.00    -0.237 OA
ATOM     82  O   UNL A   1      32.497  37.317  32.665  1.00  0.00    -0.744 OA
ENDBRANCH  78  79
ENDBRANCH  57  71
BRANCH  58  83
ATOM     83  C   UNL A   1      43.954  27.395  32.957  1.00  0.00     0.058 A 
ATOM     84  C   UNL A   1      43.937  25.980  32.981  1.00  0.00     0.135 A 
ATOM     85  C   UNL A   1      44.444  27.980  31.779  1.00  0.00     0.135 A 
ATOM     86  F   UNL A   1      43.419  25.346  34.041  1.00  0.00    -0.206 F 
ATOM     87  C   UNL A   1      44.268  25.191  31.877  1.00  0.00     0.059 A 
ATOM     88  C   UNL A   1      44.748  27.208  30.639  1.00  0.00     0.059 A 
ATOM     89  F   UNL A   1      44.483  29.314  31.656  1.00  0.00    -0.206 F 
ATOM     90  C   UNL A   1      44.607  25.819  30.683  1.00  0.00     0.060 A 
BRANCH  90  91
ATOM     91  S   UNL A   1      44.579  24.818  29.166  1.00  0.00     0.124 S 
ATOM     92  O   UNL A   1      45.716  23.928  29.365  1.00  0.00    -0.237 OA
ATOM     93  O   UNL A   1      43.265  24.179  29.252  1.00  0.00    -0.237 OA
ATOM     94  O   UNL A   1      44.716  25.811  28.108  1.00  0.00    -0.744 OA
ENDBRANCH  90  91
ENDBRANCH  58  83
BRANCH  70  95
ATOM     95  C   UNL A   1      41.846  33.355  36.579  1.00  0.00     0.058 A 
ATOM     96  C   UNL A   1      42.811  34.275  36.118  1.00  0.00     0.135 A 
ATOM     97  C   UNL A   1      41.166  33.728  37.761  1.00  0.00     0.135 A 
ATOM     98  F   UNL A   1      43.455  34.122  34.953  1.00  0.00    -0.206 F 
ATOM     99  C   UNL A   1      43.138  35.424  36.818  1.00  0.00     0.059 A 
ATOM    100  C   UNL A   1      41.427  34.912  38.436  1.00  0.00     0.059 A 
ATOM    101  F   UNL A   1      40.197  32.973  38.295  1.00  0.00    -0.206 F 
ATOM    102  C   UNL A   1      42.439  35.737  37.974  1.00  0.00     0.060 A 
BRANCH 102 103
ATOM    103  S   UNL A   1      42.861  37.246  38.842  1.00  0.00     0.124 S 
ATOM    104  O   UNL A   1      43.817  36.749  39.826  1.00  0.00    -0.237 OA
ATOM    105  O   UNL A   1      43.421  38.073  37.777  1.00  0.00    -0.237 OA
ATOM    106  O   UNL A   1      41.581  37.700  39.376  1.00  0.00    -0.744 OA
ENDBRANCH 102 103
ENDBRANCH  70  95
ENDBRANCH  44  45
ENDBRANCH  37  39
ENDBRANCH  36  37
ENDBRANCH  35  36
ENDBRANCH  34  35
ENDBRANCH  33  34
ENDBRANCH   1  33
TORSDOF 21
ENDMDL
