MODEL 1
REMARK VINA RESULT:     -10.9      0.000      0.000
REMARK SMILES CC[C@@H](C)[C@H](NC(=O)[C@H]1CCCN(S(=O)(=O)c2ccccc2)C1)C(=O)OCCOCCOC(=O)c1ccc(-c2c3nc(c(-c4c(F)cc(S(=O)(=O)[O-])cc4F)c4ccc([nH]4)c(-c4c(F)cc(S(=O)(=O)[O-])cc4F)c4nc(c(-c5c(F)cc(S(=O)(=O)[O-])cc5F)c5ccc2[nH]5)C=C4)C=C3)cc1
REMARK SMILES IDX 28 1 27 2 26 3 24 4 25 5 5 6 3 7 4 8 2 9 1 10 6 11 7 12 8 14
REMARK SMILES IDX 9 15 10 16 23 17 11 18 13 19 12 20 14 21 15 22 16 23 17 24
REMARK SMILES IDX 18 25 22 26 19 27 21 28 20 29 29 30 30 31 31 32 32 33 33 34
REMARK SMILES IDX 34 35 35 36 36 37 100 38 37 39 99 40 38 41 39 42 40 43 93 44
REMARK SMILES IDX 41 45 98 46 92 47 94 48 42 49 97 50 91 51 90 52 43 54 77 55
REMARK SMILES IDX 56 56 76 57 57 58 60 59 75 60 95 61 58 62 59 63 74 65 96 66
REMARK SMILES IDX 61 67 44 68 45 69 54 70 46 71 47 72 53 73 55 74 48 75 49 76
REMARK SMILES IDX 50 77 51 78 52 79 78 80 79 81 88 82 80 83 81 84 87 85 89 86
REMARK SMILES IDX 82 87 83 88 84 89 85 90 86 91 62 92 63 93 72 94 64 95 65 96
REMARK SMILES IDX 71 97 73 98 66 99 67 100 68 101 69 102 70 103
REMARK H PARENT 6 13 94 53 60 64
REMARK Flexibility Score: inf
ROOT
ATOM      1  C   UNL A   1      37.099  22.100  25.175  1.00  0.00     0.202 C 
ENDROOT
BRANCH   1   2
ATOM      2  C   UNL A   1      35.988  22.096  26.242  1.00  0.00     0.261 C 
BRANCH   2   3
ATOM      3  O   UNL A   1      34.729  22.226  25.549  1.00  0.00    -0.462 OA
BRANCH   3   4
ATOM      4  C   UNL A   1      34.020  21.156  25.122  1.00  0.00     0.328 C 
ATOM      5  O   UNL A   1      34.488  20.031  25.018  1.00  0.00    -0.250 OA
BRANCH   4   6
ATOM      6  C   UNL A   1      32.534  21.568  24.731  1.00  0.00     0.195 C 
BRANCH   6   7
ATOM      7  C   UNL A   1      32.269  22.112  23.249  1.00  0.00     0.019 C 
ATOM      8  C   UNL A   1      31.836  20.991  22.301  1.00  0.00     0.010 C 
BRANCH   7   9
ATOM      9  C   UNL A   1      33.426  22.896  22.603  1.00  0.00     0.002 C 
ATOM     10  C   UNL A   1      33.274  23.638  21.289  1.00  0.00     0.004 C 
ENDBRANCH   7   9
ENDBRANCH   6   7
BRANCH   6  11
ATOM     11  N   UNL A   1      31.675  22.245  25.767  1.00  0.00    -0.342 N 
ATOM     12  C   UNL A   1      31.329  23.528  26.114  1.00  0.00     0.225 C 
ATOM     13  H   UNL A   1      31.241  21.587  26.357  1.00  0.00     0.164 HD
ATOM     14  O   UNL A   1      30.397  23.627  26.919  1.00  0.00    -0.275 OA
BRANCH  12  15
ATOM     15  C   UNL A   1      32.149  24.756  25.704  1.00  0.00     0.094 C 
ATOM     16  C   UNL A   1      31.769  25.309  24.367  1.00  0.00     0.016 C 
ATOM     17  C   UNL A   1      32.038  25.967  26.623  1.00  0.00     0.116 C 
ATOM     18  C   UNL A   1      32.816  26.222  23.819  1.00  0.00     0.018 C 
ATOM     19  N   UNL A   1      32.729  27.218  26.010  1.00  0.00    -0.197 NA
ATOM     20  C   UNL A   1      32.632  27.481  24.570  1.00  0.00     0.102 C 
BRANCH  19  21
ATOM     21  S   UNL A   1      32.213  28.600  26.836  1.00  0.00     0.243 S 
ATOM     22  O   UNL A   1      31.396  29.379  25.918  1.00  0.00    -0.207 OA
ATOM     23  O   UNL A   1      31.608  27.986  27.974  1.00  0.00    -0.207 OA
BRANCH  21  24
ATOM     24  C   UNL A   1      33.719  29.528  27.169  1.00  0.00     0.082 A 
ATOM     25  C   UNL A   1      34.985  28.956  27.230  1.00  0.00     0.022 A 
ATOM     26  C   UNL A   1      33.612  30.882  27.486  1.00  0.00     0.022 A 
ATOM     27  C   UNL A   1      36.128  29.685  27.567  1.00  0.00     0.001 A 
ATOM     28  C   UNL A   1      34.751  31.631  27.808  1.00  0.00     0.001 A 
ATOM     29  C   UNL A   1      36.009  31.033  27.852  1.00  0.00     0.000 A 
ENDBRANCH  21  24
ENDBRANCH  19  21
ENDBRANCH  12  15
ENDBRANCH   6  11
ENDBRANCH   4   6
ENDBRANCH   3   4
ENDBRANCH   2   3
ENDBRANCH   1   2
BRANCH   1  30
ATOM     30  O   UNL A   1      38.410  22.091  25.749  1.00  0.00    -0.374 OA
BRANCH  30  31
ATOM     31  C   UNL A   1      38.806  23.306  26.388  1.00  0.00     0.202 C 
BRANCH  31  32
ATOM     32  C   UNL A   1      40.133  23.216  27.147  1.00  0.00     0.261 C 
BRANCH  32  33
ATOM     33  O   UNL A   1      41.258  23.791  26.418  1.00  0.00    -0.460 OA
BRANCH  33  34
ATOM     34  C   UNL A   1      41.214  25.130  26.201  1.00  0.00     0.338 C 
ATOM     35  O   UNL A   1      41.175  25.654  25.097  1.00  0.00    -0.246 OA
BRANCH  34  36
ATOM     36  C   UNL A   1      41.116  25.936  27.470  1.00  0.00     0.060 A 
ATOM     37  C   UNL A   1      39.929  26.629  27.683  1.00  0.00     0.016 A 
ATOM     38  C   UNL A   1      42.138  26.117  28.416  1.00  0.00     0.016 A 
ATOM     39  C   UNL A   1      39.765  27.449  28.822  1.00  0.00     0.010 A 
ATOM     40  C   UNL A   1      41.939  26.909  29.607  1.00  0.00     0.010 A 
ATOM     41  C   UNL A   1      40.719  27.556  29.879  1.00  0.00    -0.014 A 
BRANCH  41  42
ATOM     42  C   UNL A   1      40.384  28.487  31.106  1.00  0.00     0.031 A 
ATOM     43  C   UNL A   1      41.553  28.729  31.997  1.00  0.00     0.074 A 
ATOM     44  C   UNL A   1      39.259  29.191  31.499  1.00  0.00     0.049 A 
ATOM     45  N   UNL A   1      41.674  29.596  32.960  1.00  0.00    -0.248 NA
ATOM     46  C   UNL A   1      42.669  27.784  31.860  1.00  0.00     0.031 C 
ATOM     47  C   UNL A   1      37.858  28.963  31.179  1.00  0.00     0.029 A 
ATOM     48  N   UNL A   1      39.151  30.460  32.106  1.00  0.00    -0.354 N 
ATOM     49  C   UNL A   1      42.795  29.196  33.653  1.00  0.00     0.074 A 
ATOM     50  C   UNL A   1      43.390  28.098  32.919  1.00  0.00     0.031 C 
ATOM     51  C   UNL A   1      37.168  30.119  31.161  1.00  0.00     0.029 A 
ATOM     52  C   UNL A   1      37.972  31.158  31.770  1.00  0.00     0.049 A 
ATOM     53  H   UNL A   1      39.837  30.825  32.711  1.00  0.00     0.167 HD
ATOM     54  C   UNL A   1      43.207  29.627  34.862  1.00  0.00     0.037 A 
ATOM     55  C   UNL A   1      37.563  32.443  31.973  1.00  0.00     0.037 A 
ATOM     56  C   UNL A   1      42.560  30.654  35.629  1.00  0.00     0.049 A 
ATOM     57  C   UNL A   1      38.204  33.095  33.174  1.00  0.00     0.074 A 
ATOM     58  C   UNL A   1      42.880  31.094  36.900  1.00  0.00     0.029 A 
ATOM     59  N   UNL A   1      41.455  31.389  35.218  1.00  0.00    -0.354 N 
ATOM     60  N   UNL A   1      39.259  32.701  33.839  1.00  0.00    -0.248 NA
ATOM     61  C   UNL A   1      37.497  34.234  33.787  1.00  0.00     0.031 C 
ATOM     62  C   UNL A   1      41.964  32.083  37.266  1.00  0.00     0.029 A 
ATOM     63  C   UNL A   1      41.108  32.306  36.199  1.00  0.00     0.049 A 
ATOM     64  H   UNL A   1      40.989  31.276  34.359  1.00  0.00     0.167 HD
ATOM     65  C   UNL A   1      39.276  33.457  34.999  1.00  0.00     0.074 A 
ATOM     66  C   UNL A   1      38.208  34.428  34.890  1.00  0.00     0.031 C 
ATOM     67  C   UNL A   1      40.060  33.288  36.087  1.00  0.00     0.037 A 
BRANCH  54  68
ATOM     68  C   UNL A   1      44.331  28.849  35.457  1.00  0.00     0.058 A 
ATOM     69  C   UNL A   1      44.101  27.720  36.256  1.00  0.00     0.135 A 
ATOM     70  C   UNL A   1      45.648  29.315  35.318  1.00  0.00     0.135 A 
ATOM     71  F   UNL A   1      42.847  27.288  36.473  1.00  0.00    -0.206 F 
ATOM     72  C   UNL A   1      45.140  27.094  36.926  1.00  0.00     0.059 A 
ATOM     73  C   UNL A   1      46.708  28.680  35.948  1.00  0.00     0.059 A 
ATOM     74  F   UNL A   1      45.907  30.418  34.599  1.00  0.00    -0.206 F 
ATOM     75  C   UNL A   1      46.439  27.580  36.763  1.00  0.00     0.060 A 
BRANCH  75  76
ATOM     76  S   UNL A   1      47.778  26.745  37.631  1.00  0.00     0.124 S 
ATOM     77  O   UNL A   1      47.326  25.358  37.599  1.00  0.00    -0.237 OA
ATOM     78  O   UNL A   1      48.929  27.056  36.789  1.00  0.00    -0.237 OA
ATOM     79  O   UNL A   1      47.777  27.378  38.946  1.00  0.00    -0.744 OA
ENDBRANCH  75  76
ENDBRANCH  54  68
BRANCH  55  80
ATOM     80  C   UNL A   1      36.423  33.181  31.277  1.00  0.00     0.058 A 
ATOM     81  C   UNL A   1      36.667  33.874  30.061  1.00  0.00     0.135 A 
ATOM     82  C   UNL A   1      35.123  33.322  31.785  1.00  0.00     0.135 A 
ATOM     83  F   UNL A   1      37.898  33.866  29.523  1.00  0.00    -0.206 F 
ATOM     84  C   UNL A   1      35.690  34.635  29.398  1.00  0.00     0.059 A 
ATOM     85  C   UNL A   1      34.111  34.025  31.110  1.00  0.00     0.059 A 
ATOM     86  F   UNL A   1      34.807  32.830  32.991  1.00  0.00    -0.206 F 
ATOM     87  C   UNL A   1      34.405  34.690  29.923  1.00  0.00     0.060 A 
BRANCH  87  88
ATOM     88  S   UNL A   1      33.108  35.599  29.037  1.00  0.00     0.124 S 
ATOM     89  O   UNL A   1      32.483  34.543  28.250  1.00  0.00    -0.237 OA
ATOM     90  O   UNL A   1      32.302  36.141  30.127  1.00  0.00    -0.237 OA
ATOM     91  O   UNL A   1      33.860  36.593  28.277  1.00  0.00    -0.744 OA
ENDBRANCH  87  88
ENDBRANCH  55  80
BRANCH  67  92
ATOM     92  C   UNL A   1      39.827  34.207  37.247  1.00  0.00     0.058 A 
ATOM     93  C   UNL A   1      38.915  33.901  38.270  1.00  0.00     0.135 A 
ATOM     94  C   UNL A   1      40.574  35.388  37.358  1.00  0.00     0.135 A 
ATOM     95  F   UNL A   1      38.168  32.787  38.203  1.00  0.00    -0.206 F 
ATOM     96  C   UNL A   1      38.742  34.748  39.359  1.00  0.00     0.059 A 
ATOM     97  C   UNL A   1      40.436  36.234  38.450  1.00  0.00     0.059 A 
ATOM     98  F   UNL A   1      41.460  35.719  36.405  1.00  0.00    -0.206 F 
ATOM     99  C   UNL A   1      39.511  35.911  39.441  1.00  0.00     0.060 A 
BRANCH  99 100
ATOM    100  S   UNL A   1      39.306  36.989  40.874  1.00  0.00     0.124 S 
ATOM    101  O   UNL A   1      40.670  37.463  41.083  1.00  0.00    -0.237 OA
ATOM    102  O   UNL A   1      38.355  37.982  40.383  1.00  0.00    -0.237 OA
ATOM    103  O   UNL A   1      38.789  36.090  41.902  1.00  0.00    -0.744 OA
ENDBRANCH  99 100
ENDBRANCH  67  92
ENDBRANCH  41  42
ENDBRANCH  34  36
ENDBRANCH  33  34
ENDBRANCH  32  33
ENDBRANCH  31  32
ENDBRANCH  30  31
ENDBRANCH   1  30
TORSDOF 23
ENDMDL
MODEL 2
REMARK VINA RESULT:     -10.9      6.392     12.011
REMARK SMILES CC[C@@H](C)[C@H](NC(=O)[C@H]1CCCN(S(=O)(=O)c2ccccc2)C1)C(=O)OCCOCCOC(=O)c1ccc(-c2c3nc(c(-c4c(F)cc(S(=O)(=O)[O-])cc4F)c4ccc([nH]4)c(-c4c(F)cc(S(=O)(=O)[O-])cc4F)c4nc(c(-c5c(F)cc(S(=O)(=O)[O-])cc5F)c5ccc2[nH]5)C=C4)C=C3)cc1
REMARK SMILES IDX 28 1 27 2 26 3 24 4 25 5 5 6 3 7 4 8 2 9 1 10 6 11 7 12 8 14
REMARK SMILES IDX 9 15 10 16 23 17 11 18 13 19 12 20 14 21 15 22 16 23 17 24
REMARK SMILES IDX 18 25 22 26 19 27 21 28 20 29 29 30 30 31 31 32 32 33 33 34
REMARK SMILES IDX 34 35 35 36 36 37 100 38 37 39 99 40 38 41 39 42 40 43 93 44
REMARK SMILES IDX 41 45 98 46 92 47 94 48 42 49 97 50 91 51 90 52 43 54 77 55
REMARK SMILES IDX 56 56 76 57 57 58 60 59 75 60 95 61 58 62 59 63 74 65 96 66
REMARK SMILES IDX 61 67 44 68 45 69 54 70 46 71 47 72 53 73 55 74 48 75 49 76
REMARK SMILES IDX 50 77 51 78 52 79 78 80 79 81 88 82 80 83 81 84 87 85 89 86
REMARK SMILES IDX 82 87 83 88 84 89 85 90 86 91 62 92 63 93 72 94 64 95 65 96
REMARK SMILES IDX 71 97 73 98 66 99 67 100 68 101 69 102 70 103
REMARK H PARENT 6 13 94 53 60 64
REMARK Flexibility Score: inf
ROOT
ATOM      1  C   UNL A   1      33.859  30.576  27.154  1.00  0.00     0.202 C 
ENDROOT
BRANCH   1   2
ATOM      2  C   UNL A   1      32.523  30.515  26.389  1.00  0.00     0.261 C 
BRANCH   2   3
ATOM      3  O   UNL A   1      32.765  29.791  25.164  1.00  0.00    -0.462 OA
BRANCH   3   4
ATOM      4  C   UNL A   1      32.267  28.553  24.941  1.00  0.00     0.328 C 
ATOM      5  O   UNL A   1      32.252  27.667  25.783  1.00  0.00    -0.250 OA
BRANCH   4   6
ATOM      6  C   UNL A   1      31.759  28.398  23.442  1.00  0.00     0.195 C 
BRANCH   6   7
ATOM      7  C   UNL A   1      30.201  28.120  23.200  1.00  0.00     0.019 C 
ATOM      8  C   UNL A   1      29.366  29.392  23.361  1.00  0.00     0.010 C 
BRANCH   7   9
ATOM      9  C   UNL A   1      29.576  27.000  24.053  1.00  0.00     0.002 C 
ATOM     10  C   UNL A   1      28.143  26.540  23.870  1.00  0.00     0.004 C 
ENDBRANCH   7   9
ENDBRANCH   6   7
BRANCH   6  11
ATOM     11  N   UNL A   1      32.642  27.687  22.449  1.00  0.00    -0.342 N 
ATOM     12  C   UNL A   1      33.275  26.473  22.344  1.00  0.00     0.225 C 
ATOM     13  H   UNL A   1      32.810  28.246  21.656  1.00  0.00     0.164 HD
ATOM     14  O   UNL A   1      33.736  26.208  21.229  1.00  0.00    -0.275 OA
BRANCH  12  15
ATOM     15  C   UNL A   1      33.578  25.580  23.553  1.00  0.00     0.094 C 
ATOM     16  C   UNL A   1      32.485  24.611  23.869  1.00  0.00     0.016 C 
ATOM     17  C   UNL A   1      34.808  24.687  23.428  1.00  0.00     0.116 C 
ATOM     18  C   UNL A   1      32.612  24.049  25.246  1.00  0.00     0.018 C 
ATOM     19  N   UNL A   1      34.903  23.675  24.605  1.00  0.00    -0.197 NA
ATOM     20  C   UNL A   1      33.689  23.044  25.134  1.00  0.00     0.102 C 
BRANCH  19  21
ATOM     21  S   UNL A   1      36.002  22.454  24.201  1.00  0.00     0.243 S 
ATOM     22  O   UNL A   1      35.408  21.185  24.594  1.00  0.00    -0.207 OA
ATOM     23  O   UNL A   1      36.189  22.750  22.818  1.00  0.00    -0.207 OA
BRANCH  21  24
ATOM     24  C   UNL A   1      37.430  22.752  25.255  1.00  0.00     0.082 A 
ATOM     25  C   UNL A   1      38.396  21.793  25.541  1.00  0.00     0.022 A 
ATOM     26  C   UNL A   1      37.531  23.979  25.911  1.00  0.00     0.022 A 
ATOM     27  C   UNL A   1      39.453  22.026  26.425  1.00  0.00     0.001 A 
ATOM     28  C   UNL A   1      38.595  24.233  26.787  1.00  0.00     0.001 A 
ATOM     29  C   UNL A   1      39.554  23.257  27.046  1.00  0.00     0.000 A 
ENDBRANCH  21  24
ENDBRANCH  19  21
ENDBRANCH  12  15
ENDBRANCH   6  11
ENDBRANCH   4   6
ENDBRANCH   3   4
ENDBRANCH   2   3
ENDBRANCH   1   2
BRANCH   1  30
ATOM     30  O   UNL A   1      33.878  31.614  28.139  1.00  0.00    -0.374 OA
BRANCH  30  31
ATOM     31  C   UNL A   1      35.095  32.359  28.218  1.00  0.00     0.202 C 
BRANCH  31  32
ATOM     32  C   UNL A   1      36.175  31.712  29.090  1.00  0.00     0.261 C 
BRANCH  32  33
ATOM     33  O   UNL A   1      35.636  30.866  30.148  1.00  0.00    -0.460 OA
BRANCH  33  34
ATOM     34  C   UNL A   1      36.543  30.269  30.963  1.00  0.00     0.338 C 
ATOM     35  O   UNL A   1      36.292  29.830  32.077  1.00  0.00    -0.246 OA
BRANCH  34  36
ATOM     36  C   UNL A   1      37.897  30.101  30.325  1.00  0.00     0.060 A 
ATOM     37  C   UNL A   1      38.158  28.875  29.723  1.00  0.00     0.016 A 
ATOM     38  C   UNL A   1      38.946  31.034  30.354  1.00  0.00     0.016 A 
ATOM     39  C   UNL A   1      39.418  28.609  29.141  1.00  0.00     0.010 A 
ATOM     40  C   UNL A   1      40.209  30.775  29.704  1.00  0.00     0.010 A 
ATOM     41  C   UNL A   1      40.467  29.571  29.022  1.00  0.00    -0.014 A 
BRANCH  41  42
ATOM     42  C   UNL A   1      41.809  29.140  28.317  1.00  0.00     0.031 A 
ATOM     43  C   UNL A   1      42.982  29.958  28.735  1.00  0.00     0.074 A 
ATOM     44  C   UNL A   1      42.153  28.118  27.449  1.00  0.00     0.049 A 
ATOM     45  N   UNL A   1      44.245  29.741  28.510  1.00  0.00    -0.248 NA
ATOM     46  C   UNL A   1      42.671  31.243  29.373  1.00  0.00     0.031 C 
ATOM     47  C   UNL A   1      41.324  27.363  26.523  1.00  0.00     0.029 A 
ATOM     48  N   UNL A   1      43.332  27.345  27.382  1.00  0.00    -0.354 N 
ATOM     49  C   UNL A   1      44.866  30.930  28.821  1.00  0.00     0.074 A 
ATOM     50  C   UNL A   1      43.861  31.812  29.378  1.00  0.00     0.031 C 
ATOM     51  C   UNL A   1      41.792  26.112  26.359  1.00  0.00     0.029 A 
ATOM     52  C   UNL A   1      43.131  26.033  26.905  1.00  0.00     0.049 A 
ATOM     53  H   UNL A   1      44.216  27.691  27.645  1.00  0.00     0.167 HD
ATOM     54  C   UNL A   1      46.135  31.288  28.538  1.00  0.00     0.037 A 
ATOM     55  C   UNL A   1      43.930  24.929  26.858  1.00  0.00     0.037 A 
ATOM     56  C   UNL A   1      47.103  30.440  27.901  1.00  0.00     0.049 A 
ATOM     57  C   UNL A   1      45.403  25.255  26.817  1.00  0.00     0.074 A 
ATOM     58  C   UNL A   1      48.391  30.762  27.517  1.00  0.00     0.029 A 
ATOM     59  N   UNL A   1      46.895  29.117  27.535  1.00  0.00    -0.354 N 
ATOM     60  N   UNL A   1      45.986  26.392  27.096  1.00  0.00    -0.248 NA
ATOM     61  C   UNL A   1      46.310  24.234  26.260  1.00  0.00     0.031 C 
ATOM     62  C   UNL A   1      48.959  29.642  26.906  1.00  0.00     0.029 A 
ATOM     63  C   UNL A   1      48.048  28.600  26.964  1.00  0.00     0.049 A 
ATOM     64  H   UNL A   1      46.055  28.620  27.663  1.00  0.00     0.167 HD
ATOM     65  C   UNL A   1      47.288  26.267  26.644  1.00  0.00     0.074 A 
ATOM     66  C   UNL A   1      47.455  24.900  26.195  1.00  0.00     0.031 C 
ATOM     67  C   UNL A   1      48.225  27.236  26.535  1.00  0.00     0.037 A 
BRANCH  54  68
ATOM     68  C   UNL A   1      46.455  32.722  28.797  1.00  0.00     0.058 A 
ATOM     69  C   UNL A   1      46.900  33.160  30.052  1.00  0.00     0.135 A 
ATOM     70  C   UNL A   1      46.197  33.680  27.805  1.00  0.00     0.135 A 
ATOM     71  F   UNL A   1      47.087  32.279  31.049  1.00  0.00    -0.206 F 
ATOM     72  C   UNL A   1      47.049  34.510  30.327  1.00  0.00     0.059 A 
ATOM     73  C   UNL A   1      46.377  35.034  28.046  1.00  0.00     0.059 A 
ATOM     74  F   UNL A   1      45.728  33.308  26.604  1.00  0.00    -0.206 F 
ATOM     75  C   UNL A   1      46.788  35.438  29.316  1.00  0.00     0.060 A 
BRANCH  75  76
ATOM     76  S   UNL A   1      47.001  37.187  29.688  1.00  0.00     0.124 S 
ATOM     77  O   UNL A   1      46.954  37.183  31.146  1.00  0.00    -0.237 OA
ATOM     78  O   UNL A   1      48.305  37.470  29.096  1.00  0.00    -0.237 OA
ATOM     79  O   UNL A   1      45.864  37.816  29.023  1.00  0.00    -0.744 OA
ENDBRANCH  75  76
ENDBRANCH  54  68
BRANCH  55  80
ATOM     80  C   UNL A   1      43.507  23.480  26.635  1.00  0.00     0.058 A 
ATOM     81  C   UNL A   1      43.197  22.654  27.748  1.00  0.00     0.135 A 
ATOM     82  C   UNL A   1      43.478  22.829  25.393  1.00  0.00     0.135 A 
ATOM     83  F   UNL A   1      43.264  23.157  28.993  1.00  0.00    -0.206 F 
ATOM     84  C   UNL A   1      42.870  21.293  27.632  1.00  0.00     0.059 A 
ATOM     85  C   UNL A   1      43.094  21.486  25.242  1.00  0.00     0.059 A 
ATOM     86  F   UNL A   1      43.883  23.462  24.283  1.00  0.00    -0.206 F 
ATOM     87  C   UNL A   1      42.803  20.720  26.368  1.00  0.00     0.060 A 
BRANCH  87  88
ATOM     88  S   UNL A   1      42.301  18.985  26.191  1.00  0.00     0.124 S 
ATOM     89  O   UNL A   1      40.928  19.114  25.721  1.00  0.00    -0.237 OA
ATOM     90  O   UNL A   1      43.263  18.477  25.215  1.00  0.00    -0.237 OA
ATOM     91  O   UNL A   1      42.460  18.454  27.541  1.00  0.00    -0.744 OA
ENDBRANCH  87  88
ENDBRANCH  55  80
BRANCH  67  92
ATOM     92  C   UNL A   1      49.546  26.848  25.943  1.00  0.00     0.058 A 
ATOM     93  C   UNL A   1      49.873  27.122  24.606  1.00  0.00     0.135 A 
ATOM     94  C   UNL A   1      50.516  26.239  26.751  1.00  0.00     0.135 A 
ATOM     95  F   UNL A   1      48.973  27.693  23.790  1.00  0.00    -0.206 F 
ATOM     96  C   UNL A   1      51.120  26.790  24.086  1.00  0.00     0.059 A 
ATOM     97  C   UNL A   1      51.775  25.923  26.260  1.00  0.00     0.059 A 
ATOM     98  F   UNL A   1      50.248  25.961  28.037  1.00  0.00    -0.206 F 
ATOM     99  C   UNL A   1      52.065  26.194  24.923  1.00  0.00     0.060 A 
BRANCH  99 100
ATOM    100  S   UNL A   1      53.692  25.796  24.251  1.00  0.00     0.124 S 
ATOM    101  O   UNL A   1      53.432  25.823  22.816  1.00  0.00    -0.237 OA
ATOM    102  O   UNL A   1      54.518  26.883  24.768  1.00  0.00    -0.237 OA
ATOM    103  O   UNL A   1      53.978  24.479  24.813  1.00  0.00    -0.744 OA
ENDBRANCH  99 100
ENDBRANCH  67  92
ENDBRANCH  41  42
ENDBRANCH  34  36
ENDBRANCH  33  34
ENDBRANCH  32  33
ENDBRANCH  31  32
ENDBRANCH  30  31
ENDBRANCH   1  30
TORSDOF 23
ENDMDL
MODEL 3
REMARK VINA RESULT:     -10.0      4.592      5.758
REMARK SMILES CC[C@@H](C)[C@H](NC(=O)[C@H]1CCCN(S(=O)(=O)c2ccccc2)C1)C(=O)OCCOCCOC(=O)c1ccc(-c2c3nc(c(-c4c(F)cc(S(=O)(=O)[O-])cc4F)c4ccc([nH]4)c(-c4c(F)cc(S(=O)(=O)[O-])cc4F)c4nc(c(-c5c(F)cc(S(=O)(=O)[O-])cc5F)c5ccc2[nH]5)C=C4)C=C3)cc1
REMARK SMILES IDX 28 1 27 2 26 3 24 4 25 5 5 6 3 7 4 8 2 9 1 10 6 11 7 12 8 14
REMARK SMILES IDX 9 15 10 16 23 17 11 18 13 19 12 20 14 21 15 22 16 23 17 24
REMARK SMILES IDX 18 25 22 26 19 27 21 28 20 29 29 30 30 31 31 32 32 33 33 34
REMARK SMILES IDX 34 35 35 36 36 37 100 38 37 39 99 40 38 41 39 42 40 43 93 44
REMARK SMILES IDX 41 45 98 46 92 47 94 48 42 49 97 50 91 51 90 52 43 54 77 55
REMARK SMILES IDX 56 56 76 57 57 58 60 59 75 60 95 61 58 62 59 63 74 65 96 66
REMARK SMILES IDX 61 67 44 68 45 69 54 70 46 71 47 72 53 73 55 74 48 75 49 76
REMARK SMILES IDX 50 77 51 78 52 79 78 80 79 81 88 82 80 83 81 84 87 85 89 86
REMARK SMILES IDX 82 87 83 88 84 89 85 90 86 91 62 92 63 93 72 94 64 95 65 96
REMARK SMILES IDX 71 97 73 98 66 99 67 100 68 101 69 102 70 103
REMARK H PARENT 6 13 94 53 60 64
REMARK Flexibility Score: inf
ROOT
ATOM      1  C   UNL A   1      35.696  23.769  25.473  1.00  0.00     0.202 C 
ENDROOT
BRANCH   1   2
ATOM      2  C   UNL A   1      34.472  23.730  26.407  1.00  0.00     0.261 C 
BRANCH   2   3
ATOM      3  O   UNL A   1      33.302  23.941  25.589  1.00  0.00    -0.462 OA
BRANCH   3   4
ATOM      4  C   UNL A   1      32.045  23.866  26.083  1.00  0.00     0.328 C 
ATOM      5  O   UNL A   1      31.780  23.943  27.274  1.00  0.00    -0.250 OA
BRANCH   4   6
ATOM      6  C   UNL A   1      30.984  23.617  24.925  1.00  0.00     0.195 C 
BRANCH   6   7
ATOM      7  C   UNL A   1      31.491  22.916  23.578  1.00  0.00     0.019 C 
ATOM      8  C   UNL A   1      32.216  21.599  23.860  1.00  0.00     0.010 C 
BRANCH   7   9
ATOM      9  C   UNL A   1      32.369  23.784  22.657  1.00  0.00     0.002 C 
ATOM     10  C   UNL A   1      33.480  23.202  21.805  1.00  0.00     0.004 C 
ENDBRANCH   7   9
ENDBRANCH   6   7
BRANCH   6  11
ATOM     11  N   UNL A   1      29.921  24.657  24.681  1.00  0.00    -0.342 N 
ATOM     12  C   UNL A   1      29.859  25.960  24.253  1.00  0.00     0.225 C 
ATOM     13  H   UNL A   1      29.024  24.305  24.883  1.00  0.00     0.164 HD
ATOM     14  O   UNL A   1      28.729  26.379  23.985  1.00  0.00    -0.275 OA
BRANCH  12  15
ATOM     15  C   UNL A   1      31.062  26.910  24.286  1.00  0.00     0.094 C 
ATOM     16  C   UNL A   1      30.967  28.029  23.299  1.00  0.00     0.016 C 
ATOM     17  C   UNL A   1      31.303  27.633  25.607  1.00  0.00     0.116 C 
ATOM     18  C   UNL A   1      32.287  28.687  23.067  1.00  0.00     0.018 C 
ATOM     19  N   UNL A   1      32.404  28.722  25.472  1.00  0.00    -0.197 NA
ATOM     20  C   UNL A   1      32.485  29.540  24.256  1.00  0.00     0.102 C 
BRANCH  19  21
ATOM     21  S   UNL A   1      32.325  29.761  26.804  1.00  0.00     0.243 S 
ATOM     22  O   UNL A   1      31.742  31.014  26.348  1.00  0.00    -0.207 OA
ATOM     23  O   UNL A   1      31.598  28.932  27.710  1.00  0.00    -0.207 OA
BRANCH  21  24
ATOM     24  C   UNL A   1      34.041  30.073  27.248  1.00  0.00     0.082 A 
ATOM     25  C   UNL A   1      34.995  29.074  27.408  1.00  0.00     0.022 A 
ATOM     26  C   UNL A   1      34.424  31.379  27.553  1.00  0.00     0.022 A 
ATOM     27  C   UNL A   1      36.301  29.336  27.830  1.00  0.00     0.001 A 
ATOM     28  C   UNL A   1      35.735  31.661  27.960  1.00  0.00     0.001 A 
ATOM     29  C   UNL A   1      36.673  30.640  28.101  1.00  0.00     0.000 A 
ENDBRANCH  21  24
ENDBRANCH  19  21
ENDBRANCH  12  15
ENDBRANCH   6  11
ENDBRANCH   4   6
ENDBRANCH   3   4
ENDBRANCH   2   3
ENDBRANCH   1   2
BRANCH   1  30
ATOM     30  O   UNL A   1      35.640  22.764  24.456  1.00  0.00    -0.374 OA
BRANCH  30  31
ATOM     31  C   UNL A   1      36.783  21.910  24.378  1.00  0.00     0.202 C 
BRANCH  31  32
ATOM     32  C   UNL A   1      37.590  21.817  25.677  1.00  0.00     0.261 C 
BRANCH  32  33
ATOM     33  O   UNL A   1      38.784  22.654  25.679  1.00  0.00    -0.460 OA
BRANCH  33  34
ATOM     34  C   UNL A   1      39.587  22.556  26.769  1.00  0.00     0.338 C 
ATOM     35  O   UNL A   1      40.047  21.508  27.200  1.00  0.00    -0.246 OA
BRANCH  34  36
ATOM     36  C   UNL A   1      39.953  23.892  27.360  1.00  0.00     0.060 A 
ATOM     37  C   UNL A   1      41.227  24.009  27.904  1.00  0.00     0.016 A 
ATOM     38  C   UNL A   1      39.101  25.002  27.487  1.00  0.00     0.016 A 
ATOM     39  C   UNL A   1      41.642  25.210  28.524  1.00  0.00     0.010 A 
ATOM     40  C   UNL A   1      39.554  26.244  28.067  1.00  0.00     0.010 A 
ATOM     41  C   UNL A   1      40.864  26.408  28.554  1.00  0.00    -0.014 A 
BRANCH  41  42
ATOM     42  C   UNL A   1      41.471  27.683  29.254  1.00  0.00     0.031 A 
ATOM     43  C   UNL A   1      42.816  28.055  28.734  1.00  0.00     0.074 A 
ATOM     44  C   UNL A   1      40.996  28.579  30.196  1.00  0.00     0.049 A 
ATOM     45  N   UNL A   1      43.493  29.148  28.941  1.00  0.00    -0.248 NA
ATOM     46  C   UNL A   1      43.530  27.005  27.997  1.00  0.00     0.031 C 
ATOM     47  C   UNL A   1      39.965  28.409  31.208  1.00  0.00     0.029 A 
ATOM     48  N   UNL A   1      41.185  29.974  30.295  1.00  0.00    -0.354 N 
ATOM     49  C   UNL A   1      44.769  28.856  28.511  1.00  0.00     0.074 A 
ATOM     50  C   UNL A   1      44.734  27.539  27.910  1.00  0.00     0.031 C 
ATOM     51  C   UNL A   1      39.339  29.573  31.465  1.00  0.00     0.029 A 
ATOM     52  C   UNL A   1      40.104  30.658  30.889  1.00  0.00     0.049 A 
ATOM     53  H   UNL A   1      42.000  30.429  29.979  1.00  0.00     0.167 HD
ATOM     54  C   UNL A   1      45.888  29.576  28.725  1.00  0.00     0.037 A 
ATOM     55  C   UNL A   1      39.795  31.981  31.008  1.00  0.00     0.037 A 
ATOM     56  C   UNL A   1      45.932  30.841  29.404  1.00  0.00     0.049 A 
ATOM     57  C   UNL A   1      41.002  32.886  30.978  1.00  0.00     0.074 A 
ATOM     58  C   UNL A   1      47.045  31.596  29.722  1.00  0.00     0.029 A 
ATOM     59  N   UNL A   1      44.828  31.531  29.889  1.00  0.00    -0.354 N 
ATOM     60  N   UNL A   1      42.216  32.598  30.586  1.00  0.00    -0.248 NA
ATOM     61  C   UNL A   1      40.868  34.219  31.594  1.00  0.00     0.031 C 
ATOM     62  C   UNL A   1      46.620  32.735  30.411  1.00  0.00     0.029 A 
ATOM     63  C   UNL A   1      45.236  32.723  30.469  1.00  0.00     0.049 A 
ATOM     64  H   UNL A   1      43.896  31.221  29.828  1.00  0.00     0.167 HD
ATOM     65  C   UNL A   1      43.008  33.652  31.009  1.00  0.00     0.074 A 
ATOM     66  C   UNL A   1      42.122  34.653  31.569  1.00  0.00     0.031 C 
ATOM     67  C   UNL A   1      44.357  33.730  31.007  1.00  0.00     0.037 A 
BRANCH  54  68
ATOM     68  C   UNL A   1      47.157  28.896  28.335  1.00  0.00     0.058 A 
ATOM     69  C   UNL A   1      47.664  28.980  27.031  1.00  0.00     0.135 A 
ATOM     70  C   UNL A   1      47.803  28.054  29.254  1.00  0.00     0.135 A 
ATOM     71  F   UNL A   1      47.030  29.716  26.104  1.00  0.00    -0.206 F 
ATOM     72  C   UNL A   1      48.757  28.223  26.639  1.00  0.00     0.059 A 
ATOM     73  C   UNL A   1      48.923  27.319  28.894  1.00  0.00     0.059 A 
ATOM     74  F   UNL A   1      47.325  27.911  30.500  1.00  0.00    -0.206 F 
ATOM     75  C   UNL A   1      49.381  27.399  27.579  1.00  0.00     0.060 A 
BRANCH  75  76
ATOM     76  S   UNL A   1      50.809  26.435  27.055  1.00  0.00     0.124 S 
ATOM     77  O   UNL A   1      51.299  25.924  28.330  1.00  0.00    -0.237 OA
ATOM     78  O   UNL A   1      50.202  25.448  26.166  1.00  0.00    -0.237 OA
ATOM     79  O   UNL A   1      51.663  27.421  26.401  1.00  0.00    -0.744 OA
ENDBRANCH  75  76
ENDBRANCH  54  68
BRANCH  55  80
ATOM     80  C   UNL A   1      38.444  32.595  31.366  1.00  0.00     0.058 A 
ATOM     81  C   UNL A   1      37.875  32.356  32.645  1.00  0.00     0.135 A 
ATOM     82  C   UNL A   1      37.634  33.330  30.489  1.00  0.00     0.135 A 
ATOM     83  F   UNL A   1      38.536  31.602  33.540  1.00  0.00    -0.206 F 
ATOM     84  C   UNL A   1      36.607  32.825  33.025  1.00  0.00     0.059 A 
ATOM     85  C   UNL A   1      36.389  33.863  30.864  1.00  0.00     0.059 A 
ATOM     86  F   UNL A   1      37.997  33.506  29.210  1.00  0.00    -0.206 F 
ATOM     87  C   UNL A   1      35.875  33.596  32.130  1.00  0.00     0.060 A 
BRANCH  87  88
ATOM     88  S   UNL A   1      34.271  34.280  32.631  1.00  0.00     0.124 S 
ATOM     89  O   UNL A   1      34.666  35.303  33.592  1.00  0.00    -0.237 OA
ATOM     90  O   UNL A   1      33.728  34.770  31.367  1.00  0.00    -0.237 OA
ATOM     91  O   UNL A   1      33.577  33.123  33.190  1.00  0.00    -0.744 OA
ENDBRANCH  87  88
ENDBRANCH  55  80
BRANCH  67  92
ATOM     92  C   UNL A   1      44.973  34.964  31.592  1.00  0.00     0.058 A 
ATOM     93  C   UNL A   1      45.353  35.041  32.941  1.00  0.00     0.135 A 
ATOM     94  C   UNL A   1      45.234  36.067  30.767  1.00  0.00     0.135 A 
ATOM     95  F   UNL A   1      45.114  34.015  33.774  1.00  0.00    -0.206 F 
ATOM     96  C   UNL A   1      45.960  36.181  33.456  1.00  0.00     0.059 A 
ATOM     97  C   UNL A   1      45.862  37.205  31.254  1.00  0.00     0.059 A 
ATOM     98  F   UNL A   1      44.890  36.037  29.469  1.00  0.00    -0.206 F 
ATOM     99  C   UNL A   1      46.214  37.257  32.602  1.00  0.00     0.060 A 
BRANCH  99 100
ATOM    100  S   UNL A   1      47.032  38.720  33.268  1.00  0.00     0.124 S 
ATOM    101  O   UNL A   1      47.080  39.590  32.098  1.00  0.00    -0.237 OA
ATOM    102  O   UNL A   1      46.118  39.133  34.330  1.00  0.00    -0.237 OA
ATOM    103  O   UNL A   1      48.321  38.210  33.725  1.00  0.00    -0.744 OA
ENDBRANCH  99 100
ENDBRANCH  67  92
ENDBRANCH  41  42
ENDBRANCH  34  36
ENDBRANCH  33  34
ENDBRANCH  32  33
ENDBRANCH  31  32
ENDBRANCH  30  31
ENDBRANCH   1  30
TORSDOF 23
ENDMDL
