MODEL 1
REMARK VINA RESULT:     -11.2      0.000      0.000
REMARK SMILES C=CC[C@@]1(C(=O)OCCOCCOC(=O)c2ccc(-c3c4nc(c(-c5c(F)cc(S(=O)(=O)[O-])cc5F)c5ccc([nH]5)c(-c5c(F)cc(S(=O)(=O)[O-])cc5F)c5nc(c(-c6c(F)cc(S(=O)(=O)[O-])cc6F)c6ccc3[nH]6)C=C5)C=C4)cc2)CCCN(C(=O)c2ccc3c(c2)OCO3)C1
REMARK SMILES IDX 11 1 10 2 9 3 8 4 7 5 5 6 6 7 4 8 82 9 97 10 83 11 85 12
REMARK SMILES IDX 84 13 3 14 2 15 1 16 86 17 87 18 88 19 89 20 93 21 90 22
REMARK SMILES IDX 92 23 91 24 94 25 96 26 95 27 12 28 13 29 14 30 15 31 16 32
REMARK SMILES IDX 17 33 81 34 18 35 80 36 19 37 20 38 21 39 74 40 22 41 79 42
REMARK SMILES IDX 73 43 75 44 23 45 78 46 72 47 71 48 24 50 58 51 37 52 57 53
REMARK SMILES IDX 38 54 41 55 56 56 76 57 39 58 40 59 55 61 77 62 42 63 25 64
REMARK SMILES IDX 26 65 35 66 27 67 28 68 34 69 36 70 29 71 30 72 31 73 32 74
REMARK SMILES IDX 33 75 59 76 60 77 69 78 61 79 62 80 68 81 70 82 63 83 64 84
REMARK SMILES IDX 65 85 66 86 67 87 43 88 44 89 53 90 45 91 46 92 52 93 54 94
REMARK SMILES IDX 47 95 48 96 49 97 50 98 51 99
REMARK H PARENT 75 49 41 60
REMARK Flexibility Score: inf
ROOT
ATOM      1  C   UNL A   1      34.397  31.766  27.693  1.00  0.00     0.202 C 
ENDROOT
BRANCH   1   2
ATOM      2  O   UNL A   1      33.057  31.341  27.477  1.00  0.00    -0.374 OA
BRANCH   2   3
ATOM      3  C   UNL A   1      32.861  30.141  26.732  1.00  0.00     0.202 C 
BRANCH   3   4
ATOM      4  C   UNL A   1      31.743  30.135  25.683  1.00  0.00     0.261 C 
BRANCH   4   5
ATOM      5  O   UNL A   1      31.383  28.814  25.231  1.00  0.00    -0.463 OA
BRANCH   5   6
ATOM      6  C   UNL A   1      31.710  28.527  23.942  1.00  0.00     0.314 C 
ATOM      7  O   UNL A   1      32.768  28.862  23.414  1.00  0.00    -0.252 OA
BRANCH   6   8
ATOM      8  C   UNL A   1      30.605  27.804  23.162  1.00  0.00     0.089 C 
ATOM      9  C   UNL A   1      29.618  26.974  24.020  1.00  0.00     0.023 C 
ATOM     10  C   UNL A   1      31.298  26.918  22.090  1.00  0.00     0.138 C 
ATOM     11  C   UNL A   1      30.154  25.616  24.457  1.00  0.00     0.023 C 
ATOM     12  N   UNL A   1      31.721  25.583  22.556  1.00  0.00    -0.337 N 
ATOM     13  C   UNL A   1      30.710  24.821  23.287  1.00  0.00     0.120 C 
BRANCH   8  14
ATOM     14  C   UNL A   1      29.862  29.010  22.495  1.00  0.00     0.047 C 
BRANCH  14  15
ATOM     15  C   UNL A   1      28.573  29.466  23.125  1.00  0.00    -0.034 C 
ATOM     16  C   UNL A   1      27.804  30.425  22.591  1.00  0.00     0.004 C 
ENDBRANCH  14  15
ENDBRANCH   8  14
BRANCH  12  17
ATOM     17  C   UNL A   1      32.969  25.077  22.154  1.00  0.00     0.254 C 
ATOM     18  O   UNL A   1      33.357  25.062  20.989  1.00  0.00    -0.269 OA
BRANCH  17  19
ATOM     19  C   UNL A   1      33.907  24.560  23.183  1.00  0.00     0.043 A 
ATOM     20  C   UNL A   1      34.227  25.374  24.291  1.00  0.00     0.018 A 
ATOM     21  C   UNL A   1      34.422  23.263  23.082  1.00  0.00     0.064 A 
ATOM     22  C   UNL A   1      34.926  24.849  25.382  1.00  0.00     0.051 A 
ATOM     23  C   UNL A   1      35.119  22.779  24.169  1.00  0.00     0.166 A 
ATOM     24  C   UNL A   1      35.340  23.539  25.297  1.00  0.00     0.165 A 
ATOM     25  O   UNL A   1      35.618  21.520  24.292  1.00  0.00    -0.454 OA
ATOM     26  O   UNL A   1      35.981  22.844  26.272  1.00  0.00    -0.454 OA
ATOM     27  C   UNL A   1      36.051  21.536  25.669  1.00  0.00     0.468 C 
ENDBRANCH  17  19
ENDBRANCH  12  17
ENDBRANCH   6   8
ENDBRANCH   5   6
ENDBRANCH   4   5
ENDBRANCH   3   4
ENDBRANCH   2   3
ENDBRANCH   1   2
BRANCH   1  28
ATOM     28  C   UNL A   1      34.826  31.980  29.148  1.00  0.00     0.261 C 
BRANCH  28  29
ATOM     29  O   UNL A   1      35.620  30.908  29.656  1.00  0.00    -0.460 OA
BRANCH  29  30
ATOM     30  C   UNL A   1      36.610  31.299  30.490  1.00  0.00     0.338 C 
ATOM     31  O   UNL A   1      36.525  31.981  31.493  1.00  0.00    -0.246 OA
BRANCH  30  32
ATOM     32  C   UNL A   1      37.836  30.617  30.069  1.00  0.00     0.060 A 
ATOM     33  C   UNL A   1      38.743  30.244  31.065  1.00  0.00     0.016 A 
ATOM     34  C   UNL A   1      38.094  30.382  28.719  1.00  0.00     0.016 A 
ATOM     35  C   UNL A   1      39.948  29.657  30.704  1.00  0.00     0.010 A 
ATOM     36  C   UNL A   1      39.308  29.803  28.358  1.00  0.00     0.010 A 
ATOM     37  C   UNL A   1      40.248  29.467  29.349  1.00  0.00    -0.014 A 
BRANCH  37  38
ATOM     38  C   UNL A   1      41.605  29.036  28.963  1.00  0.00     0.031 A 
ATOM     39  C   UNL A   1      42.711  30.050  28.977  1.00  0.00     0.074 A 
ATOM     40  C   UNL A   1      41.832  27.755  28.631  1.00  0.00     0.049 A 
ATOM     41  N   UNL A   1      43.968  29.905  28.656  1.00  0.00    -0.248 NA
ATOM     42  C   UNL A   1      42.351  31.412  29.409  1.00  0.00     0.031 C 
ATOM     43  C   UNL A   1      40.823  26.695  28.621  1.00  0.00     0.029 A 
ATOM     44  N   UNL A   1      42.982  27.128  28.231  1.00  0.00    -0.354 N 
ATOM     45  C   UNL A   1      44.551  31.151  28.849  1.00  0.00     0.074 A 
ATOM     46  C   UNL A   1      43.505  32.050  29.285  1.00  0.00     0.031 C 
ATOM     47  C   UNL A   1      41.399  25.548  28.222  1.00  0.00     0.029 A 
ATOM     48  C   UNL A   1      42.806  25.802  27.922  1.00  0.00     0.049 A 
ATOM     49  H   UNL A   1      43.853  27.584  28.171  1.00  0.00     0.167 HD
ATOM     50  C   UNL A   1      45.846  31.507  28.683  1.00  0.00     0.037 A 
ATOM     51  C   UNL A   1      43.682  24.904  27.431  1.00  0.00     0.037 A 
ATOM     52  C   UNL A   1      46.868  30.597  28.239  1.00  0.00     0.049 A 
ATOM     53  C   UNL A   1      45.102  25.341  27.186  1.00  0.00     0.074 A 
ATOM     54  C   UNL A   1      48.216  30.840  28.049  1.00  0.00     0.029 A 
ATOM     55  N   UNL A   1      46.647  29.268  27.902  1.00  0.00    -0.354 N 
ATOM     56  N   UNL A   1      45.650  26.514  27.401  1.00  0.00    -0.248 NA
ATOM     57  C   UNL A   1      46.022  24.339  26.633  1.00  0.00     0.031 C 
ATOM     58  C   UNL A   1      48.802  29.670  27.554  1.00  0.00     0.029 A 
ATOM     59  C   UNL A   1      47.828  28.685  27.478  1.00  0.00     0.049 A 
ATOM     60  H   UNL A   1      45.779  28.808  27.957  1.00  0.00     0.167 HD
ATOM     61  C   UNL A   1      46.982  26.388  27.024  1.00  0.00     0.074 A 
ATOM     62  C   UNL A   1      47.159  25.019  26.581  1.00  0.00     0.031 C 
ATOM     63  C   UNL A   1      47.969  27.317  27.040  1.00  0.00     0.037 A 
BRANCH  50  64
ATOM     64  C   UNL A   1      46.217  32.936  28.958  1.00  0.00     0.058 A 
ATOM     65  C   UNL A   1      46.164  33.919  27.956  1.00  0.00     0.135 A 
ATOM     66  C   UNL A   1      46.614  33.334  30.245  1.00  0.00     0.135 A 
ATOM     67  F   UNL A   1      45.811  33.590  26.704  1.00  0.00    -0.206 F 
ATOM     68  C   UNL A   1      46.516  35.241  28.214  1.00  0.00     0.059 A 
ATOM     69  C   UNL A   1      46.948  34.655  30.531  1.00  0.00     0.059 A 
ATOM     70  F   UNL A   1      46.689  32.434  31.237  1.00  0.00    -0.206 F 
ATOM     71  C   UNL A   1      46.909  35.598  29.505  1.00  0.00     0.060 A 
BRANCH  71  72
ATOM     72  S   UNL A   1      47.363  37.317  29.825  1.00  0.00     0.124 S 
ATOM     73  O   UNL A   1      48.801  37.289  29.573  1.00  0.00    -0.237 OA
ATOM     74  O   UNL A   1      46.562  38.040  28.843  1.00  0.00    -0.237 OA
ATOM     75  O   UNL A   1      46.975  37.517  31.217  1.00  0.00    -0.744 OA
ENDBRANCH  71  72
ENDBRANCH  50  64
BRANCH  51  76
ATOM     76  C   UNL A   1      43.234  23.520  27.126  1.00  0.00     0.058 A 
ATOM     77  C   UNL A   1      42.892  23.137  25.822  1.00  0.00     0.135 A 
ATOM     78  C   UNL A   1      43.164  22.544  28.134  1.00  0.00     0.135 A 
ATOM     79  F   UNL A   1      42.935  24.035  24.827  1.00  0.00    -0.206 F 
ATOM     80  C   UNL A   1      42.488  21.838  25.527  1.00  0.00     0.059 A 
ATOM     81  C   UNL A   1      42.785  21.234  27.860  1.00  0.00     0.059 A 
ATOM     82  F   UNL A   1      43.494  22.856  29.398  1.00  0.00    -0.206 F 
ATOM     83  C   UNL A   1      42.442  20.892  26.553  1.00  0.00     0.060 A 
BRANCH  83  84
ATOM     84  S   UNL A   1      41.974  19.195  26.150  1.00  0.00     0.124 S 
ATOM     85  O   UNL A   1      42.242  18.510  27.408  1.00  0.00    -0.237 OA
ATOM     86  O   UNL A   1      40.567  19.343  25.789  1.00  0.00    -0.237 OA
ATOM     87  O   UNL A   1      42.863  18.857  25.043  1.00  0.00    -0.744 OA
ENDBRANCH  83  84
ENDBRANCH  51  76
BRANCH  63  88
ATOM     88  C   UNL A   1      49.330  26.883  26.576  1.00  0.00     0.058 A 
ATOM     89  C   UNL A   1      50.278  26.367  27.473  1.00  0.00     0.135 A 
ATOM     90  C   UNL A   1      49.660  26.913  25.212  1.00  0.00     0.135 A 
ATOM     91  F   UNL A   1      50.010  26.325  28.787  1.00  0.00    -0.206 F 
ATOM     92  C   UNL A   1      51.513  25.904  27.034  1.00  0.00     0.059 A 
ATOM     93  C   UNL A   1      50.880  26.433  24.748  1.00  0.00     0.059 A 
ATOM     94  F   UNL A   1      48.783  27.389  24.314  1.00  0.00    -0.206 F 
ATOM     95  C   UNL A   1      51.803  25.937  25.668  1.00  0.00     0.060 A 
BRANCH  95  96
ATOM     96  S   UNL A   1      53.388  25.282  25.106  1.00  0.00     0.124 S 
ATOM     97  O   UNL A   1      54.315  25.924  26.032  1.00  0.00    -0.237 OA
ATOM     98  O   UNL A   1      53.212  23.843  25.278  1.00  0.00    -0.237 OA
ATOM     99  O   UNL A   1      53.470  25.736  23.721  1.00  0.00    -0.744 OA
ENDBRANCH  95  96
ENDBRANCH  63  88
ENDBRANCH  37  38
ENDBRANCH  30  32
ENDBRANCH  29  30
ENDBRANCH  28  29
ENDBRANCH   1  28
TORSDOF 21
ENDMDL
MODEL 2
REMARK VINA RESULT:     -11.0      2.690      4.926
REMARK SMILES C=CC[C@@]1(C(=O)OCCOCCOC(=O)c2ccc(-c3c4nc(c(-c5c(F)cc(S(=O)(=O)[O-])cc5F)c5ccc([nH]5)c(-c5c(F)cc(S(=O)(=O)[O-])cc5F)c5nc(c(-c6c(F)cc(S(=O)(=O)[O-])cc6F)c6ccc3[nH]6)C=C5)C=C4)cc2)CCCN(C(=O)c2ccc3c(c2)OCO3)C1
REMARK SMILES IDX 11 1 10 2 9 3 8 4 7 5 5 6 6 7 4 8 82 9 97 10 83 11 85 12
REMARK SMILES IDX 84 13 3 14 2 15 1 16 86 17 87 18 88 19 89 20 93 21 90 22
REMARK SMILES IDX 92 23 91 24 94 25 96 26 95 27 12 28 13 29 14 30 15 31 16 32
REMARK SMILES IDX 17 33 81 34 18 35 80 36 19 37 20 38 21 39 74 40 22 41 79 42
REMARK SMILES IDX 73 43 75 44 23 45 78 46 72 47 71 48 24 50 58 51 37 52 57 53
REMARK SMILES IDX 38 54 41 55 56 56 76 57 39 58 40 59 55 61 77 62 42 63 25 64
REMARK SMILES IDX 26 65 35 66 27 67 28 68 34 69 36 70 29 71 30 72 31 73 32 74
REMARK SMILES IDX 33 75 59 76 60 77 69 78 61 79 62 80 68 81 70 82 63 83 64 84
REMARK SMILES IDX 65 85 66 86 67 87 43 88 44 89 53 90 45 91 46 92 52 93 54 94
REMARK SMILES IDX 47 95 48 96 49 97 50 98 51 99
REMARK H PARENT 75 49 41 60
REMARK Flexibility Score: inf
ROOT
ATOM      1  C   UNL A   1      33.255  28.492  24.817  1.00  0.00     0.202 C 
ENDROOT
BRANCH   1   2
ATOM      2  O   UNL A   1      34.036  27.413  24.316  1.00  0.00    -0.374 OA
BRANCH   2   3
ATOM      3  C   UNL A   1      33.582  26.771  23.127  1.00  0.00     0.202 C 
BRANCH   3   4
ATOM      4  C   UNL A   1      33.989  25.310  22.912  1.00  0.00     0.261 C 
BRANCH   4   5
ATOM      5  O   UNL A   1      34.749  24.756  24.006  1.00  0.00    -0.463 OA
BRANCH   5   6
ATOM      6  C   UNL A   1      35.396  23.590  23.738  1.00  0.00     0.314 C 
ATOM      7  O   UNL A   1      35.477  23.095  22.616  1.00  0.00    -0.252 OA
BRANCH   6   8
ATOM      8  C   UNL A   1      35.963  22.889  24.979  1.00  0.00     0.089 C 
ATOM      9  C   UNL A   1      36.132  21.354  24.860  1.00  0.00     0.023 C 
ATOM     10  C   UNL A   1      35.050  23.263  26.180  1.00  0.00     0.138 C 
ATOM     11  C   UNL A   1      34.841  20.565  25.045  1.00  0.00     0.023 C 
ATOM     12  N   UNL A   1      33.858  22.409  26.351  1.00  0.00    -0.337 N 
ATOM     13  C   UNL A   1      34.104  20.968  26.311  1.00  0.00     0.120 C 
BRANCH   8  14
ATOM     14  C   UNL A   1      37.363  23.580  25.106  1.00  0.00     0.047 C 
BRANCH  14  15
ATOM     15  C   UNL A   1      38.105  23.411  26.405  1.00  0.00    -0.034 C 
ATOM     16  C   UNL A   1      39.236  22.698  26.505  1.00  0.00     0.004 C 
ENDBRANCH  14  15
ENDBRANCH   8  14
BRANCH  12  17
ATOM     17  C   UNL A   1      32.628  23.002  26.684  1.00  0.00     0.254 C 
ATOM     18  O   UNL A   1      32.128  22.953  27.804  1.00  0.00    -0.269 OA
BRANCH  17  19
ATOM     19  C   UNL A   1      31.891  23.772  25.650  1.00  0.00     0.043 A 
ATOM     20  C   UNL A   1      31.536  23.135  24.442  1.00  0.00     0.018 A 
ATOM     21  C   UNL A   1      31.507  25.095  25.895  1.00  0.00     0.064 A 
ATOM     22  C   UNL A   1      30.661  23.750  23.542  1.00  0.00     0.051 A 
ATOM     23  C   UNL A   1      30.655  25.680  24.982  1.00  0.00     0.166 A 
ATOM     24  C   UNL A   1      30.222  25.017  23.854  1.00  0.00     0.165 A 
ATOM     25  O   UNL A   1      30.107  26.920  25.093  1.00  0.00    -0.454 OA
ATOM     26  O   UNL A   1      29.332  25.749  23.134  1.00  0.00    -0.454 OA
ATOM     27  C   UNL A   1      29.181  26.903  23.985  1.00  0.00     0.468 C 
ENDBRANCH  17  19
ENDBRANCH  12  17
ENDBRANCH   6   8
ENDBRANCH   5   6
ENDBRANCH   4   5
ENDBRANCH   3   4
ENDBRANCH   2   3
ENDBRANCH   1   2
BRANCH   1  28
ATOM     28  C   UNL A   1      33.009  28.521  26.329  1.00  0.00     0.261 C 
BRANCH  28  29
ATOM     29  O   UNL A   1      34.217  28.498  27.088  1.00  0.00    -0.460 OA
BRANCH  29  30
ATOM     30  C   UNL A   1      34.520  29.675  27.683  1.00  0.00     0.338 C 
ATOM     31  O   UNL A   1      33.771  30.587  27.973  1.00  0.00    -0.246 OA
BRANCH  30  32
ATOM     32  C   UNL A   1      35.928  29.617  28.081  1.00  0.00     0.060 A 
ATOM     33  C   UNL A   1      36.890  29.830  27.089  1.00  0.00     0.016 A 
ATOM     34  C   UNL A   1      36.286  29.329  29.398  1.00  0.00     0.016 A 
ATOM     35  C   UNL A   1      38.236  29.718  27.410  1.00  0.00     0.010 A 
ATOM     36  C   UNL A   1      37.637  29.206  29.715  1.00  0.00     0.010 A 
ATOM     37  C   UNL A   1      38.611  29.372  28.714  1.00  0.00    -0.014 A 
BRANCH  37  38
ATOM     38  C   UNL A   1      40.023  29.053  28.999  1.00  0.00     0.031 A 
ATOM     39  C   UNL A   1      40.885  30.109  29.627  1.00  0.00     0.074 A 
ATOM     40  C   UNL A   1      40.504  27.831  28.718  1.00  0.00     0.049 A 
ATOM     41  N   UNL A   1      42.151  30.061  29.944  1.00  0.00    -0.248 NA
ATOM     42  C   UNL A   1      40.232  31.393  29.938  1.00  0.00     0.031 C 
ATOM     43  C   UNL A   1      39.729  26.734  28.137  1.00  0.00     0.029 A 
ATOM     44  N   UNL A   1      41.761  27.310  28.875  1.00  0.00    -0.354 N 
ATOM     45  C   UNL A   1      42.448  31.303  30.493  1.00  0.00     0.074 A 
ATOM     46  C   UNL A   1      41.239  32.094  30.439  1.00  0.00     0.031 C 
ATOM     47  C   UNL A   1      40.534  25.670  27.976  1.00  0.00     0.029 A 
ATOM     48  C   UNL A   1      41.882  26.021  28.415  1.00  0.00     0.049 A 
ATOM     49  H   UNL A   1      42.506  27.810  29.280  1.00  0.00     0.167 HD
ATOM     50  C   UNL A   1      43.625  31.735  31.002  1.00  0.00     0.037 A 
ATOM     51  C   UNL A   1      42.968  25.229  28.339  1.00  0.00     0.037 A 
ATOM     52  C   UNL A   1      44.817  30.931  31.036  1.00  0.00     0.049 A 
ATOM     53  C   UNL A   1      44.284  25.758  28.847  1.00  0.00     0.074 A 
ATOM     54  C   UNL A   1      46.062  31.257  31.542  1.00  0.00     0.029 A 
ATOM     55  N   UNL A   1      44.913  29.642  30.530  1.00  0.00    -0.354 N 
ATOM     56  N   UNL A   1      44.547  26.922  29.392  1.00  0.00    -0.248 NA
ATOM     57  C   UNL A   1      45.448  24.870  28.729  1.00  0.00     0.031 C 
ATOM     58  C   UNL A   1      46.924  30.182  31.300  1.00  0.00     0.029 A 
ATOM     59  C   UNL A   1      46.204  29.168  30.685  1.00  0.00     0.049 A 
ATOM     60  H   UNL A   1      44.173  29.139  30.122  1.00  0.00     0.167 HD
ATOM     61  C   UNL A   1      45.903  26.903  29.697  1.00  0.00     0.074 A 
ATOM     62  C   UNL A   1      46.401  25.604  29.287  1.00  0.00     0.031 C 
ATOM     63  C   UNL A   1      46.668  27.869  30.262  1.00  0.00     0.037 A 
BRANCH  50  64
ATOM     64  C   UNL A   1      43.679  33.138  31.535  1.00  0.00     0.058 A 
ATOM     65  C   UNL A   1      43.436  33.424  32.888  1.00  0.00     0.135 A 
ATOM     66  C   UNL A   1      43.994  34.211  30.686  1.00  0.00     0.135 A 
ATOM     67  F   UNL A   1      43.110  32.439  33.740  1.00  0.00    -0.206 F 
ATOM     68  C   UNL A   1      43.479  34.727  33.376  1.00  0.00     0.059 A 
ATOM     69  C   UNL A   1      44.065  35.520  31.157  1.00  0.00     0.059 A 
ATOM     70  F   UNL A   1      44.227  33.995  29.382  1.00  0.00    -0.206 F 
ATOM     71  C   UNL A   1      43.793  35.768  32.501  1.00  0.00     0.060 A 
BRANCH  71  72
ATOM     72  S   UNL A   1      43.845  37.454  33.148  1.00  0.00     0.124 S 
ATOM     73  O   UNL A   1      42.670  37.469  34.015  1.00  0.00    -0.237 OA
ATOM     74  O   UNL A   1      45.135  37.489  33.828  1.00  0.00    -0.237 OA
ATOM     75  O   UNL A   1      43.749  38.281  31.949  1.00  0.00    -0.744 OA
ENDBRANCH  71  72
ENDBRANCH  50  64
BRANCH  51  76
ATOM     76  C   UNL A   1      42.856  23.870  27.747  1.00  0.00     0.058 A 
ATOM     77  C   UNL A   1      42.568  22.753  28.541  1.00  0.00     0.135 A 
ATOM     78  C   UNL A   1      43.012  23.669  26.366  1.00  0.00     0.135 A 
ATOM     79  F   UNL A   1      42.419  22.893  29.867  1.00  0.00    -0.206 F 
ATOM     80  C   UNL A   1      42.444  21.480  27.991  1.00  0.00     0.059 A 
ATOM     81  C   UNL A   1      42.871  22.411  25.789  1.00  0.00     0.059 A 
ATOM     82  F   UNL A   1      43.275  24.708  25.558  1.00  0.00    -0.206 F 
ATOM     83  C   UNL A   1      42.594  21.320  26.612  1.00  0.00     0.060 A 
BRANCH  83  84
ATOM     84  S   UNL A   1      42.374  19.675  25.900  1.00  0.00     0.124 S 
ATOM     85  O   UNL A   1      42.647  18.819  27.047  1.00  0.00    -0.237 OA
ATOM     86  O   UNL A   1      40.986  19.719  25.450  1.00  0.00    -0.237 OA
ATOM     87  O   UNL A   1      43.369  19.638  24.831  1.00  0.00    -0.744 OA
ENDBRANCH  83  84
ENDBRANCH  51  76
BRANCH  63  88
ATOM     88  C   UNL A   1      48.121  27.555  30.481  1.00  0.00     0.058 A 
ATOM     89  C   UNL A   1      48.550  26.822  31.597  1.00  0.00     0.135 A 
ATOM     90  C   UNL A   1      49.080  27.927  29.526  1.00  0.00     0.135 A 
ATOM     91  F   UNL A   1      47.670  26.452  32.541  1.00  0.00    -0.206 F 
ATOM     92  C   UNL A   1      49.886  26.476  31.766  1.00  0.00     0.059 A 
ATOM     93  C   UNL A   1      50.418  27.570  29.662  1.00  0.00     0.059 A 
ATOM     94  F   UNL A   1      48.717  28.620  28.436  1.00  0.00    -0.206 F 
ATOM     95  C   UNL A   1      50.812  26.850  30.790  1.00  0.00     0.060 A 
BRANCH  95  96
ATOM     96  S   UNL A   1      52.533  26.347  30.993  1.00  0.00     0.124 S 
ATOM     97  O   UNL A   1      52.388  25.101  31.738  1.00  0.00    -0.237 OA
ATOM     98  O   UNL A   1      52.986  26.213  29.612  1.00  0.00    -0.237 OA
ATOM     99  O   UNL A   1      53.125  27.456  31.736  1.00  0.00    -0.744 OA
ENDBRANCH  95  96
ENDBRANCH  63  88
ENDBRANCH  37  38
ENDBRANCH  30  32
ENDBRANCH  29  30
ENDBRANCH  28  29
ENDBRANCH   1  28
TORSDOF 21
ENDMDL
MODEL 3
REMARK VINA RESULT:     -10.6      2.849      4.853
REMARK SMILES C=CC[C@@]1(C(=O)OCCOCCOC(=O)c2ccc(-c3c4nc(c(-c5c(F)cc(S(=O)(=O)[O-])cc5F)c5ccc([nH]5)c(-c5c(F)cc(S(=O)(=O)[O-])cc5F)c5nc(c(-c6c(F)cc(S(=O)(=O)[O-])cc6F)c6ccc3[nH]6)C=C5)C=C4)cc2)CCCN(C(=O)c2ccc3c(c2)OCO3)C1
REMARK SMILES IDX 11 1 10 2 9 3 8 4 7 5 5 6 6 7 4 8 82 9 97 10 83 11 85 12
REMARK SMILES IDX 84 13 3 14 2 15 1 16 86 17 87 18 88 19 89 20 93 21 90 22
REMARK SMILES IDX 92 23 91 24 94 25 96 26 95 27 12 28 13 29 14 30 15 31 16 32
REMARK SMILES IDX 17 33 81 34 18 35 80 36 19 37 20 38 21 39 74 40 22 41 79 42
REMARK SMILES IDX 73 43 75 44 23 45 78 46 72 47 71 48 24 50 58 51 37 52 57 53
REMARK SMILES IDX 38 54 41 55 56 56 76 57 39 58 40 59 55 61 77 62 42 63 25 64
REMARK SMILES IDX 26 65 35 66 27 67 28 68 34 69 36 70 29 71 30 72 31 73 32 74
REMARK SMILES IDX 33 75 59 76 60 77 69 78 61 79 62 80 68 81 70 82 63 83 64 84
REMARK SMILES IDX 65 85 66 86 67 87 43 88 44 89 53 90 45 91 46 92 52 93 54 94
REMARK SMILES IDX 47 95 48 96 49 97 50 98 51 99
REMARK H PARENT 75 49 41 60
REMARK Flexibility Score: inf
ROOT
ATOM      1  C   UNL A   1      31.774  27.678  27.247  1.00  0.00     0.202 C 
ENDROOT
BRANCH   1   2
ATOM      2  O   UNL A   1      31.326  26.624  26.403  1.00  0.00    -0.374 OA
BRANCH   2   3
ATOM      3  C   UNL A   1      32.077  25.412  26.412  1.00  0.00     0.202 C 
BRANCH   3   4
ATOM      4  C   UNL A   1      31.350  24.132  26.837  1.00  0.00     0.261 C 
BRANCH   4   5
ATOM      5  O   UNL A   1      32.209  22.976  26.907  1.00  0.00    -0.463 OA
BRANCH   5   6
ATOM      6  C   UNL A   1      32.111  22.109  25.863  1.00  0.00     0.314 C 
ATOM      7  O   UNL A   1      31.043  21.739  25.380  1.00  0.00    -0.252 OA
BRANCH   6   8
ATOM      8  C   UNL A   1      33.458  21.563  25.375  1.00  0.00     0.089 C 
ATOM      9  C   UNL A   1      34.706  22.110  26.111  1.00  0.00     0.023 C 
ATOM     10  C   UNL A   1      33.543  21.836  23.847  1.00  0.00     0.138 C 
ATOM     11  C   UNL A   1      35.143  23.499  25.660  1.00  0.00     0.023 C 
ATOM     12  N   UNL A   1      34.050  23.171  23.476  1.00  0.00    -0.337 N 
ATOM     13  C   UNL A   1      35.279  23.588  24.149  1.00  0.00     0.120 C 
BRANCH   8  14
ATOM     14  C   UNL A   1      33.288  20.032  25.660  1.00  0.00     0.047 C 
BRANCH  14  15
ATOM     15  C   UNL A   1      33.557  19.080  24.525  1.00  0.00    -0.034 C 
ATOM     16  C   UNL A   1      32.596  18.337  23.959  1.00  0.00     0.004 C 
ENDBRANCH  14  15
ENDBRANCH   8  14
BRANCH  12  17
ATOM     17  C   UNL A   1      33.435  23.873  22.425  1.00  0.00     0.254 C 
ATOM     18  O   UNL A   1      33.353  23.449  21.276  1.00  0.00    -0.269 OA
BRANCH  17  19
ATOM     19  C   UNL A   1      32.804  25.189  22.704  1.00  0.00     0.043 A 
ATOM     20  C   UNL A   1      33.587  26.359  22.614  1.00  0.00     0.018 A 
ATOM     21  C   UNL A   1      31.438  25.269  22.998  1.00  0.00     0.064 A 
ATOM     22  C   UNL A   1      32.989  27.622  22.653  1.00  0.00     0.051 A 
ATOM     23  C   UNL A   1      30.880  26.528  23.046  1.00  0.00     0.166 A 
ATOM     24  C   UNL A   1      31.626  27.670  22.850  1.00  0.00     0.165 A 
ATOM     25  O   UNL A   1      29.560  26.803  23.231  1.00  0.00    -0.454 OA
ATOM     26  O   UNL A   1      30.865  28.795  22.864  1.00  0.00    -0.454 OA
ATOM     27  C   UNL A   1      29.547  28.226  22.992  1.00  0.00     0.468 C 
ENDBRANCH  17  19
ENDBRANCH  12  17
ENDBRANCH   6   8
ENDBRANCH   5   6
ENDBRANCH   4   5
ENDBRANCH   3   4
ENDBRANCH   2   3
ENDBRANCH   1   2
BRANCH   1  28
ATOM     28  C   UNL A   1      32.768  28.673  26.639  1.00  0.00     0.261 C 
BRANCH  28  29
ATOM     29  O   UNL A   1      34.013  28.707  27.334  1.00  0.00    -0.460 OA
BRANCH  29  30
ATOM     30  C   UNL A   1      34.384  29.941  27.747  1.00  0.00     0.338 C 
ATOM     31  O   UNL A   1      33.691  30.930  27.882  1.00  0.00    -0.246 OA
BRANCH  30  32
ATOM     32  C   UNL A   1      35.783  29.861  28.172  1.00  0.00     0.060 A 
ATOM     33  C   UNL A   1      36.767  30.078  27.204  1.00  0.00     0.016 A 
ATOM     34  C   UNL A   1      36.111  29.549  29.492  1.00  0.00     0.016 A 
ATOM     35  C   UNL A   1      38.105  29.945  27.550  1.00  0.00     0.010 A 
ATOM     36  C   UNL A   1      37.454  29.405  29.834  1.00  0.00     0.010 A 
ATOM     37  C   UNL A   1      38.450  29.576  28.856  1.00  0.00    -0.014 A 
BRANCH  37  38
ATOM     38  C   UNL A   1      39.852  29.236  29.165  1.00  0.00     0.031 A 
ATOM     39  C   UNL A   1      40.720  30.281  29.801  1.00  0.00     0.074 A 
ATOM     40  C   UNL A   1      40.319  28.006  28.896  1.00  0.00     0.049 A 
ATOM     41  N   UNL A   1      41.980  30.216  30.138  1.00  0.00    -0.248 NA
ATOM     42  C   UNL A   1      40.083  31.577  30.097  1.00  0.00     0.031 C 
ATOM     43  C   UNL A   1      39.536  26.919  28.307  1.00  0.00     0.029 A 
ATOM     44  N   UNL A   1      41.564  27.466  29.075  1.00  0.00    -0.354 N 
ATOM     45  C   UNL A   1      42.288  31.455  30.687  1.00  0.00     0.074 A 
ATOM     46  C   UNL A   1      41.092  32.264  30.611  1.00  0.00     0.031 C 
ATOM     47  C   UNL A   1      40.326  25.841  28.164  1.00  0.00     0.029 A 
ATOM     48  C   UNL A   1      41.673  26.174  28.622  1.00  0.00     0.049 A 
ATOM     49  H   UNL A   1      42.311  27.956  29.490  1.00  0.00     0.167 HD
ATOM     50  C   UNL A   1      43.463  31.871  31.213  1.00  0.00     0.037 A 
ATOM     51  C   UNL A   1      42.748  25.365  28.566  1.00  0.00     0.037 A 
ATOM     52  C   UNL A   1      44.642  31.049  31.269  1.00  0.00     0.049 A 
ATOM     53  C   UNL A   1      44.064  25.875  29.093  1.00  0.00     0.074 A 
ATOM     54  C   UNL A   1      45.884  31.358  31.793  1.00  0.00     0.029 A 
ATOM     55  N   UNL A   1      44.726  29.757  30.770  1.00  0.00    -0.354 N 
ATOM     56  N   UNL A   1      44.336  27.037  29.638  1.00  0.00    -0.248 NA
ATOM     57  C   UNL A   1      45.215  24.969  28.997  1.00  0.00     0.031 C 
ATOM     58  C   UNL A   1      46.733  30.269  31.569  1.00  0.00     0.029 A 
ATOM     59  C   UNL A   1      46.007  29.263  30.947  1.00  0.00     0.049 A 
ATOM     60  H   UNL A   1      43.985  29.263  30.352  1.00  0.00     0.167 HD
ATOM     61  C   UNL A   1      45.687  26.999  29.964  1.00  0.00     0.074 A 
ATOM     62  C   UNL A   1      46.171  25.691  29.567  1.00  0.00     0.031 C 
ATOM     63  C   UNL A   1      46.458  27.956  30.537  1.00  0.00     0.037 A 
BRANCH  50  64
ATOM     64  C   UNL A   1      43.530  33.276  31.741  1.00  0.00     0.058 A 
ATOM     65  C   UNL A   1      43.905  34.355  30.923  1.00  0.00     0.135 A 
ATOM     66  C   UNL A   1      43.201  33.551  33.078  1.00  0.00     0.135 A 
ATOM     67  F   UNL A   1      44.250  34.145  29.643  1.00  0.00    -0.206 F 
ATOM     68  C   UNL A   1      43.974  35.654  31.419  1.00  0.00     0.059 A 
ATOM     69  C   UNL A   1      43.240  34.846  33.589  1.00  0.00     0.059 A 
ATOM     70  F   UNL A   1      42.844  32.556  33.904  1.00  0.00    -0.206 F 
ATOM     71  C   UNL A   1      43.641  35.888  32.755  1.00  0.00     0.060 A 
BRANCH  71  72
ATOM     72  S   UNL A   1      43.736  37.578  33.384  1.00  0.00     0.124 S 
ATOM     73  O   UNL A   1      43.750  38.350  32.145  1.00  0.00    -0.237 OA
ATOM     74  O   UNL A   1      42.519  37.683  34.182  1.00  0.00    -0.237 OA
ATOM     75  O   UNL A   1      44.982  37.589  34.143  1.00  0.00    -0.744 OA
ENDBRANCH  71  72
ENDBRANCH  50  64
BRANCH  51  76
ATOM     76  C   UNL A   1      42.624  24.005  27.978  1.00  0.00     0.058 A 
ATOM     77  C   UNL A   1      42.558  22.865  28.790  1.00  0.00     0.135 A 
ATOM     78  C   UNL A   1      42.545  23.824  26.588  1.00  0.00     0.135 A 
ATOM     79  F   UNL A   1      42.637  22.987  30.124  1.00  0.00    -0.206 F 
ATOM     80  C   UNL A   1      42.424  21.590  28.247  1.00  0.00     0.059 A 
ATOM     81  C   UNL A   1      42.389  22.563  26.022  1.00  0.00     0.059 A 
ATOM     82  F   UNL A   1      42.590  24.884  25.766  1.00  0.00    -0.206 F 
ATOM     83  C   UNL A   1      42.337  21.450  26.860  1.00  0.00     0.060 A 
BRANCH  83  84
ATOM     84  S   UNL A   1      42.105  19.798  26.167  1.00  0.00     0.124 S 
ATOM     85  O   UNL A   1      40.677  19.798  25.880  1.00  0.00    -0.237 OA
ATOM     86  O   UNL A   1      42.991  19.826  25.007  1.00  0.00    -0.237 OA
ATOM     87  O   UNL A   1      42.534  18.919  27.251  1.00  0.00    -0.744 OA
ENDBRANCH  83  84
ENDBRANCH  51  76
BRANCH  63  88
ATOM     88  C   UNL A   1      47.902  27.620  30.780  1.00  0.00     0.058 A 
ATOM     89  C   UNL A   1      48.295  26.832  31.872  1.00  0.00     0.135 A 
ATOM     90  C   UNL A   1      48.889  28.029  29.870  1.00  0.00     0.135 A 
ATOM     91  F   UNL A   1      47.387  26.425  32.772  1.00  0.00    -0.206 F 
ATOM     92  C   UNL A   1      49.623  26.468  32.060  1.00  0.00     0.059 A 
ATOM     93  C   UNL A   1      50.220  27.656  30.025  1.00  0.00     0.059 A 
ATOM     94  F   UNL A   1      48.561  28.776  28.804  1.00  0.00    -0.206 F 
ATOM     95  C   UNL A   1      50.579  26.881  31.128  1.00  0.00     0.060 A 
BRANCH  95  96
ATOM     96  S   UNL A   1      52.289  26.355  31.354  1.00  0.00     0.124 S 
ATOM     97  O   UNL A   1      52.687  26.050  29.984  1.00  0.00    -0.237 OA
ATOM     98  O   UNL A   1      52.906  27.539  31.946  1.00  0.00    -0.237 OA
ATOM     99  O   UNL A   1      52.176  25.204  32.245  1.00  0.00    -0.744 OA
ENDBRANCH  95  96
ENDBRANCH  63  88
ENDBRANCH  37  38
ENDBRANCH  30  32
ENDBRANCH  29  30
ENDBRANCH  28  29
ENDBRANCH   1  28
TORSDOF 21
ENDMDL
