MODEL 1
REMARK VINA RESULT:     -10.9      0.000      0.000
REMARK SMILES CCC(=O)Nc1cc(NC(=O)/C=C/C(=O)OCCOCCOC(=O)c2ccc(-c3c4nc(c(-c5c(F)cc(S(=O)(=O)[O-])cc5F)c5ccc([nH]5)c(-c5c(F)cc(S(=O)(=O)[O-])cc5F)c5nc(c(-c6c(F)cc(S(=O)(=O)[O-])cc6F)c6ccc3[nH]6)C=C5)C=C4)cc2)ccc1C
REMARK SMILES IDX 18 1 17 2 16 3 14 4 15 5 13 6 12 7 10 8 9 9 11 11 8 12 6 13
REMARK SMILES IDX 7 14 93 15 92 16 94 17 91 18 5 19 3 20 4 21 2 23 1 24 19 25
REMARK SMILES IDX 20 26 21 27 22 28 23 29 24 30 25 31 26 32 90 33 27 34 89 35
REMARK SMILES IDX 28 36 29 37 30 38 83 39 31 40 88 41 82 42 84 43 32 44 87 45
REMARK SMILES IDX 81 46 80 47 33 49 67 50 46 51 66 52 47 53 50 54 65 55 85 56
REMARK SMILES IDX 48 57 49 58 64 60 86 61 51 62 34 63 35 64 44 65 36 66 37 67
REMARK SMILES IDX 43 68 45 69 38 70 39 71 40 72 41 73 42 74 68 75 69 76 78 77
REMARK SMILES IDX 70 78 71 79 77 80 79 81 72 82 73 83 74 84 75 85 76 86 52 87
REMARK SMILES IDX 53 88 62 89 54 90 55 91 61 92 63 93 56 94 57 95 58 96 59 97
REMARK SMILES IDX 60 98
REMARK H PARENT 9 10 5 22 84 48 50 59
REMARK Flexibility Score: inf
ROOT
ATOM      1  C   UNL A   1      35.073  22.837  24.102  1.00  0.00     0.202 C 
ENDROOT
BRANCH   1   2
ATOM      2  C   UNL A   1      33.835  22.172  23.542  1.00  0.00     0.261 C 
BRANCH   2   3
ATOM      3  O   UNL A   1      32.676  22.604  24.280  1.00  0.00    -0.460 OA
BRANCH   3   4
ATOM      4  C   UNL A   1      32.053  21.659  25.001  1.00  0.00     0.331 C 
ATOM      5  O   UNL A   1      32.273  20.459  25.022  1.00  0.00    -0.247 OA
BRANCH   4   6
ATOM      6  C   UNL A   1      31.027  22.266  25.836  1.00  0.00     0.099 C 
ATOM      7  C   UNL A   1      31.164  23.571  26.103  1.00  0.00     0.079 C 
BRANCH   7   8
ATOM      8  C   UNL A   1      29.993  24.333  26.565  1.00  0.00     0.248 C 
ATOM      9  N   UNL A   1      29.702  25.555  26.019  1.00  0.00    -0.322 N 
ATOM     10  H   UNL A   1      28.853  25.939  26.336  1.00  0.00     0.170 HD
ATOM     11  O   UNL A   1      29.250  23.845  27.415  1.00  0.00    -0.270 OA
BRANCH   9  12
ATOM     12  C   UNL A   1      30.386  26.370  25.089  1.00  0.00     0.043 A 
ATOM     13  C   UNL A   1      31.663  28.349  24.447  1.00  0.00     0.046 A 
ATOM     14  C   UNL A   1      30.793  27.685  25.325  1.00  0.00     0.052 A 
ATOM     15  C   UNL A   1      32.127  27.687  23.299  1.00  0.00    -0.027 A 
ATOM     16  C   UNL A   1      31.591  26.426  22.992  1.00  0.00     0.008 A 
ATOM     17  C   UNL A   1      33.311  28.133  22.479  1.00  0.00     0.046 C 
ATOM     18  C   UNL A   1      30.720  25.781  23.871  1.00  0.00     0.026 A 
BRANCH  13  19
ATOM     19  N   UNL A   1      32.165  29.592  24.867  1.00  0.00    -0.326 N 
ATOM     20  C   UNL A   1      32.901  29.844  25.996  1.00  0.00     0.224 C 
ATOM     21  O   UNL A   1      32.692  30.837  26.692  1.00  0.00    -0.275 OA
ATOM     22  H   UNL A   1      31.966  30.365  24.290  1.00  0.00     0.169 HD
BRANCH  20  23
ATOM     23  C   UNL A   1      34.064  28.914  26.281  1.00  0.00     0.097 C 
ATOM     24  C   UNL A   1      34.855  29.234  27.528  1.00  0.00     0.014 C 
ENDBRANCH  20  23
ENDBRANCH  13  19
ENDBRANCH   9  12
ENDBRANCH   7   8
ENDBRANCH   4   6
ENDBRANCH   3   4
ENDBRANCH   2   3
ENDBRANCH   1   2
BRANCH   1  25
ATOM     25  O   UNL A   1      35.913  21.797  24.604  1.00  0.00    -0.374 OA
BRANCH  25  26
ATOM     26  C   UNL A   1      36.815  22.163  25.631  1.00  0.00     0.202 C 
BRANCH  26  27
ATOM     27  C   UNL A   1      38.159  21.431  25.556  1.00  0.00     0.261 C 
BRANCH  27  28
ATOM     28  O   UNL A   1      39.266  22.354  25.579  1.00  0.00    -0.460 OA
BRANCH  28  29
ATOM     29  C   UNL A   1      39.778  22.615  26.818  1.00  0.00     0.338 C 
ATOM     30  O   UNL A   1      40.106  21.751  27.614  1.00  0.00    -0.246 OA
BRANCH  29  31
ATOM     31  C   UNL A   1      39.846  24.082  27.046  1.00  0.00     0.060 A 
ATOM     32  C   UNL A   1      40.383  24.952  26.078  1.00  0.00     0.016 A 
ATOM     33  C   UNL A   1      39.555  24.562  28.319  1.00  0.00     0.016 A 
ATOM     34  C   UNL A   1      40.727  26.274  26.422  1.00  0.00     0.010 A 
ATOM     35  C   UNL A   1      39.967  25.830  28.664  1.00  0.00     0.010 A 
ATOM     36  C   UNL A   1      40.559  26.701  27.738  1.00  0.00    -0.014 A 
BRANCH  36  37
ATOM     37  C   UNL A   1      40.992  27.973  28.336  1.00  0.00     0.031 A 
ATOM     38  C   UNL A   1      40.032  29.108  28.404  1.00  0.00     0.074 A 
ATOM     39  C   UNL A   1      42.069  27.986  29.152  1.00  0.00     0.049 A 
ATOM     40  N   UNL A   1      40.290  30.244  28.957  1.00  0.00    -0.248 NA
ATOM     41  C   UNL A   1      38.695  29.073  27.811  1.00  0.00     0.031 C 
ATOM     42  C   UNL A   1      42.289  28.817  30.340  1.00  0.00     0.029 A 
ATOM     43  N   UNL A   1      43.229  27.206  29.090  1.00  0.00    -0.354 N 
ATOM     44  C   UNL A   1      39.095  30.901  29.136  1.00  0.00     0.074 A 
ATOM     45  C   UNL A   1      38.174  30.215  28.272  1.00  0.00     0.031 C 
ATOM     46  C   UNL A   1      43.567  28.704  30.735  1.00  0.00     0.029 A 
ATOM     47  C   UNL A   1      44.259  27.932  29.718  1.00  0.00     0.049 A 
ATOM     48  H   UNL A   1      43.310  26.313  28.684  1.00  0.00     0.167 HD
ATOM     49  C   UNL A   1      39.017  31.845  30.120  1.00  0.00     0.037 A 
ATOM     50  C   UNL A   1      45.355  28.348  29.021  1.00  0.00     0.037 A 
ATOM     51  C   UNL A   1      40.370  32.214  30.580  1.00  0.00     0.049 A 
ATOM     52  C   UNL A   1      45.398  29.855  28.952  1.00  0.00     0.074 A 
ATOM     53  C   UNL A   1      41.064  32.057  31.767  1.00  0.00     0.029 A 
ATOM     54  N   UNL A   1      41.320  32.619  29.631  1.00  0.00    -0.354 N 
ATOM     55  N   UNL A   1      44.346  30.598  29.175  1.00  0.00    -0.248 NA
ATOM     56  C   UNL A   1      46.595  30.653  28.709  1.00  0.00     0.031 C 
ATOM     57  C   UNL A   1      42.452  32.234  31.489  1.00  0.00     0.029 A 
ATOM     58  C   UNL A   1      42.602  32.558  30.147  1.00  0.00     0.049 A 
ATOM     59  H   UNL A   1      41.103  32.910  28.718  1.00  0.00     0.167 HD
ATOM     60  C   UNL A   1      44.683  31.915  29.126  1.00  0.00     0.074 A 
ATOM     61  C   UNL A   1      46.104  31.903  28.820  1.00  0.00     0.031 C 
ATOM     62  C   UNL A   1      43.768  32.905  29.334  1.00  0.00     0.037 A 
BRANCH  49  63
ATOM     63  C   UNL A   1      37.725  32.279  30.821  1.00  0.00     0.058 A 
ATOM     64  C   UNL A   1      36.879  33.251  30.236  1.00  0.00     0.135 A 
ATOM     65  C   UNL A   1      37.324  31.891  32.123  1.00  0.00     0.135 A 
ATOM     66  F   UNL A   1      37.132  33.744  29.014  1.00  0.00    -0.206 F 
ATOM     67  C   UNL A   1      35.756  33.790  30.884  1.00  0.00     0.059 A 
ATOM     68  C   UNL A   1      36.185  32.383  32.772  1.00  0.00     0.059 A 
ATOM     69  F   UNL A   1      38.045  31.061  32.881  1.00  0.00    -0.206 F 
ATOM     70  C   UNL A   1      35.414  33.349  32.156  1.00  0.00     0.060 A 
BRANCH  70  71
ATOM     71  S   UNL A   1      33.986  34.054  33.004  1.00  0.00     0.124 S 
ATOM     72  O   UNL A   1      34.614  34.765  34.114  1.00  0.00    -0.237 OA
ATOM     73  O   UNL A   1      33.390  34.890  31.969  1.00  0.00    -0.237 OA
ATOM     74  O   UNL A   1      33.199  32.883  33.384  1.00  0.00    -0.744 OA
ENDBRANCH  70  71
ENDBRANCH  49  63
BRANCH  50  75
ATOM     75  C   UNL A   1      45.829  27.345  28.021  1.00  0.00     0.058 A 
ATOM     76  C   UNL A   1      46.339  26.128  28.524  1.00  0.00     0.135 A 
ATOM     77  C   UNL A   1      45.373  27.338  26.695  1.00  0.00     0.135 A 
ATOM     78  F   UNL A   1      46.781  26.067  29.792  1.00  0.00    -0.206 F 
ATOM     79  C   UNL A   1      46.271  24.933  27.804  1.00  0.00     0.059 A 
ATOM     80  C   UNL A   1      45.279  26.148  25.961  1.00  0.00     0.059 A 
ATOM     81  F   UNL A   1      44.879  28.458  26.148  1.00  0.00    -0.206 F 
ATOM     82  C   UNL A   1      45.684  24.942  26.541  1.00  0.00     0.060 A 
BRANCH  82  83
ATOM     83  S   UNL A   1      45.179  23.368  25.769  1.00  0.00     0.124 S 
ATOM     84  O   UNL A   1      44.069  22.951  26.615  1.00  0.00    -0.237 OA
ATOM     85  O   UNL A   1      44.815  23.755  24.408  1.00  0.00    -0.237 OA
ATOM     86  O   UNL A   1      46.401  22.574  25.862  1.00  0.00    -0.744 OA
ENDBRANCH  82  83
ENDBRANCH  50  75
BRANCH  62  87
ATOM     87  C   UNL A   1      43.970  34.320  28.863  1.00  0.00     0.058 A 
ATOM     88  C   UNL A   1      44.275  35.383  29.735  1.00  0.00     0.135 A 
ATOM     89  C   UNL A   1      44.014  34.627  27.485  1.00  0.00     0.135 A 
ATOM     90  F   UNL A   1      44.409  35.191  31.055  1.00  0.00    -0.206 F 
ATOM     91  C   UNL A   1      44.493  36.680  29.283  1.00  0.00     0.059 A 
ATOM     92  C   UNL A   1      44.290  35.905  27.008  1.00  0.00     0.059 A 
ATOM     93  F   UNL A   1      43.804  33.688  26.550  1.00  0.00    -0.206 F 
ATOM     94  C   UNL A   1      44.489  36.935  27.917  1.00  0.00     0.060 A 
BRANCH  94  95
ATOM     95  S   UNL A   1      44.781  38.611  27.336  1.00  0.00     0.124 S 
ATOM     96  O   UNL A   1      45.936  38.416  26.465  1.00  0.00    -0.237 OA
ATOM     97  O   UNL A   1      43.530  38.940  26.659  1.00  0.00    -0.237 OA
ATOM     98  O   UNL A   1      45.033  39.354  28.565  1.00  0.00    -0.744 OA
ENDBRANCH  94  95
ENDBRANCH  62  87
ENDBRANCH  36  37
ENDBRANCH  29  31
ENDBRANCH  28  29
ENDBRANCH  27  28
ENDBRANCH  26  27
ENDBRANCH  25  26
ENDBRANCH   1  25
TORSDOF 21
ENDMDL
MODEL 2
REMARK VINA RESULT:      -9.9      3.812      9.242
REMARK SMILES CCC(=O)Nc1cc(NC(=O)/C=C/C(=O)OCCOCCOC(=O)c2ccc(-c3c4nc(c(-c5c(F)cc(S(=O)(=O)[O-])cc5F)c5ccc([nH]5)c(-c5c(F)cc(S(=O)(=O)[O-])cc5F)c5nc(c(-c6c(F)cc(S(=O)(=O)[O-])cc6F)c6ccc3[nH]6)C=C5)C=C4)cc2)ccc1C
REMARK SMILES IDX 18 1 17 2 16 3 14 4 15 5 13 6 12 7 10 8 9 9 11 11 8 12 6 13
REMARK SMILES IDX 7 14 93 15 92 16 94 17 91 18 5 19 3 20 4 21 2 23 1 24 19 25
REMARK SMILES IDX 20 26 21 27 22 28 23 29 24 30 25 31 26 32 90 33 27 34 89 35
REMARK SMILES IDX 28 36 29 37 30 38 83 39 31 40 88 41 82 42 84 43 32 44 87 45
REMARK SMILES IDX 81 46 80 47 33 49 67 50 46 51 66 52 47 53 50 54 65 55 85 56
REMARK SMILES IDX 48 57 49 58 64 60 86 61 51 62 34 63 35 64 44 65 36 66 37 67
REMARK SMILES IDX 43 68 45 69 38 70 39 71 40 72 41 73 42 74 68 75 69 76 78 77
REMARK SMILES IDX 70 78 71 79 77 80 79 81 72 82 73 83 74 84 75 85 76 86 52 87
REMARK SMILES IDX 53 88 62 89 54 90 55 91 61 92 63 93 56 94 57 95 58 96 59 97
REMARK SMILES IDX 60 98
REMARK H PARENT 9 10 5 22 84 48 50 59
REMARK Flexibility Score: inf
ROOT
ATOM      1  C   UNL A   1      33.348  30.959  27.510  1.00  0.00     0.202 C 
ENDROOT
BRANCH   1   2
ATOM      2  C   UNL A   1      32.552  30.045  26.604  1.00  0.00     0.261 C 
BRANCH   2   3
ATOM      3  O   UNL A   1      32.882  28.672  26.890  1.00  0.00    -0.460 OA
BRANCH   3   4
ATOM      4  C   UNL A   1      31.844  27.829  26.999  1.00  0.00     0.331 C 
ATOM      5  O   UNL A   1      31.083  27.689  27.942  1.00  0.00    -0.247 OA
BRANCH   4   6
ATOM      6  C   UNL A   1      31.695  27.061  25.772  1.00  0.00     0.099 C 
ATOM      7  C   UNL A   1      31.422  25.758  25.908  1.00  0.00     0.079 C 
BRANCH   7   8
ATOM      8  C   UNL A   1      30.853  25.023  24.766  1.00  0.00     0.248 C 
ATOM      9  N   UNL A   1      31.371  23.810  24.395  1.00  0.00    -0.322 N 
ATOM     10  H   UNL A   1      30.864  23.366  23.677  1.00  0.00     0.170 HD
ATOM     11  O   UNL A   1      29.880  25.487  24.173  1.00  0.00    -0.270 OA
BRANCH   9  12
ATOM     12  C   UNL A   1      32.490  23.075  24.843  1.00  0.00     0.043 A 
ATOM     13  C   UNL A   1      33.594  21.050  25.645  1.00  0.00     0.046 A 
ATOM     14  C   UNL A   1      32.434  21.813  25.438  1.00  0.00     0.052 A 
ATOM     15  C   UNL A   1      34.841  21.566  25.259  1.00  0.00    -0.027 A 
ATOM     16  C   UNL A   1      34.903  22.893  24.805  1.00  0.00     0.008 A 
ATOM     17  C   UNL A   1      36.091  20.740  25.094  1.00  0.00     0.046 C 
ATOM     18  C   UNL A   1      33.742  23.644  24.611  1.00  0.00     0.026 A 
BRANCH  13  19
ATOM     19  N   UNL A   1      33.415  19.723  26.071  1.00  0.00    -0.326 N 
ATOM     20  C   UNL A   1      32.883  18.689  25.343  1.00  0.00     0.224 C 
ATOM     21  O   UNL A   1      32.100  17.885  25.847  1.00  0.00    -0.275 OA
ATOM     22  H   UNL A   1      33.701  19.513  26.989  1.00  0.00     0.169 HD
BRANCH  20  23
ATOM     23  C   UNL A   1      33.397  18.508  23.929  1.00  0.00     0.097 C 
ATOM     24  C   UNL A   1      34.355  17.355  23.735  1.00  0.00     0.014 C 
ENDBRANCH  20  23
ENDBRANCH  13  19
ENDBRANCH   9  12
ENDBRANCH   7   8
ENDBRANCH   4   6
ENDBRANCH   3   4
ENDBRANCH   2   3
ENDBRANCH   1   2
BRANCH   1  25
ATOM     25  O   UNL A   1      34.725  30.627  27.329  1.00  0.00    -0.374 OA
BRANCH  25  26
ATOM     26  C   UNL A   1      35.517  30.586  28.500  1.00  0.00     0.202 C 
BRANCH  26  27
ATOM     27  C   UNL A   1      36.958  30.128  28.251  1.00  0.00     0.261 C 
BRANCH  27  28
ATOM     28  O   UNL A   1      37.686  29.976  29.485  1.00  0.00    -0.460 OA
BRANCH  28  29
ATOM     29  C   UNL A   1      38.616  30.945  29.733  1.00  0.00     0.338 C 
ATOM     30  O   UNL A   1      38.342  32.117  29.932  1.00  0.00    -0.246 OA
BRANCH  29  31
ATOM     31  C   UNL A   1      39.984  30.365  29.696  1.00  0.00     0.060 A 
ATOM     32  C   UNL A   1      40.988  30.794  30.585  1.00  0.00     0.016 A 
ATOM     33  C   UNL A   1      40.314  29.530  28.634  1.00  0.00     0.016 A 
ATOM     34  C   UNL A   1      42.338  30.475  30.342  1.00  0.00     0.010 A 
ATOM     35  C   UNL A   1      41.643  29.289  28.363  1.00  0.00     0.010 A 
ATOM     36  C   UNL A   1      42.671  29.753  29.196  1.00  0.00    -0.014 A 
BRANCH  36  37
ATOM     37  C   UNL A   1      44.014  29.450  28.680  1.00  0.00     0.031 A 
ATOM     38  C   UNL A   1      44.783  30.516  27.982  1.00  0.00     0.074 A 
ATOM     39  C   UNL A   1      44.686  28.384  29.173  1.00  0.00     0.049 A 
ATOM     40  N   UNL A   1      45.988  30.374  27.545  1.00  0.00    -0.248 NA
ATOM     41  C   UNL A   1      44.238  31.839  27.680  1.00  0.00     0.031 C 
ATOM     42  C   UNL A   1      46.128  28.255  29.399  1.00  0.00     0.029 A 
ATOM     43  N   UNL A   1      44.183  27.154  29.609  1.00  0.00    -0.354 N 
ATOM     44  C   UNL A   1      46.486  31.628  27.280  1.00  0.00     0.074 A 
ATOM     45  C   UNL A   1      45.324  32.473  27.223  1.00  0.00     0.031 C 
ATOM     46  C   UNL A   1      46.425  26.975  29.672  1.00  0.00     0.029 A 
ATOM     47  C   UNL A   1      45.211  26.204  29.465  1.00  0.00     0.049 A 
ATOM     48  H   UNL A   1      43.276  26.984  29.954  1.00  0.00     0.167 HD
ATOM     49  C   UNL A   1      47.840  31.804  27.302  1.00  0.00     0.037 A 
ATOM     50  C   UNL A   1      45.083  25.149  28.610  1.00  0.00     0.037 A 
ATOM     51  C   UNL A   1      48.524  30.496  27.274  1.00  0.00     0.049 A 
ATOM     52  C   UNL A   1      46.086  25.252  27.487  1.00  0.00     0.074 A 
ATOM     53  C   UNL A   1      49.313  29.799  28.171  1.00  0.00     0.029 A 
ATOM     54  N   UNL A   1      48.198  29.584  26.260  1.00  0.00    -0.354 N 
ATOM     55  N   UNL A   1      46.686  26.373  27.183  1.00  0.00    -0.248 NA
ATOM     56  C   UNL A   1      46.554  24.137  26.672  1.00  0.00     0.031 C 
ATOM     57  C   UNL A   1      49.339  28.433  27.760  1.00  0.00     0.029 A 
ATOM     58  C   UNL A   1      48.617  28.306  26.582  1.00  0.00     0.049 A 
ATOM     59  H   UNL A   1      47.731  29.822  25.428  1.00  0.00     0.167 HD
ATOM     60  C   UNL A   1      47.591  26.165  26.190  1.00  0.00     0.074 A 
ATOM     61  C   UNL A   1      47.468  24.747  25.892  1.00  0.00     0.031 C 
ATOM     62  C   UNL A   1      48.363  27.174  25.690  1.00  0.00     0.037 A 
BRANCH  49  63
ATOM     63  C   UNL A   1      48.549  33.137  27.567  1.00  0.00     0.058 A 
ATOM     64  C   UNL A   1      49.706  33.497  26.837  1.00  0.00     0.135 A 
ATOM     65  C   UNL A   1      48.234  34.044  28.610  1.00  0.00     0.135 A 
ATOM     66  F   UNL A   1      50.154  32.731  25.830  1.00  0.00    -0.206 F 
ATOM     67  C   UNL A   1      50.478  34.635  27.121  1.00  0.00     0.059 A 
ATOM     68  C   UNL A   1      48.964  35.206  28.884  1.00  0.00     0.059 A 
ATOM     69  F   UNL A   1      47.240  33.830  29.475  1.00  0.00    -0.206 F 
ATOM     70  C   UNL A   1      50.099  35.488  28.149  1.00  0.00     0.060 A 
BRANCH  70  71
ATOM     71  S   UNL A   1      51.099  36.939  28.534  1.00  0.00     0.124 S 
ATOM     72  O   UNL A   1      52.446  36.377  28.571  1.00  0.00    -0.237 OA
ATOM     73  O   UNL A   1      50.810  37.825  27.413  1.00  0.00    -0.237 OA
ATOM     74  O   UNL A   1      50.578  37.383  29.825  1.00  0.00    -0.744 OA
ENDBRANCH  70  71
ENDBRANCH  49  63
BRANCH  50  75
ATOM     75  C   UNL A   1      43.705  24.572  28.593  1.00  0.00     0.058 A 
ATOM     76  C   UNL A   1      42.889  24.891  27.485  1.00  0.00     0.135 A 
ATOM     77  C   UNL A   1      43.371  23.415  29.310  1.00  0.00     0.135 A 
ATOM     78  F   UNL A   1      43.165  25.982  26.749  1.00  0.00    -0.206 F 
ATOM     79  C   UNL A   1      41.883  24.038  27.025  1.00  0.00     0.059 A 
ATOM     80  C   UNL A   1      42.378  22.535  28.857  1.00  0.00     0.059 A 
ATOM     81  F   UNL A   1      44.098  23.051  30.377  1.00  0.00    -0.206 F 
ATOM     82  C   UNL A   1      41.673  22.830  27.686  1.00  0.00     0.060 A 
BRANCH  82  83
ATOM     83  S   UNL A   1      40.702  21.515  26.876  1.00  0.00     0.124 S 
ATOM     84  O   UNL A   1      40.653  20.487  27.907  1.00  0.00    -0.237 OA
ATOM     85  O   UNL A   1      39.425  22.164  26.581  1.00  0.00    -0.237 OA
ATOM     86  O   UNL A   1      41.510  21.217  25.699  1.00  0.00    -0.744 OA
ENDBRANCH  82  83
ENDBRANCH  50  75
BRANCH  62  87
ATOM     87  C   UNL A   1      49.026  27.107  24.341  1.00  0.00     0.058 A 
ATOM     88  C   UNL A   1      48.379  27.483  23.148  1.00  0.00     0.135 A 
ATOM     89  C   UNL A   1      50.400  26.801  24.222  1.00  0.00     0.135 A 
ATOM     90  F   UNL A   1      47.117  27.935  23.147  1.00  0.00    -0.206 F 
ATOM     91  C   UNL A   1      49.015  27.449  21.911  1.00  0.00     0.059 A 
ATOM     92  C   UNL A   1      51.072  26.820  23.003  1.00  0.00     0.059 A 
ATOM     93  F   UNL A   1      51.144  26.489  25.294  1.00  0.00    -0.206 F 
ATOM     94  C   UNL A   1      50.360  27.105  21.846  1.00  0.00     0.060 A 
BRANCH  94  95
ATOM     95  S   UNL A   1      51.181  27.071  20.247  1.00  0.00     0.124 S 
ATOM     96  O   UNL A   1      51.220  28.491  19.914  1.00  0.00    -0.237 OA
ATOM     97  O   UNL A   1      52.469  26.460  20.559  1.00  0.00    -0.237 OA
ATOM     98  O   UNL A   1      50.291  26.254  19.430  1.00  0.00    -0.744 OA
ENDBRANCH  94  95
ENDBRANCH  62  87
ENDBRANCH  36  37
ENDBRANCH  29  31
ENDBRANCH  28  29
ENDBRANCH  27  28
ENDBRANCH  26  27
ENDBRANCH  25  26
ENDBRANCH   1  25
TORSDOF 21
ENDMDL
MODEL 3
REMARK VINA RESULT:      -9.9      3.817     10.712
REMARK SMILES CCC(=O)Nc1cc(NC(=O)/C=C/C(=O)OCCOCCOC(=O)c2ccc(-c3c4nc(c(-c5c(F)cc(S(=O)(=O)[O-])cc5F)c5ccc([nH]5)c(-c5c(F)cc(S(=O)(=O)[O-])cc5F)c5nc(c(-c6c(F)cc(S(=O)(=O)[O-])cc6F)c6ccc3[nH]6)C=C5)C=C4)cc2)ccc1C
REMARK SMILES IDX 18 1 17 2 16 3 14 4 15 5 13 6 12 7 10 8 9 9 11 11 8 12 6 13
REMARK SMILES IDX 7 14 93 15 92 16 94 17 91 18 5 19 3 20 4 21 2 23 1 24 19 25
REMARK SMILES IDX 20 26 21 27 22 28 23 29 24 30 25 31 26 32 90 33 27 34 89 35
REMARK SMILES IDX 28 36 29 37 30 38 83 39 31 40 88 41 82 42 84 43 32 44 87 45
REMARK SMILES IDX 81 46 80 47 33 49 67 50 46 51 66 52 47 53 50 54 65 55 85 56
REMARK SMILES IDX 48 57 49 58 64 60 86 61 51 62 34 63 35 64 44 65 36 66 37 67
REMARK SMILES IDX 43 68 45 69 38 70 39 71 40 72 41 73 42 74 68 75 69 76 78 77
REMARK SMILES IDX 70 78 71 79 77 80 79 81 72 82 73 83 74 84 75 85 76 86 52 87
REMARK SMILES IDX 53 88 62 89 54 90 55 91 61 92 63 93 56 94 57 95 58 96 59 97
REMARK SMILES IDX 60 98
REMARK H PARENT 9 10 5 22 84 48 50 59
REMARK Flexibility Score: inf
ROOT
ATOM      1  C   UNL A   1      34.415  33.908  30.892  1.00  0.00     0.202 C 
ENDROOT
BRANCH   1   2
ATOM      2  C   UNL A   1      34.637  34.022  29.400  1.00  0.00     0.261 C 
BRANCH   2   3
ATOM      3  O   UNL A   1      35.758  33.204  29.013  1.00  0.00    -0.460 OA
BRANCH   3   4
ATOM      4  C   UNL A   1      35.465  31.956  28.615  1.00  0.00     0.331 C 
ATOM      5  O   UNL A   1      35.970  30.909  28.984  1.00  0.00    -0.247 OA
BRANCH   4   6
ATOM      6  C   UNL A   1      34.382  31.986  27.642  1.00  0.00     0.099 C 
ATOM      7  C   UNL A   1      33.783  30.819  27.374  1.00  0.00     0.079 C 
BRANCH   7   8
ATOM      8  C   UNL A   1      32.450  30.827  26.751  1.00  0.00     0.248 C 
ATOM      9  N   UNL A   1      32.043  29.775  25.972  1.00  0.00    -0.322 N 
ATOM     10  H   UNL A   1      31.107  29.841  25.676  1.00  0.00     0.170 HD
ATOM     11  O   UNL A   1      31.685  31.765  26.969  1.00  0.00    -0.270 OA
BRANCH   9  12
ATOM     12  C   UNL A   1      32.708  28.617  25.512  1.00  0.00     0.043 A 
ATOM     13  C   UNL A   1      33.188  26.224  25.530  1.00  0.00     0.046 A 
ATOM     14  C   UNL A   1      32.701  27.380  26.159  1.00  0.00     0.052 A 
ATOM     15  C   UNL A   1      33.704  26.308  24.227  1.00  0.00    -0.027 A 
ATOM     16  C   UNL A   1      33.847  27.579  23.647  1.00  0.00     0.008 A 
ATOM     17  C   UNL A   1      33.923  25.125  23.320  1.00  0.00     0.046 C 
ATOM     18  C   UNL A   1      33.366  28.722  24.288  1.00  0.00     0.026 A 
BRANCH  13  19
ATOM     19  N   UNL A   1      32.964  25.001  26.185  1.00  0.00    -0.326 N 
ATOM     20  C   UNL A   1      31.752  24.401  26.418  1.00  0.00     0.224 C 
ATOM     21  O   UNL A   1      31.498  23.860  27.493  1.00  0.00    -0.275 OA
ATOM     22  H   UNL A   1      33.760  24.524  26.512  1.00  0.00     0.169 HD
BRANCH  20  23
ATOM     23  C   UNL A   1      30.788  24.324  25.250  1.00  0.00     0.097 C 
ATOM     24  C   UNL A   1      29.837  25.492  25.123  1.00  0.00     0.014 C 
ENDBRANCH  20  23
ENDBRANCH  13  19
ENDBRANCH   9  12
ENDBRANCH   7   8
ENDBRANCH   4   6
ENDBRANCH   3   4
ENDBRANCH   2   3
ENDBRANCH   1   2
BRANCH   1  25
ATOM     25  O   UNL A   1      34.622  35.209  31.444  1.00  0.00    -0.374 OA
BRANCH  25  26
ATOM     26  C   UNL A   1      34.808  35.271  32.845  1.00  0.00     0.202 C 
BRANCH  26  27
ATOM     27  C   UNL A   1      35.964  34.401  33.350  1.00  0.00     0.261 C 
BRANCH  27  28
ATOM     28  O   UNL A   1      37.213  34.771  32.733  1.00  0.00    -0.460 OA
BRANCH  28  29
ATOM     29  C   UNL A   1      38.309  34.683  33.544  1.00  0.00     0.338 C 
ATOM     30  O   UNL A   1      38.278  34.853  34.750  1.00  0.00    -0.246 OA
BRANCH  29  31
ATOM     31  C   UNL A   1      39.521  34.383  32.737  1.00  0.00     0.060 A 
ATOM     32  C   UNL A   1      40.814  34.644  33.229  1.00  0.00     0.016 A 
ATOM     33  C   UNL A   1      39.350  34.025  31.404  1.00  0.00     0.016 A 
ATOM     34  C   UNL A   1      41.920  34.652  32.357  1.00  0.00     0.010 A 
ATOM     35  C   UNL A   1      40.425  34.112  30.547  1.00  0.00     0.010 A 
ATOM     36  C   UNL A   1      41.715  34.427  30.996  1.00  0.00    -0.014 A 
BRANCH  36  37
ATOM     37  C   UNL A   1      42.695  34.542  29.906  1.00  0.00     0.031 A 
ATOM     38  C   UNL A   1      43.616  33.406  29.633  1.00  0.00     0.074 A 
ATOM     39  C   UNL A   1      42.499  35.465  28.937  1.00  0.00     0.049 A 
ATOM     40  N   UNL A   1      44.470  33.380  28.668  1.00  0.00    -0.248 NA
ATOM     41  C   UNL A   1      43.679  32.201  30.460  1.00  0.00     0.031 C 
ATOM     42  C   UNL A   1      42.826  35.356  27.512  1.00  0.00     0.029 A 
ATOM     43  N   UNL A   1      41.922  36.735  29.035  1.00  0.00    -0.354 N 
ATOM     44  C   UNL A   1      44.886  32.078  28.514  1.00  0.00     0.074 A 
ATOM     45  C   UNL A   1      44.498  31.429  29.737  1.00  0.00     0.031 C 
ATOM     46  C   UNL A   1      42.697  36.559  26.931  1.00  0.00     0.029 A 
ATOM     47  C   UNL A   1      42.448  37.520  27.992  1.00  0.00     0.049 A 
ATOM     48  H   UNL A   1      41.267  37.028  29.710  1.00  0.00     0.167 HD
ATOM     49  C   UNL A   1      45.366  31.692  27.295  1.00  0.00     0.037 A 
ATOM     50  C   UNL A   1      43.207  38.622  28.252  1.00  0.00     0.037 A 
ATOM     51  C   UNL A   1      45.661  32.877  26.465  1.00  0.00     0.049 A 
ATOM     52  C   UNL A   1      44.621  38.420  27.762  1.00  0.00     0.074 A 
ATOM     53  C   UNL A   1      45.129  33.397  25.300  1.00  0.00     0.029 A 
ATOM     54  N   UNL A   1      46.492  33.878  26.988  1.00  0.00    -0.354 N 
ATOM     55  N   UNL A   1      45.113  37.236  27.509  1.00  0.00    -0.248 NA
ATOM     56  C   UNL A   1      45.565  39.488  27.452  1.00  0.00     0.031 C 
ATOM     57  C   UNL A   1      45.536  34.761  25.204  1.00  0.00     0.029 A 
ATOM     58  C   UNL A   1      46.364  35.058  26.277  1.00  0.00     0.049 A 
ATOM     59  H   UNL A   1      47.089  33.758  27.760  1.00  0.00     0.167 HD
ATOM     60  C   UNL A   1      46.373  37.349  27.011  1.00  0.00     0.074 A 
ATOM     61  C   UNL A   1      46.621  38.782  27.002  1.00  0.00     0.031 C 
ATOM     62  C   UNL A   1      47.112  36.258  26.653  1.00  0.00     0.037 A 
BRANCH  49  63
ATOM     63  C   UNL A   1      45.366  30.253  26.766  1.00  0.00     0.058 A 
ATOM     64  C   UNL A   1      44.157  29.529  26.645  1.00  0.00     0.135 A 
ATOM     65  C   UNL A   1      46.520  29.478  26.491  1.00  0.00     0.135 A 
ATOM     66  F   UNL A   1      42.974  30.111  26.895  1.00  0.00    -0.206 F 
ATOM     67  C   UNL A   1      44.101  28.169  26.298  1.00  0.00     0.059 A 
ATOM     68  C   UNL A   1      46.485  28.133  26.102  1.00  0.00     0.059 A 
ATOM     69  F   UNL A   1      47.759  29.950  26.647  1.00  0.00    -0.206 F 
ATOM     70  C   UNL A   1      45.273  27.476  26.026  1.00  0.00     0.060 A 
BRANCH  70  71
ATOM     71  S   UNL A   1      45.210  25.724  25.601  1.00  0.00     0.124 S 
ATOM     72  O   UNL A   1      45.499  25.092  26.885  1.00  0.00    -0.237 OA
ATOM     73  O   UNL A   1      43.846  25.571  25.108  1.00  0.00    -0.237 OA
ATOM     74  O   UNL A   1      46.254  25.577  24.590  1.00  0.00    -0.744 OA
ENDBRANCH  70  71
ENDBRANCH  49  63
BRANCH  50  75
ATOM     75  C   UNL A   1      42.719  39.407  29.425  1.00  0.00     0.058 A 
ATOM     76  C   UNL A   1      43.514  39.379  30.592  1.00  0.00     0.135 A 
ATOM     77  C   UNL A   1      41.842  40.492  29.285  1.00  0.00     0.135 A 
ATOM     78  F   UNL A   1      44.384  38.371  30.779  1.00  0.00    -0.206 F 
ATOM     79  C   UNL A   1      43.543  40.436  31.504  1.00  0.00     0.059 A 
ATOM     80  C   UNL A   1      41.867  41.572  30.178  1.00  0.00     0.059 A 
ATOM     81  F   UNL A   1      41.053  40.585  28.205  1.00  0.00    -0.206 F 
ATOM     82  C   UNL A   1      42.756  41.559  31.257  1.00  0.00     0.060 A 
BRANCH  82  83
ATOM     83  S   UNL A   1      43.090  43.110  32.157  1.00  0.00     0.124 S 
ATOM     84  O   UNL A   1      42.295  42.943  33.366  1.00  0.00    -0.237 OA
ATOM     85  O   UNL A   1      44.538  43.088  32.353  1.00  0.00    -0.237 OA
ATOM     86  O   UNL A   1      42.627  44.120  31.210  1.00  0.00    -0.744 OA
ENDBRANCH  82  83
ENDBRANCH  50  75
BRANCH  62  87
ATOM     87  C   UNL A   1      48.611  36.288  26.531  1.00  0.00     0.058 A 
ATOM     88  C   UNL A   1      49.281  36.867  25.436  1.00  0.00     0.135 A 
ATOM     89  C   UNL A   1      49.435  35.864  27.598  1.00  0.00     0.135 A 
ATOM     90  F   UNL A   1      48.610  37.438  24.426  1.00  0.00    -0.206 F 
ATOM     91  C   UNL A   1      50.668  36.918  25.352  1.00  0.00     0.059 A 
ATOM     92  C   UNL A   1      50.822  35.962  27.561  1.00  0.00     0.059 A 
ATOM     93  F   UNL A   1      48.916  35.353  28.724  1.00  0.00    -0.206 F 
ATOM     94  C   UNL A   1      51.433  36.453  26.415  1.00  0.00     0.060 A 
BRANCH  94  95
ATOM     95  S   UNL A   1      53.226  36.529  26.306  1.00  0.00     0.124 S 
ATOM     96  O   UNL A   1      53.411  37.678  25.426  1.00  0.00    -0.237 OA
ATOM     97  O   UNL A   1      53.625  36.729  27.696  1.00  0.00    -0.237 OA
ATOM     98  O   UNL A   1      53.583  35.233  25.740  1.00  0.00    -0.744 OA
ENDBRANCH  94  95
ENDBRANCH  62  87
ENDBRANCH  36  37
ENDBRANCH  29  31
ENDBRANCH  28  29
ENDBRANCH  27  28
ENDBRANCH  26  27
ENDBRANCH  25  26
ENDBRANCH   1  25
TORSDOF 21
ENDMDL
