MODEL 1
REMARK VINA RESULT:     -10.4      0.000      0.000
REMARK SMILES Cc1cscc1CNC(=O)N[C@@H](C)c1nc(C(=O)OCCOCCOC(=O)c2ccc(-c3c4nc(c(-c5c(F)cc(S(=O)(=O)[O-])cc5F)c5ccc([nH]5)c(-c5c(F)cc(S(=O)(=O)[O-])cc5F)c5nc(c(-c6c(F)cc(S(=O)(=O)[O-])cc6F)c6ccc3[nH]6)C=C5)C=C4)cc2)cs1
REMARK SMILES IDX 21 1 20 2 19 3 17 4 18 5 16 6 14 7 15 8 95 9 94 10 12 11
REMARK SMILES IDX 13 12 11 13 8 14 9 15 10 17 7 19 6 20 1 21 2 22 3 23 4 24
REMARK SMILES IDX 5 25 22 26 23 27 24 28 25 29 26 30 27 31 28 32 29 33 93 34
REMARK SMILES IDX 30 35 92 36 31 37 32 38 33 39 86 40 34 41 91 42 85 43 87 44
REMARK SMILES IDX 35 45 90 46 84 47 83 48 36 50 70 51 49 52 69 53 50 54 53 55
REMARK SMILES IDX 68 56 88 57 51 58 52 59 67 61 89 62 54 63 37 64 38 65 47 66
REMARK SMILES IDX 39 67 40 68 46 69 48 70 41 71 42 72 43 73 44 74 45 75 71 76
REMARK SMILES IDX 72 77 81 78 73 79 74 80 80 81 82 82 75 83 76 84 77 85 78 86
REMARK SMILES IDX 79 87 55 88 56 89 65 90 57 91 58 92 64 93 66 94 59 95 60 96
REMARK SMILES IDX 61 97 62 98 63 99
REMARK H PARENT 8 16 11 18 87 49 53 60
REMARK Flexibility Score: inf
ROOT
ATOM      1  C   UNL A   1      40.640  21.110  26.178  1.00  0.00     0.202 C 
ENDROOT
BRANCH   1   2
ATOM      2  C   UNL A   1      39.495  22.086  26.459  1.00  0.00     0.261 C 
BRANCH   2   3
ATOM      3  O   UNL A   1      38.447  21.901  25.492  1.00  0.00    -0.458 OA
BRANCH   3   4
ATOM      4  C   UNL A   1      37.460  22.839  25.515  1.00  0.00     0.357 C 
ATOM      5  O   UNL A   1      37.630  24.027  25.776  1.00  0.00    -0.244 OA
BRANCH   4   6
ATOM      6  C   UNL A   1      36.163  22.317  25.071  1.00  0.00     0.159 A 
ATOM      7  C   UNL A   1      34.113  22.334  24.189  1.00  0.00     0.116 A 
ATOM      8  N   UNL A   1      35.148  23.095  24.502  1.00  0.00    -0.232 NA
ATOM      9  S   UNL A   1      34.254  20.681  24.662  1.00  0.00    -0.124 S 
ATOM     10  C   UNL A   1      35.828  20.985  25.239  1.00  0.00     0.102 A 
BRANCH   7  11
ATOM     11  C   UNL A   1      32.871  22.773  23.443  1.00  0.00     0.140 C 
ATOM     12  C   UNL A   1      32.073  21.571  22.938  1.00  0.00     0.039 C 
BRANCH  11  13
ATOM     13  N   UNL A   1      33.251  23.624  22.327  1.00  0.00    -0.329 N 
ATOM     14  N   UNL A   1      31.598  25.303  22.081  1.00  0.00    -0.334 N 
ATOM     15  C   UNL A   1      32.706  24.665  21.700  1.00  0.00     0.315 C 
ATOM     16  H   UNL A   1      31.359  26.024  21.455  1.00  0.00     0.165 HD
ATOM     17  O   UNL A   1      33.280  25.096  20.698  1.00  0.00    -0.249 OA
ATOM     18  H   UNL A   1      34.122  23.369  21.944  1.00  0.00     0.166 HD
BRANCH  14  19
ATOM     19  C   UNL A   1      30.658  25.209  23.175  1.00  0.00     0.154 C 
BRANCH  19  20
ATOM     20  C   UNL A   1      31.043  26.120  24.313  1.00  0.00    -0.015 A 
ATOM     21  C   UNL A   1      30.704  24.345  26.202  1.00  0.00     0.045 C 
ATOM     22  C   UNL A   1      31.056  25.711  25.707  1.00  0.00    -0.035 A 
ATOM     23  C   UNL A   1      31.431  26.750  26.539  1.00  0.00     0.068 A 
ATOM     24  S   UNL A   1      31.774  28.188  25.694  1.00  0.00    -0.152 S 
ATOM     25  C   UNL A   1      31.419  27.450  24.198  1.00  0.00     0.070 A 
ENDBRANCH  19  20
ENDBRANCH  14  19
ENDBRANCH  11  13
ENDBRANCH   7  11
ENDBRANCH   4   6
ENDBRANCH   3   4
ENDBRANCH   2   3
ENDBRANCH   1   2
BRANCH   1  26
ATOM     26  O   UNL A   1      41.915  21.595  26.612  1.00  0.00    -0.374 OA
BRANCH  26  27
ATOM     27  C   UNL A   1      42.851  21.883  25.568  1.00  0.00     0.202 C 
BRANCH  27  28
ATOM     28  C   UNL A   1      43.011  23.374  25.260  1.00  0.00     0.261 C 
BRANCH  28  29
ATOM     29  O   UNL A   1      42.625  24.161  26.402  1.00  0.00    -0.460 OA
BRANCH  29  30
ATOM     30  C   UNL A   1      42.176  25.407  26.120  1.00  0.00     0.338 C 
ATOM     31  O   UNL A   1      41.729  25.802  25.057  1.00  0.00    -0.246 OA
BRANCH  30  32
ATOM     32  C   UNL A   1      42.126  26.206  27.363  1.00  0.00     0.060 A 
ATOM     33  C   UNL A   1      41.118  25.894  28.286  1.00  0.00     0.016 A 
ATOM     34  C   UNL A   1      43.017  27.252  27.617  1.00  0.00     0.016 A 
ATOM     35  C   UNL A   1      40.960  26.663  29.436  1.00  0.00     0.010 A 
ATOM     36  C   UNL A   1      42.852  28.029  28.769  1.00  0.00     0.010 A 
ATOM     37  C   UNL A   1      41.800  27.761  29.662  1.00  0.00    -0.014 A 
BRANCH  37  38
ATOM     38  C   UNL A   1      41.462  28.734  30.727  1.00  0.00     0.031 A 
ATOM     39  C   UNL A   1      42.274  28.719  31.994  1.00  0.00     0.074 A 
ATOM     40  C   UNL A   1      40.469  29.626  30.565  1.00  0.00     0.049 A 
ATOM     41  N   UNL A   1      42.131  29.434  33.079  1.00  0.00    -0.248 NA
ATOM     42  C   UNL A   1      43.398  27.770  32.041  1.00  0.00     0.031 C 
ATOM     43  C   UNL A   1      39.642  29.764  29.368  1.00  0.00     0.029 A 
ATOM     44  N   UNL A   1      39.984  30.581  31.423  1.00  0.00    -0.354 N 
ATOM     45  C   UNL A   1      43.138  29.015  33.940  1.00  0.00     0.074 A 
ATOM     46  C   UNL A   1      43.872  27.969  33.261  1.00  0.00     0.031 C 
ATOM     47  C   UNL A   1      38.738  30.738  29.573  1.00  0.00     0.029 A 
ATOM     48  C   UNL A   1      38.905  31.272  30.924  1.00  0.00     0.049 A 
ATOM     49  H   UNL A   1      40.371  30.756  32.310  1.00  0.00     0.167 HD
ATOM     50  C   UNL A   1      43.427  29.464  35.185  1.00  0.00     0.037 A 
ATOM     51  C   UNL A   1      38.130  32.210  31.504  1.00  0.00     0.037 A 
ATOM     52  C   UNL A   1      42.695  30.503  35.856  1.00  0.00     0.049 A 
ATOM     53  C   UNL A   1      38.437  32.659  32.909  1.00  0.00     0.074 A 
ATOM     54  C   UNL A   1      42.909  31.030  37.117  1.00  0.00     0.029 A 
ATOM     55  N   UNL A   1      41.605  31.171  35.321  1.00  0.00    -0.354 N 
ATOM     56  N   UNL A   1      39.396  32.260  33.710  1.00  0.00    -0.248 NA
ATOM     57  C   UNL A   1      37.558  33.684  33.490  1.00  0.00     0.031 C 
ATOM     58  C   UNL A   1      41.926  31.996  37.357  1.00  0.00     0.029 A 
ATOM     59  C   UNL A   1      41.126  32.099  36.230  1.00  0.00     0.049 A 
ATOM     60  H   UNL A   1      41.226  31.010  34.427  1.00  0.00     0.167 HD
ATOM     61  C   UNL A   1      39.257  33.007  34.875  1.00  0.00     0.074 A 
ATOM     62  C   UNL A   1      38.119  33.882  34.677  1.00  0.00     0.031 C 
ATOM     63  C   UNL A   1      40.006  32.976  36.005  1.00  0.00     0.037 A 
BRANCH  50  64
ATOM     64  C   UNL A   1      44.571  28.809  35.906  1.00  0.00     0.058 A 
ATOM     65  C   UNL A   1      45.886  29.287  35.788  1.00  0.00     0.135 A 
ATOM     66  C   UNL A   1      44.345  27.703  36.740  1.00  0.00     0.135 A 
ATOM     67  F   UNL A   1      46.157  30.329  34.986  1.00  0.00    -0.206 F 
ATOM     68  C   UNL A   1      46.943  28.673  36.452  1.00  0.00     0.059 A 
ATOM     69  C   UNL A   1      45.384  27.088  37.431  1.00  0.00     0.059 A 
ATOM     70  F   UNL A   1      43.107  27.205  36.883  1.00  0.00    -0.206 F 
ATOM     71  C   UNL A   1      46.682  27.571  37.269  1.00  0.00     0.060 A 
BRANCH  71  72
ATOM     72  S   UNL A   1      48.062  26.782  38.126  1.00  0.00     0.124 S 
ATOM     73  O   UNL A   1      49.183  27.608  37.689  1.00  0.00    -0.237 OA
ATOM     74  O   UNL A   1      47.682  26.921  39.528  1.00  0.00    -0.237 OA
ATOM     75  O   UNL A   1      48.047  25.418  37.608  1.00  0.00    -0.744 OA
ENDBRANCH  71  72
ENDBRANCH  50  64
BRANCH  51  76
ATOM     76  C   UNL A   1      36.978  32.784  30.758  1.00  0.00     0.058 A 
ATOM     77  C   UNL A   1      35.685  32.262  30.908  1.00  0.00     0.135 A 
ATOM     78  C   UNL A   1      37.148  33.868  29.885  1.00  0.00     0.135 A 
ATOM     79  F   UNL A   1      35.474  31.217  31.723  1.00  0.00    -0.206 F 
ATOM     80  C   UNL A   1      34.602  32.787  30.210  1.00  0.00     0.059 A 
ATOM     81  C   UNL A   1      36.078  34.425  29.192  1.00  0.00     0.059 A 
ATOM     82  F   UNL A   1      38.365  34.409  29.713  1.00  0.00    -0.206 F 
ATOM     83  C   UNL A   1      34.809  33.872  29.355  1.00  0.00     0.060 A 
BRANCH  83  84
ATOM     84  S   UNL A   1      33.390  34.583  28.492  1.00  0.00     0.124 S 
ATOM     85  O   UNL A   1      32.922  33.446  27.709  1.00  0.00    -0.237 OA
ATOM     86  O   UNL A   1      32.530  34.993  29.599  1.00  0.00    -0.237 OA
ATOM     87  O   UNL A   1      33.978  35.678  27.728  1.00  0.00    -0.744 OA
ENDBRANCH  83  84
ENDBRANCH  51  76
BRANCH  63  88
ATOM     88  C   UNL A   1      39.662  33.947  37.099  1.00  0.00     0.058 A 
ATOM     89  C   UNL A   1      38.867  33.574  38.192  1.00  0.00     0.135 A 
ATOM     90  C   UNL A   1      40.207  35.241  37.092  1.00  0.00     0.135 A 
ATOM     91  F   UNL A   1      38.319  32.349  38.244  1.00  0.00    -0.206 F 
ATOM     92  C   UNL A   1      38.617  34.455  39.241  1.00  0.00     0.059 A 
ATOM     93  C   UNL A   1      39.987  36.130  38.138  1.00  0.00     0.059 A 
ATOM     94  F   UNL A   1      40.982  35.642  36.072  1.00  0.00    -0.206 F 
ATOM     95  C   UNL A   1      39.186  35.730  39.206  1.00  0.00     0.060 A 
BRANCH  95  96
ATOM     96  S   UNL A   1      38.904  36.845  40.599  1.00  0.00     0.124 S 
ATOM     97  O   UNL A   1      38.150  35.991  41.510  1.00  0.00    -0.237 OA
ATOM     98  O   UNL A   1      40.262  37.176  41.018  1.00  0.00    -0.237 OA
ATOM     99  O   UNL A   1      38.153  37.947  40.003  1.00  0.00    -0.744 OA
ENDBRANCH  95  96
ENDBRANCH  63  88
ENDBRANCH  37  38
ENDBRANCH  30  32
ENDBRANCH  29  30
ENDBRANCH  28  29
ENDBRANCH  27  28
ENDBRANCH  26  27
ENDBRANCH   1  26
TORSDOF 21
ENDMDL
MODEL 2
REMARK VINA RESULT:     -10.2      6.200     11.994
REMARK SMILES Cc1cscc1CNC(=O)N[C@@H](C)c1nc(C(=O)OCCOCCOC(=O)c2ccc(-c3c4nc(c(-c5c(F)cc(S(=O)(=O)[O-])cc5F)c5ccc([nH]5)c(-c5c(F)cc(S(=O)(=O)[O-])cc5F)c5nc(c(-c6c(F)cc(S(=O)(=O)[O-])cc6F)c6ccc3[nH]6)C=C5)C=C4)cc2)cs1
REMARK SMILES IDX 21 1 20 2 19 3 17 4 18 5 16 6 14 7 15 8 95 9 94 10 12 11
REMARK SMILES IDX 13 12 11 13 8 14 9 15 10 17 7 19 6 20 1 21 2 22 3 23 4 24
REMARK SMILES IDX 5 25 22 26 23 27 24 28 25 29 26 30 27 31 28 32 29 33 93 34
REMARK SMILES IDX 30 35 92 36 31 37 32 38 33 39 86 40 34 41 91 42 85 43 87 44
REMARK SMILES IDX 35 45 90 46 84 47 83 48 36 50 70 51 49 52 69 53 50 54 53 55
REMARK SMILES IDX 68 56 88 57 51 58 52 59 67 61 89 62 54 63 37 64 38 65 47 66
REMARK SMILES IDX 39 67 40 68 46 69 48 70 41 71 42 72 43 73 44 74 45 75 71 76
REMARK SMILES IDX 72 77 81 78 73 79 74 80 80 81 82 82 75 83 76 84 77 85 78 86
REMARK SMILES IDX 79 87 55 88 56 89 65 90 57 91 58 92 64 93 66 94 59 95 60 96
REMARK SMILES IDX 61 97 62 98 63 99
REMARK H PARENT 8 16 11 18 87 49 53 60
REMARK Flexibility Score: inf
ROOT
ATOM      1  C   UNL A   1      34.404  31.161  27.669  1.00  0.00     0.202 C 
ENDROOT
BRANCH   1   2
ATOM      2  C   UNL A   1      32.947  31.200  27.201  1.00  0.00     0.261 C 
BRANCH   2   3
ATOM      3  O   UNL A   1      32.737  30.214  26.175  1.00  0.00    -0.458 OA
BRANCH   3   4
ATOM      4  C   UNL A   1      32.111  29.076  26.580  1.00  0.00     0.357 C 
ATOM      5  O   UNL A   1      31.481  28.959  27.628  1.00  0.00    -0.244 OA
BRANCH   4   6
ATOM      6  C   UNL A   1      32.154  28.009  25.573  1.00  0.00     0.159 A 
ATOM      7  C   UNL A   1      31.866  25.980  24.689  1.00  0.00     0.116 A 
ATOM      8  N   UNL A   1      31.718  26.696  25.790  1.00  0.00    -0.232 NA
ATOM      9  S   UNL A   1      32.637  26.803  23.383  1.00  0.00    -0.124 S 
ATOM     10  C   UNL A   1      32.693  28.226  24.317  1.00  0.00     0.102 A 
BRANCH   7  11
ATOM     11  C   UNL A   1      31.400  24.556  24.476  1.00  0.00     0.140 C 
ATOM     12  C   UNL A   1      30.484  24.449  23.258  1.00  0.00     0.039 C 
BRANCH  11  13
ATOM     13  N   UNL A   1      30.705  24.091  25.665  1.00  0.00    -0.329 N 
ATOM     14  N   UNL A   1      31.871  22.211  26.514  1.00  0.00    -0.334 N 
ATOM     15  C   UNL A   1      30.853  23.074  26.513  1.00  0.00     0.315 C 
ATOM     16  H   UNL A   1      31.763  21.521  27.208  1.00  0.00     0.165 HD
ATOM     17  O   UNL A   1      29.996  22.925  27.386  1.00  0.00    -0.249 OA
ATOM     18  H   UNL A   1      29.942  24.667  25.901  1.00  0.00     0.166 HD
BRANCH  14  19
ATOM     19  C   UNL A   1      33.091  22.028  25.761  1.00  0.00     0.154 C 
BRANCH  19  20
ATOM     20  C   UNL A   1      33.235  20.606  25.281  1.00  0.00    -0.015 A 
ATOM     21  C   UNL A   1      35.833  20.682  25.001  1.00  0.00     0.045 C 
ATOM     22  C   UNL A   1      34.506  19.997  24.929  1.00  0.00    -0.035 A 
ATOM     23  C   UNL A   1      34.344  18.691  24.504  1.00  0.00     0.068 A 
ATOM     24  S   UNL A   1      32.720  18.180  24.529  1.00  0.00    -0.152 S 
ATOM     25  C   UNL A   1      32.201  19.701  25.100  1.00  0.00     0.070 A 
ENDBRANCH  19  20
ENDBRANCH  14  19
ENDBRANCH  11  13
ENDBRANCH   7  11
ENDBRANCH   4   6
ENDBRANCH   3   4
ENDBRANCH   2   3
ENDBRANCH   1   2
BRANCH   1  26
ATOM     26  O   UNL A   1      35.027  32.450  27.688  1.00  0.00    -0.374 OA
BRANCH  26  27
ATOM     27  C   UNL A   1      35.823  32.732  28.844  1.00  0.00     0.202 C 
BRANCH  27  28
ATOM     28  C   UNL A   1      35.320  32.072  30.131  1.00  0.00     0.261 C 
BRANCH  28  29
ATOM     29  O   UNL A   1      36.431  31.586  30.906  1.00  0.00    -0.460 OA
BRANCH  29  30
ATOM     30  C   UNL A   1      36.809  30.314  30.638  1.00  0.00     0.338 C 
ATOM     31  O   UNL A   1      36.094  29.327  30.611  1.00  0.00    -0.246 OA
BRANCH  30  32
ATOM     32  C   UNL A   1      38.218  30.302  30.188  1.00  0.00     0.060 A 
ATOM     33  C   UNL A   1      38.451  30.149  28.814  1.00  0.00     0.016 A 
ATOM     34  C   UNL A   1      39.290  30.408  31.078  1.00  0.00     0.016 A 
ATOM     35  C   UNL A   1      39.753  30.042  28.333  1.00  0.00     0.010 A 
ATOM     36  C   UNL A   1      40.597  30.292  30.595  1.00  0.00     0.010 A 
ATOM     37  C   UNL A   1      40.832  30.070  29.227  1.00  0.00    -0.014 A 
BRANCH  37  38
ATOM     38  C   UNL A   1      42.182  29.683  28.756  1.00  0.00     0.031 A 
ATOM     39  C   UNL A   1      42.407  28.259  28.322  1.00  0.00     0.074 A 
ATOM     40  C   UNL A   1      43.182  30.580  28.693  1.00  0.00     0.049 A 
ATOM     41  N   UNL A   1      43.509  27.677  27.926  1.00  0.00    -0.248 NA
ATOM     42  C   UNL A   1      41.230  27.375  28.338  1.00  0.00     0.031 C 
ATOM     43  C   UNL A   1      43.073  31.995  29.045  1.00  0.00     0.029 A 
ATOM     44  N   UNL A   1      44.492  30.426  28.317  1.00  0.00    -0.354 N 
ATOM     45  C   UNL A   1      43.161  26.359  27.657  1.00  0.00     0.074 A 
ATOM     46  C   UNL A   1      41.752  26.220  27.954  1.00  0.00     0.031 C 
ATOM     47  C   UNL A   1      44.273  32.577  28.883  1.00  0.00     0.029 A 
ATOM     48  C   UNL A   1      45.240  31.572  28.444  1.00  0.00     0.049 A 
ATOM     49  H   UNL A   1      44.862  29.576  27.986  1.00  0.00     0.167 HD
ATOM     50  C   UNL A   1      43.946  25.355  27.199  1.00  0.00     0.037 A 
ATOM     51  C   UNL A   1      46.558  31.776  28.250  1.00  0.00     0.037 A 
ATOM     52  C   UNL A   1      45.346  25.497  26.904  1.00  0.00     0.049 A 
ATOM     53  C   UNL A   1      47.424  30.632  27.790  1.00  0.00     0.074 A 
ATOM     54  C   UNL A   1      46.228  24.541  26.435  1.00  0.00     0.029 A 
ATOM     55  N   UNL A   1      46.068  26.671  27.054  1.00  0.00    -0.354 N 
ATOM     56  N   UNL A   1      47.082  29.391  27.532  1.00  0.00    -0.248 NA
ATOM     57  C   UNL A   1      48.854  30.912  27.595  1.00  0.00     0.031 C 
ATOM     58  C   UNL A   1      47.493  25.129  26.333  1.00  0.00     0.029 A 
ATOM     59  C   UNL A   1      47.389  26.462  26.698  1.00  0.00     0.049 A 
ATOM     60  H   UNL A   1      45.696  27.527  27.368  1.00  0.00     0.167 HD
ATOM     61  C   UNL A   1      48.245  28.754  27.113  1.00  0.00     0.074 A 
ATOM     62  C   UNL A   1      49.303  29.743  27.154  1.00  0.00     0.031 C 
ATOM     63  C   UNL A   1      48.421  27.466  26.724  1.00  0.00     0.037 A 
BRANCH  50  64
ATOM     64  C   UNL A   1      43.306  24.008  27.015  1.00  0.00     0.058 A 
ATOM     65  C   UNL A   1      42.932  23.539  25.746  1.00  0.00     0.135 A 
ATOM     66  C   UNL A   1      43.082  23.171  28.119  1.00  0.00     0.135 A 
ATOM     67  F   UNL A   1      43.105  24.309  24.661  1.00  0.00    -0.206 F 
ATOM     68  C   UNL A   1      42.333  22.294  25.581  1.00  0.00     0.059 A 
ATOM     69  C   UNL A   1      42.506  21.913  27.974  1.00  0.00     0.059 A 
ATOM     70  F   UNL A   1      43.418  23.576  29.354  1.00  0.00    -0.206 F 
ATOM     71  C   UNL A   1      42.121  21.489  26.703  1.00  0.00     0.060 A 
BRANCH  71  72
ATOM     72  S   UNL A   1      41.342  19.876  26.477  1.00  0.00     0.124 S 
ATOM     73  O   UNL A   1      42.131  19.325  25.381  1.00  0.00    -0.237 OA
ATOM     74  O   UNL A   1      41.540  19.246  27.779  1.00  0.00    -0.237 OA
ATOM     75  O   UNL A   1      39.959  20.210  26.151  1.00  0.00    -0.744 OA
ENDBRANCH  71  72
ENDBRANCH  50  64
BRANCH  51  76
ATOM     76  C   UNL A   1      47.145  33.119  28.500  1.00  0.00     0.058 A 
ATOM     77  C   UNL A   1      47.603  33.484  29.774  1.00  0.00     0.135 A 
ATOM     78  C   UNL A   1      47.263  34.061  27.467  1.00  0.00     0.135 A 
ATOM     79  F   UNL A   1      47.501  32.622  30.796  1.00  0.00    -0.206 F 
ATOM     80  C   UNL A   1      48.147  34.741  30.020  1.00  0.00     0.059 A 
ATOM     81  C   UNL A   1      47.824  35.316  27.682  1.00  0.00     0.059 A 
ATOM     82  F   UNL A   1      46.847  33.757  26.228  1.00  0.00    -0.206 F 
ATOM     83  C   UNL A   1      48.255  35.651  28.964  1.00  0.00     0.060 A 
BRANCH  83  84
ATOM     84  S   UNL A   1      49.011  37.261  29.278  1.00  0.00     0.124 S 
ATOM     85  O   UNL A   1      50.004  37.332  28.212  1.00  0.00    -0.237 OA
ATOM     86  O   UNL A   1      47.873  38.167  29.151  1.00  0.00    -0.237 OA
ATOM     87  O   UNL A   1      49.543  37.123  30.630  1.00  0.00    -0.744 OA
ENDBRANCH  83  84
ENDBRANCH  51  76
BRANCH  63  88
ATOM     88  C   UNL A   1      49.791  27.057  26.260  1.00  0.00     0.058 A 
ATOM     89  C   UNL A   1      50.747  26.545  27.148  1.00  0.00     0.135 A 
ATOM     90  C   UNL A   1      50.116  27.100  24.895  1.00  0.00     0.135 A 
ATOM     91  F   UNL A   1      50.488  26.488  28.464  1.00  0.00    -0.206 F 
ATOM     92  C   UNL A   1      51.986  26.095  26.699  1.00  0.00     0.059 A 
ATOM     93  C   UNL A   1      51.338  26.637  24.421  1.00  0.00     0.059 A 
ATOM     94  F   UNL A   1      49.229  27.573  24.004  1.00  0.00    -0.206 F 
ATOM     95  C   UNL A   1      52.270  26.141  25.332  1.00  0.00     0.060 A 
BRANCH  95  96
ATOM     96  S   UNL A   1      53.856  25.501  24.752  1.00  0.00     0.124 S 
ATOM     97  O   UNL A   1      53.569  24.077  24.626  1.00  0.00    -0.237 OA
ATOM     98  O   UNL A   1      54.047  26.222  23.498  1.00  0.00    -0.237 OA
ATOM     99  O   UNL A   1      54.780  25.865  25.823  1.00  0.00    -0.744 OA
ENDBRANCH  95  96
ENDBRANCH  63  88
ENDBRANCH  37  38
ENDBRANCH  30  32
ENDBRANCH  29  30
ENDBRANCH  28  29
ENDBRANCH  27  28
ENDBRANCH  26  27
ENDBRANCH   1  26
TORSDOF 21
ENDMDL
MODEL 3
REMARK VINA RESULT:     -10.0      6.256     12.109
REMARK SMILES Cc1cscc1CNC(=O)N[C@@H](C)c1nc(C(=O)OCCOCCOC(=O)c2ccc(-c3c4nc(c(-c5c(F)cc(S(=O)(=O)[O-])cc5F)c5ccc([nH]5)c(-c5c(F)cc(S(=O)(=O)[O-])cc5F)c5nc(c(-c6c(F)cc(S(=O)(=O)[O-])cc6F)c6ccc3[nH]6)C=C5)C=C4)cc2)cs1
REMARK SMILES IDX 21 1 20 2 19 3 17 4 18 5 16 6 14 7 15 8 95 9 94 10 12 11
REMARK SMILES IDX 13 12 11 13 8 14 9 15 10 17 7 19 6 20 1 21 2 22 3 23 4 24
REMARK SMILES IDX 5 25 22 26 23 27 24 28 25 29 26 30 27 31 28 32 29 33 93 34
REMARK SMILES IDX 30 35 92 36 31 37 32 38 33 39 86 40 34 41 91 42 85 43 87 44
REMARK SMILES IDX 35 45 90 46 84 47 83 48 36 50 70 51 49 52 69 53 50 54 53 55
REMARK SMILES IDX 68 56 88 57 51 58 52 59 67 61 89 62 54 63 37 64 38 65 47 66
REMARK SMILES IDX 39 67 40 68 46 69 48 70 41 71 42 72 43 73 44 74 45 75 71 76
REMARK SMILES IDX 72 77 81 78 73 79 74 80 80 81 82 82 75 83 76 84 77 85 78 86
REMARK SMILES IDX 79 87 55 88 56 89 65 90 57 91 58 92 64 93 66 94 59 95 60 96
REMARK SMILES IDX 61 97 62 98 63 99
REMARK H PARENT 8 16 11 18 87 49 53 60
REMARK Flexibility Score: inf
ROOT
ATOM      1  C   UNL A   1      32.949  30.536  27.331  1.00  0.00     0.202 C 
ENDROOT
BRANCH   1   2
ATOM      2  C   UNL A   1      32.019  30.492  26.116  1.00  0.00     0.261 C 
BRANCH   2   3
ATOM      3  O   UNL A   1      32.554  29.599  25.123  1.00  0.00    -0.458 OA
BRANCH   3   4
ATOM      4  C   UNL A   1      31.629  28.973  24.344  1.00  0.00     0.357 C 
ATOM      5  O   UNL A   1      30.586  29.486  23.947  1.00  0.00    -0.244 OA
BRANCH   4   6
ATOM      6  C   UNL A   1      32.056  27.639  23.908  1.00  0.00     0.159 A 
ATOM      7  C   UNL A   1      32.207  25.412  23.895  1.00  0.00     0.116 A 
ATOM      8  N   UNL A   1      31.679  26.443  24.531  1.00  0.00    -0.232 NA
ATOM      9  S   UNL A   1      33.270  25.823  22.599  1.00  0.00    -0.124 S 
ATOM     10  C   UNL A   1      32.931  27.473  22.849  1.00  0.00     0.102 A 
BRANCH   7  11
ATOM     11  C   UNL A   1      31.939  23.949  24.179  1.00  0.00     0.140 C 
ATOM     12  C   UNL A   1      30.490  23.580  23.863  1.00  0.00     0.039 C 
BRANCH  11  13
ATOM     13  N   UNL A   1      32.234  23.665  25.573  1.00  0.00    -0.329 N 
ATOM     14  N   UNL A   1      32.485  21.321  25.811  1.00  0.00    -0.334 N 
ATOM     15  C   UNL A   1      32.417  22.561  26.297  1.00  0.00     0.315 C 
ATOM     16  H   UNL A   1      32.594  20.654  26.528  1.00  0.00     0.165 HD
ATOM     17  O   UNL A   1      32.562  22.691  27.514  1.00  0.00    -0.249 OA
ATOM     18  H   UNL A   1      32.321  24.484  26.111  1.00  0.00     0.166 HD
BRANCH  14  19
ATOM     19  C   UNL A   1      32.439  20.703  24.506  1.00  0.00     0.154 C 
BRANCH  19  20
ATOM     20  C   UNL A   1      32.634  19.210  24.595  1.00  0.00    -0.015 A 
ATOM     21  C   UNL A   1      32.476  18.767  22.023  1.00  0.00     0.045 C 
ATOM     22  C   UNL A   1      32.644  18.326  23.442  1.00  0.00    -0.035 A 
ATOM     23  C   UNL A   1      32.823  17.006  23.814  1.00  0.00     0.068 A 
ATOM     24  S   UNL A   1      32.989  16.806  25.497  1.00  0.00    -0.152 S 
ATOM     25  C   UNL A   1      32.814  18.482  25.761  1.00  0.00     0.070 A 
ENDBRANCH  19  20
ENDBRANCH  14  19
ENDBRANCH  11  13
ENDBRANCH   7  11
ENDBRANCH   4   6
ENDBRANCH   3   4
ENDBRANCH   2   3
ENDBRANCH   1   2
BRANCH   1  26
ATOM     26  O   UNL A   1      33.440  31.849  27.620  1.00  0.00    -0.374 OA
BRANCH  26  27
ATOM     27  C   UNL A   1      34.827  31.925  27.964  1.00  0.00     0.202 C 
BRANCH  27  28
ATOM     28  C   UNL A   1      35.105  32.600  29.310  1.00  0.00     0.261 C 
BRANCH  28  29
ATOM     29  O   UNL A   1      36.478  32.399  29.692  1.00  0.00    -0.460 OA
BRANCH  29  30
ATOM     30  C   UNL A   1      36.701  31.346  30.515  1.00  0.00     0.338 C 
ATOM     31  O   UNL A   1      35.988  30.966  31.428  1.00  0.00    -0.246 OA
BRANCH  30  32
ATOM     32  C   UNL A   1      37.869  30.580  30.030  1.00  0.00     0.060 A 
ATOM     33  C   UNL A   1      38.780  30.124  30.993  1.00  0.00     0.016 A 
ATOM     34  C   UNL A   1      38.093  30.333  28.673  1.00  0.00     0.016 A 
ATOM     35  C   UNL A   1      39.947  29.472  30.599  1.00  0.00     0.010 A 
ATOM     36  C   UNL A   1      39.268  29.685  28.278  1.00  0.00     0.010 A 
ATOM     37  C   UNL A   1      40.216  29.287  29.237  1.00  0.00    -0.014 A 
BRANCH  37  38
ATOM     38  C   UNL A   1      41.567  28.850  28.811  1.00  0.00     0.031 A 
ATOM     39  C   UNL A   1      42.668  29.875  28.763  1.00  0.00     0.074 A 
ATOM     40  C   UNL A   1      41.816  27.567  28.497  1.00  0.00     0.049 A 
ATOM     41  N   UNL A   1      43.909  29.741  28.373  1.00  0.00    -0.248 NA
ATOM     42  C   UNL A   1      42.321  31.233  29.214  1.00  0.00     0.031 C 
ATOM     43  C   UNL A   1      40.842  26.478  28.547  1.00  0.00     0.029 A 
ATOM     44  N   UNL A   1      42.971  26.967  28.062  1.00  0.00    -0.354 N 
ATOM     45  C   UNL A   1      44.486  30.996  28.522  1.00  0.00     0.074 A 
ATOM     46  C   UNL A   1      43.457  31.884  29.017  1.00  0.00     0.031 C 
ATOM     47  C   UNL A   1      41.437  25.343  28.142  1.00  0.00     0.029 A 
ATOM     48  C   UNL A   1      42.824  25.630  27.777  1.00  0.00     0.049 A 
ATOM     49  H   UNL A   1      43.825  27.447  27.963  1.00  0.00     0.167 HD
ATOM     50  C   UNL A   1      45.762  31.374  28.272  1.00  0.00     0.037 A 
ATOM     51  C   UNL A   1      43.703  24.749  27.260  1.00  0.00     0.037 A 
ATOM     52  C   UNL A   1      46.783  30.489  27.780  1.00  0.00     0.049 A 
ATOM     53  C   UNL A   1      45.104  25.203  26.940  1.00  0.00     0.074 A 
ATOM     54  C   UNL A   1      48.106  30.775  27.495  1.00  0.00     0.029 A 
ATOM     55  N   UNL A   1      46.591  29.146  27.497  1.00  0.00    -0.354 N 
ATOM     56  N   UNL A   1      45.640  26.391  27.092  1.00  0.00    -0.248 NA
ATOM     57  C   UNL A   1      46.019  24.200  26.378  1.00  0.00     0.031 C 
ATOM     58  C   UNL A   1      48.707  29.609  27.007  1.00  0.00     0.029 A 
ATOM     59  C   UNL A   1      47.770  28.589  27.029  1.00  0.00     0.049 A 
ATOM     60  H   UNL A   1      45.744  28.659  27.611  1.00  0.00     0.167 HD
ATOM     61  C   UNL A   1      46.962  26.269  26.677  1.00  0.00     0.074 A 
ATOM     62  C   UNL A   1      47.146  24.893  26.265  1.00  0.00     0.031 C 
ATOM     63  C   UNL A   1      47.938  27.211  26.645  1.00  0.00     0.037 A 
BRANCH  50  64
ATOM     64  C   UNL A   1      46.113  32.816  28.504  1.00  0.00     0.058 A 
ATOM     65  C   UNL A   1      46.039  33.767  27.474  1.00  0.00     0.135 A 
ATOM     66  C   UNL A   1      46.511  33.255  29.776  1.00  0.00     0.135 A 
ATOM     67  F   UNL A   1      45.684  33.395  26.234  1.00  0.00    -0.206 F 
ATOM     68  C   UNL A   1      46.372  35.100  27.691  1.00  0.00     0.059 A 
ATOM     69  C   UNL A   1      46.827  34.587  30.022  1.00  0.00     0.059 A 
ATOM     70  F   UNL A   1      46.603  32.384  30.794  1.00  0.00    -0.206 F 
ATOM     71  C   UNL A   1      46.769  35.500  28.970  1.00  0.00     0.060 A 
BRANCH  71  72
ATOM     72  S   UNL A   1      47.199  37.233  29.240  1.00  0.00     0.124 S 
ATOM     73  O   UNL A   1      47.812  37.176  30.563  1.00  0.00    -0.237 OA
ATOM     74  O   UNL A   1      48.109  37.507  28.132  1.00  0.00    -0.237 OA
ATOM     75  O   UNL A   1      45.912  37.916  29.173  1.00  0.00    -0.744 OA
ENDBRANCH  71  72
ENDBRANCH  50  64
BRANCH  51  76
ATOM     76  C   UNL A   1      43.282  23.346  27.002  1.00  0.00     0.058 A 
ATOM     77  C   UNL A   1      43.059  22.885  25.698  1.00  0.00     0.135 A 
ATOM     78  C   UNL A   1      43.098  22.440  28.057  1.00  0.00     0.135 A 
ATOM     79  F   UNL A   1      43.210  23.718  24.656  1.00  0.00    -0.206 F 
ATOM     80  C   UNL A   1      42.658  21.576  25.446  1.00  0.00     0.059 A 
ATOM     81  C   UNL A   1      42.720  21.121  27.831  1.00  0.00     0.059 A 
ATOM     82  F   UNL A   1      43.307  22.831  29.325  1.00  0.00    -0.206 F 
ATOM     83  C   UNL A   1      42.493  20.700  26.522  1.00  0.00     0.060 A 
BRANCH  83  84
ATOM     84  S   UNL A   1      42.024  18.988  26.185  1.00  0.00     0.124 S 
ATOM     85  O   UNL A   1      40.627  19.137  25.797  1.00  0.00    -0.237 OA
ATOM     86  O   UNL A   1      42.948  18.620  25.116  1.00  0.00    -0.237 OA
ATOM     87  O   UNL A   1      42.259  18.321  27.462  1.00  0.00    -0.744 OA
ENDBRANCH  83  84
ENDBRANCH  51  76
BRANCH  63  88
ATOM     88  C   UNL A   1      49.308  26.783  26.199  1.00  0.00     0.058 A 
ATOM     89  C   UNL A   1      49.739  26.955  24.877  1.00  0.00     0.135 A 
ATOM     90  C   UNL A   1      50.226  26.274  27.132  1.00  0.00     0.135 A 
ATOM     91  F   UNL A   1      48.898  27.433  23.946  1.00  0.00    -0.206 F 
ATOM     92  C   UNL A   1      51.036  26.628  24.490  1.00  0.00     0.059 A 
ATOM     93  C   UNL A   1      51.532  25.961  26.772  1.00  0.00     0.059 A 
ATOM     94  F   UNL A   1      49.863  26.100  28.412  1.00  0.00    -0.206 F 
ATOM     95  C   UNL A   1      51.927  26.136  25.446  1.00  0.00     0.060 A 
BRANCH  95  96
ATOM     96  S   UNL A   1      53.624  25.771  24.948  1.00  0.00     0.124 S 
ATOM     97  O   UNL A   1      53.617  26.194  23.552  1.00  0.00    -0.237 OA
ATOM     98  O   UNL A   1      54.406  26.602  25.858  1.00  0.00    -0.237 OA
ATOM     99  O   UNL A   1      53.740  24.332  25.168  1.00  0.00    -0.744 OA
ENDBRANCH  95  96
ENDBRANCH  63  88
ENDBRANCH  37  38
ENDBRANCH  30  32
ENDBRANCH  29  30
ENDBRANCH  28  29
ENDBRANCH  27  28
ENDBRANCH  26  27
ENDBRANCH   1  26
TORSDOF 21
ENDMDL
