MODEL 1
REMARK VINA RESULT:     -10.5      0.000      0.000
REMARK SMILES CCOc1ccc(-c2nc(C(=O)OCCOCCOC(=O)c3ccc(-c4c5nc(c(-c6c(F)cc(S(=O)(=O)[O-])cc6F)c6ccc([nH]6)c(-c6c(F)cc(S(=O)(=O)[O-])cc6F)c6nc(c(-c7c(F)cc(S(=O)(=O)[O-])cc7F)c7ccc4[nH]7)C=C6)C=C5)cc3)cc(=O)[nH]2)cc1
REMARK SMILES IDX 16 1 15 2 14 3 13 4 11 5 12 6 10 7 8 8 9 9 91 10 89 11 88 13
REMARK SMILES IDX 90 14 7 15 4 16 5 17 93 18 6 19 92 20 3 21 2 22 1 23 17 24
REMARK SMILES IDX 18 25 19 26 20 27 21 28 22 29 23 30 87 31 24 32 86 33 25 34
REMARK SMILES IDX 26 35 27 36 80 37 28 38 85 39 79 40 81 41 29 42 84 43 78 44
REMARK SMILES IDX 77 45 30 47 64 48 43 49 63 50 44 51 47 52 62 53 82 54 45 55
REMARK SMILES IDX 46 56 61 58 83 59 48 60 31 61 32 62 41 63 33 64 34 65 40 66
REMARK SMILES IDX 42 67 35 68 36 69 37 70 38 71 39 72 65 73 66 74 75 75 67 76
REMARK SMILES IDX 68 77 74 78 76 79 69 80 70 81 71 82 72 83 73 84 49 85 50 86
REMARK SMILES IDX 59 87 51 88 52 89 58 90 60 91 53 92 54 93 55 94 56 95 57 96
REMARK H PARENT 91 12 81 46 47 57
REMARK Flexibility Score: inf
ROOT
ATOM      1  O   UNL A   1      35.040  34.348  32.400  1.00  0.00    -0.374 OA
ENDROOT
BRANCH   1   2
ATOM      2  C   UNL A   1      33.946  35.184  32.781  1.00  0.00     0.202 C 
BRANCH   2   3
ATOM      3  C   UNL A   1      33.197  35.871  31.635  1.00  0.00     0.261 C 
BRANCH   3   4
ATOM      4  O   UNL A   1      32.814  34.914  30.632  1.00  0.00    -0.459 OA
BRANCH   4   5
ATOM      5  C   UNL A   1      33.236  35.198  29.371  1.00  0.00     0.357 C 
ATOM      6  O   UNL A   1      32.994  36.223  28.747  1.00  0.00    -0.244 OA
BRANCH   5   7
ATOM      7  C   UNL A   1      34.194  34.147  28.890  1.00  0.00     0.156 A 
ATOM      8  C   UNL A   1      34.435  32.061  27.997  1.00  0.00     0.141 A 
ATOM      9  N   UNL A   1      33.635  33.001  28.368  1.00  0.00    -0.223 NA
ATOM     10  N   UNL A   1      35.796  32.161  28.076  1.00  0.00    -0.306 N 
ATOM     11  C   UNL A   1      36.408  33.292  28.528  1.00  0.00     0.251 A 
ATOM     12  H   UNL A   1      36.350  31.395  27.799  1.00  0.00     0.171 HD
ATOM     13  C   UNL A   1      35.512  34.366  28.982  1.00  0.00     0.107 A 
ATOM     14  O   UNL A   1      37.626  33.417  28.550  1.00  0.00    -0.269 OA
BRANCH   8  15
ATOM     15  C   UNL A   1      33.892  30.816  27.432  1.00  0.00     0.018 A 
ATOM     16  C   UNL A   1      32.999  28.524  26.148  1.00  0.00     0.119 A 
ATOM     17  C   UNL A   1      32.158  29.634  26.248  1.00  0.00     0.047 A 
ATOM     18  C   UNL A   1      34.291  28.562  26.673  1.00  0.00     0.047 A 
ATOM     19  C   UNL A   1      32.600  30.786  26.903  1.00  0.00     0.016 A 
ATOM     20  C   UNL A   1      34.740  29.711  27.321  1.00  0.00     0.016 A 
BRANCH  16  21
ATOM     21  O   UNL A   1      32.585  27.464  25.391  1.00  0.00    -0.494 OA
BRANCH  21  22
ATOM     22  C   UNL A   1      32.514  26.240  26.131  1.00  0.00     0.226 C 
ATOM     23  C   UNL A   1      31.089  25.716  26.200  1.00  0.00     0.049 C 
ENDBRANCH  21  22
ENDBRANCH  16  21
ENDBRANCH   8  15
ENDBRANCH   5   7
ENDBRANCH   4   5
ENDBRANCH   3   4
ENDBRANCH   2   3
ENDBRANCH   1   2
BRANCH   1  24
ATOM     24  C   UNL A   1      34.993  32.984  32.820  1.00  0.00     0.202 C 
BRANCH  24  25
ATOM     25  C   UNL A   1      35.320  31.933  31.751  1.00  0.00     0.261 C 
BRANCH  25  26
ATOM     26  O   UNL A   1      36.646  31.395  31.907  1.00  0.00    -0.460 OA
BRANCH  26  27
ATOM     27  C   UNL A   1      36.874  30.242  31.234  1.00  0.00     0.338 C 
ATOM     28  O   UNL A   1      36.049  29.389  30.932  1.00  0.00    -0.246 OA
BRANCH  27  29
ATOM     29  C   UNL A   1      38.260  30.213  30.730  1.00  0.00     0.060 A 
ATOM     30  C   UNL A   1      38.446  30.195  29.342  1.00  0.00     0.016 A 
ATOM     31  C   UNL A   1      39.358  30.138  31.591  1.00  0.00     0.016 A 
ATOM     32  C   UNL A   1      39.725  30.055  28.809  1.00  0.00     0.010 A 
ATOM     33  C   UNL A   1      40.642  29.988  31.053  1.00  0.00     0.010 A 
ATOM     34  C   UNL A   1      40.828  29.913  29.661  1.00  0.00    -0.014 A 
BRANCH  34  35
ATOM     35  C   UNL A   1      42.152  29.548  29.095  1.00  0.00     0.031 A 
ATOM     36  C   UNL A   1      42.384  28.132  28.639  1.00  0.00     0.074 A 
ATOM     37  C   UNL A   1      43.120  30.472  28.956  1.00  0.00     0.049 A 
ATOM     38  N   UNL A   1      43.471  27.583  28.162  1.00  0.00    -0.248 NA
ATOM     39  C   UNL A   1      41.236  27.214  28.732  1.00  0.00     0.031 C 
ATOM     40  C   UNL A   1      43.002  31.883  29.321  1.00  0.00     0.029 A 
ATOM     41  N   UNL A   1      44.400  30.357  28.475  1.00  0.00    -0.354 N 
ATOM     42  C   UNL A   1      43.138  26.260  27.889  1.00  0.00     0.074 A 
ATOM     43  C   UNL A   1      41.760  26.079  28.292  1.00  0.00     0.031 C 
ATOM     44  C   UNL A   1      44.168  32.500  29.065  1.00  0.00     0.029 A 
ATOM     45  C   UNL A   1      45.124  31.523  28.547  1.00  0.00     0.049 A 
ATOM     46  H   UNL A   1      44.766  29.518  28.112  1.00  0.00     0.167 HD
ATOM     47  C   UNL A   1      43.905  25.291  27.337  1.00  0.00     0.037 A 
ATOM     48  C   UNL A   1      46.417  31.767  28.251  1.00  0.00     0.037 A 
ATOM     49  C   UNL A   1      45.279  25.472  26.945  1.00  0.00     0.049 A 
ATOM     50  C   UNL A   1      47.276  30.647  27.717  1.00  0.00     0.074 A 
ATOM     51  C   UNL A   1      46.149  24.543  26.400  1.00  0.00     0.029 A 
ATOM     52  N   UNL A   1      45.983  26.662  27.054  1.00  0.00    -0.354 N 
ATOM     53  N   UNL A   1      46.947  29.402  27.466  1.00  0.00    -0.248 NA
ATOM     54  C   UNL A   1      48.681  30.967  27.424  1.00  0.00     0.031 C 
ATOM     55  C   UNL A   1      47.388  25.163  26.210  1.00  0.00     0.029 A 
ATOM     56  C   UNL A   1      47.278  26.489  26.595  1.00  0.00     0.049 A 
ATOM     57  H   UNL A   1      45.616  27.505  27.405  1.00  0.00     0.167 HD
ATOM     58  C   UNL A   1      48.094  28.801  26.956  1.00  0.00     0.074 A 
ATOM     59  C   UNL A   1      49.122  29.822  26.924  1.00  0.00     0.031 C 
ATOM     60  C   UNL A   1      48.282  27.521  26.550  1.00  0.00     0.037 A 
BRANCH  47  61
ATOM     61  C   UNL A   1      43.279  23.941  27.126  1.00  0.00     0.058 A 
ATOM     62  C   UNL A   1      42.790  23.552  25.869  1.00  0.00     0.135 A 
ATOM     63  C   UNL A   1      43.210  23.009  28.173  1.00  0.00     0.135 A 
ATOM     64  F   UNL A   1      42.813  24.411  24.838  1.00  0.00    -0.206 F 
ATOM     65  C   UNL A   1      42.242  22.289  25.661  1.00  0.00     0.059 A 
ATOM     66  C   UNL A   1      42.688  21.733  27.982  1.00  0.00     0.059 A 
ATOM     67  F   UNL A   1      43.660  23.332  29.396  1.00  0.00    -0.206 F 
ATOM     68  C   UNL A   1      42.198  21.386  26.724  1.00  0.00     0.060 A 
BRANCH  68  69
ATOM     69  S   UNL A   1      41.503  19.745  26.431  1.00  0.00     0.124 S 
ATOM     70  O   UNL A   1      41.772  19.083  27.704  1.00  0.00    -0.237 OA
ATOM     71  O   UNL A   1      40.101  20.046  26.157  1.00  0.00    -0.237 OA
ATOM     72  O   UNL A   1      42.268  19.249  25.292  1.00  0.00    -0.744 OA
ENDBRANCH  68  69
ENDBRANCH  47  61
BRANCH  48  73
ATOM     73  C   UNL A   1      46.999  33.118  28.475  1.00  0.00     0.058 A 
ATOM     74  C   UNL A   1      47.529  33.486  29.720  1.00  0.00     0.135 A 
ATOM     75  C   UNL A   1      46.996  34.084  27.455  1.00  0.00     0.135 A 
ATOM     76  F   UNL A   1      47.547  32.601  30.728  1.00  0.00    -0.206 F 
ATOM     77  C   UNL A   1      48.003  34.772  29.960  1.00  0.00     0.059 A 
ATOM     78  C   UNL A   1      47.490  35.368  27.662  1.00  0.00     0.059 A 
ATOM     79  F   UNL A   1      46.513  33.780  26.241  1.00  0.00    -0.206 F 
ATOM     80  C   UNL A   1      47.973  35.708  28.925  1.00  0.00     0.060 A 
BRANCH  80  81
ATOM     81  S   UNL A   1      48.594  37.374  29.241  1.00  0.00     0.124 S 
ATOM     82  O   UNL A   1      47.353  38.121  29.414  1.00  0.00    -0.237 OA
ATOM     83  O   UNL A   1      49.398  37.181  30.444  1.00  0.00    -0.237 OA
ATOM     84  O   UNL A   1      49.354  37.682  28.032  1.00  0.00    -0.744 OA
ENDBRANCH  80  81
ENDBRANCH  48  73
BRANCH  60  85
ATOM     85  C   UNL A   1      49.631  27.160  25.990  1.00  0.00     0.058 A 
ATOM     86  C   UNL A   1      50.645  26.620  26.793  1.00  0.00     0.135 A 
ATOM     87  C   UNL A   1      49.891  27.310  24.617  1.00  0.00     0.135 A 
ATOM     88  F   UNL A   1      50.450  26.461  28.113  1.00  0.00    -0.206 F 
ATOM     89  C   UNL A   1      51.881  26.262  26.262  1.00  0.00     0.059 A 
ATOM     90  C   UNL A   1      51.109  26.934  24.060  1.00  0.00     0.059 A 
ATOM     91  F   UNL A   1      48.950  27.811  23.801  1.00  0.00    -0.206 F 
ATOM     92  C   UNL A   1      52.103  26.422  24.892  1.00  0.00     0.060 A 
BRANCH  92  93
ATOM     93  S   UNL A   1      53.698  25.924  24.209  1.00  0.00     0.124 S 
ATOM     94  O   UNL A   1      54.584  26.945  24.756  1.00  0.00    -0.237 OA
ATOM     95  O   UNL A   1      53.866  24.579  24.754  1.00  0.00    -0.237 OA
ATOM     96  O   UNL A   1      53.483  25.985  22.766  1.00  0.00    -0.744 OA
ENDBRANCH  92  93
ENDBRANCH  60  85
ENDBRANCH  34  35
ENDBRANCH  27  29
ENDBRANCH  26  27
ENDBRANCH  25  26
ENDBRANCH  24  25
ENDBRANCH   1  24
TORSDOF 20
ENDMDL
MODEL 2
REMARK VINA RESULT:     -10.3      6.531     12.439
REMARK SMILES CCOc1ccc(-c2nc(C(=O)OCCOCCOC(=O)c3ccc(-c4c5nc(c(-c6c(F)cc(S(=O)(=O)[O-])cc6F)c6ccc([nH]6)c(-c6c(F)cc(S(=O)(=O)[O-])cc6F)c6nc(c(-c7c(F)cc(S(=O)(=O)[O-])cc7F)c7ccc4[nH]7)C=C6)C=C5)cc3)cc(=O)[nH]2)cc1
REMARK SMILES IDX 16 1 15 2 14 3 13 4 11 5 12 6 10 7 8 8 9 9 91 10 89 11 88 13
REMARK SMILES IDX 90 14 7 15 4 16 5 17 93 18 6 19 92 20 3 21 2 22 1 23 17 24
REMARK SMILES IDX 18 25 19 26 20 27 21 28 22 29 23 30 87 31 24 32 86 33 25 34
REMARK SMILES IDX 26 35 27 36 80 37 28 38 85 39 79 40 81 41 29 42 84 43 78 44
REMARK SMILES IDX 77 45 30 47 64 48 43 49 63 50 44 51 47 52 62 53 82 54 45 55
REMARK SMILES IDX 46 56 61 58 83 59 48 60 31 61 32 62 41 63 33 64 34 65 40 66
REMARK SMILES IDX 42 67 35 68 36 69 37 70 38 71 39 72 65 73 66 74 75 75 67 76
REMARK SMILES IDX 68 77 74 78 76 79 69 80 70 81 71 82 72 83 73 84 49 85 50 86
REMARK SMILES IDX 59 87 51 88 52 89 58 90 60 91 53 92 54 93 55 94 56 95 57 96
REMARK H PARENT 91 12 81 46 47 57
REMARK Flexibility Score: inf
ROOT
ATOM      1  O   UNL A   1      38.512  21.866  26.134  1.00  0.00    -0.374 OA
ENDROOT
BRANCH   1   2
ATOM      2  C   UNL A   1      37.496  22.345  25.250  1.00  0.00     0.202 C 
BRANCH   2   3
ATOM      3  C   UNL A   1      36.064  22.301  25.791  1.00  0.00     0.261 C 
BRANCH   3   4
ATOM      4  O   UNL A   1      35.142  22.856  24.836  1.00  0.00    -0.459 OA
BRANCH   4   5
ATOM      5  C   UNL A   1      33.915  22.273  24.812  1.00  0.00     0.357 C 
ATOM      6  O   UNL A   1      33.657  21.161  24.370  1.00  0.00    -0.244 OA
BRANCH   5   7
ATOM      7  C   UNL A   1      32.921  23.113  25.562  1.00  0.00     0.156 A 
ATOM      8  C   UNL A   1      32.322  25.214  26.221  1.00  0.00     0.141 A 
ATOM      9  N   UNL A   1      33.131  24.475  25.541  1.00  0.00    -0.223 NA
ATOM     10  N   UNL A   1      31.267  24.714  26.931  1.00  0.00    -0.306 N 
ATOM     11  C   UNL A   1      30.974  23.383  26.940  1.00  0.00     0.251 A 
ATOM     12  H   UNL A   1      30.703  25.332  27.450  1.00  0.00     0.171 HD
ATOM     13  C   UNL A   1      31.901  22.519  26.194  1.00  0.00     0.107 A 
ATOM     14  O   UNL A   1      29.999  22.928  27.525  1.00  0.00    -0.269 OA
BRANCH   8  15
ATOM     15  C   UNL A   1      32.500  26.674  26.234  1.00  0.00     0.018 A 
ATOM     16  C   UNL A   1      33.005  29.394  26.456  1.00  0.00     0.119 A 
ATOM     17  C   UNL A   1      31.837  28.859  27.004  1.00  0.00     0.047 A 
ATOM     18  C   UNL A   1      33.930  28.571  25.813  1.00  0.00     0.047 A 
ATOM     19  C   UNL A   1      31.575  27.492  26.884  1.00  0.00     0.016 A 
ATOM     20  C   UNL A   1      33.677  27.205  25.697  1.00  0.00     0.016 A 
BRANCH  16  21
ATOM     21  O   UNL A   1      33.294  30.707  26.702  1.00  0.00    -0.494 OA
BRANCH  21  22
ATOM     22  C   UNL A   1      34.106  30.894  27.866  1.00  0.00     0.226 C 
ATOM     23  C   UNL A   1      35.537  30.446  27.622  1.00  0.00     0.049 C 
ENDBRANCH  21  22
ENDBRANCH  16  21
ENDBRANCH   8  15
ENDBRANCH   5   7
ENDBRANCH   4   5
ENDBRANCH   3   4
ENDBRANCH   2   3
ENDBRANCH   1   2
BRANCH   1  24
ATOM     24  C   UNL A   1      39.422  22.832  26.663  1.00  0.00     0.202 C 
BRANCH  24  25
ATOM     25  C   UNL A   1      40.847  22.802  26.097  1.00  0.00     0.261 C 
BRANCH  25  26
ATOM     26  O   UNL A   1      41.720  23.723  26.776  1.00  0.00    -0.460 OA
BRANCH  26  27
ATOM     27  C   UNL A   1      41.544  25.024  26.443  1.00  0.00     0.338 C 
ATOM     28  O   UNL A   1      41.282  25.472  25.333  1.00  0.00    -0.246 OA
BRANCH  27  29
ATOM     29  C   UNL A   1      41.529  25.862  27.656  1.00  0.00     0.060 A 
ATOM     30  C   UNL A   1      40.398  25.791  28.480  1.00  0.00     0.016 A 
ATOM     31  C   UNL A   1      42.566  26.749  27.954  1.00  0.00     0.016 A 
ATOM     32  C   UNL A   1      40.278  26.640  29.578  1.00  0.00     0.010 A 
ATOM     33  C   UNL A   1      42.439  27.608  29.052  1.00  0.00     0.010 A 
ATOM     34  C   UNL A   1      41.281  27.580  29.850  1.00  0.00    -0.014 A 
BRANCH  34  35
ATOM     35  C   UNL A   1      41.051  28.622  30.883  1.00  0.00     0.031 A 
ATOM     36  C   UNL A   1      41.902  28.618  32.125  1.00  0.00     0.074 A 
ATOM     37  C   UNL A   1      40.123  29.579  30.702  1.00  0.00     0.049 A 
ATOM     38  N   UNL A   1      41.844  29.399  33.173  1.00  0.00    -0.248 NA
ATOM     39  C   UNL A   1      42.963  27.598  32.193  1.00  0.00     0.031 C 
ATOM     40  C   UNL A   1      39.266  29.713  29.524  1.00  0.00     0.029 A 
ATOM     41  N   UNL A   1      39.741  30.617  31.514  1.00  0.00    -0.354 N 
ATOM     42  C   UNL A   1      42.861  28.973  34.019  1.00  0.00     0.074 A 
ATOM     43  C   UNL A   1      43.496  27.840  33.382  1.00  0.00     0.031 C 
ATOM     44  C   UNL A   1      38.447  30.765  29.697  1.00  0.00     0.029 A 
ATOM     45  C   UNL A   1      38.701  31.360  31.008  1.00  0.00     0.049 A 
ATOM     46  H   UNL A   1      40.172  30.812  32.378  1.00  0.00     0.167 HD
ATOM     47  C   UNL A   1      43.243  29.490  35.211  1.00  0.00     0.037 A 
ATOM     48  C   UNL A   1      38.016  32.386  31.553  1.00  0.00     0.037 A 
ATOM     49  C   UNL A   1      42.604  30.613  35.847  1.00  0.00     0.049 A 
ATOM     50  C   UNL A   1      38.406  32.889  32.921  1.00  0.00     0.074 A 
ATOM     51  C   UNL A   1      42.902  31.196  37.067  1.00  0.00     0.029 A 
ATOM     52  N   UNL A   1      41.540  31.325  35.314  1.00  0.00    -0.354 N 
ATOM     53  N   UNL A   1      39.370  32.476  33.710  1.00  0.00    -0.248 NA
ATOM     54  C   UNL A   1      37.617  34.002  33.471  1.00  0.00     0.031 C 
ATOM     55  C   UNL A   1      41.996  32.239  37.286  1.00  0.00     0.029 A 
ATOM     56  C   UNL A   1      41.164  32.335  36.183  1.00  0.00     0.049 A 
ATOM     57  H   UNL A   1      41.116  31.140  34.446  1.00  0.00     0.167 HD
ATOM     58  C   UNL A   1      39.322  33.298  34.832  1.00  0.00     0.074 A 
ATOM     59  C   UNL A   1      38.243  34.239  34.616  1.00  0.00     0.031 C 
ATOM     60  C   UNL A   1      40.101  33.277  35.942  1.00  0.00     0.037 A 
BRANCH  47  61
ATOM     61  C   UNL A   1      44.407  28.845  35.911  1.00  0.00     0.058 A 
ATOM     62  C   UNL A   1      44.221  27.773  36.797  1.00  0.00     0.135 A 
ATOM     63  C   UNL A   1      45.721  29.267  35.659  1.00  0.00     0.135 A 
ATOM     64  F   UNL A   1      42.983  27.342  37.089  1.00  0.00    -0.206 F 
ATOM     65  C   UNL A   1      45.298  27.149  37.419  1.00  0.00     0.059 A 
ATOM     66  C   UNL A   1      46.815  28.643  36.252  1.00  0.00     0.059 A 
ATOM     67  F   UNL A   1      45.954  30.291  34.823  1.00  0.00    -0.206 F 
ATOM     68  C   UNL A   1      46.592  27.590  37.138  1.00  0.00     0.060 A 
BRANCH  68  69
ATOM     69  S   UNL A   1      47.980  26.757  37.939  1.00  0.00     0.124 S 
ATOM     70  O   UNL A   1      47.839  27.215  39.317  1.00  0.00    -0.237 OA
ATOM     71  O   UNL A   1      47.674  25.349  37.705  1.00  0.00    -0.237 OA
ATOM     72  O   UNL A   1      49.143  27.269  37.223  1.00  0.00    -0.744 OA
ENDBRANCH  68  69
ENDBRANCH  47  61
BRANCH  48  73
ATOM     73  C   UNL A   1      36.870  32.998  30.827  1.00  0.00     0.058 A 
ATOM     74  C   UNL A   1      37.073  33.928  29.797  1.00  0.00     0.135 A 
ATOM     75  C   UNL A   1      35.546  32.694  31.182  1.00  0.00     0.135 A 
ATOM     76  F   UNL A   1      38.320  34.257  29.427  1.00  0.00    -0.206 F 
ATOM     77  C   UNL A   1      36.007  34.563  29.168  1.00  0.00     0.059 A 
ATOM     78  C   UNL A   1      34.463  33.295  30.548  1.00  0.00     0.059 A 
ATOM     79  F   UNL A   1      35.296  31.802  32.152  1.00  0.00    -0.206 F 
ATOM     80  C   UNL A   1      34.704  34.244  29.555  1.00  0.00     0.060 A 
BRANCH  80  81
ATOM     81  S   UNL A   1      33.325  35.068  28.731  1.00  0.00     0.124 S 
ATOM     82  O   UNL A   1      34.018  36.082  27.945  1.00  0.00    -0.237 OA
ATOM     83  O   UNL A   1      32.719  33.976  27.977  1.00  0.00    -0.237 OA
ATOM     84  O   UNL A   1      32.523  35.569  29.844  1.00  0.00    -0.744 OA
ENDBRANCH  80  81
ENDBRANCH  48  73
BRANCH  60  85
ATOM     85  C   UNL A   1      39.850  34.330  36.987  1.00  0.00     0.058 A 
ATOM     86  C   UNL A   1      39.064  34.076  38.120  1.00  0.00     0.135 A 
ATOM     87  C   UNL A   1      40.451  35.595  36.876  1.00  0.00     0.135 A 
ATOM     88  F   UNL A   1      38.463  32.884  38.272  1.00  0.00    -0.206 F 
ATOM     89  C   UNL A   1      38.860  35.047  39.096  1.00  0.00     0.059 A 
ATOM     90  C   UNL A   1      40.283  36.572  37.852  1.00  0.00     0.059 A 
ATOM     91  F   UNL A   1      41.223  35.887  35.817  1.00  0.00    -0.206 F 
ATOM     92  C   UNL A   1      39.475  36.293  38.954  1.00  0.00     0.060 A 
BRANCH  92  93
ATOM     93  S   UNL A   1      39.230  37.532  40.243  1.00  0.00     0.124 S 
ATOM     94  O   UNL A   1      38.236  38.404  39.628  1.00  0.00    -0.237 OA
ATOM     95  O   UNL A   1      38.760  36.728  41.367  1.00  0.00    -0.237 OA
ATOM     96  O   UNL A   1      40.559  38.114  40.411  1.00  0.00    -0.744 OA
ENDBRANCH  92  93
ENDBRANCH  60  85
ENDBRANCH  34  35
ENDBRANCH  27  29
ENDBRANCH  26  27
ENDBRANCH  25  26
ENDBRANCH  24  25
ENDBRANCH   1  24
TORSDOF 20
ENDMDL
MODEL 3
REMARK VINA RESULT:     -10.1      6.855     12.417
REMARK SMILES CCOc1ccc(-c2nc(C(=O)OCCOCCOC(=O)c3ccc(-c4c5nc(c(-c6c(F)cc(S(=O)(=O)[O-])cc6F)c6ccc([nH]6)c(-c6c(F)cc(S(=O)(=O)[O-])cc6F)c6nc(c(-c7c(F)cc(S(=O)(=O)[O-])cc7F)c7ccc4[nH]7)C=C6)C=C5)cc3)cc(=O)[nH]2)cc1
REMARK SMILES IDX 16 1 15 2 14 3 13 4 11 5 12 6 10 7 8 8 9 9 91 10 89 11 88 13
REMARK SMILES IDX 90 14 7 15 4 16 5 17 93 18 6 19 92 20 3 21 2 22 1 23 17 24
REMARK SMILES IDX 18 25 19 26 20 27 21 28 22 29 23 30 87 31 24 32 86 33 25 34
REMARK SMILES IDX 26 35 27 36 80 37 28 38 85 39 79 40 81 41 29 42 84 43 78 44
REMARK SMILES IDX 77 45 30 47 64 48 43 49 63 50 44 51 47 52 62 53 82 54 45 55
REMARK SMILES IDX 46 56 61 58 83 59 48 60 31 61 32 62 41 63 33 64 34 65 40 66
REMARK SMILES IDX 42 67 35 68 36 69 37 70 38 71 39 72 65 73 66 74 75 75 67 76
REMARK SMILES IDX 68 77 74 78 76 79 69 80 70 81 71 82 72 83 73 84 49 85 50 86
REMARK SMILES IDX 59 87 51 88 52 89 58 90 60 91 53 92 54 93 55 94 56 95 57 96
REMARK H PARENT 91 12 81 46 47 57
REMARK Flexibility Score: inf
ROOT
ATOM      1  O   UNL A   1      37.427  21.917  24.873  1.00  0.00    -0.374 OA
ENDROOT
BRANCH   1   2
ATOM      2  C   UNL A   1      36.297  21.078  25.124  1.00  0.00     0.202 C 
BRANCH   2   3
ATOM      3  C   UNL A   1      35.097  21.756  25.791  1.00  0.00     0.261 C 
BRANCH   3   4
ATOM      4  O   UNL A   1      34.267  22.402  24.810  1.00  0.00    -0.459 OA
BRANCH   4   5
ATOM      5  C   UNL A   1      34.095  23.738  24.989  1.00  0.00     0.357 C 
ATOM      6  O   UNL A   1      34.927  24.606  24.759  1.00  0.00    -0.244 OA
BRANCH   5   7
ATOM      7  C   UNL A   1      32.671  24.038  25.358  1.00  0.00     0.156 A 
ATOM      8  C   UNL A   1      30.848  25.360  24.984  1.00  0.00     0.141 A 
ATOM      9  N   UNL A   1      32.054  25.047  24.651  1.00  0.00    -0.223 NA
ATOM     10  N   UNL A   1      30.157  24.725  25.978  1.00  0.00    -0.306 N 
ATOM     11  C   UNL A   1      30.693  23.680  26.670  1.00  0.00     0.251 A 
ATOM     12  H   UNL A   1      29.248  25.030  26.199  1.00  0.00     0.171 HD
ATOM     13  C   UNL A   1      32.077  23.326  26.325  1.00  0.00     0.107 A 
ATOM     14  O   UNL A   1      30.065  23.066  27.523  1.00  0.00    -0.269 OA
BRANCH   8  15
ATOM     15  C   UNL A   1      30.143  26.430  24.263  1.00  0.00     0.018 A 
ATOM     16  C   UNL A   1      28.801  28.579  23.130  1.00  0.00     0.119 A 
ATOM     17  C   UNL A   1      28.101  27.413  23.446  1.00  0.00     0.047 A 
ATOM     18  C   UNL A   1      30.167  28.681  23.395  1.00  0.00     0.047 A 
ATOM     19  C   UNL A   1      28.775  26.325  24.006  1.00  0.00     0.016 A 
ATOM     20  C   UNL A   1      30.844  27.602  23.961  1.00  0.00     0.016 A 
BRANCH  16  21
ATOM     21  O   UNL A   1      28.091  29.667  22.705  1.00  0.00    -0.494 OA
BRANCH  21  22
ATOM     22  C   UNL A   1      28.665  30.296  21.554  1.00  0.00     0.226 C 
ATOM     23  C   UNL A   1      28.359  31.784  21.525  1.00  0.00     0.049 C 
ENDBRANCH  21  22
ENDBRANCH  16  21
ENDBRANCH   8  15
ENDBRANCH   5   7
ENDBRANCH   4   5
ENDBRANCH   3   4
ENDBRANCH   2   3
ENDBRANCH   1   2
BRANCH   1  24
ATOM     24  C   UNL A   1      37.804  22.826  25.908  1.00  0.00     0.202 C 
BRANCH  24  25
ATOM     25  C   UNL A   1      39.255  22.733  26.398  1.00  0.00     0.261 C 
BRANCH  25  26
ATOM     26  O   UNL A   1      39.938  23.997  26.319  1.00  0.00    -0.460 OA
BRANCH  26  27
ATOM     27  C   UNL A   1      40.926  24.167  27.229  1.00  0.00     0.338 C 
ATOM     28  O   UNL A   1      41.969  23.531  27.312  1.00  0.00    -0.246 OA
BRANCH  27  29
ATOM     29  C   UNL A   1      40.671  25.374  28.037  1.00  0.00     0.060 A 
ATOM     30  C   UNL A   1      41.731  26.272  28.215  1.00  0.00     0.016 A 
ATOM     31  C   UNL A   1      39.443  25.597  28.666  1.00  0.00     0.016 A 
ATOM     32  C   UNL A   1      41.584  27.371  29.059  1.00  0.00     0.010 A 
ATOM     33  C   UNL A   1      39.300  26.696  29.520  1.00  0.00     0.010 A 
ATOM     34  C   UNL A   1      40.379  27.570  29.746  1.00  0.00    -0.014 A 
BRANCH  34  35
ATOM     35  C   UNL A   1      40.300  28.610  30.803  1.00  0.00     0.031 A 
ATOM     36  C   UNL A   1      41.201  28.500  32.004  1.00  0.00     0.074 A 
ATOM     37  C   UNL A   1      39.464  29.657  30.678  1.00  0.00     0.049 A 
ATOM     38  N   UNL A   1      41.267  29.263  33.064  1.00  0.00    -0.248 NA
ATOM     39  C   UNL A   1      42.158  27.380  32.008  1.00  0.00     0.031 C 
ATOM     40  C   UNL A   1      38.572  29.897  29.544  1.00  0.00     0.029 A 
ATOM     41  N   UNL A   1      39.223  30.713  31.522  1.00  0.00    -0.354 N 
ATOM     42  C   UNL A   1      42.275  28.724  33.856  1.00  0.00     0.074 A 
ATOM     43  C   UNL A   1      42.765  27.546  33.174  1.00  0.00     0.031 C 
ATOM     44  C   UNL A   1      37.870  31.021  29.770  1.00  0.00     0.029 A 
ATOM     45  C   UNL A   1      38.239  31.563  31.076  1.00  0.00     0.049 A 
ATOM     46  H   UNL A   1      39.709  30.848  32.368  1.00  0.00     0.167 HD
ATOM     47  C   UNL A   1      42.759  29.179  35.036  1.00  0.00     0.037 A 
ATOM     48  C   UNL A   1      37.685  32.641  31.666  1.00  0.00     0.037 A 
ATOM     49  C   UNL A   1      42.264  30.347  35.717  1.00  0.00     0.049 A 
ATOM     50  C   UNL A   1      38.184  33.078  33.022  1.00  0.00     0.074 A 
ATOM     51  C   UNL A   1      42.672  30.876  36.930  1.00  0.00     0.029 A 
ATOM     52  N   UNL A   1      41.252  31.169  35.244  1.00  0.00    -0.354 N 
ATOM     53  N   UNL A   1      39.136  32.558  33.759  1.00  0.00    -0.248 NA
ATOM     54  C   UNL A   1      37.534  34.252  33.624  1.00  0.00     0.031 C 
ATOM     55  C   UNL A   1      41.885  31.998  37.205  1.00  0.00     0.029 A 
ATOM     56  C   UNL A   1      41.017  32.195  36.143  1.00  0.00     0.049 A 
ATOM     57  H   UNL A   1      40.773  31.043  34.394  1.00  0.00     0.167 HD
ATOM     58  C   UNL A   1      39.221  33.359  34.894  1.00  0.00     0.074 A 
ATOM     59  C   UNL A   1      38.231  34.406  34.741  1.00  0.00     0.031 C 
ATOM     60  C   UNL A   1      40.043  33.241  35.966  1.00  0.00     0.037 A 
BRANCH  47  61
ATOM     61  C   UNL A   1      43.883  28.410  35.672  1.00  0.00     0.058 A 
ATOM     62  C   UNL A   1      45.224  28.700  35.378  1.00  0.00     0.135 A 
ATOM     63  C   UNL A   1      43.622  27.408  36.620  1.00  0.00     0.135 A 
ATOM     64  F   UNL A   1      45.530  29.635  34.464  1.00  0.00    -0.206 F 
ATOM     65  C   UNL A   1      46.269  28.015  35.992  1.00  0.00     0.059 A 
ATOM     66  C   UNL A   1      44.651  26.726  37.264  1.00  0.00     0.059 A 
ATOM     67  F   UNL A   1      42.357  27.088  36.935  1.00  0.00    -0.206 F 
ATOM     68  C   UNL A   1      45.971  27.031  36.936  1.00  0.00     0.060 A 
BRANCH  68  69
ATOM     69  S   UNL A   1      47.338  26.166  37.738  1.00  0.00     0.124 S 
ATOM     70  O   UNL A   1      48.469  27.019  37.387  1.00  0.00    -0.237 OA
ATOM     71  O   UNL A   1      46.940  26.188  39.142  1.00  0.00    -0.237 OA
ATOM     72  O   UNL A   1      47.326  24.851  37.106  1.00  0.00    -0.744 OA
ENDBRANCH  68  69
ENDBRANCH  47  61
BRANCH  48  73
ATOM     73  C   UNL A   1      36.573  33.375  31.003  1.00  0.00     0.058 A 
ATOM     74  C   UNL A   1      35.242  33.207  31.412  1.00  0.00     0.135 A 
ATOM     75  C   UNL A   1      36.819  34.228  29.915  1.00  0.00     0.135 A 
ATOM     76  F   UNL A   1      34.955  32.395  32.442  1.00  0.00    -0.206 F 
ATOM     77  C   UNL A   1      34.190  33.828  30.746  1.00  0.00     0.059 A 
ATOM     78  C   UNL A   1      35.787  34.883  29.251  1.00  0.00     0.059 A 
ATOM     79  F   UNL A   1      38.075  34.435  29.492  1.00  0.00    -0.206 F 
ATOM     80  C   UNL A   1      34.474  34.661  29.662  1.00  0.00     0.060 A 
BRANCH  80  81
ATOM     81  S   UNL A   1      33.104  35.468  28.805  1.00  0.00     0.124 S 
ATOM     82  O   UNL A   1      33.812  36.421  27.958  1.00  0.00    -0.237 OA
ATOM     83  O   UNL A   1      32.467  34.350  28.118  1.00  0.00    -0.237 OA
ATOM     84  O   UNL A   1      32.325  36.049  29.895  1.00  0.00    -0.744 OA
ENDBRANCH  80  81
ENDBRANCH  48  73
BRANCH  60  85
ATOM     85  C   UNL A   1      39.944  34.294  37.036  1.00  0.00     0.058 A 
ATOM     86  C   UNL A   1      40.641  35.508  36.946  1.00  0.00     0.135 A 
ATOM     87  C   UNL A   1      39.098  34.104  38.141  1.00  0.00     0.135 A 
ATOM     88  F   UNL A   1      41.468  35.738  35.913  1.00  0.00    -0.206 F 
ATOM     89  C   UNL A   1      40.523  36.488  37.927  1.00  0.00     0.059 A 
ATOM     90  C   UNL A   1      38.943  35.082  39.120  1.00  0.00     0.059 A 
ATOM     91  F   UNL A   1      38.398  32.965  38.270  1.00  0.00    -0.206 F 
ATOM     92  C   UNL A   1      39.670  36.266  39.010  1.00  0.00     0.060 A 
BRANCH  92  93
ATOM     93  S   UNL A   1      39.499  37.559  40.258  1.00  0.00     0.124 S 
ATOM     94  O   UNL A   1      40.876  38.019  40.396  1.00  0.00    -0.237 OA
ATOM     95  O   UNL A   1      38.578  38.494  39.617  1.00  0.00    -0.237 OA
ATOM     96  O   UNL A   1      38.956  36.848  41.412  1.00  0.00    -0.744 OA
ENDBRANCH  92  93
ENDBRANCH  60  85
ENDBRANCH  34  35
ENDBRANCH  27  29
ENDBRANCH  26  27
ENDBRANCH  25  26
ENDBRANCH  24  25
ENDBRANCH   1  24
TORSDOF 20
ENDMDL
