MODEL 1
REMARK VINA RESULT:     -11.0      0.000      0.000
REMARK SMILES Nc1nc2ccccc2nc1N1CCC(C(=O)OCCOCCOC(=O)c2ccc(-c3c4nc(c(-c5c(F)cc(S(=O)(=O)[O-])cc5F)c5ccc([nH]5)c(-c5c(F)cc(S(=O)(=O)[O-])cc5F)c5nc(c(-c6c(F)cc(S(=O)(=O)[O-])cc6F)c6ccc3[nH]6)C=C5)C=C4)cc2)CC1
REMARK SMILES IDX 22 1 21 2 20 3 19 4 18 5 16 6 17 7 15 8 12 9 13 10 94 11
REMARK SMILES IDX 14 12 93 13 11 14 2 15 3 16 4 17 10 18 5 19 9 20 6 21 8 22
REMARK SMILES IDX 7 23 1 24 23 27 24 28 25 29 26 30 27 31 28 32 92 33 29 34
REMARK SMILES IDX 91 35 30 36 31 37 32 38 85 39 33 40 90 41 84 42 86 43 34 44
REMARK SMILES IDX 89 45 83 46 82 47 35 49 69 50 48 51 68 52 49 53 52 54 67 55
REMARK SMILES IDX 87 56 50 57 51 58 66 60 88 61 53 62 36 63 37 64 46 65 38 66
REMARK SMILES IDX 39 67 45 68 47 69 40 70 41 71 42 72 43 73 44 74 70 75 71 76
REMARK SMILES IDX 80 77 72 78 73 79 79 80 81 81 74 82 75 83 76 84 77 85 78 86
REMARK SMILES IDX 54 87 55 88 64 89 56 90 57 91 63 92 65 93 58 94 59 95 60 96
REMARK SMILES IDX 61 97 62 98
REMARK H PARENT 1 25 1 26 86 48 52 59
REMARK Flexibility Score: inf
ROOT
ATOM      1  C   UNL A   1      34.147  31.981  28.007  1.00  0.00     0.202 C 
ENDROOT
BRANCH   1   2
ATOM      2  O   UNL A   1      33.872  31.006  27.003  1.00  0.00    -0.374 OA
BRANCH   2   3
ATOM      3  C   UNL A   1      32.698  30.209  27.144  1.00  0.00     0.202 C 
BRANCH   3   4
ATOM      4  C   UNL A   1      31.735  30.131  25.956  1.00  0.00     0.261 C 
BRANCH   4   5
ATOM      5  O   UNL A   1      31.562  28.787  25.484  1.00  0.00    -0.463 OA
BRANCH   5   6
ATOM      6  C   UNL A   1      32.509  28.349  24.617  1.00  0.00     0.309 C 
ATOM      7  O   UNL A   1      33.230  29.068  23.933  1.00  0.00    -0.252 OA
BRANCH   6   8
ATOM      8  C   UNL A   1      32.605  26.843  24.561  1.00  0.00     0.103 C 
ATOM      9  N   UNL A   1      33.691  24.224  24.768  1.00  0.00    -0.353 N 
ATOM     10  C   UNL A   1      33.386  24.731  23.441  1.00  0.00     0.119 C 
ATOM     11  C   UNL A   1      33.059  24.821  25.941  1.00  0.00     0.119 C 
ATOM     12  C   UNL A   1      33.410  26.256  23.396  1.00  0.00     0.037 C 
ATOM     13  C   UNL A   1      33.163  26.338  25.885  1.00  0.00     0.037 C 
BRANCH   9  14
ATOM     14  C   UNL A   1      34.883  23.533  24.975  1.00  0.00     0.172 A 
ATOM     15  C   UNL A   1      34.988  22.158  24.627  1.00  0.00     0.167 A 
ATOM     16  N   UNL A   1      36.101  21.436  24.843  1.00  0.00    -0.226 NA
ATOM     17  C   UNL A   1      37.128  22.086  25.411  1.00  0.00     0.091 A 
ATOM     18  N   UNL A   1      35.944  24.191  25.491  1.00  0.00    -0.225 NA
ATOM     19  C   UNL A   1      38.290  21.380  25.687  1.00  0.00     0.031 A 
ATOM     20  C   UNL A   1      37.054  23.465  25.737  1.00  0.00     0.091 A 
ATOM     21  C   UNL A   1      39.386  21.993  26.294  1.00  0.00     0.002 A 
ATOM     22  C   UNL A   1      38.157  24.064  26.337  1.00  0.00     0.031 A 
ATOM     23  C   UNL A   1      39.318  23.339  26.623  1.00  0.00     0.002 A 
BRANCH  15  24
ATOM     24  N   UNL A   1      33.928  21.469  24.042  1.00  0.00    -0.381 N 
ATOM     25  H   UNL A   1      33.035  21.495  24.458  1.00  0.00     0.158 HD
ATOM     26  H   UNL A   1      34.070  20.955  23.214  1.00  0.00     0.158 HD
ENDBRANCH  15  24
ENDBRANCH   9  14
ENDBRANCH   6   8
ENDBRANCH   5   6
ENDBRANCH   4   5
ENDBRANCH   3   4
ENDBRANCH   2   3
ENDBRANCH   1   2
BRANCH   1  27
ATOM     27  C   UNL A   1      35.205  31.650  29.070  1.00  0.00     0.261 C 
BRANCH  27  28
ATOM     28  O   UNL A   1      35.740  30.322  28.940  1.00  0.00    -0.460 OA
BRANCH  28  29
ATOM     29  C   UNL A   1      36.440  29.884  30.018  1.00  0.00     0.338 C 
ATOM     30  O   UNL A   1      35.982  29.472  31.073  1.00  0.00    -0.246 OA
BRANCH  29  31
ATOM     31  C   UNL A   1      37.869  29.764  29.671  1.00  0.00     0.060 A 
ATOM     32  C   UNL A   1      38.853  29.626  30.651  1.00  0.00     0.016 A 
ATOM     33  C   UNL A   1      38.210  29.740  28.312  1.00  0.00     0.016 A 
ATOM     34  C   UNL A   1      40.181  29.425  30.260  1.00  0.00     0.010 A 
ATOM     35  C   UNL A   1      39.536  29.543  27.926  1.00  0.00     0.010 A 
ATOM     36  C   UNL A   1      40.529  29.359  28.896  1.00  0.00    -0.014 A 
BRANCH  36  37
ATOM     37  C   UNL A   1      41.897  28.957  28.484  1.00  0.00     0.031 A 
ATOM     38  C   UNL A   1      43.035  29.934  28.469  1.00  0.00     0.074 A 
ATOM     39  C   UNL A   1      42.096  27.686  28.084  1.00  0.00     0.049 A 
ATOM     40  N   UNL A   1      44.297  29.719  28.196  1.00  0.00    -0.248 NA
ATOM     41  C   UNL A   1      42.715  31.330  28.793  1.00  0.00     0.031 C 
ATOM     42  C   UNL A   1      41.055  26.659  28.013  1.00  0.00     0.029 A 
ATOM     43  N   UNL A   1      43.234  27.038  27.674  1.00  0.00    -0.354 N 
ATOM     44  C   UNL A   1      44.931  30.946  28.344  1.00  0.00     0.074 A 
ATOM     45  C   UNL A   1      43.901  31.912  28.664  1.00  0.00     0.031 C 
ATOM     46  C   UNL A   1      41.610  25.499  27.633  1.00  0.00     0.029 A 
ATOM     47  C   UNL A   1      43.038  25.706  27.400  1.00  0.00     0.049 A 
ATOM     48  H   UNL A   1      44.107  27.484  27.587  1.00  0.00     0.167 HD
ATOM     49  C   UNL A   1      46.254  31.230  28.248  1.00  0.00     0.037 A 
ATOM     50  C   UNL A   1      43.908  24.752  27.016  1.00  0.00     0.037 A 
ATOM     51  C   UNL A   1      47.267  30.267  27.891  1.00  0.00     0.049 A 
ATOM     52  C   UNL A   1      45.359  25.105  26.849  1.00  0.00     0.074 A 
ATOM     53  C   UNL A   1      48.634  30.456  27.781  1.00  0.00     0.029 A 
ATOM     54  N   UNL A   1      47.024  28.939  27.568  1.00  0.00    -0.354 N 
ATOM     55  N   UNL A   1      45.956  26.254  27.058  1.00  0.00    -0.248 NA
ATOM     56  C   UNL A   1      46.256  24.033  26.398  1.00  0.00     0.031 C 
ATOM     57  C   UNL A   1      49.209  29.259  27.339  1.00  0.00     0.029 A 
ATOM     58  C   UNL A   1      48.211  28.305  27.232  1.00  0.00     0.049 A 
ATOM     59  H   UNL A   1      46.138  28.509  27.577  1.00  0.00     0.167 HD
ATOM     60  C   UNL A   1      47.303  26.039  26.786  1.00  0.00     0.074 A 
ATOM     61  C   UNL A   1      47.432  24.645  26.408  1.00  0.00     0.031 C 
ATOM     62  C   UNL A   1      48.334  26.917  26.847  1.00  0.00     0.037 A 
BRANCH  49  63
ATOM     63  C   UNL A   1      46.680  32.646  28.543  1.00  0.00     0.058 A 
ATOM     64  C   UNL A   1      46.627  33.644  27.555  1.00  0.00     0.135 A 
ATOM     65  C   UNL A   1      47.118  33.021  29.824  1.00  0.00     0.135 A 
ATOM     66  F   UNL A   1      46.219  33.343  26.311  1.00  0.00    -0.206 F 
ATOM     67  C   UNL A   1      47.037  34.947  27.812  1.00  0.00     0.059 A 
ATOM     68  C   UNL A   1      47.504  34.327  30.112  1.00  0.00     0.059 A 
ATOM     69  F   UNL A   1      47.180  32.113  30.811  1.00  0.00    -0.206 F 
ATOM     70  C   UNL A   1      47.479  35.278  29.092  1.00  0.00     0.060 A 
BRANCH  70  71
ATOM     71  S   UNL A   1      48.042  36.967  29.394  1.00  0.00     0.124 S 
ATOM     72  O   UNL A   1      48.047  37.518  28.042  1.00  0.00    -0.237 OA
ATOM     73  O   UNL A   1      47.008  37.484  30.285  1.00  0.00    -0.237 OA
ATOM     74  O   UNL A   1      49.357  36.787  30.000  1.00  0.00    -0.744 OA
ENDBRANCH  70  71
ENDBRANCH  49  63
BRANCH  50  75
ATOM     75  C   UNL A   1      43.423  23.358  26.832  1.00  0.00     0.058 A 
ATOM     76  C   UNL A   1      43.322  22.805  25.547  1.00  0.00     0.135 A 
ATOM     77  C   UNL A   1      43.127  22.534  27.928  1.00  0.00     0.135 A 
ATOM     78  F   UNL A   1      43.589  23.557  24.469  1.00  0.00    -0.206 F 
ATOM     79  C   UNL A   1      42.954  21.478  25.355  1.00  0.00     0.059 A 
ATOM     80  C   UNL A   1      42.780  21.197  27.761  1.00  0.00     0.059 A 
ATOM     81  F   UNL A   1      43.222  23.015  29.177  1.00  0.00    -0.206 F 
ATOM     82  C   UNL A   1      42.699  20.677  26.470  1.00  0.00     0.060 A 
BRANCH  82  83
ATOM     83  S   UNL A   1      42.313  18.933  26.204  1.00  0.00     0.124 S 
ATOM     84  O   UNL A   1      42.565  18.370  27.526  1.00  0.00    -0.237 OA
ATOM     85  O   UNL A   1      40.914  18.994  25.792  1.00  0.00    -0.237 OA
ATOM     86  O   UNL A   1      43.252  18.535  25.160  1.00  0.00    -0.744 OA
ENDBRANCH  82  83
ENDBRANCH  50  75
BRANCH  62  87
ATOM     87  C   UNL A   1      49.709  26.406  26.506  1.00  0.00     0.058 A 
ATOM     88  C   UNL A   1      50.208  26.451  25.194  1.00  0.00     0.135 A 
ATOM     89  C   UNL A   1      50.567  25.937  27.514  1.00  0.00     0.135 A 
ATOM     90  F   UNL A   1      49.428  26.881  24.189  1.00  0.00    -0.206 F 
ATOM     91  C   UNL A   1      51.503  26.039  24.892  1.00  0.00     0.059 A 
ATOM     92  C   UNL A   1      51.875  25.548  27.241  1.00  0.00     0.059 A 
ATOM     93  F   UNL A   1      50.146  25.878  28.788  1.00  0.00    -0.206 F 
ATOM     94  C   UNL A   1      52.333  25.597  25.925  1.00  0.00     0.060 A 
BRANCH  94  95
ATOM     95  S   UNL A   1      54.026  25.116  25.523  1.00  0.00     0.124 S 
ATOM     96  O   UNL A   1      54.609  24.950  26.850  1.00  0.00    -0.237 OA
ATOM     97  O   UNL A   1      53.824  23.888  24.760  1.00  0.00    -0.237 OA
ATOM     98  O   UNL A   1      54.531  26.250  24.754  1.00  0.00    -0.744 OA
ENDBRANCH  94  95
ENDBRANCH  62  87
ENDBRANCH  36  37
ENDBRANCH  29  31
ENDBRANCH  28  29
ENDBRANCH  27  28
ENDBRANCH   1  27
TORSDOF 19
ENDMDL
MODEL 2
REMARK VINA RESULT:     -11.0      6.370     12.039
REMARK SMILES Nc1nc2ccccc2nc1N1CCC(C(=O)OCCOCCOC(=O)c2ccc(-c3c4nc(c(-c5c(F)cc(S(=O)(=O)[O-])cc5F)c5ccc([nH]5)c(-c5c(F)cc(S(=O)(=O)[O-])cc5F)c5nc(c(-c6c(F)cc(S(=O)(=O)[O-])cc6F)c6ccc3[nH]6)C=C5)C=C4)cc2)CC1
REMARK SMILES IDX 22 1 21 2 20 3 19 4 18 5 16 6 17 7 15 8 12 9 13 10 94 11
REMARK SMILES IDX 14 12 93 13 11 14 2 15 3 16 4 17 10 18 5 19 9 20 6 21 8 22
REMARK SMILES IDX 7 23 1 24 23 27 24 28 25 29 26 30 27 31 28 32 92 33 29 34
REMARK SMILES IDX 91 35 30 36 31 37 32 38 85 39 33 40 90 41 84 42 86 43 34 44
REMARK SMILES IDX 89 45 83 46 82 47 35 49 69 50 48 51 68 52 49 53 52 54 67 55
REMARK SMILES IDX 87 56 50 57 51 58 66 60 88 61 53 62 36 63 37 64 46 65 38 66
REMARK SMILES IDX 39 67 45 68 47 69 40 70 41 71 42 72 43 73 44 74 70 75 71 76
REMARK SMILES IDX 80 77 72 78 73 79 79 80 81 81 74 82 75 83 76 84 77 85 78 86
REMARK SMILES IDX 54 87 55 88 64 89 56 90 57 91 63 92 65 93 58 94 59 95 60 96
REMARK SMILES IDX 61 97 62 98
REMARK H PARENT 1 25 1 26 86 48 52 59
REMARK Flexibility Score: inf
ROOT
ATOM      1  C   UNL A   1      41.218  21.351  26.130  1.00  0.00     0.202 C 
ENDROOT
BRANCH   1   2
ATOM      2  O   UNL A   1      39.976  21.566  26.797  1.00  0.00    -0.374 OA
BRANCH   2   3
ATOM      3  C   UNL A   1      38.953  22.274  26.101  1.00  0.00     0.202 C 
BRANCH   3   4
ATOM      4  C   UNL A   1      37.867  21.459  25.394  1.00  0.00     0.261 C 
BRANCH   4   5
ATOM      5  O   UNL A   1      36.567  22.055  25.526  1.00  0.00    -0.463 OA
BRANCH   5   6
ATOM      6  C   UNL A   1      36.066  22.612  24.396  1.00  0.00     0.309 C 
ATOM      7  O   UNL A   1      36.588  22.556  23.287  1.00  0.00    -0.252 OA
BRANCH   6   8
ATOM      8  C   UNL A   1      34.761  23.336  24.625  1.00  0.00     0.103 C 
ATOM      9  N   UNL A   1      32.937  25.430  25.236  1.00  0.00    -0.353 N 
ATOM     10  C   UNL A   1      33.037  24.320  26.169  1.00  0.00     0.119 C 
ATOM     11  C   UNL A   1      33.389  25.267  23.858  1.00  0.00     0.119 C 
ATOM     12  C   UNL A   1      34.394  23.627  26.086  1.00  0.00     0.037 C 
ATOM     13  C   UNL A   1      34.772  24.632  23.824  1.00  0.00     0.037 C 
BRANCH   9  14
ATOM     14  C   UNL A   1      32.869  26.730  25.730  1.00  0.00     0.172 A 
ATOM     15  C   UNL A   1      31.662  27.475  25.637  1.00  0.00     0.167 A 
ATOM     16  N   UNL A   1      31.556  28.746  26.061  1.00  0.00    -0.226 NA
ATOM     17  C   UNL A   1      32.663  29.289  26.589  1.00  0.00     0.091 A 
ATOM     18  N   UNL A   1      33.961  27.268  26.318  1.00  0.00    -0.225 NA
ATOM     19  C   UNL A   1      32.619  30.609  27.012  1.00  0.00     0.031 A 
ATOM     20  C   UNL A   1      33.869  28.553  26.720  1.00  0.00     0.091 A 
ATOM     21  C   UNL A   1      33.741  31.237  27.552  1.00  0.00     0.002 A 
ATOM     22  C   UNL A   1      34.979  29.191  27.265  1.00  0.00     0.031 A 
ATOM     23  C   UNL A   1      34.926  30.526  27.676  1.00  0.00     0.002 A 
BRANCH  15  24
ATOM     24  N   UNL A   1      30.506  26.926  25.085  1.00  0.00    -0.381 N 
ATOM     25  H   UNL A   1      30.571  26.304  24.324  1.00  0.00     0.158 HD
ATOM     26  H   UNL A   1      29.624  27.161  25.455  1.00  0.00     0.158 HD
ENDBRANCH  15  24
ENDBRANCH   9  14
ENDBRANCH   6   8
ENDBRANCH   5   6
ENDBRANCH   4   5
ENDBRANCH   3   4
ENDBRANCH   2   3
ENDBRANCH   1   2
BRANCH   1  27
ATOM     27  C   UNL A   1      42.095  22.572  25.819  1.00  0.00     0.261 C 
BRANCH  27  28
ATOM     28  O   UNL A   1      41.945  23.635  26.776  1.00  0.00    -0.460 OA
BRANCH  28  29
ATOM     29  C   UNL A   1      41.944  24.883  26.243  1.00  0.00     0.338 C 
ATOM     30  O   UNL A   1      42.075  25.178  25.065  1.00  0.00    -0.246 OA
BRANCH  29  31
ATOM     31  C   UNL A   1      41.544  25.865  27.269  1.00  0.00     0.060 A 
ATOM     32  C   UNL A   1      40.518  25.601  28.177  1.00  0.00     0.016 A 
ATOM     33  C   UNL A   1      42.267  27.063  27.342  1.00  0.00     0.016 A 
ATOM     34  C   UNL A   1      40.244  26.530  29.186  1.00  0.00     0.010 A 
ATOM     35  C   UNL A   1      41.989  27.990  28.346  1.00  0.00     0.010 A 
ATOM     36  C   UNL A   1      40.992  27.719  29.292  1.00  0.00    -0.014 A 
BRANCH  36  37
ATOM     37  C   UNL A   1      40.829  28.610  30.468  1.00  0.00     0.031 A 
ATOM     38  C   UNL A   1      41.739  28.523  31.657  1.00  0.00     0.074 A 
ATOM     39  C   UNL A   1      39.811  29.492  30.465  1.00  0.00     0.049 A 
ATOM     40  N   UNL A   1      41.764  29.273  32.728  1.00  0.00    -0.248 NA
ATOM     41  C   UNL A   1      42.745  27.452  31.644  1.00  0.00     0.031 C 
ATOM     42  C   UNL A   1      38.833  29.637  29.385  1.00  0.00     0.029 A 
ATOM     43  N   UNL A   1      39.433  30.437  31.386  1.00  0.00    -0.354 N 
ATOM     44  C   UNL A   1      42.805  28.787  33.509  1.00  0.00     0.074 A 
ATOM     45  C   UNL A   1      43.343  27.635  32.815  1.00  0.00     0.031 C 
ATOM     46  C   UNL A   1      37.998  30.643  29.681  1.00  0.00     0.029 A 
ATOM     47  C   UNL A   1      38.357  31.193  30.986  1.00  0.00     0.049 A 
ATOM     48  H   UNL A   1      39.889  30.561  32.248  1.00  0.00     0.167 HD
ATOM     49  C   UNL A   1      43.284  29.277  34.680  1.00  0.00     0.037 A 
ATOM     50  C   UNL A   1      37.736  32.222  31.593  1.00  0.00     0.037 A 
ATOM     51  C   UNL A   1      42.716  30.403  35.380  1.00  0.00     0.049 A 
ATOM     52  C   UNL A   1      38.240  32.705  32.924  1.00  0.00     0.074 A 
ATOM     53  C   UNL A   1      43.137  30.981  36.565  1.00  0.00     0.029 A 
ATOM     54  N   UNL A   1      41.594  31.111  34.973  1.00  0.00    -0.354 N 
ATOM     55  N   UNL A   1      39.268  32.279  33.618  1.00  0.00    -0.248 NA
ATOM     56  C   UNL A   1      37.503  33.809  33.553  1.00  0.00     0.031 C 
ATOM     57  C   UNL A   1      42.241  32.001  36.901  1.00  0.00     0.029 A 
ATOM     58  C   UNL A   1      41.293  32.101  35.895  1.00  0.00     0.049 A 
ATOM     59  H   UNL A   1      41.086  30.936  34.147  1.00  0.00     0.167 HD
ATOM     60  C   UNL A   1      39.317  33.078  34.756  1.00  0.00     0.074 A 
ATOM     61  C   UNL A   1      38.220  34.019  34.649  1.00  0.00     0.031 C 
ATOM     62  C   UNL A   1      40.193  33.032  35.790  1.00  0.00     0.037 A 
BRANCH  49  63
ATOM     63  C   UNL A   1      44.490  28.595  35.272  1.00  0.00     0.058 A 
ATOM     64  C   UNL A   1      44.354  27.532  36.181  1.00  0.00     0.135 A 
ATOM     65  C   UNL A   1      45.792  28.981  34.914  1.00  0.00     0.135 A 
ATOM     66  F   UNL A   1      43.134  27.122  36.563  1.00  0.00    -0.206 F 
ATOM     67  C   UNL A   1      45.461  26.911  36.749  1.00  0.00     0.059 A 
ATOM     68  C   UNL A   1      46.916  28.353  35.446  1.00  0.00     0.059 A 
ATOM     69  F   UNL A   1      45.985  29.984  34.042  1.00  0.00    -0.206 F 
ATOM     70  C   UNL A   1      46.738  27.332  36.379  1.00  0.00     0.060 A 
BRANCH  70  71
ATOM     71  S   UNL A   1      48.161  26.536  37.155  1.00  0.00     0.124 S 
ATOM     72  O   UNL A   1      47.688  25.161  37.286  1.00  0.00    -0.237 OA
ATOM     73  O   UNL A   1      49.214  26.753  36.169  1.00  0.00    -0.237 OA
ATOM     74  O   UNL A   1      48.318  27.265  38.409  1.00  0.00    -0.744 OA
ENDBRANCH  70  71
ENDBRANCH  49  63
BRANCH  50  75
ATOM     75  C   UNL A   1      36.607  32.899  30.900  1.00  0.00     0.058 A 
ATOM     76  C   UNL A   1      35.290  32.728  31.351  1.00  0.00     0.135 A 
ATOM     77  C   UNL A   1      36.826  33.782  29.832  1.00  0.00     0.135 A 
ATOM     78  F   UNL A   1      35.032  31.889  32.365  1.00  0.00    -0.206 F 
ATOM     79  C   UNL A   1      34.229  33.416  30.775  1.00  0.00     0.059 A 
ATOM     80  C   UNL A   1      35.784  34.501  29.255  1.00  0.00     0.059 A 
ATOM     81  F   UNL A   1      38.070  33.989  29.374  1.00  0.00    -0.206 F 
ATOM     82  C   UNL A   1      34.488  34.313  29.736  1.00  0.00     0.060 A 
BRANCH  82  83
ATOM     83  S   UNL A   1      33.111  35.267  29.062  1.00  0.00     0.124 S 
ATOM     84  O   UNL A   1      33.801  36.414  28.484  1.00  0.00    -0.237 OA
ATOM     85  O   UNL A   1      32.529  34.325  28.110  1.00  0.00    -0.237 OA
ATOM     86  O   UNL A   1      32.291  35.550  30.235  1.00  0.00    -0.744 OA
ENDBRANCH  82  83
ENDBRANCH  50  75
BRANCH  62  87
ATOM     87  C   UNL A   1      40.017  34.035  36.899  1.00  0.00     0.058 A 
ATOM     88  C   UNL A   1      40.575  35.322  36.825  1.00  0.00     0.135 A 
ATOM     89  C   UNL A   1      39.217  33.735  38.014  1.00  0.00     0.135 A 
ATOM     90  F   UNL A   1      41.356  35.661  35.787  1.00  0.00    -0.206 F 
ATOM     91  C   UNL A   1      40.357  36.269  37.821  1.00  0.00     0.059 A 
ATOM     92  C   UNL A   1      38.961  34.675  39.007  1.00  0.00     0.059 A 
ATOM     93  F   UNL A   1      38.652  32.523  38.134  1.00  0.00    -0.206 F 
ATOM     94  C   UNL A   1      39.540  35.940  38.905  1.00  0.00     0.060 A 
BRANCH  94  95
ATOM     95  S   UNL A   1      39.225  37.198  40.160  1.00  0.00     0.124 S 
ATOM     96  O   UNL A   1      38.421  36.457  41.127  1.00  0.00    -0.237 OA
ATOM     97  O   UNL A   1      40.575  37.546  40.593  1.00  0.00    -0.237 OA
ATOM     98  O   UNL A   1      38.518  38.244  39.427  1.00  0.00    -0.744 OA
ENDBRANCH  94  95
ENDBRANCH  62  87
ENDBRANCH  36  37
ENDBRANCH  29  31
ENDBRANCH  28  29
ENDBRANCH  27  28
ENDBRANCH   1  27
TORSDOF 19
ENDMDL
MODEL 3
REMARK VINA RESULT:     -10.7      2.164      4.240
REMARK SMILES Nc1nc2ccccc2nc1N1CCC(C(=O)OCCOCCOC(=O)c2ccc(-c3c4nc(c(-c5c(F)cc(S(=O)(=O)[O-])cc5F)c5ccc([nH]5)c(-c5c(F)cc(S(=O)(=O)[O-])cc5F)c5nc(c(-c6c(F)cc(S(=O)(=O)[O-])cc6F)c6ccc3[nH]6)C=C5)C=C4)cc2)CC1
REMARK SMILES IDX 22 1 21 2 20 3 19 4 18 5 16 6 17 7 15 8 12 9 13 10 94 11
REMARK SMILES IDX 14 12 93 13 11 14 2 15 3 16 4 17 10 18 5 19 9 20 6 21 8 22
REMARK SMILES IDX 7 23 1 24 23 27 24 28 25 29 26 30 27 31 28 32 92 33 29 34
REMARK SMILES IDX 91 35 30 36 31 37 32 38 85 39 33 40 90 41 84 42 86 43 34 44
REMARK SMILES IDX 89 45 83 46 82 47 35 49 69 50 48 51 68 52 49 53 52 54 67 55
REMARK SMILES IDX 87 56 50 57 51 58 66 60 88 61 53 62 36 63 37 64 46 65 38 66
REMARK SMILES IDX 39 67 45 68 47 69 40 70 41 71 42 72 43 73 44 74 70 75 71 76
REMARK SMILES IDX 80 77 72 78 73 79 79 80 81 81 74 82 75 83 76 84 77 85 78 86
REMARK SMILES IDX 54 87 55 88 64 89 56 90 57 91 63 92 65 93 58 94 59 95 60 96
REMARK SMILES IDX 61 97 62 98
REMARK H PARENT 1 25 1 26 86 48 52 59
REMARK Flexibility Score: inf
ROOT
ATOM      1  C   UNL A   1      35.435  34.057  30.528  1.00  0.00     0.202 C 
ENDROOT
BRANCH   1   2
ATOM      2  O   UNL A   1      36.038  33.805  29.260  1.00  0.00    -0.374 OA
BRANCH   2   3
ATOM      3  C   UNL A   1      35.224  33.258  28.225  1.00  0.00     0.202 C 
BRANCH   3   4
ATOM      4  C   UNL A   1      34.587  31.886  28.461  1.00  0.00     0.261 C 
BRANCH   4   5
ATOM      5  O   UNL A   1      34.821  30.984  27.369  1.00  0.00    -0.463 OA
BRANCH   5   6
ATOM      6  C   UNL A   1      34.885  29.671  27.704  1.00  0.00     0.309 C 
ATOM      7  O   UNL A   1      35.623  29.193  28.558  1.00  0.00    -0.252 OA
BRANCH   6   8
ATOM      8  C   UNL A   1      33.932  28.813  26.905  1.00  0.00     0.103 C 
ATOM      9  N   UNL A   1      31.912  28.084  25.041  1.00  0.00    -0.353 N 
ATOM     10  C   UNL A   1      31.622  27.927  26.457  1.00  0.00     0.119 C 
ATOM     11  C   UNL A   1      33.296  28.167  24.586  1.00  0.00     0.119 C 
ATOM     12  C   UNL A   1      32.457  28.872  27.317  1.00  0.00     0.037 C 
ATOM     13  C   UNL A   1      34.074  29.167  25.430  1.00  0.00     0.037 C 
BRANCH   9  14
ATOM     14  C   UNL A   1      30.936  28.616  24.202  1.00  0.00     0.172 A 
ATOM     15  C   UNL A   1      30.389  27.835  23.148  1.00  0.00     0.167 A 
ATOM     16  N   UNL A   1      29.476  28.314  22.286  1.00  0.00    -0.226 NA
ATOM     17  C   UNL A   1      29.096  29.588  22.471  1.00  0.00     0.091 A 
ATOM     18  N   UNL A   1      30.502  29.878  24.415  1.00  0.00    -0.225 NA
ATOM     19  C   UNL A   1      28.181  30.143  21.589  1.00  0.00     0.031 A 
ATOM     20  C   UNL A   1      29.607  30.374  23.536  1.00  0.00     0.091 A 
ATOM     21  C   UNL A   1      27.761  31.467  21.716  1.00  0.00     0.002 A 
ATOM     22  C   UNL A   1      29.175  31.692  23.653  1.00  0.00     0.031 A 
ATOM     23  C   UNL A   1      28.263  32.245  22.750  1.00  0.00     0.002 A 
BRANCH  15  24
ATOM     24  N   UNL A   1      30.778  26.513  22.940  1.00  0.00    -0.381 N 
ATOM     25  H   UNL A   1      31.602  26.171  23.358  1.00  0.00     0.158 HD
ATOM     26  H   UNL A   1      30.231  25.922  22.373  1.00  0.00     0.158 HD
ENDBRANCH  15  24
ENDBRANCH   9  14
ENDBRANCH   6   8
ENDBRANCH   5   6
ENDBRANCH   4   5
ENDBRANCH   3   4
ENDBRANCH   2   3
ENDBRANCH   1   2
BRANCH   1  27
ATOM     27  C   UNL A   1      35.933  33.258  31.740  1.00  0.00     0.261 C 
BRANCH  27  28
ATOM     28  O   UNL A   1      37.148  32.535  31.481  1.00  0.00    -0.460 OA
BRANCH  28  29
ATOM     29  C   UNL A   1      37.017  31.183  31.484  1.00  0.00     0.338 C 
ATOM     30  O   UNL A   1      36.027  30.543  31.804  1.00  0.00    -0.246 OA
BRANCH  29  31
ATOM     31  C   UNL A   1      38.188  30.565  30.833  1.00  0.00     0.060 A 
ATOM     32  C   UNL A   1      38.385  30.640  29.454  1.00  0.00     0.016 A 
ATOM     33  C   UNL A   1      39.136  29.940  31.654  1.00  0.00     0.016 A 
ATOM     34  C   UNL A   1      39.559  30.115  28.902  1.00  0.00     0.010 A 
ATOM     35  C   UNL A   1      40.304  29.415  31.101  1.00  0.00     0.010 A 
ATOM     36  C   UNL A   1      40.537  29.520  29.724  1.00  0.00    -0.014 A 
BRANCH  36  37
ATOM     37  C   UNL A   1      41.858  29.138  29.168  1.00  0.00     0.031 A 
ATOM     38  C   UNL A   1      43.003  30.106  29.114  1.00  0.00     0.074 A 
ATOM     39  C   UNL A   1      42.006  27.894  28.672  1.00  0.00     0.049 A 
ATOM     40  N   UNL A   1      44.233  29.901  28.718  1.00  0.00    -0.248 NA
ATOM     41  C   UNL A   1      42.730  31.481  29.554  1.00  0.00     0.031 C 
ATOM     42  C   UNL A   1      40.951  26.881  28.627  1.00  0.00     0.029 A 
ATOM     43  N   UNL A   1      43.096  27.266  28.122  1.00  0.00    -0.354 N 
ATOM     44  C   UNL A   1      44.893  31.111  28.887  1.00  0.00     0.074 A 
ATOM     45  C   UNL A   1      43.906  32.062  29.358  1.00  0.00     0.031 C 
ATOM     46  C   UNL A   1      41.456  25.744  28.126  1.00  0.00     0.029 A 
ATOM     47  C   UNL A   1      42.859  25.956  27.781  1.00  0.00     0.049 A 
ATOM     48  H   UNL A   1      43.962  27.711  27.986  1.00  0.00     0.167 HD
ATOM     49  C   UNL A   1      46.206  31.393  28.693  1.00  0.00     0.037 A 
ATOM     50  C   UNL A   1      43.681  25.024  27.261  1.00  0.00     0.037 A 
ATOM     51  C   UNL A   1      47.171  30.448  28.186  1.00  0.00     0.049 A 
ATOM     52  C   UNL A   1      45.116  25.377  26.990  1.00  0.00     0.074 A 
ATOM     53  C   UNL A   1      48.525  30.634  27.968  1.00  0.00     0.029 A 
ATOM     54  N   UNL A   1      46.885  29.145  27.802  1.00  0.00    -0.354 N 
ATOM     55  N   UNL A   1      45.743  26.506  27.218  1.00  0.00    -0.248 NA
ATOM     56  C   UNL A   1      45.956  24.330  26.393  1.00  0.00     0.031 C 
ATOM     57  C   UNL A   1      49.045  29.465  27.401  1.00  0.00     0.029 A 
ATOM     58  C   UNL A   1      48.029  28.527  27.322  1.00  0.00     0.049 A 
ATOM     59  H   UNL A   1      45.997  28.721  27.862  1.00  0.00     0.167 HD
ATOM     60  C   UNL A   1      47.058  26.300  26.814  1.00  0.00     0.074 A 
ATOM     61  C   UNL A   1      47.136  24.933  26.338  1.00  0.00     0.031 C 
ATOM     62  C   UNL A   1      48.101  27.166  26.840  1.00  0.00     0.037 A 
BRANCH  49  63
ATOM     63  C   UNL A   1      46.673  32.783  29.039  1.00  0.00     0.058 A 
ATOM     64  C   UNL A   1      46.672  33.812  28.081  1.00  0.00     0.135 A 
ATOM     65  C   UNL A   1      47.099  33.104  30.338  1.00  0.00     0.135 A 
ATOM     66  F   UNL A   1      46.279  33.562  26.822  1.00  0.00    -0.206 F 
ATOM     67  C   UNL A   1      47.121  35.092  28.385  1.00  0.00     0.059 A 
ATOM     68  C   UNL A   1      47.523  34.388  30.673  1.00  0.00     0.059 A 
ATOM     69  F   UNL A   1      47.112  32.165  31.298  1.00  0.00    -0.206 F 
ATOM     70  C   UNL A   1      47.550  35.369  29.683  1.00  0.00     0.060 A 
BRANCH  70  71
ATOM     71  S   UNL A   1      48.163  37.028  30.047  1.00  0.00     0.124 S 
ATOM     72  O   UNL A   1      49.300  36.734  30.914  1.00  0.00    -0.237 OA
ATOM     73  O   UNL A   1      48.492  37.536  28.719  1.00  0.00    -0.237 OA
ATOM     74  O   UNL A   1      47.030  37.675  30.701  1.00  0.00    -0.744 OA
ENDBRANCH  70  71
ENDBRANCH  49  63
BRANCH  50  75
ATOM     75  C   UNL A   1      43.165  23.648  27.032  1.00  0.00     0.058 A 
ATOM     76  C   UNL A   1      42.842  23.216  25.737  1.00  0.00     0.135 A 
ATOM     77  C   UNL A   1      43.057  22.721  28.079  1.00  0.00     0.135 A 
ATOM     78  F   UNL A   1      42.924  24.069  24.706  1.00  0.00    -0.206 F 
ATOM     79  C   UNL A   1      42.439  21.910  25.486  1.00  0.00     0.059 A 
ATOM     80  C   UNL A   1      42.680  21.402  27.850  1.00  0.00     0.059 A 
ATOM     81  F   UNL A   1      43.368  23.083  29.334  1.00  0.00    -0.206 F 
ATOM     82  C   UNL A   1      42.376  21.005  26.548  1.00  0.00     0.060 A 
BRANCH  82  83
ATOM     83  S   UNL A   1      41.942  19.289  26.189  1.00  0.00     0.124 S 
ATOM     84  O   UNL A   1      42.740  19.025  24.998  1.00  0.00    -0.237 OA
ATOM     85  O   UNL A   1      42.369  18.609  27.408  1.00  0.00    -0.237 OA
ATOM     86  O   UNL A   1      40.498  19.343  25.982  1.00  0.00    -0.744 OA
ENDBRANCH  82  83
ENDBRANCH  50  75
BRANCH  62  87
ATOM     87  C   UNL A   1      49.434  26.669  26.346  1.00  0.00     0.058 A 
ATOM     88  C   UNL A   1      49.868  26.903  25.031  1.00  0.00     0.135 A 
ATOM     89  C   UNL A   1      50.322  26.019  27.219  1.00  0.00     0.135 A 
ATOM     90  F   UNL A   1      49.057  27.511  24.151  1.00  0.00    -0.206 F 
ATOM     91  C   UNL A   1      51.127  26.500  24.597  1.00  0.00     0.059 A 
ATOM     92  C   UNL A   1      51.597  25.634  26.816  1.00  0.00     0.059 A 
ATOM     93  F   UNL A   1      49.964  25.775  28.490  1.00  0.00    -0.206 F 
ATOM     94  C   UNL A   1      51.989  25.874  25.499  1.00  0.00     0.060 A 
BRANCH  94  95
ATOM     95  S   UNL A   1      53.638  25.406  24.933  1.00  0.00     0.124 S 
ATOM     96  O   UNL A   1      53.615  23.959  25.117  1.00  0.00    -0.237 OA
ATOM     97  O   UNL A   1      53.631  25.870  23.548  1.00  0.00    -0.237 OA
ATOM     98  O   UNL A   1      54.529  26.138  25.829  1.00  0.00    -0.744 OA
ENDBRANCH  94  95
ENDBRANCH  62  87
ENDBRANCH  36  37
ENDBRANCH  29  31
ENDBRANCH  28  29
ENDBRANCH  27  28
ENDBRANCH   1  27
TORSDOF 19
ENDMDL
