MODEL 1
REMARK VINA RESULT:     -11.0      0.000      0.000
REMARK SMILES C[C@H](C(=O)OCCOCCOC(=O)c1ccc(-c2c3nc(c(-c4c(F)cc(S(=O)(=O)[O-])cc4F)c4ccc([nH]4)c(-c4c(F)cc(S(=O)(=O)[O-])cc4F)c4nc(c(-c5c(F)cc(S(=O)(=O)[O-])cc5F)c5ccc2[nH]5)C=C4)C=C3)cc1)[C@@H](C(=O)c1ccccc1)c1ccc(F)cc1
REMARK SMILES IDX 8 1 7 2 6 3 5 4 3 5 4 6 2 7 1 8 80 9 81 10 82 11 83 12 84 13
REMARK SMILES IDX 88 14 85 15 87 16 86 17 89 18 90 19 95 20 91 21 94 22 92 23
REMARK SMILES IDX 93 24 9 25 10 26 11 27 12 28 13 29 14 30 15 31 79 32 16 33
REMARK SMILES IDX 78 34 17 35 18 36 19 37 72 38 20 39 77 40 71 41 73 42 21 43
REMARK SMILES IDX 76 44 70 45 69 46 22 48 56 49 35 50 55 51 36 52 39 53 54 54
REMARK SMILES IDX 74 55 37 56 38 57 53 59 75 60 40 61 23 62 24 63 33 64 25 65
REMARK SMILES IDX 26 66 32 67 34 68 27 69 28 70 29 71 30 72 31 73 57 74 58 75
REMARK SMILES IDX 67 76 59 77 60 78 66 79 68 80 61 81 62 82 63 83 64 84 65 85
REMARK SMILES IDX 41 86 42 87 51 88 43 89 44 90 50 91 52 92 45 93 46 94 47 95
REMARK SMILES IDX 48 96 49 97
REMARK H PARENT 73 47 39 58
REMARK Flexibility Score: inf
ROOT
ATOM      1  O   UNL A   1      41.296  21.459  25.843  1.00  0.00    -0.374 OA
ENDROOT
BRANCH   1   2
ATOM      2  C   UNL A   1      40.126  21.050  26.552  1.00  0.00     0.202 C 
BRANCH   2   3
ATOM      3  C   UNL A   1      38.981  20.714  25.592  1.00  0.00     0.261 C 
BRANCH   3   4
ATOM      4  O   UNL A   1      38.187  21.869  25.249  1.00  0.00    -0.463 OA
BRANCH   4   5
ATOM      5  C   UNL A   1      36.948  21.967  25.790  1.00  0.00     0.309 C 
ATOM      6  O   UNL A   1      36.188  21.030  25.989  1.00  0.00    -0.252 OA
BRANCH   5   7
ATOM      7  C   UNL A   1      36.602  23.418  26.102  1.00  0.00     0.111 C 
ATOM      8  C   UNL A   1      37.960  24.099  26.367  1.00  0.00     0.021 C 
BRANCH   7   9
ATOM      9  C   UNL A   1      35.809  24.034  24.930  1.00  0.00     0.105 C 
BRANCH   9  10
ATOM     10  C   UNL A   1      35.465  23.247  23.630  1.00  0.00     0.171 C 
ATOM     11  O   UNL A   1      36.343  23.139  22.759  1.00  0.00    -0.293 OA
BRANCH  10  12
ATOM     12  C   UNL A   1      34.211  22.500  23.342  1.00  0.00     0.018 A 
ATOM     13  C   UNL A   1      33.403  23.053  22.335  1.00  0.00     0.012 A 
ATOM     14  C   UNL A   1      33.737  21.382  24.026  1.00  0.00     0.012 A 
ATOM     15  C   UNL A   1      32.186  22.476  21.998  1.00  0.00     0.001 A 
ATOM     16  C   UNL A   1      32.553  20.750  23.624  1.00  0.00     0.001 A 
ATOM     17  C   UNL A   1      31.782  21.295  22.605  1.00  0.00     0.000 A 
ENDBRANCH  10  12
ENDBRANCH   9  10
BRANCH   9  18
ATOM     18  C   UNL A   1      34.484  24.675  25.383  1.00  0.00    -0.036 A 
ATOM     19  C   UNL A   1      33.630  24.002  26.277  1.00  0.00     0.007 A 
ATOM     20  C   UNL A   1      34.048  25.871  24.787  1.00  0.00     0.007 A 
ATOM     21  C   UNL A   1      32.346  24.492  26.523  1.00  0.00     0.039 A 
ATOM     22  C   UNL A   1      32.768  26.360  25.046  1.00  0.00     0.039 A 
ATOM     23  C   UNL A   1      31.925  25.659  25.899  1.00  0.00     0.123 A 
ATOM     24  F   UNL A   1      30.680  26.107  26.108  1.00  0.00    -0.207 F 
ENDBRANCH   9  18
ENDBRANCH   7   9
ENDBRANCH   5   7
ENDBRANCH   4   5
ENDBRANCH   3   4
ENDBRANCH   2   3
ENDBRANCH   1   2
BRANCH   1  25
ATOM     25  C   UNL A   1      42.418  21.763  26.670  1.00  0.00     0.202 C 
BRANCH  25  26
ATOM     26  C   UNL A   1      42.756  23.251  26.630  1.00  0.00     0.261 C 
BRANCH  26  27
ATOM     27  O   UNL A   1      41.553  24.032  26.545  1.00  0.00    -0.460 OA
BRANCH  27  28
ATOM     28  C   UNL A   1      41.691  25.317  26.132  1.00  0.00     0.338 C 
ATOM     29  O   UNL A   1      41.877  25.714  24.999  1.00  0.00    -0.246 OA
BRANCH  28  30
ATOM     30  C   UNL A   1      41.459  26.207  27.294  1.00  0.00     0.060 A 
ATOM     31  C   UNL A   1      40.553  25.810  28.283  1.00  0.00     0.016 A 
ATOM     32  C   UNL A   1      42.146  27.414  27.426  1.00  0.00     0.016 A 
ATOM     33  C   UNL A   1      40.346  26.616  29.409  1.00  0.00     0.010 A 
ATOM     34  C   UNL A   1      41.978  28.189  28.575  1.00  0.00     0.010 A 
ATOM     35  C   UNL A   1      41.060  27.813  29.569  1.00  0.00    -0.014 A 
BRANCH  35  36
ATOM     36  C   UNL A   1      40.778  28.740  30.700  1.00  0.00     0.031 A 
ATOM     37  C   UNL A   1      41.598  28.618  31.963  1.00  0.00     0.074 A 
ATOM     38  C   UNL A   1      39.788  29.653  30.634  1.00  0.00     0.049 A 
ATOM     39  N   UNL A   1      41.509  29.295  33.079  1.00  0.00    -0.248 NA
ATOM     40  C   UNL A   1      42.630  27.569  31.983  1.00  0.00     0.031 C 
ATOM     41  C   UNL A   1      38.879  29.848  29.502  1.00  0.00     0.029 A 
ATOM     42  N   UNL A   1      39.374  30.591  31.550  1.00  0.00    -0.354 N 
ATOM     43  C   UNL A   1      42.453  28.737  33.933  1.00  0.00     0.074 A 
ATOM     44  C   UNL A   1      43.043  27.616  33.237  1.00  0.00     0.031 C 
ATOM     45  C   UNL A   1      38.024  30.846  29.788  1.00  0.00     0.029 A 
ATOM     46  C   UNL A   1      38.325  31.369  31.118  1.00  0.00     0.049 A 
ATOM     47  H   UNL A   1      39.791  30.695  32.435  1.00  0.00     0.167 HD
ATOM     48  C   UNL A   1      42.839  29.144  35.165  1.00  0.00     0.037 A 
ATOM     49  C   UNL A   1      37.696  32.401  31.717  1.00  0.00     0.037 A 
ATOM     50  C   UNL A   1      42.308  30.298  35.831  1.00  0.00     0.049 A 
ATOM     51  C   UNL A   1      38.173  32.873  33.067  1.00  0.00     0.074 A 
ATOM     52  C   UNL A   1      42.686  30.846  37.043  1.00  0.00     0.029 A 
ATOM     53  N   UNL A   1      41.289  31.095  35.330  1.00  0.00    -0.354 N 
ATOM     54  N   UNL A   1      39.133  32.390  33.819  1.00  0.00    -0.248 NA
ATOM     55  C   UNL A   1      37.498  34.047  33.640  1.00  0.00     0.031 C 
ATOM     56  C   UNL A   1      41.884  31.966  37.284  1.00  0.00     0.029 A 
ATOM     57  C   UNL A   1      41.025  32.130  36.209  1.00  0.00     0.049 A 
ATOM     58  H   UNL A   1      40.824  30.946  34.476  1.00  0.00     0.167 HD
ATOM     59  C   UNL A   1      39.204  33.224  34.930  1.00  0.00     0.074 A 
ATOM     60  C   UNL A   1      38.190  34.243  34.754  1.00  0.00     0.031 C 
ATOM     61  C   UNL A   1      40.034  33.154  36.000  1.00  0.00     0.037 A 
BRANCH  48  62
ATOM     62  C   UNL A   1      43.915  28.343  35.842  1.00  0.00     0.058 A 
ATOM     63  C   UNL A   1      45.275  28.621  35.629  1.00  0.00     0.135 A 
ATOM     64  C   UNL A   1      43.588  27.269  36.684  1.00  0.00     0.135 A 
ATOM     65  F   UNL A   1      45.640  29.626  34.817  1.00  0.00    -0.206 F 
ATOM     66  C   UNL A   1      46.274  27.829  36.181  1.00  0.00     0.059 A 
ATOM     67  C   UNL A   1      44.572  26.481  37.273  1.00  0.00     0.059 A 
ATOM     68  F   UNL A   1      42.303  26.963  36.923  1.00  0.00    -0.206 F 
ATOM     69  C   UNL A   1      45.912  26.754  36.994  1.00  0.00     0.060 A 
BRANCH  69  70
ATOM     70  S   UNL A   1      47.216  25.707  37.671  1.00  0.00     0.124 S 
ATOM     71  O   UNL A   1      47.032  25.908  39.105  1.00  0.00    -0.237 OA
ATOM     72  O   UNL A   1      46.856  24.387  37.165  1.00  0.00    -0.237 OA
ATOM     73  O   UNL A   1      48.436  26.280  37.107  1.00  0.00    -0.744 OA
ENDBRANCH  69  70
ENDBRANCH  48  62
BRANCH  49  74
ATOM     74  C   UNL A   1      36.593  33.117  31.021  1.00  0.00     0.058 A 
ATOM     75  C   UNL A   1      36.856  33.926  29.906  1.00  0.00     0.135 A 
ATOM     76  C   UNL A   1      35.266  33.030  31.467  1.00  0.00     0.135 A 
ATOM     77  F   UNL A   1      38.111  34.046  29.447  1.00  0.00    -0.206 F 
ATOM     78  C   UNL A   1      35.849  34.646  29.271  1.00  0.00     0.059 A 
ATOM     79  C   UNL A   1      34.237  33.726  30.836  1.00  0.00     0.059 A 
ATOM     80  F   UNL A   1      34.959  32.257  32.520  1.00  0.00    -0.206 F 
ATOM     81  C   UNL A   1      34.542  34.541  29.745  1.00  0.00     0.060 A 
BRANCH  81  82
ATOM     82  S   UNL A   1      33.235  35.454  28.894  1.00  0.00     0.124 S 
ATOM     83  O   UNL A   1      32.682  34.427  28.019  1.00  0.00    -0.237 OA
ATOM     84  O   UNL A   1      32.383  35.875  30.002  1.00  0.00    -0.237 OA
ATOM     85  O   UNL A   1      33.961  36.532  28.228  1.00  0.00    -0.744 OA
ENDBRANCH  81  82
ENDBRANCH  49  74
BRANCH  61  86
ATOM     86  C   UNL A   1      39.926  34.229  37.042  1.00  0.00     0.058 A 
ATOM     87  C   UNL A   1      40.587  35.457  36.903  1.00  0.00     0.135 A 
ATOM     88  C   UNL A   1      39.079  34.058  38.149  1.00  0.00     0.135 A 
ATOM     89  F   UNL A   1      41.413  35.666  35.864  1.00  0.00    -0.206 F 
ATOM     90  C   UNL A   1      40.418  36.480  37.829  1.00  0.00     0.059 A 
ATOM     91  C   UNL A   1      38.878  35.074  39.076  1.00  0.00     0.059 A 
ATOM     92  F   UNL A   1      38.416  32.902  38.320  1.00  0.00    -0.206 F 
ATOM     93  C   UNL A   1      39.556  36.280  38.911  1.00  0.00     0.060 A 
BRANCH  93  94
ATOM     94  S   UNL A   1      39.293  37.638  40.073  1.00  0.00     0.124 S 
ATOM     95  O   UNL A   1      38.161  38.328  39.466  1.00  0.00    -0.237 OA
ATOM     96  O   UNL A   1      39.013  36.934  41.320  1.00  0.00    -0.237 OA
ATOM     97  O   UNL A   1      40.562  38.359  40.040  1.00  0.00    -0.744 OA
ENDBRANCH  93  94
ENDBRANCH  61  86
ENDBRANCH  35  36
ENDBRANCH  28  30
ENDBRANCH  27  28
ENDBRANCH  26  27
ENDBRANCH  25  26
ENDBRANCH   1  25
TORSDOF 21
ENDMDL
MODEL 2
REMARK VINA RESULT:     -11.0      1.246      2.523
REMARK SMILES C[C@H](C(=O)OCCOCCOC(=O)c1ccc(-c2c3nc(c(-c4c(F)cc(S(=O)(=O)[O-])cc4F)c4ccc([nH]4)c(-c4c(F)cc(S(=O)(=O)[O-])cc4F)c4nc(c(-c5c(F)cc(S(=O)(=O)[O-])cc5F)c5ccc2[nH]5)C=C4)C=C3)cc1)[C@@H](C(=O)c1ccccc1)c1ccc(F)cc1
REMARK SMILES IDX 8 1 7 2 6 3 5 4 3 5 4 6 2 7 1 8 80 9 81 10 82 11 83 12 84 13
REMARK SMILES IDX 88 14 85 15 87 16 86 17 89 18 90 19 95 20 91 21 94 22 92 23
REMARK SMILES IDX 93 24 9 25 10 26 11 27 12 28 13 29 14 30 15 31 79 32 16 33
REMARK SMILES IDX 78 34 17 35 18 36 19 37 72 38 20 39 77 40 71 41 73 42 21 43
REMARK SMILES IDX 76 44 70 45 69 46 22 48 56 49 35 50 55 51 36 52 39 53 54 54
REMARK SMILES IDX 74 55 37 56 38 57 53 59 75 60 40 61 23 62 24 63 33 64 25 65
REMARK SMILES IDX 26 66 32 67 34 68 27 69 28 70 29 71 30 72 31 73 57 74 58 75
REMARK SMILES IDX 67 76 59 77 60 78 66 79 68 80 61 81 62 82 63 83 64 84 65 85
REMARK SMILES IDX 41 86 42 87 51 88 43 89 44 90 50 91 52 92 45 93 46 94 47 95
REMARK SMILES IDX 48 96 49 97
REMARK H PARENT 73 47 39 58
REMARK Flexibility Score: inf
ROOT
ATOM      1  O   UNL A   1      41.547  20.982  26.016  1.00  0.00    -0.374 OA
ENDROOT
BRANCH   1   2
ATOM      2  C   UNL A   1      40.141  20.751  26.108  1.00  0.00     0.202 C 
BRANCH   2   3
ATOM      3  C   UNL A   1      39.377  22.053  26.360  1.00  0.00     0.261 C 
BRANCH   3   4
ATOM      4  O   UNL A   1      38.161  22.143  25.589  1.00  0.00    -0.463 OA
BRANCH   4   5
ATOM      5  C   UNL A   1      37.452  23.297  25.659  1.00  0.00     0.309 C 
ATOM      6  O   UNL A   1      37.776  24.287  26.300  1.00  0.00    -0.252 OA
BRANCH   5   7
ATOM      7  C   UNL A   1      36.166  23.198  24.847  1.00  0.00     0.111 C 
ATOM      8  C   UNL A   1      36.575  22.474  23.548  1.00  0.00     0.021 C 
BRANCH   7   9
ATOM      9  C   UNL A   1      35.083  22.460  25.663  1.00  0.00     0.105 C 
BRANCH   9  10
ATOM     10  C   UNL A   1      33.990  23.201  26.490  1.00  0.00     0.171 C 
ATOM     11  O   UNL A   1      33.620  22.695  27.561  1.00  0.00    -0.293 OA
BRANCH  10  12
ATOM     12  C   UNL A   1      33.394  24.532  26.194  1.00  0.00     0.018 A 
ATOM     13  C   UNL A   1      32.011  24.630  26.417  1.00  0.00     0.012 A 
ATOM     14  C   UNL A   1      34.052  25.632  25.646  1.00  0.00     0.012 A 
ATOM     15  C   UNL A   1      31.324  25.805  26.141  1.00  0.00     0.001 A 
ATOM     16  C   UNL A   1      33.376  26.843  25.454  1.00  0.00     0.001 A 
ATOM     17  C   UNL A   1      32.012  26.930  25.708  1.00  0.00     0.000 A 
ENDBRANCH  10  12
ENDBRANCH   9  10
BRANCH   9  18
ATOM     18  C   UNL A   1      34.326  21.411  24.829  1.00  0.00    -0.036 A 
ATOM     19  C   UNL A   1      33.234  21.786  24.025  1.00  0.00     0.007 A 
ATOM     20  C   UNL A   1      34.627  20.047  24.984  1.00  0.00     0.007 A 
ATOM     21  C   UNL A   1      32.429  20.809  23.435  1.00  0.00     0.039 A 
ATOM     22  C   UNL A   1      33.826  19.077  24.384  1.00  0.00     0.039 A 
ATOM     23  C   UNL A   1      32.727  19.466  23.628  1.00  0.00     0.123 A 
ATOM     24  F   UNL A   1      31.933  18.530  23.091  1.00  0.00    -0.207 F 
ENDBRANCH   9  18
ENDBRANCH   7   9
ENDBRANCH   5   7
ENDBRANCH   4   5
ENDBRANCH   3   4
ENDBRANCH   2   3
ENDBRANCH   1   2
BRANCH   1  25
ATOM     25  C   UNL A   1      41.999  22.169  26.665  1.00  0.00     0.202 C 
BRANCH  25  26
ATOM     26  C   UNL A   1      42.874  23.013  25.741  1.00  0.00     0.261 C 
BRANCH  26  27
ATOM     27  O   UNL A   1      43.247  24.238  26.393  1.00  0.00    -0.460 OA
BRANCH  27  28
ATOM     28  C   UNL A   1      42.628  25.367  25.962  1.00  0.00     0.338 C 
ATOM     29  O   UNL A   1      42.284  25.636  24.829  1.00  0.00    -0.246 OA
BRANCH  28  30
ATOM     30  C   UNL A   1      42.316  26.205  27.144  1.00  0.00     0.060 A 
ATOM     31  C   UNL A   1      41.305  25.796  28.020  1.00  0.00     0.016 A 
ATOM     32  C   UNL A   1      43.030  27.375  27.406  1.00  0.00     0.016 A 
ATOM     33  C   UNL A   1      41.019  26.552  29.164  1.00  0.00     0.010 A 
ATOM     34  C   UNL A   1      42.779  28.097  28.574  1.00  0.00     0.010 A 
ATOM     35  C   UNL A   1      41.756  27.708  29.455  1.00  0.00    -0.014 A 
BRANCH  35  36
ATOM     36  C   UNL A   1      41.400  28.588  30.603  1.00  0.00     0.031 A 
ATOM     37  C   UNL A   1      42.193  28.472  31.883  1.00  0.00     0.074 A 
ATOM     38  C   UNL A   1      40.366  29.451  30.536  1.00  0.00     0.049 A 
ATOM     39  N   UNL A   1      42.043  29.111  33.014  1.00  0.00    -0.248 NA
ATOM     40  C   UNL A   1      43.277  27.476  31.901  1.00  0.00     0.031 C 
ATOM     41  C   UNL A   1      39.476  29.632  29.387  1.00  0.00     0.029 A 
ATOM     42  N   UNL A   1      39.882  30.340  31.466  1.00  0.00    -0.354 N 
ATOM     43  C   UNL A   1      42.993  28.578  33.877  1.00  0.00     0.074 A 
ATOM     44  C   UNL A   1      43.656  27.508  33.167  1.00  0.00     0.031 C 
ATOM     45  C   UNL A   1      38.564  30.577  29.677  1.00  0.00     0.029 A 
ATOM     46  C   UNL A   1      38.805  31.077  31.029  1.00  0.00     0.049 A 
ATOM     47  H   UNL A   1      40.271  30.440  32.365  1.00  0.00     0.167 HD
ATOM     48  C   UNL A   1      43.327  28.969  35.129  1.00  0.00     0.037 A 
ATOM     49  C   UNL A   1      38.110  32.058  31.639  1.00  0.00     0.037 A 
ATOM     50  C   UNL A   1      42.722  30.076  35.812  1.00  0.00     0.049 A 
ATOM     51  C   UNL A   1      38.529  32.515  33.013  1.00  0.00     0.074 A 
ATOM     52  C   UNL A   1      43.042  30.607  37.048  1.00  0.00     0.029 A 
ATOM     53  N   UNL A   1      41.676  30.833  35.306  1.00  0.00    -0.354 N 
ATOM     54  N   UNL A   1      39.494  32.060  33.776  1.00  0.00    -0.248 NA
ATOM     55  C   UNL A   1      37.781  33.637  33.600  1.00  0.00     0.031 C 
ATOM     56  C   UNL A   1      42.177  31.678  37.298  1.00  0.00     0.029 A 
ATOM     57  C   UNL A   1      41.338  31.828  36.206  1.00  0.00     0.049 A 
ATOM     58  H   UNL A   1      41.240  30.686  34.437  1.00  0.00     0.167 HD
ATOM     59  C   UNL A   1      39.494  32.864  34.911  1.00  0.00     0.074 A 
ATOM     60  C   UNL A   1      38.435  33.835  34.736  1.00  0.00     0.031 C 
ATOM     61  C   UNL A   1      40.301  32.807  35.999  1.00  0.00     0.037 A 
BRANCH  48  62
ATOM     62  C   UNL A   1      44.426  28.205  35.812  1.00  0.00     0.058 A 
ATOM     63  C   UNL A   1      45.777  28.534  35.612  1.00  0.00     0.135 A 
ATOM     64  C   UNL A   1      44.132  27.115  36.646  1.00  0.00     0.135 A 
ATOM     65  F   UNL A   1      46.112  29.555  34.808  1.00  0.00    -0.206 F 
ATOM     66  C   UNL A   1      46.799  27.776  36.169  1.00  0.00     0.059 A 
ATOM     67  C   UNL A   1      45.139  26.361  37.240  1.00  0.00     0.059 A 
ATOM     68  F   UNL A   1      42.857  26.761  36.872  1.00  0.00    -0.206 F 
ATOM     69  C   UNL A   1      46.470  26.684  36.973  1.00  0.00     0.060 A 
BRANCH  69  70
ATOM     70  S   UNL A   1      47.806  25.683  37.657  1.00  0.00     0.124 S 
ATOM     71  O   UNL A   1      47.062  24.723  38.466  1.00  0.00    -0.237 OA
ATOM     72  O   UNL A   1      48.441  25.142  36.459  1.00  0.00    -0.237 OA
ATOM     73  O   UNL A   1      48.605  26.649  38.404  1.00  0.00    -0.744 OA
ENDBRANCH  69  70
ENDBRANCH  48  62
BRANCH  49  74
ATOM     74  C   UNL A   1      36.989  32.737  30.935  1.00  0.00     0.058 A 
ATOM     75  C   UNL A   1      35.658  32.376  31.195  1.00  0.00     0.135 A 
ATOM     76  C   UNL A   1      37.220  33.733  29.976  1.00  0.00     0.135 A 
ATOM     77  F   UNL A   1      35.387  31.423  32.100  1.00  0.00    -0.206 F 
ATOM     78  C   UNL A   1      34.596  32.959  30.512  1.00  0.00     0.059 A 
ATOM     79  C   UNL A   1      36.172  34.346  29.292  1.00  0.00     0.059 A 
ATOM     80  F   UNL A   1      38.473  34.125  29.701  1.00  0.00    -0.206 F 
ATOM     81  C   UNL A   1      34.863  33.943  29.560  1.00  0.00     0.060 A 
BRANCH  81  82
ATOM     82  S   UNL A   1      33.474  34.718  28.701  1.00  0.00     0.124 S 
ATOM     83  O   UNL A   1      33.073  33.660  27.781  1.00  0.00    -0.237 OA
ATOM     84  O   UNL A   1      32.552  34.995  29.798  1.00  0.00    -0.237 OA
ATOM     85  O   UNL A   1      34.078  35.897  28.087  1.00  0.00    -0.744 OA
ENDBRANCH  81  82
ENDBRANCH  49  74
BRANCH  61  86
ATOM     86  C   UNL A   1      40.113  33.844  37.067  1.00  0.00     0.058 A 
ATOM     87  C   UNL A   1      40.674  35.124  36.956  1.00  0.00     0.135 A 
ATOM     88  C   UNL A   1      39.286  33.581  38.172  1.00  0.00     0.135 A 
ATOM     89  F   UNL A   1      41.476  35.423  35.920  1.00  0.00    -0.206 F 
ATOM     90  C   UNL A   1      40.428  36.109  37.907  1.00  0.00     0.059 A 
ATOM     91  C   UNL A   1      39.009  34.556  39.123  1.00  0.00     0.059 A 
ATOM     92  F   UNL A   1      38.718  32.373  38.317  1.00  0.00    -0.206 F 
ATOM     93  C   UNL A   1      39.589  35.816  38.985  1.00  0.00     0.060 A 
BRANCH  93  94
ATOM     94  S   UNL A   1      39.225  37.120  40.180  1.00  0.00     0.124 S 
ATOM     95  O   UNL A   1      38.382  36.414  41.138  1.00  0.00    -0.237 OA
ATOM     96  O   UNL A   1      40.553  37.492  40.656  1.00  0.00    -0.237 OA
ATOM     97  O   UNL A   1      38.550  38.135  39.375  1.00  0.00    -0.744 OA
ENDBRANCH  93  94
ENDBRANCH  61  86
ENDBRANCH  35  36
ENDBRANCH  28  30
ENDBRANCH  27  28
ENDBRANCH  26  27
ENDBRANCH  25  26
ENDBRANCH   1  25
TORSDOF 21
ENDMDL
MODEL 3
REMARK VINA RESULT:     -10.6      4.067      7.044
REMARK SMILES C[C@H](C(=O)OCCOCCOC(=O)c1ccc(-c2c3nc(c(-c4c(F)cc(S(=O)(=O)[O-])cc4F)c4ccc([nH]4)c(-c4c(F)cc(S(=O)(=O)[O-])cc4F)c4nc(c(-c5c(F)cc(S(=O)(=O)[O-])cc5F)c5ccc2[nH]5)C=C4)C=C3)cc1)[C@@H](C(=O)c1ccccc1)c1ccc(F)cc1
REMARK SMILES IDX 8 1 7 2 6 3 5 4 3 5 4 6 2 7 1 8 80 9 81 10 82 11 83 12 84 13
REMARK SMILES IDX 88 14 85 15 87 16 86 17 89 18 90 19 95 20 91 21 94 22 92 23
REMARK SMILES IDX 93 24 9 25 10 26 11 27 12 28 13 29 14 30 15 31 79 32 16 33
REMARK SMILES IDX 78 34 17 35 18 36 19 37 72 38 20 39 77 40 71 41 73 42 21 43
REMARK SMILES IDX 76 44 70 45 69 46 22 48 56 49 35 50 55 51 36 52 39 53 54 54
REMARK SMILES IDX 74 55 37 56 38 57 53 59 75 60 40 61 23 62 24 63 33 64 25 65
REMARK SMILES IDX 26 66 32 67 34 68 27 69 28 70 29 71 30 72 31 73 57 74 58 75
REMARK SMILES IDX 67 76 59 77 60 78 66 79 68 80 61 81 62 82 63 83 64 84 65 85
REMARK SMILES IDX 41 86 42 87 51 88 43 89 44 90 50 91 52 92 45 93 46 94 47 95
REMARK SMILES IDX 48 96 49 97
REMARK H PARENT 73 47 39 58
REMARK Flexibility Score: inf
ROOT
ATOM      1  O   UNL A   1      42.031  20.587  25.737  1.00  0.00    -0.374 OA
ENDROOT
BRANCH   1   2
ATOM      2  C   UNL A   1      43.190  19.759  25.643  1.00  0.00     0.202 C 
BRANCH   2   3
ATOM      3  C   UNL A   1      44.401  20.551  25.143  1.00  0.00     0.261 C 
BRANCH   3   4
ATOM      4  O   UNL A   1      44.167  21.975  25.130  1.00  0.00    -0.463 OA
BRANCH   4   5
ATOM      5  C   UNL A   1      44.948  22.751  25.921  1.00  0.00     0.309 C 
ATOM      6  O   UNL A   1      46.037  22.427  26.374  1.00  0.00    -0.252 OA
BRANCH   5   7
ATOM      7  C   UNL A   1      44.280  24.092  26.203  1.00  0.00     0.111 C 
ATOM      8  C   UNL A   1      43.325  23.814  27.382  1.00  0.00     0.021 C 
BRANCH   7   9
ATOM      9  C   UNL A   1      45.351  25.161  26.501  1.00  0.00     0.105 C 
BRANCH   9  10
ATOM     10  C   UNL A   1      46.618  25.365  25.617  1.00  0.00     0.171 C 
ATOM     11  O   UNL A   1      46.459  25.622  24.413  1.00  0.00    -0.293 OA
BRANCH  10  12
ATOM     12  C   UNL A   1      48.034  25.394  26.076  1.00  0.00     0.018 A 
ATOM     13  C   UNL A   1      48.944  25.961  25.170  1.00  0.00     0.012 A 
ATOM     14  C   UNL A   1      48.534  24.842  27.254  1.00  0.00     0.012 A 
ATOM     15  C   UNL A   1      50.302  26.011  25.458  1.00  0.00     0.001 A 
ATOM     16  C   UNL A   1      49.889  24.975  27.583  1.00  0.00     0.001 A 
ATOM     17  C   UNL A   1      50.771  25.565  26.686  1.00  0.00     0.000 A 
ENDBRANCH  10  12
ENDBRANCH   9  10
BRANCH   9  18
ATOM     18  C   UNL A   1      44.749  26.567  26.685  1.00  0.00    -0.036 A 
ATOM     19  C   UNL A   1      43.591  26.949  25.983  1.00  0.00     0.007 A 
ATOM     20  C   UNL A   1      45.442  27.529  27.441  1.00  0.00     0.007 A 
ATOM     21  C   UNL A   1      43.170  28.280  25.996  1.00  0.00     0.039 A 
ATOM     22  C   UNL A   1      45.010  28.854  27.458  1.00  0.00     0.039 A 
ATOM     23  C   UNL A   1      43.888  29.220  26.725  1.00  0.00     0.123 A 
ATOM     24  F   UNL A   1      43.503  30.503  26.706  1.00  0.00    -0.207 F 
ENDBRANCH   9  18
ENDBRANCH   7   9
ENDBRANCH   5   7
ENDBRANCH   4   5
ENDBRANCH   3   4
ENDBRANCH   2   3
ENDBRANCH   1   2
BRANCH   1  25
ATOM     25  C   UNL A   1      40.877  19.938  26.270  1.00  0.00     0.202 C 
BRANCH  25  26
ATOM     26  C   UNL A   1      39.629  20.806  26.123  1.00  0.00     0.261 C 
BRANCH  26  27
ATOM     27  O   UNL A   1      39.868  22.115  26.665  1.00  0.00    -0.460 OA
BRANCH  27  28
ATOM     28  C   UNL A   1      39.025  23.100  26.265  1.00  0.00     0.338 C 
ATOM     29  O   UNL A   1      38.087  23.005  25.499  1.00  0.00    -0.246 OA
BRANCH  28  30
ATOM     30  C   UNL A   1      39.359  24.333  27.017  1.00  0.00     0.060 A 
ATOM     31  C   UNL A   1      40.053  25.358  26.367  1.00  0.00     0.016 A 
ATOM     32  C   UNL A   1      38.970  24.492  28.347  1.00  0.00     0.016 A 
ATOM     33  C   UNL A   1      40.346  26.548  27.046  1.00  0.00     0.010 A 
ATOM     34  C   UNL A   1      39.216  25.700  29.004  1.00  0.00     0.010 A 
ATOM     35  C   UNL A   1      39.926  26.732  28.371  1.00  0.00    -0.014 A 
BRANCH  35  36
ATOM     36  C   UNL A   1      40.319  27.940  29.149  1.00  0.00     0.031 A 
ATOM     37  C   UNL A   1      41.690  27.985  29.780  1.00  0.00     0.074 A 
ATOM     38  C   UNL A   1      39.467  28.969  29.333  1.00  0.00     0.049 A 
ATOM     39  N   UNL A   1      42.233  28.916  30.522  1.00  0.00    -0.248 NA
ATOM     40  C   UNL A   1      42.551  26.808  29.579  1.00  0.00     0.031 C 
ATOM     41  C   UNL A   1      38.093  29.041  28.832  1.00  0.00     0.029 A 
ATOM     42  N   UNL A   1      39.632  30.158  30.004  1.00  0.00    -0.354 N 
ATOM     43  C   UNL A   1      43.479  28.424  30.890  1.00  0.00     0.074 A 
ATOM     44  C   UNL A   1      43.579  27.083  30.362  1.00  0.00     0.031 C 
ATOM     45  C   UNL A   1      37.546  30.213  29.204  1.00  0.00     0.029 A 
ATOM     46  C   UNL A   1      38.530  30.980  29.964  1.00  0.00     0.049 A 
ATOM     47  H   UNL A   1      40.464  30.398  30.471  1.00  0.00     0.167 HD
ATOM     48  C   UNL A   1      44.479  29.043  31.562  1.00  0.00     0.037 A 
ATOM     49  C   UNL A   1      38.344  32.220  30.461  1.00  0.00     0.037 A 
ATOM     50  C   UNL A   1      44.414  30.399  32.027  1.00  0.00     0.049 A 
ATOM     51  C   UNL A   1      39.485  32.913  31.162  1.00  0.00     0.074 A 
ATOM     52  C   UNL A   1      45.399  31.147  32.645  1.00  0.00     0.029 A 
ATOM     53  N   UNL A   1      43.300  31.216  31.910  1.00  0.00    -0.354 N 
ATOM     54  N   UNL A   1      40.692  32.465  31.417  1.00  0.00    -0.248 NA
ATOM     55  C   UNL A   1      39.249  34.290  31.620  1.00  0.00     0.031 C 
ATOM     56  C   UNL A   1      44.875  32.415  32.917  1.00  0.00     0.029 A 
ATOM     57  C   UNL A   1      43.573  32.462  32.445  1.00  0.00     0.049 A 
ATOM     58  H   UNL A   1      42.443  30.949  31.506  1.00  0.00     0.167 HD
ATOM     59  C   UNL A   1      41.368  33.516  32.027  1.00  0.00     0.074 A 
ATOM     60  C   UNL A   1      40.438  34.624  32.102  1.00  0.00     0.031 C 
ATOM     61  C   UNL A   1      42.645  33.563  32.481  1.00  0.00     0.037 A 
BRANCH  48  62
ATOM     62  C   UNL A   1      45.737  28.253  31.793  1.00  0.00     0.058 A 
ATOM     63  C   UNL A   1      45.829  27.317  32.836  1.00  0.00     0.135 A 
ATOM     64  C   UNL A   1      46.869  28.455  30.989  1.00  0.00     0.135 A 
ATOM     65  F   UNL A   1      44.780  27.101  33.646  1.00  0.00    -0.206 F 
ATOM     66  C   UNL A   1      47.016  26.649  33.110  1.00  0.00     0.059 A 
ATOM     67  C   UNL A   1      48.059  27.774  31.226  1.00  0.00     0.059 A 
ATOM     68  F   UNL A   1      46.833  29.336  29.977  1.00  0.00    -0.206 F 
ATOM     69  C   UNL A   1      48.130  26.893  32.305  1.00  0.00     0.060 A 
BRANCH  69  70
ATOM     70  S   UNL A   1      49.677  26.052  32.697  1.00  0.00     0.124 S 
ATOM     71  O   UNL A   1      50.352  26.072  31.403  1.00  0.00    -0.237 OA
ATOM     72  O   UNL A   1      50.253  26.913  33.724  1.00  0.00    -0.237 OA
ATOM     73  O   UNL A   1      49.240  24.737  33.158  1.00  0.00    -0.744 OA
ENDBRANCH  69  70
ENDBRANCH  48  62
BRANCH  49  74
ATOM     74  C   UNL A   1      37.052  32.928  30.256  1.00  0.00     0.058 A 
ATOM     75  C   UNL A   1      36.783  33.591  29.048  1.00  0.00     0.135 A 
ATOM     76  C   UNL A   1      36.076  32.981  31.260  1.00  0.00     0.135 A 
ATOM     77  F   UNL A   1      37.690  33.574  28.059  1.00  0.00    -0.206 F 
ATOM     78  C   UNL A   1      35.605  34.303  28.852  1.00  0.00     0.059 A 
ATOM     79  C   UNL A   1      34.879  33.672  31.081  1.00  0.00     0.059 A 
ATOM     80  F   UNL A   1      36.277  32.351  32.428  1.00  0.00    -0.206 F 
ATOM     81  C   UNL A   1      34.659  34.340  29.876  1.00  0.00     0.060 A 
BRANCH  81  82
ATOM     82  S   UNL A   1      33.117  35.241  29.600  1.00  0.00     0.124 S 
ATOM     83  O   UNL A   1      32.542  34.501  28.482  1.00  0.00    -0.237 OA
ATOM     84  O   UNL A   1      32.438  35.088  30.883  1.00  0.00    -0.237 OA
ATOM     85  O   UNL A   1      33.571  36.595  29.297  1.00  0.00    -0.744 OA
ENDBRANCH  81  82
ENDBRANCH  49  74
BRANCH  61  86
ATOM     86  C   UNL A   1      43.137  34.859  33.055  1.00  0.00     0.058 A 
ATOM     87  C   UNL A   1      43.772  35.822  32.258  1.00  0.00     0.135 A 
ATOM     88  C   UNL A   1      42.890  35.176  34.401  1.00  0.00     0.135 A 
ATOM     89  F   UNL A   1      44.036  35.563  30.967  1.00  0.00    -0.206 F 
ATOM     90  C   UNL A   1      44.153  37.055  32.776  1.00  0.00     0.059 A 
ATOM     91  C   UNL A   1      43.242  36.411  34.935  1.00  0.00     0.059 A 
ATOM     92  F   UNL A   1      42.275  34.290  35.202  1.00  0.00    -0.206 F 
ATOM     93  C   UNL A   1      43.878  37.342  34.116  1.00  0.00     0.060 A 
BRANCH  93  94
ATOM     94  S   UNL A   1      44.318  38.970  34.762  1.00  0.00     0.124 S 
ATOM     95  O   UNL A   1      43.304  39.816  34.141  1.00  0.00    -0.237 OA
ATOM     96  O   UNL A   1      44.191  38.782  36.204  1.00  0.00    -0.237 OA
ATOM     97  O   UNL A   1      45.682  39.167  34.281  1.00  0.00    -0.744 OA
ENDBRANCH  93  94
ENDBRANCH  61  86
ENDBRANCH  35  36
ENDBRANCH  28  30
ENDBRANCH  27  28
ENDBRANCH  26  27
ENDBRANCH  25  26
ENDBRANCH   1  25
TORSDOF 21
ENDMDL
