MODEL 1
REMARK VINA RESULT:      -6.9      0.000      0.000
REMARK SMILES [NH3+][C@@H](Cc1c[nH]c2ccccc12)C(=O)N[C@@H](CS)C(=O)N[C@@H](CO)C(=O)OCCOCCOC(=O)c1ccc(-c2c3nc(c(-c4c(F)cc(S(=O)(=O)[O-])cc4F)c4ccc([nH]4)c(-c4c(F)cc(S(=O)(=O)[O-])cc4F)c4nc(c(-c5c(F)cc(S(=O)(=O)[O-])cc5F)c5ccc2[nH]5)C=C4)C=C3)cc1
REMARK SMILES IDX 28 1 27 2 25 3 26 4 22 5 21 6 19 7 20 8 16 10 15 11 13 12
REMARK SMILES IDX 14 13 2 15 1 16 3 20 4 21 5 22 12 23 6 24 7 25 11 26 8 28
REMARK SMILES IDX 10 29 9 30 17 31 18 32 23 34 24 35 29 37 30 38 31 39 32 40
REMARK SMILES IDX 33 41 34 42 35 43 36 44 37 45 101 46 38 47 100 48 39 49
REMARK SMILES IDX 40 50 41 51 94 52 42 53 99 54 93 55 95 56 43 57 98 58 92 59
REMARK SMILES IDX 91 60 44 62 78 63 57 64 77 65 58 66 61 67 76 68 96 69 59 70
REMARK SMILES IDX 60 71 75 73 97 74 62 75 45 76 46 77 55 78 47 79 48 80 54 81
REMARK SMILES IDX 56 82 49 83 50 84 51 85 52 86 53 87 79 88 80 89 89 90 81 91
REMARK SMILES IDX 82 92 88 93 90 94 83 95 84 96 85 97 86 98 87 99 63 100
REMARK SMILES IDX 64 101 73 102 65 103 66 104 72 105 74 106 67 107 68 108
REMARK SMILES IDX 69 109 70 110 71 111
REMARK H PARENT 21 9 15 14 1 17 1 18 1 19 6 27 18 33 24 36 95 61 61 72
REMARK Flexibility Score: inf
ROOT
ATOM      1  C   UNL A   1      34.464  34.452  31.555  1.00  0.00     0.261 C 
ENDROOT
BRANCH   1   2
ATOM      2  O   UNL A   1      34.729  33.081  31.228  1.00  0.00    -0.462 OA
BRANCH   2   3
ATOM      3  C   UNL A   1      35.543  32.883  30.155  1.00  0.00     0.331 C 
ATOM      4  O   UNL A   1      35.376  33.370  29.043  1.00  0.00    -0.250 OA
BRANCH   3   5
ATOM      5  C   UNL A   1      36.694  31.932  30.481  1.00  0.00     0.218 C 
BRANCH   5   6
ATOM      6  N   UNL A   1      37.868  32.073  29.603  1.00  0.00    -0.339 N 
ATOM      7  C   UNL A   1      38.635  30.970  29.378  1.00  0.00     0.244 C 
ATOM      8  O   UNL A   1      39.529  30.719  30.188  1.00  0.00    -0.273 OA
ATOM      9  H   UNL A   1      38.091  32.938  29.189  1.00  0.00     0.164 HD
BRANCH   7  10
ATOM     10  C   UNL A   1      38.255  29.992  28.241  1.00  0.00     0.181 C 
BRANCH  10  11
ATOM     11  N   UNL A   1      38.352  28.634  28.752  1.00  0.00    -0.338 N 
ATOM     12  C   UNL A   1      39.474  27.861  28.863  1.00  0.00     0.279 C 
ATOM     13  O   UNL A   1      39.447  26.978  29.728  1.00  0.00    -0.268 OA
ATOM     14  H   UNL A   1      37.510  28.222  29.054  1.00  0.00     0.164 HD
BRANCH  12  15
ATOM     15  C   UNL A   1      40.700  27.989  27.913  1.00  0.00     0.275 C 
BRANCH  15  16
ATOM     16  N   UNL A   1      41.594  29.087  28.352  1.00  0.00    -0.347 N 
ATOM     17  H   UNL A   1      42.101  28.799  29.187  1.00  0.00     0.345 HD
ATOM     18  H   UNL A   1      41.036  29.915  28.562  1.00  0.00     0.345 HD
ATOM     19  H   UNL A   1      42.257  29.303  27.608  1.00  0.00     0.345 HD
ENDBRANCH  15  16
BRANCH  15  20
ATOM     20  C   UNL A   1      41.387  26.683  27.435  1.00  0.00     0.113 C 
BRANCH  20  21
ATOM     21  C   UNL A   1      42.640  26.221  28.138  1.00  0.00    -0.016 A 
ATOM     22  C   UNL A   1      42.917  26.238  29.496  1.00  0.00     0.087 A 
ATOM     23  C   UNL A   1      43.804  25.661  27.504  1.00  0.00     0.003 A 
ATOM     24  N   UNL A   1      44.101  25.580  29.707  1.00  0.00    -0.361 N 
ATOM     25  C   UNL A   1      44.641  25.177  28.511  1.00  0.00     0.046 A 
ATOM     26  C   UNL A   1      44.190  25.457  26.163  1.00  0.00     0.010 A 
ATOM     27  H   UNL A   1      44.508  25.420  30.590  1.00  0.00     0.166 HD
ATOM     28  C   UNL A   1      45.796  24.431  28.246  1.00  0.00     0.026 A 
ATOM     29  C   UNL A   1      45.356  24.734  25.879  1.00  0.00     0.001 A 
ATOM     30  C   UNL A   1      46.133  24.210  26.907  1.00  0.00     0.002 A 
ENDBRANCH  20  21
ENDBRANCH  15  20
ENDBRANCH  12  15
ENDBRANCH  10  11
BRANCH  10  31
ATOM     31  C   UNL A   1      37.042  30.273  27.352  1.00  0.00     0.101 C 
BRANCH  31  32
ATOM     32  S   UNL A   1      35.440  29.585  27.860  1.00  0.00    -0.177 SA
ATOM     33  H   UNL A   1      34.442  30.409  27.447  1.00  0.00     0.102 HD
ENDBRANCH  31  32
ENDBRANCH  10  31
ENDBRANCH   7  10
ENDBRANCH   5   6
BRANCH   5  34
ATOM     34  C   UNL A   1      37.085  32.137  31.951  1.00  0.00     0.193 C 
BRANCH  34  35
ATOM     35  O   UNL A   1      36.186  31.434  32.809  1.00  0.00    -0.394 OA
ATOM     36  H   UNL A   1      36.531  30.545  32.980  1.00  0.00     0.210 HD
ENDBRANCH  34  35
ENDBRANCH   5  34
ENDBRANCH   3   5
ENDBRANCH   2   3
ENDBRANCH   1   2
BRANCH   1  37
ATOM     37  C   UNL A   1      34.202  34.606  33.055  1.00  0.00     0.202 C 
BRANCH  37  38
ATOM     38  O   UNL A   1      34.932  33.756  33.939  1.00  0.00    -0.374 OA
BRANCH  38  39
ATOM     39  C   UNL A   1      35.463  34.338  35.125  1.00  0.00     0.202 C 
BRANCH  39  40
ATOM     40  C   UNL A   1      36.807  33.812  35.654  1.00  0.00     0.261 C 
BRANCH  40  41
ATOM     41  O   UNL A   1      37.072  32.443  35.315  1.00  0.00    -0.460 OA
BRANCH  41  42
ATOM     42  C   UNL A   1      37.783  31.764  36.248  1.00  0.00     0.338 C 
ATOM     43  O   UNL A   1      37.473  31.572  37.419  1.00  0.00    -0.246 OA
BRANCH  42  44
ATOM     44  C   UNL A   1      38.945  31.117  35.621  1.00  0.00     0.060 A 
ATOM     45  C   UNL A   1      40.219  31.452  36.099  1.00  0.00     0.016 A 
ATOM     46  C   UNL A   1      38.794  30.258  34.532  1.00  0.00     0.016 A 
ATOM     47  C   UNL A   1      41.354  30.942  35.475  1.00  0.00     0.010 A 
ATOM     48  C   UNL A   1      39.936  29.762  33.896  1.00  0.00     0.010 A 
ATOM     49  C   UNL A   1      41.218  30.122  34.348  1.00  0.00    -0.014 A 
BRANCH  49  50
ATOM     50  C   UNL A   1      42.420  29.756  33.561  1.00  0.00     0.031 A 
ATOM     51  C   UNL A   1      42.922  30.714  32.516  1.00  0.00     0.074 A 
ATOM     52  C   UNL A   1      43.065  28.600  33.796  1.00  0.00     0.049 A 
ATOM     53  N   UNL A   1      43.907  30.575  31.670  1.00  0.00    -0.248 NA
ATOM     54  C   UNL A   1      42.216  32.002  32.412  1.00  0.00     0.031 C 
ATOM     55  C   UNL A   1      42.699  27.622  34.820  1.00  0.00     0.029 A 
ATOM     56  N   UNL A   1      44.163  28.050  33.183  1.00  0.00    -0.354 N 
ATOM     57  C   UNL A   1      43.940  31.751  30.929  1.00  0.00     0.074 A 
ATOM     58  C   UNL A   1      42.854  32.580  31.404  1.00  0.00     0.031 C 
ATOM     59  C   UNL A   1      43.551  26.583  34.756  1.00  0.00     0.029 A 
ATOM     60  C   UNL A   1      44.495  26.806  33.663  1.00  0.00     0.049 A 
ATOM     61  H   UNL A   1      44.664  28.504  32.467  1.00  0.00     0.167 HD
ATOM     62  C   UNL A   1      44.804  32.108  29.950  1.00  0.00     0.037 A 
ATOM     63  C   UNL A   1      45.437  25.936  33.246  1.00  0.00     0.037 A 
ATOM     64  C   UNL A   1      45.880  31.273  29.486  1.00  0.00     0.049 A 
ATOM     65  C   UNL A   1      46.330  26.320  32.093  1.00  0.00     0.074 A 
ATOM     66  C   UNL A   1      46.814  31.541  28.501  1.00  0.00     0.029 A 
ATOM     67  N   UNL A   1      46.164  30.003  29.971  1.00  0.00    -0.354 N 
ATOM     68  N   UNL A   1      46.356  27.439  31.407  1.00  0.00    -0.248 NA
ATOM     69  C   UNL A   1      47.319  25.325  31.655  1.00  0.00     0.031 C 
ATOM     70  C   UNL A   1      47.630  30.414  28.354  1.00  0.00     0.029 A 
ATOM     71  C   UNL A   1      47.242  29.466  29.289  1.00  0.00     0.049 A 
ATOM     72  H   UNL A   1      45.671  29.552  30.694  1.00  0.00     0.167 HD
ATOM     73  C   UNL A   1      47.384  27.293  30.480  1.00  0.00     0.074 A 
ATOM     74  C   UNL A   1      47.961  25.983  30.700  1.00  0.00     0.031 C 
ATOM     75  C   UNL A   1      47.813  28.164  29.533  1.00  0.00     0.037 A 
BRANCH  62  76
ATOM     76  C   UNL A   1      44.611  33.452  29.300  1.00  0.00     0.058 A 
ATOM     77  C   UNL A   1      43.938  33.590  28.077  1.00  0.00     0.135 A 
ATOM     78  C   UNL A   1      45.065  34.620  29.933  1.00  0.00     0.135 A 
ATOM     79  F   UNL A   1      43.500  32.505  27.418  1.00  0.00    -0.206 F 
ATOM     80  C   UNL A   1      43.738  34.837  27.493  1.00  0.00     0.059 A 
ATOM     81  C   UNL A   1      44.853  35.881  29.381  1.00  0.00     0.059 A 
ATOM     82  F   UNL A   1      45.719  34.546  31.103  1.00  0.00    -0.206 F 
ATOM     83  C   UNL A   1      44.198  35.978  28.154  1.00  0.00     0.060 A 
BRANCH  83  84
ATOM     84  S   UNL A   1      43.917  37.588  27.389  1.00  0.00     0.124 S 
ATOM     85  O   UNL A   1      43.709  38.435  28.560  1.00  0.00    -0.237 OA
ATOM     86  O   UNL A   1      45.163  37.807  26.661  1.00  0.00    -0.237 OA
ATOM     87  O   UNL A   1      42.738  37.370  26.556  1.00  0.00    -0.744 OA
ENDBRANCH  83  84
ENDBRANCH  62  76
BRANCH  63  88
ATOM     88  C   UNL A   1      45.577  24.609  33.905  1.00  0.00     0.058 A 
ATOM     89  C   UNL A   1      46.443  24.427  34.994  1.00  0.00     0.135 A 
ATOM     90  C   UNL A   1      44.862  23.490  33.447  1.00  0.00     0.135 A 
ATOM     91  F   UNL A   1      47.157  25.461  35.462  1.00  0.00    -0.206 F 
ATOM     92  C   UNL A   1      46.613  23.181  35.590  1.00  0.00     0.059 A 
ATOM     93  C   UNL A   1      44.992  22.241  34.046  1.00  0.00     0.059 A 
ATOM     94  F   UNL A   1      44.012  23.611  32.415  1.00  0.00    -0.206 F 
ATOM     95  C   UNL A   1      45.882  22.094  35.108  1.00  0.00     0.060 A 
BRANCH  95  96
ATOM     96  S   UNL A   1      46.093  20.488  35.907  1.00  0.00     0.124 S 
ATOM     97  O   UNL A   1      45.640  20.774  37.263  1.00  0.00    -0.237 OA
ATOM     98  O   UNL A   1      45.219  19.633  35.109  1.00  0.00    -0.237 OA
ATOM     99  O   UNL A   1      47.521  20.225  35.760  1.00  0.00    -0.744 OA
ENDBRANCH  95  96
ENDBRANCH  63  88
BRANCH  75 100
ATOM    100  C   UNL A   1      48.989  27.753  28.689  1.00  0.00     0.058 A 
ATOM    101  C   UNL A   1      50.309  27.854  29.156  1.00  0.00     0.135 A 
ATOM    102  C   UNL A   1      48.785  27.184  27.420  1.00  0.00     0.135 A 
ATOM    103  F   UNL A   1      50.559  28.395  30.359  1.00  0.00    -0.206 F 
ATOM    104  C   UNL A   1      51.385  27.424  28.388  1.00  0.00     0.059 A 
ATOM    105  C   UNL A   1      49.846  26.720  26.648  1.00  0.00     0.059 A 
ATOM    106  F   UNL A   1      47.542  27.053  26.930  1.00  0.00    -0.206 F 
ATOM    107  C   UNL A   1      51.143  26.853  27.137  1.00  0.00     0.060 A 
BRANCH 107 108
ATOM    108  S   UNL A   1      52.548  26.255  26.174  1.00  0.00     0.124 S 
ATOM    109  O   UNL A   1      53.673  26.815  26.914  1.00  0.00    -0.237 OA
ATOM    110  O   UNL A   1      52.390  24.806  26.259  1.00  0.00    -0.237 OA
ATOM    111  O   UNL A   1      52.321  26.827  24.850  1.00  0.00    -0.744 OA
ENDBRANCH 107 108
ENDBRANCH  75 100
ENDBRANCH  49  50
ENDBRANCH  42  44
ENDBRANCH  41  42
ENDBRANCH  40  41
ENDBRANCH  39  40
ENDBRANCH  38  39
ENDBRANCH  37  38
ENDBRANCH   1  37
TORSDOF 28
ENDMDL
MODEL 2
REMARK VINA RESULT:      -6.6      2.921      5.644
REMARK SMILES [NH3+][C@@H](Cc1c[nH]c2ccccc12)C(=O)N[C@@H](CS)C(=O)N[C@@H](CO)C(=O)OCCOCCOC(=O)c1ccc(-c2c3nc(c(-c4c(F)cc(S(=O)(=O)[O-])cc4F)c4ccc([nH]4)c(-c4c(F)cc(S(=O)(=O)[O-])cc4F)c4nc(c(-c5c(F)cc(S(=O)(=O)[O-])cc5F)c5ccc2[nH]5)C=C4)C=C3)cc1
REMARK SMILES IDX 28 1 27 2 25 3 26 4 22 5 21 6 19 7 20 8 16 10 15 11 13 12
REMARK SMILES IDX 14 13 2 15 1 16 3 20 4 21 5 22 12 23 6 24 7 25 11 26 8 28
REMARK SMILES IDX 10 29 9 30 17 31 18 32 23 34 24 35 29 37 30 38 31 39 32 40
REMARK SMILES IDX 33 41 34 42 35 43 36 44 37 45 101 46 38 47 100 48 39 49
REMARK SMILES IDX 40 50 41 51 94 52 42 53 99 54 93 55 95 56 43 57 98 58 92 59
REMARK SMILES IDX 91 60 44 62 78 63 57 64 77 65 58 66 61 67 76 68 96 69 59 70
REMARK SMILES IDX 60 71 75 73 97 74 62 75 45 76 46 77 55 78 47 79 48 80 54 81
REMARK SMILES IDX 56 82 49 83 50 84 51 85 52 86 53 87 79 88 80 89 89 90 81 91
REMARK SMILES IDX 82 92 88 93 90 94 83 95 84 96 85 97 86 98 87 99 63 100
REMARK SMILES IDX 64 101 73 102 65 103 66 104 72 105 74 106 67 107 68 108
REMARK SMILES IDX 69 109 70 110 71 111
REMARK H PARENT 21 9 15 14 1 17 1 18 1 19 6 27 18 33 24 36 95 61 61 72
REMARK Flexibility Score: inf
ROOT
ATOM      1  C   UNL A   1      38.356  32.166  37.022  1.00  0.00     0.261 C 
ENDROOT
BRANCH   1   2
ATOM      2  O   UNL A   1      37.769  31.447  35.929  1.00  0.00    -0.462 OA
BRANCH   2   3
ATOM      3  C   UNL A   1      37.653  32.145  34.765  1.00  0.00     0.331 C 
ATOM      4  O   UNL A   1      37.180  33.271  34.662  1.00  0.00    -0.250 OA
BRANCH   3   5
ATOM      5  C   UNL A   1      38.150  31.339  33.566  1.00  0.00     0.218 C 
BRANCH   5   6
ATOM      6  N   UNL A   1      39.355  31.888  32.922  1.00  0.00    -0.339 N 
ATOM      7  C   UNL A   1      40.011  31.105  32.020  1.00  0.00     0.244 C 
ATOM      8  O   UNL A   1      40.853  30.315  32.452  1.00  0.00    -0.273 OA
ATOM      9  H   UNL A   1      39.676  32.794  33.134  1.00  0.00     0.164 HD
BRANCH   7  10
ATOM     10  C   UNL A   1      39.564  31.102  30.539  1.00  0.00     0.181 C 
BRANCH  10  11
ATOM     11  N   UNL A   1      39.501  32.478  30.075  1.00  0.00    -0.338 N 
ATOM     12  C   UNL A   1      38.391  33.265  29.940  1.00  0.00     0.279 C 
ATOM     13  O   UNL A   1      38.573  34.486  30.007  1.00  0.00    -0.268 OA
ATOM     14  H   UNL A   1      40.359  32.894  29.830  1.00  0.00     0.164 HD
BRANCH  12  15
ATOM     15  C   UNL A   1      36.975  32.701  29.623  1.00  0.00     0.275 C 
BRANCH  15  16
ATOM     16  N   UNL A   1      36.170  32.573  30.862  1.00  0.00    -0.347 N 
ATOM     17  H   UNL A   1      36.316  33.394  31.448  1.00  0.00     0.345 HD
ATOM     18  H   UNL A   1      36.460  31.737  31.369  1.00  0.00     0.345 HD
ATOM     19  H   UNL A   1      35.183  32.498  30.619  1.00  0.00     0.345 HD
ENDBRANCH  15  16
BRANCH  15  20
ATOM     20  C   UNL A   1      36.240  33.246  28.371  1.00  0.00     0.113 C 
BRANCH  20  21
ATOM     21  C   UNL A   1      34.851  32.742  28.065  1.00  0.00    -0.016 A 
ATOM     22  C   UNL A   1      33.670  33.466  28.003  1.00  0.00     0.087 A 
ATOM     23  C   UNL A   1      34.495  31.379  27.773  1.00  0.00     0.003 A 
ATOM     24  N   UNL A   1      32.678  32.642  27.539  1.00  0.00    -0.361 N 
ATOM     25  C   UNL A   1      33.165  31.372  27.347  1.00  0.00     0.046 A 
ATOM     26  C   UNL A   1      35.201  30.159  27.763  1.00  0.00     0.010 A 
ATOM     27  H   UNL A   1      31.748  32.920  27.370  1.00  0.00     0.166 HD
ATOM     28  C   UNL A   1      32.535  30.231  26.836  1.00  0.00     0.026 A 
ATOM     29  C   UNL A   1      34.580  29.001  27.278  1.00  0.00     0.001 A 
ATOM     30  C   UNL A   1      33.274  29.044  26.800  1.00  0.00     0.002 A 
ENDBRANCH  20  21
ENDBRANCH  15  20
ENDBRANCH  12  15
ENDBRANCH  10  11
BRANCH  10  31
ATOM     31  C   UNL A   1      40.170  30.104  29.550  1.00  0.00     0.101 C 
BRANCH  31  32
ATOM     32  S   UNL A   1      39.034  29.039  28.617  1.00  0.00    -0.177 SA
ATOM     33  H   UNL A   1      39.716  28.410  27.623  1.00  0.00     0.102 HD
ENDBRANCH  31  32
ENDBRANCH  10  31
ENDBRANCH   7  10
ENDBRANCH   5   6
BRANCH   5  34
ATOM     34  C   UNL A   1      38.386  29.893  34.024  1.00  0.00     0.193 C 
BRANCH  34  35
ATOM     35  O   UNL A   1      37.285  29.065  33.648  1.00  0.00    -0.394 OA
ATOM     36  H   UNL A   1      37.571  28.139  33.625  1.00  0.00     0.210 HD
ENDBRANCH  34  35
ENDBRANCH   5  34
ENDBRANCH   3   5
ENDBRANCH   2   3
ENDBRANCH   1   2
BRANCH   1  37
ATOM     37  C   UNL A   1      37.473  32.064  38.268  1.00  0.00     0.202 C 
BRANCH  37  38
ATOM     38  O   UNL A   1      38.103  32.246  39.536  1.00  0.00    -0.374 OA
BRANCH  38  39
ATOM     39  C   UNL A   1      39.312  32.996  39.569  1.00  0.00     0.202 C 
BRANCH  39  40
ATOM     40  C   UNL A   1      39.218  34.516  39.780  1.00  0.00     0.261 C 
BRANCH  40  41
ATOM     41  O   UNL A   1      40.384  35.238  39.357  1.00  0.00    -0.460 OA
BRANCH  41  42
ATOM     42  C   UNL A   1      40.171  36.088  38.323  1.00  0.00     0.338 C 
ATOM     43  O   UNL A   1      39.579  37.161  38.358  1.00  0.00    -0.246 OA
BRANCH  42  44
ATOM     44  C   UNL A   1      40.906  35.628  37.135  1.00  0.00     0.060 A 
ATOM     45  C   UNL A   1      40.163  35.116  36.062  1.00  0.00     0.016 A 
ATOM     46  C   UNL A   1      42.300  35.625  37.104  1.00  0.00     0.016 A 
ATOM     47  C   UNL A   1      40.816  34.579  34.957  1.00  0.00     0.010 A 
ATOM     48  C   UNL A   1      42.953  35.068  36.000  1.00  0.00     0.010 A 
ATOM     49  C   UNL A   1      42.215  34.520  34.936  1.00  0.00    -0.014 A 
BRANCH  49  50
ATOM     50  C   UNL A   1      42.899  33.759  33.863  1.00  0.00     0.031 A 
ATOM     51  C   UNL A   1      43.202  34.451  32.563  1.00  0.00     0.074 A 
ATOM     52  C   UNL A   1      43.266  32.480  34.060  1.00  0.00     0.049 A 
ATOM     53  N   UNL A   1      43.729  33.966  31.470  1.00  0.00    -0.248 NA
ATOM     54  C   UNL A   1      42.864  35.882  32.486  1.00  0.00     0.031 C 
ATOM     55  C   UNL A   1      43.070  31.727  35.298  1.00  0.00     0.029 A 
ATOM     56  N   UNL A   1      43.874  31.586  33.215  1.00  0.00    -0.354 N 
ATOM     57  C   UNL A   1      43.783  35.027  30.573  1.00  0.00     0.074 A 
ATOM     58  C   UNL A   1      43.206  36.174  31.239  1.00  0.00     0.031 C 
ATOM     59  C   UNL A   1      43.539  30.478  35.128  1.00  0.00     0.029 A 
ATOM     60  C   UNL A   1      44.030  30.334  33.759  1.00  0.00     0.049 A 
ATOM     61  H   UNL A   1      44.170  31.821  32.305  1.00  0.00     0.167 HD
ATOM     62  C   UNL A   1      44.280  35.043  29.314  1.00  0.00     0.037 A 
ATOM     63  C   UNL A   1      44.491  29.196  33.202  1.00  0.00     0.037 A 
ATOM     64  C   UNL A   1      44.852  33.894  28.663  1.00  0.00     0.049 A 
ATOM     65  C   UNL A   1      44.955  29.217  31.768  1.00  0.00     0.074 A 
ATOM     66  C   UNL A   1      45.385  33.803  27.389  1.00  0.00     0.029 A 
ATOM     67  N   UNL A   1      44.960  32.632  29.232  1.00  0.00    -0.354 N 
ATOM     68  N   UNL A   1      45.009  30.228  30.933  1.00  0.00    -0.248 NA
ATOM     69  C   UNL A   1      45.417  27.944  31.198  1.00  0.00     0.031 C 
ATOM     70  C   UNL A   1      45.769  32.476  27.170  1.00  0.00     0.029 A 
ATOM     71  C   UNL A   1      45.529  31.752  28.328  1.00  0.00     0.049 A 
ATOM     72  H   UNL A   1      44.675  32.398  30.145  1.00  0.00     0.167 HD
ATOM     73  C   UNL A   1      45.542  29.719  29.752  1.00  0.00     0.074 A 
ATOM     74  C   UNL A   1      45.802  28.314  29.984  1.00  0.00     0.031 C 
ATOM     75  C   UNL A   1      45.795  30.357  28.583  1.00  0.00     0.037 A 
BRANCH  62  76
ATOM     76  C   UNL A   1      44.210  36.337  28.549  1.00  0.00     0.058 A 
ATOM     77  C   UNL A   1      43.014  36.788  27.969  1.00  0.00     0.135 A 
ATOM     78  C   UNL A   1      45.343  37.158  28.434  1.00  0.00     0.135 A 
ATOM     79  F   UNL A   1      41.905  36.034  28.031  1.00  0.00    -0.206 F 
ATOM     80  C   UNL A   1      42.948  37.998  27.284  1.00  0.00     0.059 A 
ATOM     81  C   UNL A   1      45.294  38.385  27.778  1.00  0.00     0.059 A 
ATOM     82  F   UNL A   1      46.514  36.774  28.966  1.00  0.00    -0.206 F 
ATOM     83  C   UNL A   1      44.093  38.791  27.197  1.00  0.00     0.060 A 
BRANCH  83  84
ATOM     84  S   UNL A   1      43.986  40.364  26.318  1.00  0.00     0.124 S 
ATOM     85  O   UNL A   1      44.123  41.319  27.413  1.00  0.00    -0.237 OA
ATOM     86  O   UNL A   1      45.117  40.285  25.399  1.00  0.00    -0.237 OA
ATOM     87  O   UNL A   1      42.668  40.315  25.692  1.00  0.00    -0.744 OA
ENDBRANCH  83  84
ENDBRANCH  62  76
BRANCH  63  88
ATOM     88  C   UNL A   1      44.521  27.934  33.992  1.00  0.00     0.058 A 
ATOM     89  C   UNL A   1      43.409  27.080  34.037  1.00  0.00     0.135 A 
ATOM     90  C   UNL A   1      45.656  27.567  34.734  1.00  0.00     0.135 A 
ATOM     91  F   UNL A   1      42.297  27.391  33.355  1.00  0.00    -0.206 F 
ATOM     92  C   UNL A   1      43.412  25.920  34.805  1.00  0.00     0.059 A 
ATOM     93  C   UNL A   1      45.693  26.397  35.486  1.00  0.00     0.059 A 
ATOM     94  F   UNL A   1      46.751  28.344  34.718  1.00  0.00    -0.206 F 
ATOM     95  C   UNL A   1      44.560  25.587  35.527  1.00  0.00     0.060 A 
BRANCH  95  96
ATOM     96  S   UNL A   1      44.559  24.066  36.500  1.00  0.00     0.124 S 
ATOM     97  O   UNL A   1      43.616  23.241  35.754  1.00  0.00    -0.237 OA
ATOM     98  O   UNL A   1      45.959  23.658  36.431  1.00  0.00    -0.237 OA
ATOM     99  O   UNL A   1      44.107  24.509  37.815  1.00  0.00    -0.744 OA
ENDBRANCH  95  96
ENDBRANCH  63  88
BRANCH  75 100
ATOM    100  C   UNL A   1      46.422  29.557  27.473  1.00  0.00     0.058 A 
ATOM    101  C   UNL A   1      45.658  29.013  26.429  1.00  0.00     0.135 A 
ATOM    102  C   UNL A   1      47.817  29.391  27.421  1.00  0.00     0.135 A 
ATOM    103  F   UNL A   1      44.321  29.138  26.434  1.00  0.00    -0.206 F 
ATOM    104  C   UNL A   1      46.252  28.318  25.382  1.00  0.00     0.059 A 
ATOM    105  C   UNL A   1      48.434  28.725  26.367  1.00  0.00     0.059 A 
ATOM    106  F   UNL A   1      48.595  29.900  28.389  1.00  0.00    -0.206 F 
ATOM    107  C   UNL A   1      47.643  28.183  25.356  1.00  0.00     0.060 A 
BRANCH 107 108
ATOM    108  S   UNL A   1      48.402  27.321  23.965  1.00  0.00     0.124 S 
ATOM    109  O   UNL A   1      47.391  27.488  22.926  1.00  0.00    -0.237 OA
ATOM    110  O   UNL A   1      49.640  28.071  23.770  1.00  0.00    -0.237 OA
ATOM    111  O   UNL A   1      48.573  25.958  24.461  1.00  0.00    -0.744 OA
ENDBRANCH 107 108
ENDBRANCH  75 100
ENDBRANCH  49  50
ENDBRANCH  42  44
ENDBRANCH  41  42
ENDBRANCH  40  41
ENDBRANCH  39  40
ENDBRANCH  38  39
ENDBRANCH  37  38
ENDBRANCH   1  37
TORSDOF 28
ENDMDL
MODEL 3
REMARK VINA RESULT:      -6.5      2.568      4.134
REMARK SMILES [NH3+][C@@H](Cc1c[nH]c2ccccc12)C(=O)N[C@@H](CS)C(=O)N[C@@H](CO)C(=O)OCCOCCOC(=O)c1ccc(-c2c3nc(c(-c4c(F)cc(S(=O)(=O)[O-])cc4F)c4ccc([nH]4)c(-c4c(F)cc(S(=O)(=O)[O-])cc4F)c4nc(c(-c5c(F)cc(S(=O)(=O)[O-])cc5F)c5ccc2[nH]5)C=C4)C=C3)cc1
REMARK SMILES IDX 28 1 27 2 25 3 26 4 22 5 21 6 19 7 20 8 16 10 15 11 13 12
REMARK SMILES IDX 14 13 2 15 1 16 3 20 4 21 5 22 12 23 6 24 7 25 11 26 8 28
REMARK SMILES IDX 10 29 9 30 17 31 18 32 23 34 24 35 29 37 30 38 31 39 32 40
REMARK SMILES IDX 33 41 34 42 35 43 36 44 37 45 101 46 38 47 100 48 39 49
REMARK SMILES IDX 40 50 41 51 94 52 42 53 99 54 93 55 95 56 43 57 98 58 92 59
REMARK SMILES IDX 91 60 44 62 78 63 57 64 77 65 58 66 61 67 76 68 96 69 59 70
REMARK SMILES IDX 60 71 75 73 97 74 62 75 45 76 46 77 55 78 47 79 48 80 54 81
REMARK SMILES IDX 56 82 49 83 50 84 51 85 52 86 53 87 79 88 80 89 89 90 81 91
REMARK SMILES IDX 82 92 88 93 90 94 83 95 84 96 85 97 86 98 87 99 63 100
REMARK SMILES IDX 64 101 73 102 65 103 66 104 72 105 74 106 67 107 68 108
REMARK SMILES IDX 69 109 70 110 71 111
REMARK H PARENT 21 9 15 14 1 17 1 18 1 19 6 27 18 33 24 36 95 61 61 72
REMARK Flexibility Score: inf
ROOT
ATOM      1  C   UNL A   1      37.758  32.425  37.138  1.00  0.00     0.261 C 
ENDROOT
BRANCH   1   2
ATOM      2  O   UNL A   1      36.916  32.774  36.030  1.00  0.00    -0.462 OA
BRANCH   2   3
ATOM      3  C   UNL A   1      37.357  32.364  34.808  1.00  0.00     0.331 C 
ATOM      4  O   UNL A   1      38.315  31.625  34.615  1.00  0.00    -0.250 OA
BRANCH   3   5
ATOM      5  C   UNL A   1      36.534  32.973  33.674  1.00  0.00     0.218 C 
BRANCH   5   6
ATOM      6  N   UNL A   1      35.730  31.999  32.916  1.00  0.00    -0.339 N 
ATOM      7  C   UNL A   1      35.368  32.321  31.642  1.00  0.00     0.244 C 
ATOM      8  O   UNL A   1      34.340  32.981  31.487  1.00  0.00    -0.273 OA
ATOM      9  H   UNL A   1      35.462  31.141  33.317  1.00  0.00     0.164 HD
BRANCH   7  10
ATOM     10  C   UNL A   1      36.332  32.010  30.472  1.00  0.00     0.181 C 
BRANCH  10  11
ATOM     11  N   UNL A   1      36.897  30.688  30.680  1.00  0.00    -0.338 N 
ATOM     12  C   UNL A   1      38.123  30.376  31.199  1.00  0.00     0.279 C 
ATOM     13  O   UNL A   1      38.224  29.264  31.733  1.00  0.00    -0.268 OA
ATOM     14  H   UNL A   1      36.332  29.927  30.416  1.00  0.00     0.164 HD
BRANCH  12  15
ATOM     15  C   UNL A   1      39.370  31.297  31.065  1.00  0.00     0.275 C 
BRANCH  15  16
ATOM     16  N   UNL A   1      40.086  31.406  32.359  1.00  0.00    -0.347 N 
ATOM     17  H   UNL A   1      39.783  30.656  32.979  1.00  0.00     0.345 HD
ATOM     18  H   UNL A   1      39.876  32.307  32.788  1.00  0.00     0.345 HD
ATOM     19  H   UNL A   1      41.090  31.331  32.199  1.00  0.00     0.345 HD
ENDBRANCH  15  16
BRANCH  15  20
ATOM     20  C   UNL A   1      40.249  31.148  29.796  1.00  0.00     0.113 C 
BRANCH  20  21
ATOM     21  C   UNL A   1      41.027  29.871  29.595  1.00  0.00    -0.016 A 
ATOM     22  C   UNL A   1      42.352  29.615  29.913  1.00  0.00     0.087 A 
ATOM     23  C   UNL A   1      40.515  28.654  29.022  1.00  0.00     0.003 A 
ATOM     24  N   UNL A   1      42.599  28.282  29.708  1.00  0.00    -0.361 N 
ATOM     25  C   UNL A   1      41.481  27.662  29.206  1.00  0.00     0.046 A 
ATOM     26  C   UNL A   1      39.291  28.287  28.426  1.00  0.00     0.010 A 
ATOM     27  H   UNL A   1      43.457  27.833  29.891  1.00  0.00     0.166 HD
ATOM     28  C   UNL A   1      41.253  26.314  28.904  1.00  0.00     0.026 A 
ATOM     29  C   UNL A   1      39.055  26.947  28.094  1.00  0.00     0.001 A 
ATOM     30  C   UNL A   1      40.015  25.973  28.352  1.00  0.00     0.002 A 
ENDBRANCH  20  21
ENDBRANCH  15  20
ENDBRANCH  12  15
ENDBRANCH  10  11
BRANCH  10  31
ATOM     31  C   UNL A   1      35.926  32.330  29.031  1.00  0.00     0.101 C 
BRANCH  31  32
ATOM     32  S   UNL A   1      34.887  31.127  28.155  1.00  0.00    -0.177 SA
ATOM     33  H   UNL A   1      35.469  30.804  26.970  1.00  0.00     0.102 HD
ENDBRANCH  31  32
ENDBRANCH  10  31
ENDBRANCH   7  10
ENDBRANCH   5   6
BRANCH   5  34
ATOM     34  C   UNL A   1      35.644  34.075  34.262  1.00  0.00     0.193 C 
BRANCH  34  35
ATOM     35  O   UNL A   1      34.325  33.579  34.498  1.00  0.00    -0.394 OA
ATOM     36  H   UNL A   1      34.065  32.995  33.769  1.00  0.00     0.210 HD
ENDBRANCH  34  35
ENDBRANCH   5  34
ENDBRANCH   3   5
ENDBRANCH   2   3
ENDBRANCH   1   2
BRANCH   1  37
ATOM     37  C   UNL A   1      36.992  32.557  38.457  1.00  0.00     0.202 C 
BRANCH  37  38
ATOM     38  O   UNL A   1      37.755  32.535  39.663  1.00  0.00    -0.374 OA
BRANCH  38  39
ATOM     39  C   UNL A   1      39.104  32.985  39.597  1.00  0.00     0.202 C 
BRANCH  39  40
ATOM     40  C   UNL A   1      39.379  34.486  39.784  1.00  0.00     0.261 C 
BRANCH  40  41
ATOM     41  O   UNL A   1      40.527  34.963  39.066  1.00  0.00    -0.460 OA
BRANCH  41  42
ATOM     42  C   UNL A   1      40.233  35.752  38.004  1.00  0.00     0.338 C 
ATOM     43  O   UNL A   1      39.540  36.763  38.003  1.00  0.00    -0.246 OA
BRANCH  42  44
ATOM     44  C   UNL A   1      41.011  35.324  36.831  1.00  0.00     0.060 A 
ATOM     45  C   UNL A   1      40.329  34.677  35.792  1.00  0.00     0.016 A 
ATOM     46  C   UNL A   1      42.396  35.484  36.785  1.00  0.00     0.016 A 
ATOM     47  C   UNL A   1      41.035  34.167  34.707  1.00  0.00     0.010 A 
ATOM     48  C   UNL A   1      43.104  34.955  35.702  1.00  0.00     0.010 A 
ATOM     49  C   UNL A   1      42.431  34.273  34.674  1.00  0.00    -0.014 A 
BRANCH  49  50
ATOM     50  C   UNL A   1      43.194  33.547  33.631  1.00  0.00     0.031 A 
ATOM     51  C   UNL A   1      43.559  34.268  32.364  1.00  0.00     0.074 A 
ATOM     52  C   UNL A   1      43.577  32.272  33.827  1.00  0.00     0.049 A 
ATOM     53  N   UNL A   1      44.161  33.815  31.296  1.00  0.00    -0.248 NA
ATOM     54  C   UNL A   1      43.195  35.693  32.291  1.00  0.00     0.031 C 
ATOM     55  C   UNL A   1      43.324  31.492  35.039  1.00  0.00     0.029 A 
ATOM     56  N   UNL A   1      44.254  31.407  33.005  1.00  0.00    -0.354 N 
ATOM     57  C   UNL A   1      44.245  34.893  30.422  1.00  0.00     0.074 A 
ATOM     58  C   UNL A   1      43.603  36.016  31.072  1.00  0.00     0.031 C 
ATOM     59  C   UNL A   1      43.830  30.256  34.875  1.00  0.00     0.029 A 
ATOM     60  C   UNL A   1      44.405  30.148  33.536  1.00  0.00     0.049 A 
ATOM     61  H   UNL A   1      44.599  31.664  32.119  1.00  0.00     0.167 HD
ATOM     62  C   UNL A   1      44.816  34.943  29.196  1.00  0.00     0.037 A 
ATOM     63  C   UNL A   1      44.924  29.031  32.989  1.00  0.00     0.037 A 
ATOM     64  C   UNL A   1      45.451  33.818  28.561  1.00  0.00     0.049 A 
ATOM     65  C   UNL A   1      45.472  29.088  31.585  1.00  0.00     0.074 A 
ATOM     66  C   UNL A   1      46.061  33.762  27.320  1.00  0.00     0.029 A 
ATOM     67  N   UNL A   1      45.552  32.549  29.114  1.00  0.00    -0.354 N 
ATOM     68  N   UNL A   1      45.554  30.116  30.773  1.00  0.00    -0.248 NA
ATOM     69  C   UNL A   1      45.996  27.836  31.022  1.00  0.00     0.031 C 
ATOM     70  C   UNL A   1      46.487  32.448  27.101  1.00  0.00     0.029 A 
ATOM     71  C   UNL A   1      46.194  31.698  28.230  1.00  0.00     0.049 A 
ATOM     72  H   UNL A   1      45.219  32.292  30.004  1.00  0.00     0.167 HD
ATOM     73  C   UNL A   1      46.167  29.640  29.618  1.00  0.00     0.074 A 
ATOM     74  C   UNL A   1      46.444  28.237  29.841  1.00  0.00     0.031 C 
ATOM     75  C   UNL A   1      46.475  30.305  28.476  1.00  0.00     0.037 A 
BRANCH  62  76
ATOM     76  C   UNL A   1      44.763  36.249  28.450  1.00  0.00     0.058 A 
ATOM     77  C   UNL A   1      43.642  36.621  27.692  1.00  0.00     0.135 A 
ATOM     78  C   UNL A   1      45.828  37.159  28.533  1.00  0.00     0.135 A 
ATOM     79  F   UNL A   1      42.603  35.781  27.562  1.00  0.00    -0.206 F 
ATOM     80  C   UNL A   1      43.587  37.842  27.026  1.00  0.00     0.059 A 
ATOM     81  C   UNL A   1      45.784  38.397  27.897  1.00  0.00     0.059 A 
ATOM     82  F   UNL A   1      46.927  36.853  29.241  1.00  0.00    -0.206 F 
ATOM     83  C   UNL A   1      44.663  38.725  27.136  1.00  0.00     0.060 A 
BRANCH  83  84
ATOM     84  S   UNL A   1      44.568  40.309  26.277  1.00  0.00     0.124 S 
ATOM     85  O   UNL A   1      43.162  40.345  25.886  1.00  0.00    -0.237 OA
ATOM     86  O   UNL A   1      44.960  41.252  27.319  1.00  0.00    -0.237 OA
ATOM     87  O   UNL A   1      45.520  40.160  25.180  1.00  0.00    -0.744 OA
ENDBRANCH  83  84
ENDBRANCH  62  76
BRANCH  63  88
ATOM     88  C   UNL A   1      44.934  27.755  33.757  1.00  0.00     0.058 A 
ATOM     89  C   UNL A   1      43.852  26.865  33.700  1.00  0.00     0.135 A 
ATOM     90  C   UNL A   1      46.020  27.410  34.579  1.00  0.00     0.135 A 
ATOM     91  F   UNL A   1      42.786  27.154  32.938  1.00  0.00    -0.206 F 
ATOM     92  C   UNL A   1      43.833  25.691  34.447  1.00  0.00     0.059 A 
ATOM     93  C   UNL A   1      46.038  26.228  35.311  1.00  0.00     0.059 A 
ATOM     94  F   UNL A   1      47.086  28.222  34.662  1.00  0.00    -0.206 F 
ATOM     95  C   UNL A   1      44.932  25.381  35.250  1.00  0.00     0.060 A 
BRANCH  95  96
ATOM     96  S   UNL A   1      44.907  23.842  36.195  1.00  0.00     0.124 S 
ATOM     97  O   UNL A   1      46.268  23.358  36.001  1.00  0.00    -0.237 OA
ATOM     98  O   UNL A   1      44.581  24.313  37.537  1.00  0.00    -0.237 OA
ATOM     99  O   UNL A   1      43.860  23.064  35.539  1.00  0.00    -0.744 OA
ENDBRANCH  95  96
ENDBRANCH  63  88
BRANCH  75 100
ATOM    100  C   UNL A   1      47.185  29.538  27.393  1.00  0.00     0.058 A 
ATOM    101  C   UNL A   1      48.584  29.429  27.358  1.00  0.00     0.135 A 
ATOM    102  C   UNL A   1      46.449  28.846  26.416  1.00  0.00     0.135 A 
ATOM    103  F   UNL A   1      49.335  30.075  28.264  1.00  0.00    -0.206 F 
ATOM    104  C   UNL A   1      49.228  28.676  26.383  1.00  0.00     0.059 A 
ATOM    105  C   UNL A   1      47.072  28.063  25.450  1.00  0.00     0.059 A 
ATOM    106  F   UNL A   1      45.108  28.907  26.411  1.00  0.00    -0.206 F 
ATOM    107  C   UNL A   1      48.464  27.992  25.435  1.00  0.00     0.060 A 
BRANCH 107 108
ATOM    108  S   UNL A   1      49.313  26.980  24.206  1.00  0.00     0.124 S 
ATOM    109  O   UNL A   1      50.125  27.976  23.514  1.00  0.00    -0.237 OA
ATOM    110  O   UNL A   1      50.048  26.030  25.037  1.00  0.00    -0.237 OA
ATOM    111  O   UNL A   1      48.222  26.406  23.424  1.00  0.00    -0.744 OA
ENDBRANCH 107 108
ENDBRANCH  75 100
ENDBRANCH  49  50
ENDBRANCH  42  44
ENDBRANCH  41  42
ENDBRANCH  40  41
ENDBRANCH  39  40
ENDBRANCH  38  39
ENDBRANCH  37  38
ENDBRANCH   1  37
TORSDOF 28
ENDMDL
