MODEL 1
REMARK VINA RESULT:      -9.9      0.000      0.000
REMARK SMILES COc1ccc(CCN2/C(=[NH+]/C(=O)CCC(=O)OCCOCCOC(=O)c3ccc(-c4c5nc(c(-c6c(F)cc(S(=O)(=O)[O-])cc6F)c6ccc([nH]6)c(-c6c(F)cc(S(=O)(=O)[O-])cc6F)c6nc(c(-c7c(F)cc(S(=O)(=O)[O-])cc7F)c7ccc4[nH]7)C=C6)C=C5)cc3)S[C@@H]3CS(=O)(=O)C[C@@H]32)cc1
REMARK SMILES IDX 19 1 18 2 16 3 17 4 15 5 14 6 12 7 9 8 10 9 100 10 11 11
REMARK SMILES IDX 93 12 94 13 99 14 95 16 96 17 13 18 97 19 98 20 8 21 7 22
REMARK SMILES IDX 6 23 3 24 4 25 102 26 5 27 101 28 2 29 1 30 20 31 21 32
REMARK SMILES IDX 22 33 23 34 24 35 25 36 26 37 27 38 28 39 92 40 29 41 91 42
REMARK SMILES IDX 30 43 31 44 32 45 85 46 33 47 90 48 84 49 86 50 34 51 89 52
REMARK SMILES IDX 83 53 82 54 35 56 69 57 48 58 68 59 49 60 52 61 67 62 87 63
REMARK SMILES IDX 50 64 51 65 66 67 88 68 53 69 36 70 37 71 46 72 38 73 39 74
REMARK SMILES IDX 45 75 47 76 40 77 41 78 42 79 43 80 44 81 70 82 71 83 80 84
REMARK SMILES IDX 72 85 73 86 79 87 81 88 74 89 75 90 76 91 77 92 78 93 54 94
REMARK SMILES IDX 55 95 64 96 56 97 57 98 63 99 65 100 58 101 59 102 60 103
REMARK SMILES IDX 61 104 62 105
REMARK H PARENT 11 15 86 55 52 66
REMARK Flexibility Score: inf
ROOT
ATOM      1  C   UNL A   1      35.507  32.722  28.938  1.00  0.00     0.261 C 
ENDROOT
BRANCH   1   2
ATOM      2  O   UNL A   1      34.809  31.922  27.968  1.00  0.00    -0.463 OA
BRANCH   2   3
ATOM      3  C   UNL A   1      35.089  30.597  27.918  1.00  0.00     0.306 C 
ATOM      4  O   UNL A   1      36.157  30.091  28.239  1.00  0.00    -0.252 OA
BRANCH   3   5
ATOM      5  C   UNL A   1      33.933  29.789  27.374  1.00  0.00     0.135 C 
BRANCH   5   6
ATOM      6  C   UNL A   1      34.340  28.511  26.656  1.00  0.00     0.139 C 
BRANCH   6   7
ATOM      7  C   UNL A   1      33.665  28.388  25.306  1.00  0.00     0.308 C 
ATOM      8  N   UNL A   1      30.448  27.120  24.201  1.00  0.00    -0.251 N 
ATOM      9  C   UNL A   1      31.792  27.477  24.247  1.00  0.00     0.314 C 
ATOM     10  C   UNL A   1      29.797  27.466  22.924  1.00  0.00     0.206 C 
ATOM     11  N   UNL A   1      32.472  27.698  25.321  1.00  0.00    -0.205 N 
ATOM     12  S   UNL A   1      32.376  27.720  22.592  1.00  0.00    -0.030 SA
ATOM     13  C   UNL A   1      30.758  28.297  22.066  1.00  0.00     0.120 C 
ATOM     14  C   UNL A   1      28.561  28.286  23.206  1.00  0.00     0.187 C 
ATOM     15  H   UNL A   1      32.127  27.363  26.180  1.00  0.00     0.316 HD
ATOM     16  C   UNL A   1      30.544  29.761  22.400  1.00  0.00     0.156 C 
ATOM     17  S   UNL A   1      28.788  29.882  22.532  1.00  0.00     0.155 S 
ATOM     18  O   UNL A   1      34.163  29.000  24.363  1.00  0.00    -0.247 OA
ATOM     19  O   UNL A   1      28.439  30.852  23.543  1.00  0.00    -0.229 OA
ATOM     20  O   UNL A   1      28.222  29.881  21.200  1.00  0.00    -0.229 OA
BRANCH   8  21
ATOM     21  C   UNL A   1      29.851  26.006  24.972  1.00  0.00     0.242 C 
BRANCH  21  22
ATOM     22  C   UNL A   1      30.528  25.517  26.286  1.00  0.00     0.081 C 
BRANCH  22  23
ATOM     23  C   UNL A   1      31.239  24.163  26.239  1.00  0.00    -0.044 A 
ATOM     24  C   UNL A   1      32.912  21.937  25.764  1.00  0.00     0.118 A 
ATOM     25  C   UNL A   1      31.771  22.123  24.993  1.00  0.00     0.046 A 
ATOM     26  C   UNL A   1      33.123  22.759  26.872  1.00  0.00     0.046 A 
ATOM     27  C   UNL A   1      30.911  23.201  25.271  1.00  0.00     0.007 A 
ATOM     28  C   UNL A   1      32.291  23.859  27.115  1.00  0.00     0.007 A 
BRANCH  24  29
ATOM     29  O   UNL A   1      33.979  21.164  25.415  1.00  0.00    -0.497 OA
ATOM     30  C   UNL A   1      34.966  21.720  24.564  1.00  0.00     0.278 C 
ENDBRANCH  24  29
ENDBRANCH  22  23
ENDBRANCH  21  22
ENDBRANCH   8  21
ENDBRANCH   6   7
ENDBRANCH   5   6
ENDBRANCH   3   5
ENDBRANCH   2   3
ENDBRANCH   1   2
BRANCH   1  31
ATOM     31  C   UNL A   1      34.591  33.187  30.083  1.00  0.00     0.202 C 
BRANCH  31  32
ATOM     32  O   UNL A   1      34.503  32.289  31.189  1.00  0.00    -0.374 OA
BRANCH  32  33
ATOM     33  C   UNL A   1      34.856  32.871  32.443  1.00  0.00     0.202 C 
BRANCH  33  34
ATOM     34  C   UNL A   1      36.213  33.582  32.492  1.00  0.00     0.261 C 
BRANCH  34  35
ATOM     35  O   UNL A   1      37.266  32.823  31.853  1.00  0.00    -0.460 OA
BRANCH  35  36
ATOM     36  C   UNL A   1      37.783  31.784  32.559  1.00  0.00     0.338 C 
ATOM     37  O   UNL A   1      37.274  31.253  33.532  1.00  0.00    -0.246 OA
BRANCH  36  38
ATOM     38  C   UNL A   1      39.032  31.277  31.918  1.00  0.00     0.060 A 
ATOM     39  C   UNL A   1      39.106  31.250  30.515  1.00  0.00     0.016 A 
ATOM     40  C   UNL A   1      40.140  30.857  32.661  1.00  0.00     0.016 A 
ATOM     41  C   UNL A   1      40.290  30.853  29.861  1.00  0.00     0.010 A 
ATOM     42  C   UNL A   1      41.319  30.459  32.005  1.00  0.00     0.010 A 
ATOM     43  C   UNL A   1      41.420  30.471  30.598  1.00  0.00    -0.014 A 
BRANCH  43  44
ATOM     44  C   UNL A   1      42.628  29.865  29.951  1.00  0.00     0.031 A 
ATOM     45  C   UNL A   1      43.771  30.783  29.671  1.00  0.00     0.074 A 
ATOM     46  C   UNL A   1      42.737  28.577  29.555  1.00  0.00     0.049 A 
ATOM     47  N   UNL A   1      44.891  30.522  29.057  1.00  0.00    -0.248 NA
ATOM     48  C   UNL A   1      43.647  32.162  30.169  1.00  0.00     0.031 C 
ATOM     49  C   UNL A   1      41.798  27.528  29.886  1.00  0.00     0.029 A 
ATOM     50  N   UNL A   1      43.666  27.921  28.772  1.00  0.00    -0.354 N 
ATOM     51  C   UNL A   1      45.622  31.693  29.122  1.00  0.00     0.074 A 
ATOM     52  C   UNL A   1      44.798  32.684  29.781  1.00  0.00     0.031 C 
ATOM     53  C   UNL A   1      42.112  26.397  29.229  1.00  0.00     0.029 A 
ATOM     54  C   UNL A   1      43.315  26.621  28.454  1.00  0.00     0.049 A 
ATOM     55  H   UNL A   1      44.502  28.340  28.468  1.00  0.00     0.167 HD
ATOM     56  C   UNL A   1      46.882  31.911  28.694  1.00  0.00     0.037 A 
ATOM     57  C   UNL A   1      43.885  25.693  27.656  1.00  0.00     0.037 A 
ATOM     58  C   UNL A   1      47.689  30.937  28.014  1.00  0.00     0.049 A 
ATOM     59  C   UNL A   1      45.230  26.000  27.074  1.00  0.00     0.074 A 
ATOM     60  C   UNL A   1      48.982  31.081  27.548  1.00  0.00     0.029 A 
ATOM     61  N   UNL A   1      47.280  29.655  27.680  1.00  0.00    -0.354 N 
ATOM     62  N   UNL A   1      45.926  27.104  27.192  1.00  0.00    -0.248 NA
ATOM     63  C   UNL A   1      45.901  24.937  26.313  1.00  0.00     0.031 C 
ATOM     64  C   UNL A   1      49.331  29.911  26.870  1.00  0.00     0.029 A 
ATOM     65  C   UNL A   1      48.283  29.010  26.977  1.00  0.00     0.049 A 
ATOM     66  H   UNL A   1      46.406  29.261  27.909  1.00  0.00     0.167 HD
ATOM     67  C   UNL A   1      47.142  26.847  26.578  1.00  0.00     0.074 A 
ATOM     68  C   UNL A   1      47.081  25.492  26.070  1.00  0.00     0.031 C 
ATOM     69  C   UNL A   1      48.217  27.660  26.476  1.00  0.00     0.037 A 
BRANCH  56  70
ATOM     70  C   UNL A   1      47.435  33.278  28.927  1.00  0.00     0.058 A 
ATOM     71  C   UNL A   1      48.140  33.596  30.099  1.00  0.00     0.135 A 
ATOM     72  C   UNL A   1      47.243  34.284  27.971  1.00  0.00     0.135 A 
ATOM     73  F   UNL A   1      48.306  32.674  31.062  1.00  0.00    -0.206 F 
ATOM     74  C   UNL A   1      48.627  34.876  30.319  1.00  0.00     0.059 A 
ATOM     75  C   UNL A   1      47.746  35.564  28.158  1.00  0.00     0.059 A 
ATOM     76  F   UNL A   1      46.550  34.029  26.851  1.00  0.00    -0.206 F 
ATOM     77  C   UNL A   1      48.432  35.850  29.339  1.00  0.00     0.060 A 
BRANCH  77  78
ATOM     78  S   UNL A   1      49.101  37.498  29.626  1.00  0.00     0.124 S 
ATOM     79  O   UNL A   1      50.537  37.233  29.625  1.00  0.00    -0.237 OA
ATOM     80  O   UNL A   1      48.592  38.240  28.477  1.00  0.00    -0.237 OA
ATOM     81  O   UNL A   1      48.533  37.876  30.916  1.00  0.00    -0.744 OA
ENDBRANCH  77  78
ENDBRANCH  56  70
BRANCH  57  82
ATOM     82  C   UNL A   1      43.230  24.376  27.383  1.00  0.00     0.058 A 
ATOM     83  C   UNL A   1      43.429  23.263  28.214  1.00  0.00     0.135 A 
ATOM     84  C   UNL A   1      42.429  24.193  26.245  1.00  0.00     0.135 A 
ATOM     85  F   UNL A   1      44.213  23.368  29.298  1.00  0.00    -0.206 F 
ATOM     86  C   UNL A   1      42.867  22.019  27.925  1.00  0.00     0.059 A 
ATOM     87  C   UNL A   1      41.827  22.966  25.952  1.00  0.00     0.059 A 
ATOM     88  F   UNL A   1      42.241  25.214  25.394  1.00  0.00    -0.206 F 
ATOM     89  C   UNL A   1      42.063  21.879  26.794  1.00  0.00     0.060 A 
BRANCH  89  90
ATOM     90  S   UNL A   1      41.315  20.265  26.458  1.00  0.00     0.124 S 
ATOM     91  O   UNL A   1      41.386  19.628  27.769  1.00  0.00    -0.237 OA
ATOM     92  O   UNL A   1      39.976  20.636  26.006  1.00  0.00    -0.237 OA
ATOM     93  O   UNL A   1      42.179  19.692  25.431  1.00  0.00    -0.744 OA
ENDBRANCH  89  90
ENDBRANCH  57  82
BRANCH  69  94
ATOM     94  C   UNL A   1      49.446  27.112  25.819  1.00  0.00     0.058 A 
ATOM     95  C   UNL A   1      49.711  27.323  24.460  1.00  0.00     0.135 A 
ATOM     96  C   UNL A   1      50.424  26.467  26.595  1.00  0.00     0.135 A 
ATOM     97  F   UNL A   1      48.800  27.920  23.676  1.00  0.00    -0.206 F 
ATOM     98  C   UNL A   1      50.914  26.922  23.890  1.00  0.00     0.059 A 
ATOM     99  C   UNL A   1      51.644  26.084  26.053  1.00  0.00     0.059 A 
ATOM    100  F   UNL A   1      50.212  26.244  27.902  1.00  0.00    -0.206 F 
ATOM    101  C   UNL A   1      51.880  26.319  24.699  1.00  0.00     0.060 A 
BRANCH 101 102
ATOM    102  S   UNL A   1      53.476  25.903  23.970  1.00  0.00     0.124 S 
ATOM    103  O   UNL A   1      53.136  25.804  22.554  1.00  0.00    -0.237 OA
ATOM    104  O   UNL A   1      54.297  27.050  24.347  1.00  0.00    -0.237 OA
ATOM    105  O   UNL A   1      53.830  24.645  24.620  1.00  0.00    -0.744 OA
ENDBRANCH 101 102
ENDBRANCH  69  94
ENDBRANCH  43  44
ENDBRANCH  36  38
ENDBRANCH  35  36
ENDBRANCH  34  35
ENDBRANCH  33  34
ENDBRANCH  32  33
ENDBRANCH  31  32
ENDBRANCH   1  31
TORSDOF 23
ENDMDL
MODEL 2
REMARK VINA RESULT:      -9.7      6.179     13.877
REMARK SMILES COc1ccc(CCN2/C(=[NH+]/C(=O)CCC(=O)OCCOCCOC(=O)c3ccc(-c4c5nc(c(-c6c(F)cc(S(=O)(=O)[O-])cc6F)c6ccc([nH]6)c(-c6c(F)cc(S(=O)(=O)[O-])cc6F)c6nc(c(-c7c(F)cc(S(=O)(=O)[O-])cc7F)c7ccc4[nH]7)C=C6)C=C5)cc3)S[C@@H]3CS(=O)(=O)C[C@@H]32)cc1
REMARK SMILES IDX 19 1 18 2 16 3 17 4 15 5 14 6 12 7 9 8 10 9 100 10 11 11
REMARK SMILES IDX 93 12 94 13 99 14 95 16 96 17 13 18 97 19 98 20 8 21 7 22
REMARK SMILES IDX 6 23 3 24 4 25 102 26 5 27 101 28 2 29 1 30 20 31 21 32
REMARK SMILES IDX 22 33 23 34 24 35 25 36 26 37 27 38 28 39 92 40 29 41 91 42
REMARK SMILES IDX 30 43 31 44 32 45 85 46 33 47 90 48 84 49 86 50 34 51 89 52
REMARK SMILES IDX 83 53 82 54 35 56 69 57 48 58 68 59 49 60 52 61 67 62 87 63
REMARK SMILES IDX 50 64 51 65 66 67 88 68 53 69 36 70 37 71 46 72 38 73 39 74
REMARK SMILES IDX 45 75 47 76 40 77 41 78 42 79 43 80 44 81 70 82 71 83 80 84
REMARK SMILES IDX 72 85 73 86 79 87 81 88 74 89 75 90 76 91 77 92 78 93 54 94
REMARK SMILES IDX 55 95 64 96 56 97 57 98 63 99 65 100 58 101 59 102 60 103
REMARK SMILES IDX 61 104 62 105
REMARK H PARENT 11 15 86 55 52 66
REMARK Flexibility Score: inf
ROOT
ATOM      1  C   UNL A   1      45.754  21.505  24.549  1.00  0.00     0.261 C 
ENDROOT
BRANCH   1   2
ATOM      2  O   UNL A   1      46.348  20.461  25.340  1.00  0.00    -0.463 OA
BRANCH   2   3
ATOM      3  C   UNL A   1      45.894  19.196  25.165  1.00  0.00     0.306 C 
ATOM      4  O   UNL A   1      46.553  18.181  25.348  1.00  0.00    -0.252 OA
BRANCH   3   5
ATOM      5  C   UNL A   1      44.466  19.167  24.669  1.00  0.00     0.135 C 
BRANCH   5   6
ATOM      6  C   UNL A   1      43.459  18.636  25.678  1.00  0.00     0.139 C 
BRANCH   6   7
ATOM      7  C   UNL A   1      42.483  19.709  26.112  1.00  0.00     0.308 C 
ATOM      8  N   UNL A   1      42.749  22.663  28.206  1.00  0.00    -0.251 N 
ATOM      9  C   UNL A   1      42.259  21.539  27.548  1.00  0.00     0.314 C 
ATOM     10  C   UNL A   1      41.821  23.808  28.173  1.00  0.00     0.206 C 
ATOM     11  N   UNL A   1      42.977  20.589  27.051  1.00  0.00    -0.205 N 
ATOM     12  S   UNL A   1      40.502  21.697  27.377  1.00  0.00    -0.030 SA
ATOM     13  C   UNL A   1      40.638  23.485  27.253  1.00  0.00     0.120 C 
ATOM     14  C   UNL A   1      42.546  25.016  27.630  1.00  0.00     0.187 C 
ATOM     15  H   UNL A   1      43.909  20.491  27.351  1.00  0.00     0.316 HD
ATOM     16  C   UNL A   1      40.998  23.928  25.847  1.00  0.00     0.156 C 
ATOM     17  S   UNL A   1      41.804  25.476  26.117  1.00  0.00     0.155 S 
ATOM     18  O   UNL A   1      41.408  19.774  25.519  1.00  0.00    -0.247 OA
ATOM     19  O   UNL A   1      42.850  25.660  25.140  1.00  0.00    -0.229 OA
ATOM     20  O   UNL A   1      40.799  26.476  26.406  1.00  0.00    -0.229 OA
BRANCH   8  21
ATOM     21  C   UNL A   1      43.715  22.621  29.327  1.00  0.00     0.242 C 
BRANCH  21  22
ATOM     22  C   UNL A   1      44.516  23.900  29.713  1.00  0.00     0.081 C 
BRANCH  22  23
ATOM     23  C   UNL A   1      44.344  24.424  31.140  1.00  0.00    -0.044 A 
ATOM     24  C   UNL A   1      44.623  25.369  33.787  1.00  0.00     0.118 A 
ATOM     25  C   UNL A   1      44.472  24.008  33.550  1.00  0.00     0.046 A 
ATOM     26  C   UNL A   1      44.464  26.263  32.729  1.00  0.00     0.046 A 
ATOM     27  C   UNL A   1      44.277  23.548  32.235  1.00  0.00     0.007 A 
ATOM     28  C   UNL A   1      44.318  25.799  31.415  1.00  0.00     0.007 A 
BRANCH  24  29
ATOM     29  O   UNL A   1      45.137  25.916  34.926  1.00  0.00    -0.497 OA
ATOM     30  C   UNL A   1      46.218  26.825  34.809  1.00  0.00     0.278 C 
ENDBRANCH  24  29
ENDBRANCH  22  23
ENDBRANCH  21  22
ENDBRANCH   8  21
ENDBRANCH   6   7
ENDBRANCH   5   6
ENDBRANCH   3   5
ENDBRANCH   2   3
ENDBRANCH   1   2
BRANCH   1  31
ATOM     31  C   UNL A   1      45.438  22.762  25.378  1.00  0.00     0.202 C 
BRANCH  31  32
ATOM     32  O   UNL A   1      46.129  22.854  26.623  1.00  0.00    -0.374 OA
BRANCH  32  33
ATOM     33  C   UNL A   1      46.650  24.153  26.907  1.00  0.00     0.202 C 
BRANCH  33  34
ATOM     34  C   UNL A   1      46.332  25.240  25.874  1.00  0.00     0.261 C 
BRANCH  34  35
ATOM     35  O   UNL A   1      46.665  26.569  26.339  1.00  0.00    -0.460 OA
BRANCH  35  36
ATOM     36  C   UNL A   1      45.814  27.568  25.987  1.00  0.00     0.338 C 
ATOM     37  O   UNL A   1      45.436  27.824  24.856  1.00  0.00    -0.246 OA
BRANCH  36  38
ATOM     38  C   UNL A   1      45.291  28.269  27.197  1.00  0.00     0.060 A 
ATOM     39  C   UNL A   1      45.584  29.632  27.365  1.00  0.00     0.016 A 
ATOM     40  C   UNL A   1      44.496  27.626  28.152  1.00  0.00     0.016 A 
ATOM     41  C   UNL A   1      45.051  30.359  28.449  1.00  0.00     0.010 A 
ATOM     42  C   UNL A   1      43.968  28.352  29.234  1.00  0.00     0.010 A 
ATOM     43  C   UNL A   1      44.219  29.732  29.388  1.00  0.00    -0.014 A 
BRANCH  43  44
ATOM     44  C   UNL A   1      43.786  30.412  30.651  1.00  0.00     0.031 A 
ATOM     45  C   UNL A   1      42.440  31.055  30.641  1.00  0.00     0.074 A 
ATOM     46  C   UNL A   1      44.539  30.536  31.767  1.00  0.00     0.049 A 
ATOM     47  N   UNL A   1      41.870  31.763  31.576  1.00  0.00    -0.248 NA
ATOM     48  C   UNL A   1      41.621  30.850  29.436  1.00  0.00     0.031 C 
ATOM     49  C   UNL A   1      45.790  29.847  32.002  1.00  0.00     0.029 A 
ATOM     50  N   UNL A   1      44.388  31.293  32.912  1.00  0.00    -0.354 N 
ATOM     51  C   UNL A   1      40.612  32.063  31.089  1.00  0.00     0.074 A 
ATOM     52  C   UNL A   1      40.521  31.513  29.753  1.00  0.00     0.031 C 
ATOM     53  C   UNL A   1      46.358  30.288  33.138  1.00  0.00     0.029 A 
ATOM     54  C   UNL A   1      45.487  31.268  33.752  1.00  0.00     0.049 A 
ATOM     55  H   UNL A   1      43.572  31.805  33.112  1.00  0.00     0.167 HD
ATOM     56  C   UNL A   1      39.612  32.716  31.714  1.00  0.00     0.037 A 
ATOM     57  C   UNL A   1      45.775  31.927  34.896  1.00  0.00     0.037 A 
ATOM     58  C   UNL A   1      39.712  33.288  33.027  1.00  0.00     0.049 A 
ATOM     59  C   UNL A   1      44.696  32.761  35.514  1.00  0.00     0.074 A 
ATOM     60  C   UNL A   1      38.739  33.967  33.735  1.00  0.00     0.029 A 
ATOM     61  N   UNL A   1      40.850  33.273  33.820  1.00  0.00    -0.354 N 
ATOM     62  N   UNL A   1      43.491  32.990  35.054  1.00  0.00    -0.248 NA
ATOM     63  C   UNL A   1      44.974  33.370  36.822  1.00  0.00     0.031 C 
ATOM     64  C   UNL A   1      39.308  34.424  34.925  1.00  0.00     0.029 A 
ATOM     65  C   UNL A   1      40.614  33.967  34.994  1.00  0.00     0.049 A 
ATOM     66  H   UNL A   1      41.700  32.833  33.583  1.00  0.00     0.167 HD
ATOM     67  C   UNL A   1      42.845  33.714  36.044  1.00  0.00     0.074 A 
ATOM     68  C   UNL A   1      43.797  33.905  37.119  1.00  0.00     0.031 C 
ATOM     69  C   UNL A   1      41.565  34.151  36.061  1.00  0.00     0.037 A 
BRANCH  56  70
ATOM     70  C   UNL A   1      38.339  32.869  30.950  1.00  0.00     0.058 A 
ATOM     71  C   UNL A   1      38.164  33.901  30.014  1.00  0.00     0.135 A 
ATOM     72  C   UNL A   1      37.277  31.981  31.170  1.00  0.00     0.135 A 
ATOM     73  F   UNL A   1      39.138  34.802  29.807  1.00  0.00    -0.206 F 
ATOM     74  C   UNL A   1      36.967  34.052  29.327  1.00  0.00     0.059 A 
ATOM     75  C   UNL A   1      36.083  32.096  30.474  1.00  0.00     0.059 A 
ATOM     76  F   UNL A   1      37.395  31.000  32.077  1.00  0.00    -0.206 F 
ATOM     77  C   UNL A   1      35.937  33.140  29.559  1.00  0.00     0.060 A 
BRANCH  77  78
ATOM     78  S   UNL A   1      34.402  33.330  28.634  1.00  0.00     0.124 S 
ATOM     79  O   UNL A   1      33.527  33.922  29.641  1.00  0.00    -0.237 OA
ATOM     80  O   UNL A   1      34.807  34.214  27.546  1.00  0.00    -0.237 OA
ATOM     81  O   UNL A   1      34.072  31.964  28.239  1.00  0.00    -0.744 OA
ENDBRANCH  77  78
ENDBRANCH  56  70
BRANCH  57  82
ATOM     82  C   UNL A   1      47.110  31.807  35.561  1.00  0.00     0.058 A 
ATOM     83  C   UNL A   1      47.369  30.828  36.531  1.00  0.00     0.135 A 
ATOM     84  C   UNL A   1      48.141  32.714  35.272  1.00  0.00     0.135 A 
ATOM     85  F   UNL A   1      46.409  29.955  36.874  1.00  0.00    -0.206 F 
ATOM     86  C   UNL A   1      48.593  30.756  37.196  1.00  0.00     0.059 A 
ATOM     87  C   UNL A   1      49.388  32.642  35.899  1.00  0.00     0.059 A 
ATOM     88  F   UNL A   1      47.931  33.698  34.382  1.00  0.00    -0.206 F 
ATOM     89  C   UNL A   1      49.601  31.665  36.871  1.00  0.00     0.060 A 
BRANCH  89  90
ATOM     90  S   UNL A   1      51.194  31.531  37.720  1.00  0.00     0.124 S 
ATOM     91  O   UNL A   1      51.109  30.193  38.298  1.00  0.00    -0.237 OA
ATOM     92  O   UNL A   1      52.141  31.685  36.618  1.00  0.00    -0.237 OA
ATOM     93  O   UNL A   1      51.169  32.633  38.675  1.00  0.00    -0.744 OA
ENDBRANCH  89  90
ENDBRANCH  57  82
BRANCH  69  94
ATOM     94  C   UNL A   1      41.086  34.857  37.292  1.00  0.00     0.058 A 
ATOM     95  C   UNL A   1      41.331  36.220  37.502  1.00  0.00     0.135 A 
ATOM     96  C   UNL A   1      40.272  34.177  38.214  1.00  0.00     0.135 A 
ATOM     97  F   UNL A   1      42.116  36.907  36.657  1.00  0.00    -0.206 F 
ATOM     98  C   UNL A   1      40.773  36.894  38.583  1.00  0.00     0.059 A 
ATOM     99  C   UNL A   1      39.681  34.837  39.284  1.00  0.00     0.059 A 
ATOM    100  F   UNL A   1      40.012  32.870  38.052  1.00  0.00    -0.206 F 
ATOM    101  C   UNL A   1      39.936  36.196  39.457  1.00  0.00     0.060 A 
BRANCH 101 102
ATOM    102  S   UNL A   1      39.134  37.108  40.791  1.00  0.00     0.124 S 
ATOM    103  O   UNL A   1      38.263  38.012  40.049  1.00  0.00    -0.237 OA
ATOM    104  O   UNL A   1      38.462  36.044  41.532  1.00  0.00    -0.237 OA
ATOM    105  O   UNL A   1      40.250  37.741  41.489  1.00  0.00    -0.744 OA
ENDBRANCH 101 102
ENDBRANCH  69  94
ENDBRANCH  43  44
ENDBRANCH  36  38
ENDBRANCH  35  36
ENDBRANCH  34  35
ENDBRANCH  33  34
ENDBRANCH  32  33
ENDBRANCH  31  32
ENDBRANCH   1  31
TORSDOF 23
ENDMDL
MODEL 3
REMARK VINA RESULT:      -9.6      6.120      9.225
REMARK SMILES COc1ccc(CCN2/C(=[NH+]/C(=O)CCC(=O)OCCOCCOC(=O)c3ccc(-c4c5nc(c(-c6c(F)cc(S(=O)(=O)[O-])cc6F)c6ccc([nH]6)c(-c6c(F)cc(S(=O)(=O)[O-])cc6F)c6nc(c(-c7c(F)cc(S(=O)(=O)[O-])cc7F)c7ccc4[nH]7)C=C6)C=C5)cc3)S[C@@H]3CS(=O)(=O)C[C@@H]32)cc1
REMARK SMILES IDX 19 1 18 2 16 3 17 4 15 5 14 6 12 7 9 8 10 9 100 10 11 11
REMARK SMILES IDX 93 12 94 13 99 14 95 16 96 17 13 18 97 19 98 20 8 21 7 22
REMARK SMILES IDX 6 23 3 24 4 25 102 26 5 27 101 28 2 29 1 30 20 31 21 32
REMARK SMILES IDX 22 33 23 34 24 35 25 36 26 37 27 38 28 39 92 40 29 41 91 42
REMARK SMILES IDX 30 43 31 44 32 45 85 46 33 47 90 48 84 49 86 50 34 51 89 52
REMARK SMILES IDX 83 53 82 54 35 56 69 57 48 58 68 59 49 60 52 61 67 62 87 63
REMARK SMILES IDX 50 64 51 65 66 67 88 68 53 69 36 70 37 71 46 72 38 73 39 74
REMARK SMILES IDX 45 75 47 76 40 77 41 78 42 79 43 80 44 81 70 82 71 83 80 84
REMARK SMILES IDX 72 85 73 86 79 87 81 88 74 89 75 90 76 91 77 92 78 93 54 94
REMARK SMILES IDX 55 95 64 96 56 97 57 98 63 99 65 100 58 101 59 102 60 103
REMARK SMILES IDX 61 104 62 105
REMARK H PARENT 11 15 86 55 52 66
REMARK Flexibility Score: inf
ROOT
ATOM      1  C   UNL A   1      35.803  32.284  29.717  1.00  0.00     0.261 C 
ENDROOT
BRANCH   1   2
ATOM      2  O   UNL A   1      35.285  32.041  28.398  1.00  0.00    -0.463 OA
BRANCH   2   3
ATOM      3  C   UNL A   1      35.033  30.758  28.041  1.00  0.00     0.306 C 
ATOM      4  O   UNL A   1      35.548  29.772  28.553  1.00  0.00    -0.252 OA
BRANCH   3   5
ATOM      5  C   UNL A   1      34.057  30.668  26.890  1.00  0.00     0.135 C 
BRANCH   5   6
ATOM      6  C   UNL A   1      32.712  30.056  27.252  1.00  0.00     0.139 C 
BRANCH   6   7
ATOM      7  C   UNL A   1      32.595  28.629  26.761  1.00  0.00     0.308 C 
ATOM      8  N   UNL A   1      30.637  27.007  24.170  1.00  0.00    -0.251 N 
ATOM      9  C   UNL A   1      31.349  27.255  25.339  1.00  0.00     0.314 C 
ATOM     10  C   UNL A   1      30.961  25.706  23.555  1.00  0.00     0.206 C 
ATOM     11  N   UNL A   1      31.600  28.422  25.830  1.00  0.00    -0.205 N 
ATOM     12  S   UNL A   1      31.980  25.721  25.961  1.00  0.00    -0.030 SA
ATOM     13  C   UNL A   1      32.143  25.069  24.295  1.00  0.00     0.120 C 
ATOM     14  C   UNL A   1      31.348  25.925  22.112  1.00  0.00     0.187 C 
ATOM     15  H   UNL A   1      31.062  29.190  25.529  1.00  0.00     0.316 HD
ATOM     16  C   UNL A   1      33.424  25.535  23.628  1.00  0.00     0.156 C 
ATOM     17  S   UNL A   1      33.022  25.465  21.911  1.00  0.00     0.155 S 
ATOM     18  O   UNL A   1      33.450  27.828  27.132  1.00  0.00    -0.247 OA
ATOM     19  O   UNL A   1      33.699  26.527  21.206  1.00  0.00    -0.229 OA
ATOM     20  O   UNL A   1      33.049  24.082  21.485  1.00  0.00    -0.229 OA
BRANCH   8  21
ATOM     21  C   UNL A   1      29.301  27.570  23.868  1.00  0.00     0.242 C 
BRANCH  21  22
ATOM     22  C   UNL A   1      29.017  28.197  22.471  1.00  0.00     0.081 C 
BRANCH  22  23
ATOM     23  C   UNL A   1      28.560  29.657  22.444  1.00  0.00    -0.044 A 
ATOM     24  C   UNL A   1      28.216  32.448  22.703  1.00  0.00     0.118 A 
ATOM     25  C   UNL A   1      27.673  31.592  23.653  1.00  0.00     0.046 A 
ATOM     26  C   UNL A   1      28.777  31.908  21.546  1.00  0.00     0.046 A 
ATOM     27  C   UNL A   1      27.798  30.201  23.489  1.00  0.00     0.007 A 
ATOM     28  C   UNL A   1      28.943  30.523  21.410  1.00  0.00     0.007 A 
BRANCH  24  29
ATOM     29  O   UNL A   1      28.460  33.777  22.890  1.00  0.00    -0.497 OA
ATOM     30  C   UNL A   1      29.678  34.159  23.506  1.00  0.00     0.278 C 
ENDBRANCH  24  29
ENDBRANCH  22  23
ENDBRANCH  21  22
ENDBRANCH   8  21
ENDBRANCH   6   7
ENDBRANCH   5   6
ENDBRANCH   3   5
ENDBRANCH   2   3
ENDBRANCH   1   2
BRANCH   1  31
ATOM     31  C   UNL A   1      34.781  32.982  30.631  1.00  0.00     0.202 C 
BRANCH  31  32
ATOM     32  O   UNL A   1      34.579  32.359  31.899  1.00  0.00    -0.374 OA
BRANCH  32  33
ATOM     33  C   UNL A   1      35.155  33.068  32.995  1.00  0.00     0.202 C 
BRANCH  33  34
ATOM     34  C   UNL A   1      36.686  33.034  33.082  1.00  0.00     0.261 C 
BRANCH  34  35
ATOM     35  O   UNL A   1      37.200  33.797  34.199  1.00  0.00    -0.460 OA
BRANCH  35  36
ATOM     36  C   UNL A   1      37.465  33.105  35.338  1.00  0.00     0.338 C 
ATOM     37  O   UNL A   1      36.761  33.062  36.332  1.00  0.00    -0.246 OA
BRANCH  36  38
ATOM     38  C   UNL A   1      38.704  32.286  35.183  1.00  0.00     0.060 A 
ATOM     39  C   UNL A   1      38.638  30.908  35.450  1.00  0.00     0.016 A 
ATOM     40  C   UNL A   1      39.917  32.834  34.754  1.00  0.00     0.016 A 
ATOM     41  C   UNL A   1      39.759  30.077  35.246  1.00  0.00     0.010 A 
ATOM     42  C   UNL A   1      41.035  32.003  34.553  1.00  0.00     0.010 A 
ATOM     43  C   UNL A   1      40.967  30.612  34.775  1.00  0.00    -0.014 A 
BRANCH  43  44
ATOM     44  C   UNL A   1      42.230  29.806  34.724  1.00  0.00     0.031 A 
ATOM     45  C   UNL A   1      42.520  29.093  33.446  1.00  0.00     0.074 A 
ATOM     46  C   UNL A   1      43.086  29.633  35.756  1.00  0.00     0.049 A 
ATOM     47  N   UNL A   1      43.502  28.279  33.175  1.00  0.00    -0.248 NA
ATOM     48  C   UNL A   1      41.604  29.350  32.324  1.00  0.00     0.031 C 
ATOM     49  C   UNL A   1      43.041  30.368  37.001  1.00  0.00     0.029 A 
ATOM     50  N   UNL A   1      44.152  28.776  35.945  1.00  0.00    -0.354 N 
ATOM     51  C   UNL A   1      43.343  27.950  31.842  1.00  0.00     0.074 A 
ATOM     52  C   UNL A   1      42.139  28.603  31.374  1.00  0.00     0.031 C 
ATOM     53  C   UNL A   1      43.936  29.868  37.871  1.00  0.00     0.029 A 
ATOM     54  C   UNL A   1      44.666  28.793  37.230  1.00  0.00     0.049 A 
ATOM     55  H   UNL A   1      44.514  28.204  35.231  1.00  0.00     0.167 HD
ATOM     56  C   UNL A   1      44.149  27.193  31.071  1.00  0.00     0.037 A 
ATOM     57  C   UNL A   1      45.622  28.058  37.839  1.00  0.00     0.037 A 
ATOM     58  C   UNL A   1      45.327  26.521  31.542  1.00  0.00     0.049 A 
ATOM     59  C   UNL A   1      46.425  27.117  36.995  1.00  0.00     0.074 A 
ATOM     60  C   UNL A   1      46.203  25.732  30.820  1.00  0.00     0.029 A 
ATOM     61  N   UNL A   1      45.783  26.534  32.852  1.00  0.00    -0.354 N 
ATOM     62  N   UNL A   1      46.286  26.861  35.718  1.00  0.00    -0.248 NA
ATOM     63  C   UNL A   1      47.547  26.419  37.638  1.00  0.00     0.031 C 
ATOM     64  C   UNL A   1      47.148  25.211  31.705  1.00  0.00     0.029 A 
ATOM     65  C   UNL A   1      46.907  25.733  32.965  1.00  0.00     0.049 A 
ATOM     66  H   UNL A   1      45.370  27.038  33.591  1.00  0.00     0.167 HD
ATOM     67  C   UNL A   1      47.339  26.022  35.389  1.00  0.00     0.074 A 
ATOM     68  C   UNL A   1      48.096  25.796  36.603  1.00  0.00     0.031 C 
ATOM     69  C   UNL A   1      47.657  25.514  34.177  1.00  0.00     0.037 A 
BRANCH  56  70
ATOM     70  C   UNL A   1      43.744  27.033  29.643  1.00  0.00     0.058 A 
ATOM     71  C   UNL A   1      43.178  25.838  29.170  1.00  0.00     0.135 A 
ATOM     72  C   UNL A   1      43.937  28.083  28.737  1.00  0.00     0.135 A 
ATOM     73  F   UNL A   1      43.019  24.790  29.994  1.00  0.00    -0.206 F 
ATOM     74  C   UNL A   1      42.828  25.688  27.835  1.00  0.00     0.059 A 
ATOM     75  C   UNL A   1      43.568  27.966  27.404  1.00  0.00     0.059 A 
ATOM     76  F   UNL A   1      44.501  29.232  29.143  1.00  0.00    -0.206 F 
ATOM     77  C   UNL A   1      43.020  26.761  26.963  1.00  0.00     0.060 A 
BRANCH  77  78
ATOM     78  S   UNL A   1      42.529  26.561  25.241  1.00  0.00     0.124 S 
ATOM     79  O   UNL A   1      43.343  25.419  24.837  1.00  0.00    -0.237 OA
ATOM     80  O   UNL A   1      41.096  26.310  25.358  1.00  0.00    -0.237 OA
ATOM     81  O   UNL A   1      42.893  27.838  24.634  1.00  0.00    -0.744 OA
ENDBRANCH  77  78
ENDBRANCH  56  70
BRANCH  57  82
ATOM     82  C   UNL A   1      45.913  28.197  39.300  1.00  0.00     0.058 A 
ATOM     83  C   UNL A   1      46.875  29.098  39.781  1.00  0.00     0.135 A 
ATOM     84  C   UNL A   1      45.267  27.383  40.243  1.00  0.00     0.135 A 
ATOM     85  F   UNL A   1      47.551  29.878  38.924  1.00  0.00    -0.206 F 
ATOM     86  C   UNL A   1      47.190  29.182  41.138  1.00  0.00     0.059 A 
ATOM     87  C   UNL A   1      45.540  27.472  41.610  1.00  0.00     0.059 A 
ATOM     88  F   UNL A   1      44.369  26.473  39.830  1.00  0.00    -0.206 F 
ATOM     89  C   UNL A   1      46.514  28.369  42.048  1.00  0.00     0.060 A 
BRANCH  89  90
ATOM     90  S   UNL A   1      46.914  28.520  43.807  1.00  0.00     0.124 S 
ATOM     91  O   UNL A   1      45.620  28.256  44.428  1.00  0.00    -0.237 OA
ATOM     92  O   UNL A   1      47.924  27.480  43.982  1.00  0.00    -0.237 OA
ATOM     93  O   UNL A   1      47.404  29.889  43.932  1.00  0.00    -0.744 OA
ENDBRANCH  89  90
ENDBRANCH  57  82
BRANCH  69  94
ATOM     94  C   UNL A   1      48.899  24.684  34.073  1.00  0.00     0.058 A 
ATOM     95  C   UNL A   1      48.857  23.285  34.130  1.00  0.00     0.135 A 
ATOM     96  C   UNL A   1      50.131  25.301  33.796  1.00  0.00     0.135 A 
ATOM     97  F   UNL A   1      47.706  22.652  34.408  1.00  0.00    -0.206 F 
ATOM     98  C   UNL A   1      49.995  22.520  33.904  1.00  0.00     0.059 A 
ATOM     99  C   UNL A   1      51.274  24.555  33.538  1.00  0.00     0.059 A 
ATOM    100  F   UNL A   1      50.217  26.639  33.732  1.00  0.00    -0.206 F 
ATOM    101  C   UNL A   1      51.194  23.165  33.592  1.00  0.00     0.060 A 
BRANCH 101 102
ATOM    102  S   UNL A   1      52.636  22.156  33.196  1.00  0.00     0.124 S 
ATOM    103  O   UNL A   1      52.036  21.076  32.420  1.00  0.00    -0.237 OA
ATOM    104  O   UNL A   1      53.470  23.091  32.445  1.00  0.00    -0.237 OA
ATOM    105  O   UNL A   1      53.156  21.775  34.506  1.00  0.00    -0.744 OA
ENDBRANCH 101 102
ENDBRANCH  69  94
ENDBRANCH  43  44
ENDBRANCH  36  38
ENDBRANCH  35  36
ENDBRANCH  34  35
ENDBRANCH  33  34
ENDBRANCH  32  33
ENDBRANCH  31  32
ENDBRANCH   1  31
TORSDOF 23
ENDMDL
