MODEL 1
REMARK VINA RESULT:     -11.5      0.000      0.000
REMARK SMILES CC(C)(C)OC(=O)N1CCN(c2nc3ccccc3s2)[C@H](C(=O)OCCOCCOC(=O)c2ccc(-c3c4nc(c(-c5c(F)cc(S(=O)(=O)[O-])cc5F)c5ccc([nH]5)c(-c5c(F)cc(S(=O)(=O)[O-])cc5F)c5nc(c(-c6c(F)cc(S(=O)(=O)[O-])cc6F)c6ccc3[nH]6)C=C5)C=C4)cc2)C1
REMARK SMILES IDX 27 1 26 2 25 3 24 4 22 5 23 6 21 7 8 8 9 9 99 10 10 11 11 12
REMARK SMILES IDX 6 13 7 14 5 15 2 16 1 17 3 18 4 19 12 20 13 21 20 22 14 23
REMARK SMILES IDX 19 24 15 25 18 26 16 27 17 28 28 29 29 30 30 31 31 32 32 33
REMARK SMILES IDX 33 34 34 35 98 36 35 37 97 38 36 39 37 40 38 41 91 42 39 43
REMARK SMILES IDX 96 44 90 45 92 46 40 47 95 48 89 49 88 50 41 52 75 53 54 54
REMARK SMILES IDX 74 55 55 56 58 57 73 58 93 59 56 60 57 61 72 63 94 64 59 65
REMARK SMILES IDX 42 66 43 67 52 68 44 69 45 70 51 71 53 72 46 73 47 74 48 75
REMARK SMILES IDX 49 76 50 77 76 78 77 79 86 80 78 81 79 82 85 83 87 84 80 85
REMARK SMILES IDX 81 86 82 87 83 88 84 89 60 90 61 91 70 92 62 93 63 94 69 95
REMARK SMILES IDX 71 96 64 97 65 98 66 99 67 100 68 101
REMARK H PARENT 92 51 58 62
REMARK Flexibility Score: inf
ROOT
ATOM      1  O   UNL A   1      34.055  30.860  26.973  1.00  0.00    -0.374 OA
ENDROOT
BRANCH   1   2
ATOM      2  C   UNL A   1      32.931  29.979  27.011  1.00  0.00     0.202 C 
BRANCH   2   3
ATOM      3  C   UNL A   1      33.224  28.512  27.344  1.00  0.00     0.261 C 
BRANCH   3   4
ATOM      4  O   UNL A   1      33.153  27.694  26.154  1.00  0.00    -0.462 OA
BRANCH   4   5
ATOM      5  C   UNL A   1      32.376  26.571  26.211  1.00  0.00     0.330 C 
ATOM      6  O   UNL A   1      31.554  26.365  27.097  1.00  0.00    -0.250 OA
BRANCH   5   7
ATOM      7  C   UNL A   1      32.662  25.598  25.045  1.00  0.00     0.214 C 
ATOM      8  N   UNL A   1      34.490  24.496  23.685  1.00  0.00    -0.304 N 
ATOM      9  C   UNL A   1      33.817  24.829  22.431  1.00  0.00     0.144 C 
ATOM     10  C   UNL A   1      34.194  25.380  24.832  1.00  0.00     0.160 C 
ATOM     11  C   UNL A   1      32.309  24.968  22.658  1.00  0.00     0.141 C 
ATOM     12  N   UNL A   1      32.072  25.951  23.717  1.00  0.00    -0.331 N 
BRANCH   8  13
ATOM     13  C   UNL A   1      35.362  23.431  23.705  1.00  0.00     0.410 C 
ATOM     14  O   UNL A   1      35.936  23.028  22.698  1.00  0.00    -0.224 OA
BRANCH  13  15
ATOM     15  O   UNL A   1      35.447  22.846  24.924  1.00  0.00    -0.444 OA
BRANCH  15  16
ATOM     16  C   UNL A   1      34.815  21.558  25.158  1.00  0.00     0.106 C 
ATOM     17  C   UNL A   1      34.357  21.598  26.623  1.00  0.00     0.056 C 
ATOM     18  C   UNL A   1      35.834  20.428  24.982  1.00  0.00     0.056 C 
ATOM     19  C   UNL A   1      33.569  21.342  24.284  1.00  0.00     0.056 C 
ENDBRANCH  15  16
ENDBRANCH  13  15
ENDBRANCH   8  13
BRANCH  12  20
ATOM     20  C   UNL A   1      31.132  26.900  23.507  1.00  0.00     0.187 A 
ATOM     21  N   UNL A   1      31.325  28.065  22.941  1.00  0.00    -0.220 NA
ATOM     22  S   UNL A   1      29.530  26.676  24.131  1.00  0.00    -0.097 S 
ATOM     23  C   UNL A   1      30.115  28.725  22.772  1.00  0.00     0.084 A 
ATOM     24  C   UNL A   1      28.993  28.039  23.237  1.00  0.00     0.056 A 
ATOM     25  C   UNL A   1      29.921  29.978  22.157  1.00  0.00     0.030 A 
ATOM     26  C   UNL A   1      27.683  28.479  22.984  1.00  0.00     0.021 A 
ATOM     27  C   UNL A   1      28.622  30.449  21.931  1.00  0.00     0.002 A 
ATOM     28  C   UNL A   1      27.518  29.688  22.304  1.00  0.00     0.002 A 
ENDBRANCH  12  20
ENDBRANCH   5   7
ENDBRANCH   4   5
ENDBRANCH   3   4
ENDBRANCH   2   3
ENDBRANCH   1   2
BRANCH   1  29
ATOM     29  C   UNL A   1      34.107  31.881  27.960  1.00  0.00     0.202 C 
BRANCH  29  30
ATOM     30  C   UNL A   1      35.053  31.692  29.149  1.00  0.00     0.261 C 
BRANCH  30  31
ATOM     31  O   UNL A   1      35.789  30.474  29.070  1.00  0.00    -0.460 OA
BRANCH  31  32
ATOM     32  C   UNL A   1      36.483  30.209  30.201  1.00  0.00     0.338 C 
ATOM     33  O   UNL A   1      36.034  29.966  31.311  1.00  0.00    -0.246 OA
BRANCH  32  34
ATOM     34  C   UNL A   1      37.903  30.072  29.860  1.00  0.00     0.060 A 
ATOM     35  C   UNL A   1      38.221  29.979  28.501  1.00  0.00     0.016 A 
ATOM     36  C   UNL A   1      38.891  30.012  30.844  1.00  0.00     0.016 A 
ATOM     37  C   UNL A   1      39.535  29.760  28.119  1.00  0.00     0.010 A 
ATOM     38  C   UNL A   1      40.212  29.789  30.458  1.00  0.00     0.010 A 
ATOM     39  C   UNL A   1      40.527  29.618  29.099  1.00  0.00    -0.014 A 
BRANCH  39  40
ATOM     40  C   UNL A   1      41.861  29.128  28.698  1.00  0.00     0.031 A 
ATOM     41  C   UNL A   1      43.001  30.103  28.647  1.00  0.00     0.074 A 
ATOM     42  C   UNL A   1      42.047  27.828  28.420  1.00  0.00     0.049 A 
ATOM     43  N   UNL A   1      44.247  29.902  28.318  1.00  0.00    -0.248 NA
ATOM     44  C   UNL A   1      42.689  31.496  29.012  1.00  0.00     0.031 C 
ATOM     45  C   UNL A   1      41.008  26.801  28.462  1.00  0.00     0.029 A 
ATOM     46  N   UNL A   1      43.177  27.155  28.040  1.00  0.00    -0.354 N 
ATOM     47  C   UNL A   1      44.868  31.141  28.418  1.00  0.00     0.074 A 
ATOM     48  C   UNL A   1      43.852  32.094  28.806  1.00  0.00     0.031 C 
ATOM     49  C   UNL A   1      41.545  25.625  28.101  1.00  0.00     0.029 A 
ATOM     50  C   UNL A   1      42.955  25.826  27.771  1.00  0.00     0.049 A 
ATOM     51  H   UNL A   1      44.061  27.581  27.964  1.00  0.00     0.167 HD
ATOM     52  C   UNL A   1      46.169  31.450  28.210  1.00  0.00     0.037 A 
ATOM     53  C   UNL A   1      43.791  24.889  27.285  1.00  0.00     0.037 A 
ATOM     54  C   UNL A   1      47.163  30.484  27.819  1.00  0.00     0.049 A 
ATOM     55  C   UNL A   1      45.225  25.258  27.022  1.00  0.00     0.074 A 
ATOM     56  C   UNL A   1      48.518  30.675  27.620  1.00  0.00     0.029 A 
ATOM     57  N   UNL A   1      46.904  29.147  27.547  1.00  0.00    -0.354 N 
ATOM     58  N   UNL A   1      45.816  26.421  27.167  1.00  0.00    -0.248 NA
ATOM     59  C   UNL A   1      46.108  24.190  26.542  1.00  0.00     0.031 C 
ATOM     60  C   UNL A   1      49.064  29.470  27.161  1.00  0.00     0.029 A 
ATOM     61  C   UNL A   1      48.065  28.509  27.144  1.00  0.00     0.049 A 
ATOM     62  H   UNL A   1      46.023  28.715  27.629  1.00  0.00     0.167 HD
ATOM     63  C   UNL A   1      47.146  26.222  26.813  1.00  0.00     0.074 A 
ATOM     64  C   UNL A   1      47.273  24.820  26.461  1.00  0.00     0.031 C 
ATOM     65  C   UNL A   1      48.169  27.114  26.785  1.00  0.00     0.037 A 
BRANCH  52  66
ATOM     66  C   UNL A   1      46.569  32.895  28.349  1.00  0.00     0.058 A 
ATOM     67  C   UNL A   1      46.535  33.791  27.267  1.00  0.00     0.135 A 
ATOM     68  C   UNL A   1      47.010  33.388  29.589  1.00  0.00     0.135 A 
ATOM     69  F   UNL A   1      46.139  33.373  26.055  1.00  0.00    -0.206 F 
ATOM     70  C   UNL A   1      46.970  35.107  27.397  1.00  0.00     0.059 A 
ATOM     71  C   UNL A   1      47.416  34.709  29.750  1.00  0.00     0.059 A 
ATOM     72  F   UNL A   1      47.064  32.578  30.658  1.00  0.00    -0.206 F 
ATOM     73  C   UNL A   1      47.416  35.554  28.642  1.00  0.00     0.060 A 
BRANCH  73  74
ATOM     74  S   UNL A   1      48.009  37.253  28.788  1.00  0.00     0.124 S 
ATOM     75  O   UNL A   1      49.436  37.085  28.529  1.00  0.00    -0.237 OA
ATOM     76  O   UNL A   1      47.252  37.938  27.745  1.00  0.00    -0.237 OA
ATOM     77  O   UNL A   1      47.660  37.619  30.157  1.00  0.00    -0.744 OA
ENDBRANCH  73  74
ENDBRANCH  52  66
BRANCH  53  78
ATOM     78  C   UNL A   1      43.266  23.528  27.007  1.00  0.00     0.058 A 
ATOM     79  C   UNL A   1      43.003  23.096  25.700  1.00  0.00     0.135 A 
ATOM     80  C   UNL A   1      43.087  22.604  28.051  1.00  0.00     0.135 A 
ATOM     81  F   UNL A   1      43.151  23.944  24.671  1.00  0.00    -0.206 F 
ATOM     82  C   UNL A   1      42.589  21.795  25.434  1.00  0.00     0.059 A 
ATOM     83  C   UNL A   1      42.699  21.291  27.808  1.00  0.00     0.059 A 
ATOM     84  F   UNL A   1      43.339  22.965  29.319  1.00  0.00    -0.206 F 
ATOM     85  C   UNL A   1      42.453  20.895  26.495  1.00  0.00     0.060 A 
BRANCH  85  86
ATOM     86  S   UNL A   1      42.017  19.182  26.128  1.00  0.00     0.124 S 
ATOM     87  O   UNL A   1      42.836  18.915  24.951  1.00  0.00    -0.237 OA
ATOM     88  O   UNL A   1      42.416  18.498  27.354  1.00  0.00    -0.237 OA
ATOM     89  O   UNL A   1      40.578  19.244  25.895  1.00  0.00    -0.744 OA
ENDBRANCH  85  86
ENDBRANCH  53  78
BRANCH  65  90
ATOM     90  C   UNL A   1      49.525  26.599  26.381  1.00  0.00     0.058 A 
ATOM     91  C   UNL A   1      50.035  26.788  25.086  1.00  0.00     0.135 A 
ATOM     92  C   UNL A   1      50.348  25.956  27.321  1.00  0.00     0.135 A 
ATOM     93  F   UNL A   1      49.288  27.391  24.147  1.00  0.00    -0.206 F 
ATOM     94  C   UNL A   1      51.301  26.335  24.731  1.00  0.00     0.059 A 
ATOM     95  C   UNL A   1      51.630  25.524  26.996  1.00  0.00     0.059 A 
ATOM     96  F   UNL A   1      49.915  25.759  28.577  1.00  0.00    -0.206 F 
ATOM     97  C   UNL A   1      52.093  25.707  25.695  1.00  0.00     0.060 A 
BRANCH  97  98
ATOM     98  S   UNL A   1      53.745  25.151  25.228  1.00  0.00     0.124 S 
ATOM     99  O   UNL A   1      54.582  25.903  26.159  1.00  0.00    -0.237 OA
ATOM    100  O   UNL A   1      53.669  23.713  25.466  1.00  0.00    -0.237 OA
ATOM    101  O   UNL A   1      53.855  25.544  23.827  1.00  0.00    -0.744 OA
ENDBRANCH  97  98
ENDBRANCH  65  90
ENDBRANCH  39  40
ENDBRANCH  32  34
ENDBRANCH  31  32
ENDBRANCH  30  31
ENDBRANCH  29  30
ENDBRANCH   1  29
TORSDOF 21
ENDMDL
MODEL 2
REMARK VINA RESULT:     -10.6      4.729      7.092
REMARK SMILES CC(C)(C)OC(=O)N1CCN(c2nc3ccccc3s2)[C@H](C(=O)OCCOCCOC(=O)c2ccc(-c3c4nc(c(-c5c(F)cc(S(=O)(=O)[O-])cc5F)c5ccc([nH]5)c(-c5c(F)cc(S(=O)(=O)[O-])cc5F)c5nc(c(-c6c(F)cc(S(=O)(=O)[O-])cc6F)c6ccc3[nH]6)C=C5)C=C4)cc2)C1
REMARK SMILES IDX 27 1 26 2 25 3 24 4 22 5 23 6 21 7 8 8 9 9 99 10 10 11 11 12
REMARK SMILES IDX 6 13 7 14 5 15 2 16 1 17 3 18 4 19 12 20 13 21 20 22 14 23
REMARK SMILES IDX 19 24 15 25 18 26 16 27 17 28 28 29 29 30 30 31 31 32 32 33
REMARK SMILES IDX 33 34 34 35 98 36 35 37 97 38 36 39 37 40 38 41 91 42 39 43
REMARK SMILES IDX 96 44 90 45 92 46 40 47 95 48 89 49 88 50 41 52 75 53 54 54
REMARK SMILES IDX 74 55 55 56 58 57 73 58 93 59 56 60 57 61 72 63 94 64 59 65
REMARK SMILES IDX 42 66 43 67 52 68 44 69 45 70 51 71 53 72 46 73 47 74 48 75
REMARK SMILES IDX 49 76 50 77 76 78 77 79 86 80 78 81 79 82 85 83 87 84 80 85
REMARK SMILES IDX 81 86 82 87 83 88 84 89 60 90 61 91 70 92 62 93 63 94 69 95
REMARK SMILES IDX 71 96 64 97 65 98 66 99 67 100 68 101
REMARK H PARENT 92 51 58 62
REMARK Flexibility Score: inf
ROOT
ATOM      1  O   UNL A   1      33.214  29.261  23.919  1.00  0.00    -0.374 OA
ENDROOT
BRANCH   1   2
ATOM      2  C   UNL A   1      34.012  28.921  22.785  1.00  0.00     0.202 C 
BRANCH   2   3
ATOM      3  C   UNL A   1      34.166  27.427  22.481  1.00  0.00     0.261 C 
BRANCH   3   4
ATOM      4  O   UNL A   1      33.428  27.068  21.291  1.00  0.00    -0.462 OA
BRANCH   4   5
ATOM      5  C   UNL A   1      32.849  25.830  21.263  1.00  0.00     0.330 C 
ATOM      6  O   UNL A   1      33.271  24.905  20.579  1.00  0.00    -0.250 OA
BRANCH   5   7
ATOM      7  C   UNL A   1      31.606  25.741  22.178  1.00  0.00     0.214 C 
ATOM      8  N   UNL A   1      29.846  27.091  23.397  1.00  0.00    -0.304 N 
ATOM      9  C   UNL A   1      30.043  26.321  24.624  1.00  0.00     0.144 C 
ATOM     10  C   UNL A   1      31.002  27.151  22.477  1.00  0.00     0.160 C 
ATOM     11  C   UNL A   1      30.570  24.922  24.293  1.00  0.00     0.141 C 
ATOM     12  N   UNL A   1      31.788  25.045  23.489  1.00  0.00    -0.331 N 
BRANCH   8  13
ATOM     13  C   UNL A   1      28.640  27.726  23.201  1.00  0.00     0.410 C 
ATOM     14  O   UNL A   1      27.599  27.342  23.724  1.00  0.00    -0.224 OA
BRANCH  13  15
ATOM     15  O   UNL A   1      28.726  28.752  22.321  1.00  0.00    -0.444 OA
BRANCH  15  16
ATOM     16  C   UNL A   1      28.736  30.124  22.803  1.00  0.00     0.106 C 
ATOM     17  C   UNL A   1      29.007  30.982  21.558  1.00  0.00     0.056 C 
ATOM     18  C   UNL A   1      29.874  30.325  23.807  1.00  0.00     0.056 C 
ATOM     19  C   UNL A   1      27.380  30.558  23.384  1.00  0.00     0.056 C 
ENDBRANCH  15  16
ENDBRANCH  13  15
ENDBRANCH   8  13
BRANCH  12  20
ATOM     20  C   UNL A   1      32.858  24.293  23.833  1.00  0.00     0.187 A 
ATOM     21  N   UNL A   1      33.947  24.725  24.417  1.00  0.00    -0.220 NA
ATOM     22  S   UNL A   1      32.917  22.622  23.377  1.00  0.00    -0.097 S 
ATOM     23  C   UNL A   1      34.776  23.658  24.739  1.00  0.00     0.084 A 
ATOM     24  C   UNL A   1      34.297  22.400  24.372  1.00  0.00     0.056 A 
ATOM     25  C   UNL A   1      36.010  23.728  25.416  1.00  0.00     0.030 A 
ATOM     26  C   UNL A   1      34.919  21.209  24.780  1.00  0.00     0.021 A 
ATOM     27  C   UNL A   1      36.663  22.550  25.798  1.00  0.00     0.002 A 
ATOM     28  C   UNL A   1      36.102  21.307  25.518  1.00  0.00     0.002 A 
ENDBRANCH  12  20
ENDBRANCH   5   7
ENDBRANCH   4   5
ENDBRANCH   3   4
ENDBRANCH   2   3
ENDBRANCH   1   2
BRANCH   1  29
ATOM     29  C   UNL A   1      33.420  28.502  25.103  1.00  0.00     0.202 C 
BRANCH  29  30
ATOM     30  C   UNL A   1      33.440  29.242  26.444  1.00  0.00     0.261 C 
BRANCH  30  31
ATOM     31  O   UNL A   1      34.350  30.339  26.446  1.00  0.00    -0.460 OA
BRANCH  31  32
ATOM     32  C   UNL A   1      34.615  30.795  27.692  1.00  0.00     0.338 C 
ATOM     33  O   UNL A   1      33.886  31.459  28.413  1.00  0.00    -0.246 OA
BRANCH  32  34
ATOM     34  C   UNL A   1      35.880  30.209  28.147  1.00  0.00     0.060 A 
ATOM     35  C   UNL A   1      35.875  29.588  29.401  1.00  0.00     0.016 A 
ATOM     36  C   UNL A   1      37.043  30.286  27.378  1.00  0.00     0.016 A 
ATOM     37  C   UNL A   1      37.060  29.094  29.924  1.00  0.00     0.010 A 
ATOM     38  C   UNL A   1      38.233  29.790  27.907  1.00  0.00     0.010 A 
ATOM     39  C   UNL A   1      38.250  29.235  29.198  1.00  0.00    -0.014 A 
BRANCH  39  40
ATOM     40  C   UNL A   1      39.533  28.946  29.870  1.00  0.00     0.031 A 
ATOM     41  C   UNL A   1      39.935  29.787  31.047  1.00  0.00     0.074 A 
ATOM     42  C   UNL A   1      40.299  27.927  29.452  1.00  0.00     0.049 A 
ATOM     43  N   UNL A   1      41.012  29.721  31.781  1.00  0.00    -0.248 NA
ATOM     44  C   UNL A   1      38.997  30.850  31.443  1.00  0.00     0.031 C 
ATOM     45  C   UNL A   1      39.984  27.040  28.333  1.00  0.00     0.029 A 
ATOM     46  N   UNL A   1      41.505  27.474  29.916  1.00  0.00    -0.354 N 
ATOM     47  C   UNL A   1      40.893  30.741  32.716  1.00  0.00     0.074 A 
ATOM     48  C   UNL A   1      39.654  31.432  32.434  1.00  0.00     0.031 C 
ATOM     49  C   UNL A   1      40.984  26.157  28.184  1.00  0.00     0.029 A 
ATOM     50  C   UNL A   1      42.022  26.440  29.174  1.00  0.00     0.049 A 
ATOM     51  H   UNL A   1      41.958  27.853  30.704  1.00  0.00     0.167 HD
ATOM     52  C   UNL A   1      41.740  31.065  33.721  1.00  0.00     0.037 A 
ATOM     53  C   UNL A   1      43.211  25.815  29.267  1.00  0.00     0.037 A 
ATOM     54  C   UNL A   1      42.971  30.365  33.980  1.00  0.00     0.049 A 
ATOM     55  C   UNL A   1      44.158  26.213  30.367  1.00  0.00     0.074 A 
ATOM     56  C   UNL A   1      43.887  30.579  34.994  1.00  0.00     0.029 A 
ATOM     57  N   UNL A   1      43.470  29.326  33.204  1.00  0.00    -0.354 N 
ATOM     58  N   UNL A   1      44.016  27.147  31.278  1.00  0.00    -0.248 NA
ATOM     59  C   UNL A   1      45.419  25.469  30.458  1.00  0.00     0.031 C 
ATOM     60  C   UNL A   1      44.970  29.716  34.790  1.00  0.00     0.029 A 
ATOM     61  C   UNL A   1      44.699  28.914  33.692  1.00  0.00     0.049 A 
ATOM     62  H   UNL A   1      43.016  28.939  32.421  1.00  0.00     0.167 HD
ATOM     63  C   UNL A   1      45.161  27.091  32.065  1.00  0.00     0.074 A 
ATOM     64  C   UNL A   1      45.979  26.020  31.528  1.00  0.00     0.031 C 
ATOM     65  C   UNL A   1      45.504  27.853  33.135  1.00  0.00     0.037 A 
BRANCH  52  66
ATOM     66  C   UNL A   1      41.384  32.256  34.570  1.00  0.00     0.058 A 
ATOM     67  C   UNL A   1      41.757  33.565  34.222  1.00  0.00     0.135 A 
ATOM     68  C   UNL A   1      40.666  32.081  35.766  1.00  0.00     0.135 A 
ATOM     69  F   UNL A   1      42.458  33.793  33.100  1.00  0.00    -0.206 F 
ATOM     70  C   UNL A   1      41.477  34.648  35.051  1.00  0.00     0.059 A 
ATOM     71  C   UNL A   1      40.345  33.153  36.592  1.00  0.00     0.059 A 
ATOM     72  F   UNL A   1      40.283  30.853  36.150  1.00  0.00    -0.206 F 
ATOM     73  C   UNL A   1      40.776  34.429  36.238  1.00  0.00     0.060 A 
BRANCH  73  74
ATOM     74  S   UNL A   1      40.450  35.837  37.321  1.00  0.00     0.124 S 
ATOM     75  O   UNL A   1      39.923  36.815  36.374  1.00  0.00    -0.237 OA
ATOM     76  O   UNL A   1      39.484  35.287  38.267  1.00  0.00    -0.237 OA
ATOM     77  O   UNL A   1      41.762  36.149  37.878  1.00  0.00    -0.744 OA
ENDBRANCH  73  74
ENDBRANCH  52  66
BRANCH  53  78
ATOM     78  C   UNL A   1      43.557  24.768  28.273  1.00  0.00     0.058 A 
ATOM     79  C   UNL A   1      43.127  23.443  28.423  1.00  0.00     0.135 A 
ATOM     80  C   UNL A   1      44.270  25.098  27.108  1.00  0.00     0.135 A 
ATOM     81  F   UNL A   1      42.451  23.078  29.523  1.00  0.00    -0.206 F 
ATOM     82  C   UNL A   1      43.383  22.481  27.451  1.00  0.00     0.059 A 
ATOM     83  C   UNL A   1      44.515  24.160  26.110  1.00  0.00     0.059 A 
ATOM     84  F   UNL A   1      44.691  26.357  26.910  1.00  0.00    -0.206 F 
ATOM     85  C   UNL A   1      44.066  22.854  26.290  1.00  0.00     0.060 A 
BRANCH  85  86
ATOM     86  S   UNL A   1      44.300  21.623  24.990  1.00  0.00     0.124 S 
ATOM     87  O   UNL A   1      44.106  22.425  23.787  1.00  0.00    -0.237 OA
ATOM     88  O   UNL A   1      45.663  21.169  25.244  1.00  0.00    -0.237 OA
ATOM     89  O   UNL A   1      43.258  20.639  25.268  1.00  0.00    -0.744 OA
ENDBRANCH  85  86
ENDBRANCH  53  78
BRANCH  65  90
ATOM     90  C   UNL A   1      46.812  27.543  33.814  1.00  0.00     0.058 A 
ATOM     91  C   UNL A   1      46.908  26.587  34.838  1.00  0.00     0.135 A 
ATOM     92  C   UNL A   1      47.995  28.173  33.394  1.00  0.00     0.135 A 
ATOM     93  F   UNL A   1      45.807  25.960  35.283  1.00  0.00    -0.206 F 
ATOM     94  C   UNL A   1      48.126  26.287  35.439  1.00  0.00     0.059 A 
ATOM     95  C   UNL A   1      49.229  27.864  33.958  1.00  0.00     0.059 A 
ATOM     96  F   UNL A   1      47.963  29.087  32.410  1.00  0.00    -0.206 F 
ATOM     97  C   UNL A   1      49.282  26.928  34.989  1.00  0.00     0.060 A 
BRANCH  97  98
ATOM     98  S   UNL A   1      50.860  26.507  35.757  1.00  0.00     0.124 S 
ATOM     99  O   UNL A   1      50.428  25.988  37.052  1.00  0.00    -0.237 OA
ATOM    100  O   UNL A   1      51.404  25.520  34.830  1.00  0.00    -0.237 OA
ATOM    101  O   UNL A   1      51.571  27.781  35.797  1.00  0.00    -0.744 OA
ENDBRANCH  97  98
ENDBRANCH  65  90
ENDBRANCH  39  40
ENDBRANCH  32  34
ENDBRANCH  31  32
ENDBRANCH  30  31
ENDBRANCH  29  30
ENDBRANCH   1  29
TORSDOF 21
ENDMDL
MODEL 3
REMARK VINA RESULT:     -10.5      5.069      7.482
REMARK SMILES CC(C)(C)OC(=O)N1CCN(c2nc3ccccc3s2)[C@H](C(=O)OCCOCCOC(=O)c2ccc(-c3c4nc(c(-c5c(F)cc(S(=O)(=O)[O-])cc5F)c5ccc([nH]5)c(-c5c(F)cc(S(=O)(=O)[O-])cc5F)c5nc(c(-c6c(F)cc(S(=O)(=O)[O-])cc6F)c6ccc3[nH]6)C=C5)C=C4)cc2)C1
REMARK SMILES IDX 27 1 26 2 25 3 24 4 22 5 23 6 21 7 8 8 9 9 99 10 10 11 11 12
REMARK SMILES IDX 6 13 7 14 5 15 2 16 1 17 3 18 4 19 12 20 13 21 20 22 14 23
REMARK SMILES IDX 19 24 15 25 18 26 16 27 17 28 28 29 29 30 30 31 31 32 32 33
REMARK SMILES IDX 33 34 34 35 98 36 35 37 97 38 36 39 37 40 38 41 91 42 39 43
REMARK SMILES IDX 96 44 90 45 92 46 40 47 95 48 89 49 88 50 41 52 75 53 54 54
REMARK SMILES IDX 74 55 55 56 58 57 73 58 93 59 56 60 57 61 72 63 94 64 59 65
REMARK SMILES IDX 42 66 43 67 52 68 44 69 45 70 51 71 53 72 46 73 47 74 48 75
REMARK SMILES IDX 49 76 50 77 76 78 77 79 86 80 78 81 79 82 85 83 87 84 80 85
REMARK SMILES IDX 81 86 82 87 83 88 84 89 60 90 61 91 70 92 62 93 63 94 69 95
REMARK SMILES IDX 71 96 64 97 65 98 66 99 67 100 68 101
REMARK H PARENT 92 51 58 62
REMARK Flexibility Score: inf
ROOT
ATOM      1  O   UNL A   1      31.553  29.428  26.125  1.00  0.00    -0.374 OA
ENDROOT
BRANCH   1   2
ATOM      2  C   UNL A   1      32.127  28.678  27.196  1.00  0.00     0.202 C 
BRANCH   2   3
ATOM      3  C   UNL A   1      31.300  27.502  27.727  1.00  0.00     0.261 C 
BRANCH   3   4
ATOM      4  O   UNL A   1      31.822  26.247  27.233  1.00  0.00    -0.462 OA
BRANCH   4   5
ATOM      5  C   UNL A   1      31.169  25.669  26.180  1.00  0.00     0.330 C 
ATOM      6  O   UNL A   1      30.307  24.809  26.313  1.00  0.00    -0.250 OA
BRANCH   5   7
ATOM      7  C   UNL A   1      31.652  26.216  24.817  1.00  0.00     0.214 C 
ATOM      8  N   UNL A   1      30.941  27.445  22.723  1.00  0.00    -0.304 N 
ATOM      9  C   UNL A   1      31.602  26.461  21.868  1.00  0.00     0.144 C 
ATOM     10  C   UNL A   1      30.513  26.963  24.053  1.00  0.00     0.160 C 
ATOM     11  C   UNL A   1      32.757  25.794  22.621  1.00  0.00     0.141 C 
ATOM     12  N   UNL A   1      32.249  25.223  23.871  1.00  0.00    -0.331 N 
BRANCH   8  13
ATOM     13  C   UNL A   1      30.730  28.713  22.230  1.00  0.00     0.410 C 
ATOM     14  O   UNL A   1      31.577  29.598  22.299  1.00  0.00    -0.224 OA
BRANCH  13  15
ATOM     15  O   UNL A   1      29.478  28.885  21.744  1.00  0.00    -0.444 OA
BRANCH  15  16
ATOM     16  C   UNL A   1      28.571  29.823  22.386  1.00  0.00     0.106 C 
ATOM     17  C   UNL A   1      27.434  28.957  22.948  1.00  0.00     0.056 C 
ATOM     18  C   UNL A   1      27.996  30.796  21.353  1.00  0.00     0.056 C 
ATOM     19  C   UNL A   1      29.222  30.563  23.565  1.00  0.00     0.056 C 
ENDBRANCH  15  16
ENDBRANCH  13  15
ENDBRANCH   8  13
BRANCH  12  20
ATOM     20  C   UNL A   1      32.613  23.961  24.189  1.00  0.00     0.187 A 
ATOM     21  N   UNL A   1      31.942  22.871  23.910  1.00  0.00    -0.220 NA
ATOM     22  S   UNL A   1      34.021  23.692  25.165  1.00  0.00    -0.097 S 
ATOM     23  C   UNL A   1      32.677  21.748  24.270  1.00  0.00     0.084 A 
ATOM     24  C   UNL A   1      33.921  22.010  24.844  1.00  0.00     0.056 A 
ATOM     25  C   UNL A   1      32.300  20.404  24.079  1.00  0.00     0.030 A 
ATOM     26  C   UNL A   1      34.860  20.997  25.097  1.00  0.00     0.021 A 
ATOM     27  C   UNL A   1      33.212  19.379  24.362  1.00  0.00     0.002 A 
ATOM     28  C   UNL A   1      34.490  19.677  24.826  1.00  0.00     0.002 A 
ENDBRANCH  12  20
ENDBRANCH   5   7
ENDBRANCH   4   5
ENDBRANCH   3   4
ENDBRANCH   2   3
ENDBRANCH   1   2
BRANCH   1  29
ATOM     29  C   UNL A   1      31.789  30.829  26.119  1.00  0.00     0.202 C 
BRANCH  29  30
ATOM     30  C   UNL A   1      32.520  31.445  27.317  1.00  0.00     0.261 C 
BRANCH  30  31
ATOM     31  O   UNL A   1      33.937  31.358  27.192  1.00  0.00    -0.460 OA
BRANCH  31  32
ATOM     32  C   UNL A   1      34.586  32.242  27.985  1.00  0.00     0.338 C 
ATOM     33  O   UNL A   1      34.152  33.286  28.447  1.00  0.00    -0.246 OA
BRANCH  32  34
ATOM     34  C   UNL A   1      35.876  31.664  28.374  1.00  0.00     0.060 A 
ATOM     35  C   UNL A   1      35.896  30.295  28.661  1.00  0.00     0.016 A 
ATOM     36  C   UNL A   1      37.028  32.446  28.478  1.00  0.00     0.016 A 
ATOM     37  C   UNL A   1      37.066  29.709  29.119  1.00  0.00     0.010 A 
ATOM     38  C   UNL A   1      38.203  31.855  28.941  1.00  0.00     0.010 A 
ATOM     39  C   UNL A   1      38.209  30.497  29.305  1.00  0.00    -0.014 A 
BRANCH  39  40
ATOM     40  C   UNL A   1      39.358  29.925  30.034  1.00  0.00     0.031 A 
ATOM     41  C   UNL A   1      39.692  30.469  31.393  1.00  0.00     0.074 A 
ATOM     42  C   UNL A   1      40.062  28.915  29.500  1.00  0.00     0.049 A 
ATOM     43  N   UNL A   1      40.654  30.129  32.207  1.00  0.00    -0.248 NA
ATOM     44  C   UNL A   1      38.827  31.549  31.897  1.00  0.00     0.031 C 
ATOM     45  C   UNL A   1      39.802  28.305  28.197  1.00  0.00     0.029 A 
ATOM     46  N   UNL A   1      41.145  28.233  29.986  1.00  0.00    -0.354 N 
ATOM     47  C   UNL A   1      40.523  30.960  33.313  1.00  0.00     0.074 A 
ATOM     48  C   UNL A   1      39.409  31.844  33.049  1.00  0.00     0.031 C 
ATOM     49  C   UNL A   1      40.716  27.346  27.977  1.00  0.00     0.029 A 
ATOM     50  C   UNL A   1      41.642  27.301  29.108  1.00  0.00     0.049 A 
ATOM     51  H   UNL A   1      41.531  28.394  30.877  1.00  0.00     0.167 HD
ATOM     52  C   UNL A   1      41.263  30.976  34.446  1.00  0.00     0.037 A 
ATOM     53  C   UNL A   1      42.738  26.524  29.196  1.00  0.00     0.037 A 
ATOM     54  C   UNL A   1      42.371  30.089  34.684  1.00  0.00     0.049 A 
ATOM     55  C   UNL A   1      43.573  26.583  30.446  1.00  0.00     0.074 A 
ATOM     56  C   UNL A   1      43.167  29.988  35.811  1.00  0.00     0.029 A 
ATOM     57  N   UNL A   1      42.855  29.162  33.770  1.00  0.00    -0.354 N 
ATOM     58  N   UNL A   1      43.413  27.336  31.508  1.00  0.00    -0.248 NA
ATOM     59  C   UNL A   1      44.728  25.680  30.516  1.00  0.00     0.031 C 
ATOM     60  C   UNL A   1      44.172  29.049  35.551  1.00  0.00     0.029 A 
ATOM     61  C   UNL A   1      43.962  28.512  34.290  1.00  0.00     0.049 A 
ATOM     62  H   UNL A   1      42.467  28.991  32.881  1.00  0.00     0.167 HD
ATOM     63  C   UNL A   1      44.437  26.987  32.383  1.00  0.00     0.074 A 
ATOM     64  C   UNL A   1      45.200  25.943  31.728  1.00  0.00     0.031 C 
ATOM     65  C   UNL A   1      44.717  27.482  33.616  1.00  0.00     0.037 A 
BRANCH  52  66
ATOM     66  C   UNL A   1      40.927  32.020  35.478  1.00  0.00     0.058 A 
ATOM     67  C   UNL A   1      39.837  31.885  36.355  1.00  0.00     0.135 A 
ATOM     68  C   UNL A   1      41.704  33.186  35.580  1.00  0.00     0.135 A 
ATOM     69  F   UNL A   1      39.049  30.801  36.293  1.00  0.00    -0.206 F 
ATOM     70  C   UNL A   1      39.501  32.889  37.259  1.00  0.00     0.059 A 
ATOM     71  C   UNL A   1      41.407  34.186  36.501  1.00  0.00     0.059 A 
ATOM     72  F   UNL A   1      42.757  33.370  34.769  1.00  0.00    -0.206 F 
ATOM     73  C   UNL A   1      40.289  34.039  37.319  1.00  0.00     0.060 A 
BRANCH  73  74
ATOM     74  S   UNL A   1      39.821  35.348  38.471  1.00  0.00     0.124 S 
ATOM     75  O   UNL A   1      41.023  35.454  39.294  1.00  0.00    -0.237 OA
ATOM     76  O   UNL A   1      39.564  36.473  37.578  1.00  0.00    -0.237 OA
ATOM     77  O   UNL A   1      38.647  34.804  39.145  1.00  0.00    -0.744 OA
ENDBRANCH  73  74
ENDBRANCH  52  66
BRANCH  53  78
ATOM     78  C   UNL A   1      43.098  25.650  28.051  1.00  0.00     0.058 A 
ATOM     79  C   UNL A   1      43.820  26.138  26.954  1.00  0.00     0.135 A 
ATOM     80  C   UNL A   1      42.783  24.280  28.072  1.00  0.00     0.135 A 
ATOM     81  F   UNL A   1      44.136  27.440  26.884  1.00  0.00    -0.206 F 
ATOM     82  C   UNL A   1      44.227  25.300  25.920  1.00  0.00     0.059 A 
ATOM     83  C   UNL A   1      43.201  23.418  27.064  1.00  0.00     0.059 A 
ATOM     84  F   UNL A   1      42.106  23.762  29.108  1.00  0.00    -0.206 F 
ATOM     85  C   UNL A   1      43.924  23.937  25.992  1.00  0.00     0.060 A 
BRANCH  85  86
ATOM     86  S   UNL A   1      44.547  22.842  24.698  1.00  0.00     0.124 S 
ATOM     87  O   UNL A   1      43.360  22.659  23.870  1.00  0.00    -0.237 OA
ATOM     88  O   UNL A   1      45.619  23.642  24.115  1.00  0.00    -0.237 OA
ATOM     89  O   UNL A   1      44.988  21.665  25.440  1.00  0.00    -0.744 OA
ENDBRANCH  85  86
ENDBRANCH  53  78
BRANCH  65  90
ATOM     90  C   UNL A   1      45.888  26.885  34.351  1.00  0.00     0.058 A 
ATOM     91  C   UNL A   1      47.175  27.438  34.270  1.00  0.00     0.135 A 
ATOM     92  C   UNL A   1      45.704  25.775  35.194  1.00  0.00     0.135 A 
ATOM     93  F   UNL A   1      47.408  28.495  33.475  1.00  0.00    -0.206 F 
ATOM     94  C   UNL A   1      48.244  26.897  34.976  1.00  0.00     0.059 A 
ATOM     95  C   UNL A   1      46.752  25.238  35.935  1.00  0.00     0.059 A 
ATOM     96  F   UNL A   1      44.491  25.213  35.318  1.00  0.00    -0.206 F 
ATOM     97  C   UNL A   1      48.022  25.799  35.810  1.00  0.00     0.060 A 
BRANCH  97  98
ATOM     98  S   UNL A   1      49.411  25.125  36.744  1.00  0.00     0.124 S 
ATOM     99  O   UNL A   1      49.583  26.134  37.785  1.00  0.00    -0.237 OA
ATOM    100  O   UNL A   1      48.891  23.836  37.191  1.00  0.00    -0.237 OA
ATOM    101  O   UNL A   1      50.483  25.054  35.756  1.00  0.00    -0.744 OA
ENDBRANCH  97  98
ENDBRANCH  65  90
ENDBRANCH  39  40
ENDBRANCH  32  34
ENDBRANCH  31  32
ENDBRANCH  30  31
ENDBRANCH  29  30
ENDBRANCH   1  29
TORSDOF 21
ENDMDL
