MODEL 1
REMARK VINA RESULT:     -10.4      0.000      0.000
REMARK SMILES Cc1cccc(Cl)c1Nc1ccccc1CC(=O)OCCOCCOC(=O)c1ccc(-c2c3nc(c(-c4c(F)cc(S(=O)(=O)[O-])cc4F)c4ccc([nH]4)c(-c4c(F)cc(S(=O)(=O)[O-])cc4F)c4nc(c(-c5c(F)cc(S(=O)(=O)[O-])cc5F)c5ccc2[nH]5)C=C4)C=C3)cc1
REMARK SMILES IDX 22 1 21 2 20 3 19 4 17 5 18 6 16 7 15 8 10 9 11 10 12 11
REMARK SMILES IDX 14 12 13 13 9 14 8 16 1 17 2 18 3 19 4 20 6 21 5 22 7 23
REMARK SMILES IDX 23 24 24 25 25 26 26 27 27 28 28 29 29 30 93 31 30 32 92 33
REMARK SMILES IDX 31 34 32 35 33 36 86 37 34 38 91 39 85 40 87 41 35 42 90 43
REMARK SMILES IDX 84 44 83 45 36 47 70 48 49 49 69 50 50 51 53 52 68 53 88 54
REMARK SMILES IDX 51 55 52 56 67 58 89 59 54 60 37 61 38 62 47 63 39 64 40 65
REMARK SMILES IDX 46 66 48 67 41 68 42 69 43 70 44 71 45 72 71 73 72 74 81 75
REMARK SMILES IDX 73 76 74 77 80 78 82 79 75 80 76 81 77 82 78 83 79 84 55 85
REMARK SMILES IDX 56 86 65 87 57 88 58 89 64 90 66 91 59 92 60 93 61 94 62 95
REMARK SMILES IDX 63 96
REMARK H PARENT 9 15 87 46 53 57
REMARK Flexibility Score: inf
ROOT
ATOM      1  O   UNL A   1      40.076  21.775  27.515  1.00  0.00    -0.374 OA
ENDROOT
BRANCH   1   2
ATOM      2  C   UNL A   1      39.518  22.565  26.465  1.00  0.00     0.202 C 
BRANCH   2   3
ATOM      3  C   UNL A   1      38.362  21.958  25.662  1.00  0.00     0.261 C 
BRANCH   3   4
ATOM      4  O   UNL A   1      37.080  22.534  25.980  1.00  0.00    -0.463 OA
BRANCH   4   5
ATOM      5  C   UNL A   1      36.481  23.207  24.964  1.00  0.00     0.310 C 
ATOM      6  O   UNL A   1      36.678  22.975  23.772  1.00  0.00    -0.252 OA
BRANCH   5   7
ATOM      7  C   UNL A   1      35.554  24.318  25.386  1.00  0.00     0.160 C 
BRANCH   7   8
ATOM      8  C   UNL A   1      34.135  24.002  25.822  1.00  0.00    -0.013 A 
ATOM      9  C   UNL A   1      33.147  24.988  26.038  1.00  0.00     0.042 A 
ATOM     10  C   UNL A   1      31.880  24.592  26.513  1.00  0.00     0.026 A 
ATOM     11  C   UNL A   1      31.557  23.248  26.696  1.00  0.00     0.002 A 
ATOM     12  C   UNL A   1      33.767  22.649  25.961  1.00  0.00     0.006 A 
ATOM     13  C   UNL A   1      32.496  22.273  26.395  1.00  0.00     0.000 A 
BRANCH   9  14
ATOM     14  N   UNL A   1      33.283  26.342  25.666  1.00  0.00    -0.354 N 
ATOM     15  H   UNL A   1      34.138  26.753  25.927  1.00  0.00     0.167 HD
BRANCH  14  16
ATOM     16  C   UNL A   1      32.398  27.212  24.983  1.00  0.00     0.060 A 
ATOM     17  C   UNL A   1      31.939  28.364  27.214  1.00  0.00     0.046 C 
ATOM     18  C   UNL A   1      31.813  28.276  25.714  1.00  0.00    -0.026 A 
ATOM     19  C   UNL A   1      31.146  29.310  25.035  1.00  0.00     0.005 A 
ATOM     20  C   UNL A   1      31.024  29.296  23.649  1.00  0.00     0.002 A 
ATOM     21  C   UNL A   1      32.183  27.176  23.582  1.00  0.00     0.064 A 
ATOM     22  C   UNL A   1      31.522  28.219  22.926  1.00  0.00     0.023 A 
ATOM     23  Cl  UNL A   1      32.654  25.838  22.583  1.00  0.00    -0.082 Cl
ENDBRANCH  14  16
ENDBRANCH   9  14
ENDBRANCH   7   8
ENDBRANCH   5   7
ENDBRANCH   4   5
ENDBRANCH   3   4
ENDBRANCH   2   3
ENDBRANCH   1   2
BRANCH   1  24
ATOM     24  C   UNL A   1      41.440  21.385  27.374  1.00  0.00     0.202 C 
BRANCH  24  25
ATOM     25  C   UNL A   1      42.370  22.348  26.626  1.00  0.00     0.261 C 
BRANCH  25  26
ATOM     26  O   UNL A   1      42.705  23.505  27.413  1.00  0.00    -0.460 OA
BRANCH  26  27
ATOM     27  C   UNL A   1      42.628  24.679  26.745  1.00  0.00     0.338 C 
ATOM     28  O   UNL A   1      42.869  24.865  25.559  1.00  0.00    -0.246 OA
BRANCH  27  29
ATOM     29  C   UNL A   1      42.021  25.722  27.592  1.00  0.00     0.060 A 
ATOM     30  C   UNL A   1      42.695  26.948  27.669  1.00  0.00     0.016 A 
ATOM     31  C   UNL A   1      40.880  25.489  28.363  1.00  0.00     0.016 A 
ATOM     32  C   UNL A   1      42.274  27.920  28.570  1.00  0.00     0.010 A 
ATOM     33  C   UNL A   1      40.464  26.467  29.276  1.00  0.00     0.010 A 
ATOM     34  C   UNL A   1      41.186  27.666  29.415  1.00  0.00    -0.014 A 
BRANCH  34  35
ATOM     35  C   UNL A   1      40.927  28.591  30.545  1.00  0.00     0.031 A 
ATOM     36  C   UNL A   1      41.797  28.503  31.771  1.00  0.00     0.074 A 
ATOM     37  C   UNL A   1      39.975  29.538  30.455  1.00  0.00     0.049 A 
ATOM     38  N   UNL A   1      41.767  29.220  32.863  1.00  0.00    -0.248 NA
ATOM     39  C   UNL A   1      42.846  27.469  31.760  1.00  0.00     0.031 C 
ATOM     40  C   UNL A   1      39.100  29.747  29.303  1.00  0.00     0.029 A 
ATOM     41  N   UNL A   1      39.591  30.505  31.350  1.00  0.00    -0.354 N 
ATOM     42  C   UNL A   1      42.786  28.726  33.670  1.00  0.00     0.074 A 
ATOM     43  C   UNL A   1      43.396  27.626  32.955  1.00  0.00     0.031 C 
ATOM     44  C   UNL A   1      38.275  30.776  29.564  1.00  0.00     0.029 A 
ATOM     45  C   UNL A   1      38.548  31.281  30.908  1.00  0.00     0.049 A 
ATOM     46  H   UNL A   1      40.024  30.632  32.225  1.00  0.00     0.167 HD
ATOM     47  C   UNL A   1      43.184  29.157  34.891  1.00  0.00     0.037 A 
ATOM     48  C   UNL A   1      37.880  32.276  31.526  1.00  0.00     0.037 A 
ATOM     49  C   UNL A   1      42.575  30.253  35.597  1.00  0.00     0.049 A 
ATOM     50  C   UNL A   1      38.302  32.701  32.908  1.00  0.00     0.074 A 
ATOM     51  C   UNL A   1      42.912  30.776  36.833  1.00  0.00     0.029 A 
ATOM     52  N   UNL A   1      41.498  30.993  35.129  1.00  0.00    -0.354 N 
ATOM     53  N   UNL A   1      39.280  32.237  33.650  1.00  0.00    -0.248 NA
ATOM     54  C   UNL A   1      37.537  33.788  33.535  1.00  0.00     0.031 C 
ATOM     55  C   UNL A   1      42.011  31.803  37.134  1.00  0.00     0.029 A 
ATOM     56  C   UNL A   1      41.143  31.954  36.063  1.00  0.00     0.049 A 
ATOM     57  H   UNL A   1      41.052  30.857  34.263  1.00  0.00     0.167 HD
ATOM     58  C   UNL A   1      39.262  32.991  34.819  1.00  0.00     0.074 A 
ATOM     59  C   UNL A   1      38.184  33.948  34.681  1.00  0.00     0.031 C 
ATOM     60  C   UNL A   1      40.069  32.902  35.906  1.00  0.00     0.037 A 
BRANCH  47  61
ATOM     61  C   UNL A   1      44.317  28.422  35.552  1.00  0.00     0.058 A 
ATOM     62  C   UNL A   1      44.094  27.322  36.396  1.00  0.00     0.135 A 
ATOM     63  C   UNL A   1      45.647  28.805  35.316  1.00  0.00     0.135 A 
ATOM     64  F   UNL A   1      42.842  26.924  36.671  1.00  0.00    -0.206 F 
ATOM     65  C   UNL A   1      45.147  26.645  37.002  1.00  0.00     0.059 A 
ATOM     66  C   UNL A   1      46.718  28.127  35.892  1.00  0.00     0.059 A 
ATOM     67  F   UNL A   1      45.918  29.852  34.520  1.00  0.00    -0.206 F 
ATOM     68  C   UNL A   1      46.457  27.056  36.745  1.00  0.00     0.060 A 
BRANCH  68  69
ATOM     69  S   UNL A   1      47.814  26.167  37.538  1.00  0.00     0.124 S 
ATOM     70  O   UNL A   1      47.341  24.787  37.462  1.00  0.00    -0.237 OA
ATOM     71  O   UNL A   1      48.947  26.496  36.680  1.00  0.00    -0.237 OA
ATOM     72  O   UNL A   1      47.859  26.741  38.879  1.00  0.00    -0.744 OA
ENDBRANCH  68  69
ENDBRANCH  47  61
BRANCH  48  73
ATOM     73  C   UNL A   1      36.733  32.935  30.842  1.00  0.00     0.058 A 
ATOM     74  C   UNL A   1      35.408  32.654  31.207  1.00  0.00     0.135 A 
ATOM     75  C   UNL A   1      36.945  33.864  29.813  1.00  0.00     0.135 A 
ATOM     76  F   UNL A   1      35.154  31.763  32.177  1.00  0.00    -0.206 F 
ATOM     77  C   UNL A   1      34.333  33.264  30.569  1.00  0.00     0.059 A 
ATOM     78  C   UNL A   1      35.887  34.506  29.176  1.00  0.00     0.059 A 
ATOM     79  F   UNL A   1      38.194  34.175  29.432  1.00  0.00    -0.206 F 
ATOM     80  C   UNL A   1      34.583  34.192  29.557  1.00  0.00     0.060 A 
BRANCH  80  81
ATOM     81  S   UNL A   1      33.184  35.022  28.772  1.00  0.00     0.124 S 
ATOM     82  O   UNL A   1      32.317  35.281  29.915  1.00  0.00    -0.237 OA
ATOM     83  O   UNL A   1      33.818  36.193  28.173  1.00  0.00    -0.237 OA
ATOM     84  O   UNL A   1      32.696  34.029  27.819  1.00  0.00    -0.744 OA
ENDBRANCH  80  81
ENDBRANCH  48  73
BRANCH  60  85
ATOM     85  C   UNL A   1      39.839  33.883  37.023  1.00  0.00     0.058 A 
ATOM     86  C   UNL A   1      38.997  33.586  38.105  1.00  0.00     0.135 A 
ATOM     87  C   UNL A   1      40.517  35.113  37.037  1.00  0.00     0.135 A 
ATOM     88  F   UNL A   1      38.321  32.427  38.136  1.00  0.00    -0.206 F 
ATOM     89  C   UNL A   1      38.817  34.483  39.153  1.00  0.00     0.059 A 
ATOM     90  C   UNL A   1      40.372  36.015  38.087  1.00  0.00     0.059 A 
ATOM     91  F   UNL A   1      41.343  35.443  36.031  1.00  0.00    -0.206 F 
ATOM     92  C   UNL A   1      39.511  35.695  39.135  1.00  0.00     0.060 A 
BRANCH  92  93
ATOM     93  S   UNL A   1      39.297  36.836  40.518  1.00  0.00     0.124 S 
ATOM     94  O   UNL A   1      38.570  37.932  39.885  1.00  0.00    -0.237 OA
ATOM     95  O   UNL A   1      38.534  36.036  41.471  1.00  0.00    -0.237 OA
ATOM     96  O   UNL A   1      40.667  37.141  40.922  1.00  0.00    -0.744 OA
ENDBRANCH  92  93
ENDBRANCH  60  85
ENDBRANCH  34  35
ENDBRANCH  27  29
ENDBRANCH  26  27
ENDBRANCH  25  26
ENDBRANCH  24  25
ENDBRANCH   1  24
TORSDOF 20
ENDMDL
MODEL 2
REMARK VINA RESULT:     -10.4      4.999      6.820
REMARK SMILES Cc1cccc(Cl)c1Nc1ccccc1CC(=O)OCCOCCOC(=O)c1ccc(-c2c3nc(c(-c4c(F)cc(S(=O)(=O)[O-])cc4F)c4ccc([nH]4)c(-c4c(F)cc(S(=O)(=O)[O-])cc4F)c4nc(c(-c5c(F)cc(S(=O)(=O)[O-])cc5F)c5ccc2[nH]5)C=C4)C=C3)cc1
REMARK SMILES IDX 22 1 21 2 20 3 19 4 17 5 18 6 16 7 15 8 10 9 11 10 12 11
REMARK SMILES IDX 14 12 13 13 9 14 8 16 1 17 2 18 3 19 4 20 6 21 5 22 7 23
REMARK SMILES IDX 23 24 24 25 25 26 26 27 27 28 28 29 29 30 93 31 30 32 92 33
REMARK SMILES IDX 31 34 32 35 33 36 86 37 34 38 91 39 85 40 87 41 35 42 90 43
REMARK SMILES IDX 84 44 83 45 36 47 70 48 49 49 69 50 50 51 53 52 68 53 88 54
REMARK SMILES IDX 51 55 52 56 67 58 89 59 54 60 37 61 38 62 47 63 39 64 40 65
REMARK SMILES IDX 46 66 48 67 41 68 42 69 43 70 44 71 45 72 71 73 72 74 81 75
REMARK SMILES IDX 73 76 74 77 80 78 82 79 75 80 76 81 77 82 78 83 79 84 55 85
REMARK SMILES IDX 56 86 65 87 57 88 58 89 64 90 66 91 59 92 60 93 61 94 62 95
REMARK SMILES IDX 63 96
REMARK H PARENT 9 15 87 46 53 57
REMARK Flexibility Score: inf
ROOT
ATOM      1  O   UNL A   1      35.233  23.893  25.197  1.00  0.00    -0.374 OA
ENDROOT
BRANCH   1   2
ATOM      2  C   UNL A   1      33.916  23.730  24.674  1.00  0.00     0.202 C 
BRANCH   2   3
ATOM      3  C   UNL A   1      32.762  23.643  25.680  1.00  0.00     0.261 C 
BRANCH   3   4
ATOM      4  O   UNL A   1      31.505  24.107  25.150  1.00  0.00    -0.463 OA
BRANCH   4   5
ATOM      5  C   UNL A   1      31.057  25.279  25.671  1.00  0.00     0.310 C 
ATOM      6  O   UNL A   1      30.929  25.495  26.875  1.00  0.00    -0.252 OA
BRANCH   5   7
ATOM      7  C   UNL A   1      30.673  26.328  24.659  1.00  0.00     0.160 C 
BRANCH   7   8
ATOM      8  C   UNL A   1      31.748  27.058  23.874  1.00  0.00    -0.013 A 
ATOM      9  C   UNL A   1      32.241  28.334  24.226  1.00  0.00     0.042 A 
ATOM     10  C   UNL A   1      33.187  28.955  23.387  1.00  0.00     0.026 A 
ATOM     11  C   UNL A   1      33.705  28.307  22.266  1.00  0.00     0.002 A 
ATOM     12  C   UNL A   1      32.327  26.402  22.769  1.00  0.00     0.006 A 
ATOM     13  C   UNL A   1      33.292  27.018  21.972  1.00  0.00     0.000 A 
BRANCH   9  14
ATOM     14  N   UNL A   1      31.968  28.980  25.451  1.00  0.00    -0.354 N 
ATOM     15  H   UNL A   1      31.010  29.066  25.662  1.00  0.00     0.167 HD
BRANCH  14  16
ATOM     16  C   UNL A   1      32.836  29.527  26.427  1.00  0.00     0.060 A 
ATOM     17  C   UNL A   1      34.044  27.279  26.493  1.00  0.00     0.046 C 
ATOM     18  C   UNL A   1      33.925  28.734  26.868  1.00  0.00    -0.026 A 
ATOM     19  C   UNL A   1      34.954  29.316  27.627  1.00  0.00     0.005 A 
ATOM     20  C   UNL A   1      34.912  30.662  27.980  1.00  0.00     0.002 A 
ATOM     21  C   UNL A   1      32.773  30.870  26.873  1.00  0.00     0.064 A 
ATOM     22  C   UNL A   1      33.812  31.432  27.623  1.00  0.00     0.023 A 
ATOM     23  Cl  UNL A   1      31.406  31.901  26.592  1.00  0.00    -0.082 Cl
ENDBRANCH  14  16
ENDBRANCH   9  14
ENDBRANCH   7   8
ENDBRANCH   5   7
ENDBRANCH   4   5
ENDBRANCH   3   4
ENDBRANCH   2   3
ENDBRANCH   1   2
BRANCH   1  24
ATOM     24  C   UNL A   1      35.715  22.868  26.064  1.00  0.00     0.202 C 
BRANCH  24  25
ATOM     25  C   UNL A   1      36.790  21.927  25.508  1.00  0.00     0.261 C 
BRANCH  25  26
ATOM     26  O   UNL A   1      38.045  22.597  25.299  1.00  0.00    -0.460 OA
BRANCH  26  27
ATOM     27  C   UNL A   1      39.011  22.268  26.188  1.00  0.00     0.338 C 
ATOM     28  O   UNL A   1      39.588  21.191  26.280  1.00  0.00    -0.246 OA
BRANCH  27  29
ATOM     29  C   UNL A   1      39.444  23.453  26.950  1.00  0.00     0.060 A 
ATOM     30  C   UNL A   1      38.763  24.651  26.701  1.00  0.00     0.016 A 
ATOM     31  C   UNL A   1      40.540  23.426  27.815  1.00  0.00     0.016 A 
ATOM     32  C   UNL A   1      39.218  25.842  27.258  1.00  0.00     0.010 A 
ATOM     33  C   UNL A   1      41.002  24.628  28.369  1.00  0.00     0.010 A 
ATOM     34  C   UNL A   1      40.370  25.845  28.055  1.00  0.00    -0.014 A 
BRANCH  34  35
ATOM     35  C   UNL A   1      40.991  27.145  28.409  1.00  0.00     0.031 A 
ATOM     36  C   UNL A   1      42.469  27.328  28.189  1.00  0.00     0.074 A 
ATOM     37  C   UNL A   1      40.240  28.167  28.857  1.00  0.00     0.049 A 
ATOM     38  N   UNL A   1      43.216  28.379  28.405  1.00  0.00    -0.248 NA
ATOM     39  C   UNL A   1      43.203  26.171  27.649  1.00  0.00     0.031 C 
ATOM     40  C   UNL A   1      38.794  28.121  29.069  1.00  0.00     0.029 A 
ATOM     41  N   UNL A   1      40.591  29.447  29.208  1.00  0.00    -0.354 N 
ATOM     42  C   UNL A   1      44.504  28.012  28.031  1.00  0.00     0.074 A 
ATOM     43  C   UNL A   1      44.444  26.631  27.605  1.00  0.00     0.031 C 
ATOM     44  C   UNL A   1      38.382  29.319  29.521  1.00  0.00     0.029 A 
ATOM     45  C   UNL A   1      39.536  30.206  29.652  1.00  0.00     0.049 A 
ATOM     46  H   UNL A   1      41.513  29.788  29.147  1.00  0.00     0.167 HD
ATOM     47  C   UNL A   1      45.633  28.762  28.033  1.00  0.00     0.037 A 
ATOM     48  C   UNL A   1      39.510  31.468  30.125  1.00  0.00     0.037 A 
ATOM     49  C   UNL A   1      45.686  30.136  28.456  1.00  0.00     0.049 A 
ATOM     50  C   UNL A   1      40.787  32.265  30.172  1.00  0.00     0.074 A 
ATOM     51  C   UNL A   1      46.777  30.988  28.484  1.00  0.00     0.029 A 
ATOM     52  N   UNL A   1      44.601  30.861  28.930  1.00  0.00    -0.354 N 
ATOM     53  N   UNL A   1      41.994  31.911  29.797  1.00  0.00    -0.248 NA
ATOM     54  C   UNL A   1      40.701  33.634  30.700  1.00  0.00     0.031 C 
ATOM     55  C   UNL A   1      46.362  32.213  29.017  1.00  0.00     0.029 A 
ATOM     56  C   UNL A   1      45.002  32.142  29.275  1.00  0.00     0.049 A 
ATOM     57  H   UNL A   1      43.683  30.516  29.010  1.00  0.00     0.167 HD
ATOM     58  C   UNL A   1      42.803  33.020  30.020  1.00  0.00     0.074 A 
ATOM     59  C   UNL A   1      41.948  34.060  30.553  1.00  0.00     0.031 C 
ATOM     60  C   UNL A   1      44.134  33.166  29.800  1.00  0.00     0.037 A 
BRANCH  47  61
ATOM     61  C   UNL A   1      46.907  28.101  27.586  1.00  0.00     0.058 A 
ATOM     62  C   UNL A   1      47.341  28.155  26.251  1.00  0.00     0.135 A 
ATOM     63  C   UNL A   1      47.722  27.428  28.511  1.00  0.00     0.135 A 
ATOM     64  F   UNL A   1      46.592  28.770  25.322  1.00  0.00    -0.206 F 
ATOM     65  C   UNL A   1      48.523  27.544  25.845  1.00  0.00     0.059 A 
ATOM     66  C   UNL A   1      48.920  26.831  28.132  1.00  0.00     0.059 A 
ATOM     67  F   UNL A   1      47.354  27.343  29.799  1.00  0.00    -0.206 F 
ATOM     68  C   UNL A   1      49.306  26.882  26.793  1.00  0.00     0.060 A 
BRANCH  68  69
ATOM     69  S   UNL A   1      50.838  26.095  26.252  1.00  0.00     0.124 S 
ATOM     70  O   UNL A   1      50.618  25.989  24.812  1.00  0.00    -0.237 OA
ATOM     71  O   UNL A   1      51.850  27.058  26.669  1.00  0.00    -0.237 OA
ATOM     72  O   UNL A   1      50.844  24.829  26.979  1.00  0.00    -0.744 OA
ENDBRANCH  68  69
ENDBRANCH  47  61
BRANCH  48  73
ATOM     73  C   UNL A   1      38.227  32.054  30.600  1.00  0.00     0.058 A 
ATOM     74  C   UNL A   1      37.786  31.871  31.920  1.00  0.00     0.135 A 
ATOM     75  C   UNL A   1      37.420  32.815  29.741  1.00  0.00     0.135 A 
ATOM     76  F   UNL A   1      38.517  31.141  32.775  1.00  0.00    -0.206 F 
ATOM     77  C   UNL A   1      36.586  32.414  32.368  1.00  0.00     0.059 A 
ATOM     78  C   UNL A   1      36.228  33.389  30.173  1.00  0.00     0.059 A 
ATOM     79  F   UNL A   1      37.801  33.028  28.472  1.00  0.00    -0.206 F 
ATOM     80  C   UNL A   1      35.816  33.175  31.488  1.00  0.00     0.060 A 
BRANCH  80  81
ATOM     81  S   UNL A   1      34.287  33.924  32.093  1.00  0.00     0.124 S 
ATOM     82  O   UNL A   1      33.671  32.806  32.797  1.00  0.00    -0.237 OA
ATOM     83  O   UNL A   1      34.789  35.009  32.931  1.00  0.00    -0.237 OA
ATOM     84  O   UNL A   1      33.615  34.349  30.868  1.00  0.00    -0.744 OA
ENDBRANCH  80  81
ENDBRANCH  48  73
BRANCH  60  85
ATOM     85  C   UNL A   1      44.745  34.506  30.104  1.00  0.00     0.058 A 
ATOM     86  C   UNL A   1      45.263  34.811  31.372  1.00  0.00     0.135 A 
ATOM     87  C   UNL A   1      44.865  35.476  29.095  1.00  0.00     0.135 A 
ATOM     88  F   UNL A   1      45.167  33.920  32.372  1.00  0.00    -0.206 F 
ATOM     89  C   UNL A   1      45.860  36.039  31.636  1.00  0.00     0.059 A 
ATOM     90  C   UNL A   1      45.482  36.702  29.330  1.00  0.00     0.059 A 
ATOM     91  F   UNL A   1      44.397  35.232  27.861  1.00  0.00    -0.206 F 
ATOM     92  C   UNL A   1      45.966  36.978  30.608  1.00  0.00     0.060 A 
BRANCH  92  93
ATOM     93  S   UNL A   1      46.774  38.555  30.955  1.00  0.00     0.124 S 
ATOM     94  O   UNL A   1      45.934  39.087  32.023  1.00  0.00    -0.237 OA
ATOM     95  O   UNL A   1      48.116  38.140  31.350  1.00  0.00    -0.237 OA
ATOM     96  O   UNL A   1      46.695  39.264  29.680  1.00  0.00    -0.744 OA
ENDBRANCH  92  93
ENDBRANCH  60  85
ENDBRANCH  34  35
ENDBRANCH  27  29
ENDBRANCH  26  27
ENDBRANCH  25  26
ENDBRANCH  24  25
ENDBRANCH   1  24
TORSDOF 20
ENDMDL
MODEL 3
REMARK VINA RESULT:     -10.3      2.358      3.445
REMARK SMILES Cc1cccc(Cl)c1Nc1ccccc1CC(=O)OCCOCCOC(=O)c1ccc(-c2c3nc(c(-c4c(F)cc(S(=O)(=O)[O-])cc4F)c4ccc([nH]4)c(-c4c(F)cc(S(=O)(=O)[O-])cc4F)c4nc(c(-c5c(F)cc(S(=O)(=O)[O-])cc5F)c5ccc2[nH]5)C=C4)C=C3)cc1
REMARK SMILES IDX 22 1 21 2 20 3 19 4 17 5 18 6 16 7 15 8 10 9 11 10 12 11
REMARK SMILES IDX 14 12 13 13 9 14 8 16 1 17 2 18 3 19 4 20 6 21 5 22 7 23
REMARK SMILES IDX 23 24 24 25 25 26 26 27 27 28 28 29 29 30 93 31 30 32 92 33
REMARK SMILES IDX 31 34 32 35 33 36 86 37 34 38 91 39 85 40 87 41 35 42 90 43
REMARK SMILES IDX 84 44 83 45 36 47 70 48 49 49 69 50 50 51 53 52 68 53 88 54
REMARK SMILES IDX 51 55 52 56 67 58 89 59 54 60 37 61 38 62 47 63 39 64 40 65
REMARK SMILES IDX 46 66 48 67 41 68 42 69 43 70 44 71 45 72 71 73 72 74 81 75
REMARK SMILES IDX 73 76 74 77 80 78 82 79 75 80 76 81 77 82 78 83 79 84 55 85
REMARK SMILES IDX 56 86 65 87 57 88 58 89 64 90 66 91 59 92 60 93 61 94 62 95
REMARK SMILES IDX 63 96
REMARK H PARENT 9 15 87 46 53 57
REMARK Flexibility Score: inf
ROOT
ATOM      1  O   UNL A   1      45.046  22.104  24.571  1.00  0.00    -0.374 OA
ENDROOT
BRANCH   1   2
ATOM      2  C   UNL A   1      44.449  20.909  25.074  1.00  0.00     0.202 C 
BRANCH   2   3
ATOM      3  C   UNL A   1      43.235  21.059  25.998  1.00  0.00     0.261 C 
BRANCH   3   4
ATOM      4  O   UNL A   1      42.057  20.392  25.507  1.00  0.00    -0.463 OA
BRANCH   4   5
ATOM      5  C   UNL A   1      41.085  20.181  26.433  1.00  0.00     0.310 C 
ATOM      6  O   UNL A   1      41.271  19.627  27.514  1.00  0.00    -0.252 OA
BRANCH   5   7
ATOM      7  C   UNL A   1      39.707  20.647  26.036  1.00  0.00     0.160 C 
BRANCH   7   8
ATOM      8  C   UNL A   1      39.256  22.059  26.364  1.00  0.00    -0.013 A 
ATOM      9  C   UNL A   1      37.984  22.570  26.029  1.00  0.00     0.042 A 
ATOM     10  C   UNL A   1      37.693  23.919  26.315  1.00  0.00     0.026 A 
ATOM     11  C   UNL A   1      38.601  24.734  26.991  1.00  0.00     0.002 A 
ATOM     12  C   UNL A   1      40.134  22.885  27.095  1.00  0.00     0.006 A 
ATOM     13  C   UNL A   1      39.814  24.207  27.403  1.00  0.00     0.000 A 
BRANCH   9  14
ATOM     14  N   UNL A   1      36.911  21.782  25.560  1.00  0.00    -0.354 N 
ATOM     15  H   UNL A   1      37.088  20.814  25.554  1.00  0.00     0.167 HD
BRANCH  14  16
ATOM     16  C   UNL A   1      35.623  22.146  25.096  1.00  0.00     0.060 A 
ATOM     17  C   UNL A   1      36.715  22.924  22.924  1.00  0.00     0.046 C 
ATOM     18  C   UNL A   1      35.503  22.610  23.762  1.00  0.00    -0.026 A 
ATOM     19  C   UNL A   1      34.232  22.731  23.174  1.00  0.00     0.005 A 
ATOM     20  C   UNL A   1      33.078  22.429  23.890  1.00  0.00     0.002 A 
ATOM     21  C   UNL A   1      34.430  21.930  25.831  1.00  0.00     0.064 A 
ATOM     22  C   UNL A   1      33.176  22.051  25.224  1.00  0.00     0.023 A 
ATOM     23  Cl  UNL A   1      34.413  21.564  27.527  1.00  0.00    -0.082 Cl
ENDBRANCH  14  16
ENDBRANCH   9  14
ENDBRANCH   7   8
ENDBRANCH   5   7
ENDBRANCH   4   5
ENDBRANCH   3   4
ENDBRANCH   2   3
ENDBRANCH   1   2
BRANCH   1  24
ATOM     24  C   UNL A   1      44.172  23.197  24.303  1.00  0.00     0.202 C 
BRANCH  24  25
ATOM     25  C   UNL A   1      44.406  24.492  25.092  1.00  0.00     0.261 C 
BRANCH  25  26
ATOM     26  O   UNL A   1      43.366  24.740  26.053  1.00  0.00    -0.460 OA
BRANCH  26  27
ATOM     27  C   UNL A   1      42.748  25.937  25.913  1.00  0.00     0.338 C 
ATOM     28  O   UNL A   1      42.119  26.328  24.938  1.00  0.00    -0.246 OA
BRANCH  27  29
ATOM     29  C   UNL A   1      42.758  26.681  27.185  1.00  0.00     0.060 A 
ATOM     30  C   UNL A   1      42.060  26.112  28.258  1.00  0.00     0.016 A 
ATOM     31  C   UNL A   1      43.349  27.940  27.310  1.00  0.00     0.016 A 
ATOM     32  C   UNL A   1      41.888  26.829  29.438  1.00  0.00     0.010 A 
ATOM     33  C   UNL A   1      43.167  28.664  28.496  1.00  0.00     0.010 A 
ATOM     34  C   UNL A   1      42.397  28.129  29.545  1.00  0.00    -0.014 A 
BRANCH  34  35
ATOM     35  C   UNL A   1      41.972  28.971  30.691  1.00  0.00     0.031 A 
ATOM     36  C   UNL A   1      42.785  28.939  31.958  1.00  0.00     0.074 A 
ATOM     37  C   UNL A   1      40.918  29.800  30.581  1.00  0.00     0.049 A 
ATOM     38  N   UNL A   1      42.613  29.603  33.071  1.00  0.00    -0.248 NA
ATOM     39  C   UNL A   1      43.950  28.039  31.969  1.00  0.00     0.031 C 
ATOM     40  C   UNL A   1      40.082  29.948  29.392  1.00  0.00     0.029 A 
ATOM     41  N   UNL A   1      40.375  30.678  31.486  1.00  0.00    -0.354 N 
ATOM     42  C   UNL A   1      43.643  29.202  33.914  1.00  0.00     0.074 A 
ATOM     43  C   UNL A   1      44.417  28.213  33.197  1.00  0.00     0.031 C 
ATOM     44  C   UNL A   1      39.126  30.860  29.641  1.00  0.00     0.029 A 
ATOM     45  C   UNL A   1      39.268  31.340  31.015  1.00  0.00     0.049 A 
ATOM     46  H   UNL A   1      40.745  30.820  32.387  1.00  0.00     0.167 HD
ATOM     47  C   UNL A   1      43.925  29.629  35.169  1.00  0.00     0.037 A 
ATOM     48  C   UNL A   1      38.454  32.223  31.629  1.00  0.00     0.037 A 
ATOM     49  C   UNL A   1      43.153  30.615  35.877  1.00  0.00     0.049 A 
ATOM     50  C   UNL A   1      38.753  32.640  33.045  1.00  0.00     0.074 A 
ATOM     51  C   UNL A   1      43.362  31.125  37.147  1.00  0.00     0.029 A 
ATOM     52  N   UNL A   1      42.018  31.240  35.377  1.00  0.00    -0.354 N 
ATOM     53  N   UNL A   1      39.742  32.267  33.823  1.00  0.00    -0.248 NA
ATOM     54  C   UNL A   1      37.831  33.601  33.666  1.00  0.00     0.031 C 
ATOM     55  C   UNL A   1      42.329  32.024  37.433  1.00  0.00     0.029 A 
ATOM     56  C   UNL A   1      41.503  32.113  36.322  1.00  0.00     0.049 A 
ATOM     57  H   UNL A   1      41.636  31.085  34.484  1.00  0.00     0.167 HD
ATOM     58  C   UNL A   1      39.574  32.966  35.014  1.00  0.00     0.074 A 
ATOM     59  C   UNL A   1      38.396  33.791  34.850  1.00  0.00     0.031 C 
ATOM     60  C   UNL A   1      40.331  32.931  36.140  1.00  0.00     0.037 A 
BRANCH  47  61
ATOM     61  C   UNL A   1      45.105  29.009  35.865  1.00  0.00     0.058 A 
ATOM     62  C   UNL A   1      44.976  27.858  36.659  1.00  0.00     0.135 A 
ATOM     63  C   UNL A   1      46.389  29.558  35.714  1.00  0.00     0.135 A 
ATOM     64  F   UNL A   1      43.769  27.302  36.851  1.00  0.00    -0.206 F 
ATOM     65  C   UNL A   1      46.072  27.288  37.298  1.00  0.00     0.059 A 
ATOM     66  C   UNL A   1      47.504  28.991  36.323  1.00  0.00     0.059 A 
ATOM     67  F   UNL A   1      46.569  30.660  34.970  1.00  0.00    -0.206 F 
ATOM     68  C   UNL A   1      47.333  27.863  37.125  1.00  0.00     0.060 A 
BRANCH  68  69
ATOM     69  S   UNL A   1      48.747  27.112  37.959  1.00  0.00     0.124 S 
ATOM     70  O   UNL A   1      48.694  25.745  37.449  1.00  0.00    -0.237 OA
ATOM     71  O   UNL A   1      49.861  27.924  37.481  1.00  0.00    -0.237 OA
ATOM     72  O   UNL A   1      48.427  27.264  39.375  1.00  0.00    -0.744 OA
ENDBRANCH  68  69
ENDBRANCH  47  61
BRANCH  48  73
ATOM     73  C   UNL A   1      37.271  32.766  30.906  1.00  0.00     0.058 A 
ATOM     74  C   UNL A   1      37.402  33.802  29.970  1.00  0.00     0.135 A 
ATOM     75  C   UNL A   1      35.987  32.250  31.136  1.00  0.00     0.135 A 
ATOM     76  F   UNL A   1      38.608  34.336  29.725  1.00  0.00    -0.206 F 
ATOM     77  C   UNL A   1      36.299  34.316  29.294  1.00  0.00     0.059 A 
ATOM     78  C   UNL A   1      34.873  32.730  30.454  1.00  0.00     0.059 A 
ATOM     79  F   UNL A   1      35.809  31.251  32.015  1.00  0.00    -0.206 F 
ATOM     80  C   UNL A   1      35.039  33.770  29.541  1.00  0.00     0.060 A 
BRANCH  80  81
ATOM     81  S   UNL A   1      33.620  34.402  28.618  1.00  0.00     0.124 S 
ATOM     82  O   UNL A   1      32.693  34.731  29.694  1.00  0.00    -0.237 OA
ATOM     83  O   UNL A   1      34.200  35.536  27.905  1.00  0.00    -0.237 OA
ATOM     84  O   UNL A   1      33.239  33.272  27.776  1.00  0.00    -0.744 OA
ENDBRANCH  80  81
ENDBRANCH  48  73
BRANCH  60  85
ATOM     85  C   UNL A   1      39.929  33.832  37.274  1.00  0.00     0.058 A 
ATOM     86  C   UNL A   1      39.077  33.393  38.300  1.00  0.00     0.135 A 
ATOM     87  C   UNL A   1      40.449  35.133  37.366  1.00  0.00     0.135 A 
ATOM     88  F   UNL A   1      38.547  32.160  38.256  1.00  0.00    -0.206 F 
ATOM     89  C   UNL A   1      38.738  34.220  39.366  1.00  0.00     0.059 A 
ATOM     90  C   UNL A   1      40.144  35.968  38.436  1.00  0.00     0.059 A 
ATOM     91  F   UNL A   1      41.277  35.599  36.417  1.00  0.00    -0.206 F 
ATOM     92  C   UNL A   1      39.278  35.506  39.426  1.00  0.00     0.060 A 
BRANCH  92  93
ATOM     93  S   UNL A   1      38.858  36.557  40.833  1.00  0.00     0.124 S 
ATOM     94  O   UNL A   1      40.159  36.726  41.472  1.00  0.00    -0.237 OA
ATOM     95  O   UNL A   1      38.311  37.746  40.186  1.00  0.00    -0.237 OA
ATOM     96  O   UNL A   1      37.890  35.756  41.578  1.00  0.00    -0.744 OA
ENDBRANCH  92  93
ENDBRANCH  60  85
ENDBRANCH  34  35
ENDBRANCH  27  29
ENDBRANCH  26  27
ENDBRANCH  25  26
ENDBRANCH  24  25
ENDBRANCH   1  24
TORSDOF 20
ENDMDL
