MODEL 1
REMARK VINA RESULT:     -11.5      0.000      0.000
REMARK SMILES O=C(OCCOCCOC(=O)[C@@H]1Cc2[nH]cnc2CN1C(=O)NCC(F)(F)F)c1ccc(-c2c3nc(c(-c4c(F)cc(S(=O)(=O)[O-])cc4F)c4ccc([nH]4)c(-c4c(F)cc(S(=O)(=O)[O-])cc4F)c4nc(c(-c5c(F)cc(S(=O)(=O)[O-])cc5F)c5ccc2[nH]5)C=C4)C=C3)cc1
REMARK SMILES IDX 6 1 5 2 4 3 3 4 2 5 1 6 29 7 30 8 94 9 31 10 93 11 32 12
REMARK SMILES IDX 33 13 34 14 87 15 35 16 92 17 86 18 88 19 36 20 91 21 85 22
REMARK SMILES IDX 84 23 37 25 71 26 50 27 70 28 51 29 54 30 69 31 89 32 52 33
REMARK SMILES IDX 53 34 68 36 90 37 55 38 38 39 39 40 48 41 40 42 41 43 47 44
REMARK SMILES IDX 49 45 42 46 43 47 44 48 45 49 46 50 72 51 73 52 82 53 74 54
REMARK SMILES IDX 75 55 81 56 83 57 76 58 77 59 78 60 79 61 80 62 56 63 57 64
REMARK SMILES IDX 66 65 58 66 59 67 65 68 67 69 60 70 61 71 62 72 63 73 64 74
REMARK SMILES IDX 7 75 8 76 9 77 10 78 11 79 12 80 13 81 20 82 14 83 19 84
REMARK SMILES IDX 15 85 18 86 16 87 17 89 21 90 22 91 23 92 24 94 25 95 26 96
REMARK SMILES IDX 27 97 28 98
REMARK H PARENT 88 24 54 35 15 88 23 93
REMARK Flexibility Score: inf
ROOT
ATOM      1  O   UNL A   1      40.520  21.731  26.484  1.00  0.00    -0.374 OA
ENDROOT
BRANCH   1   2
ATOM      2  C   UNL A   1      40.774  20.371  26.143  1.00  0.00     0.202 C 
BRANCH   2   3
ATOM      3  C   UNL A   1      42.113  19.743  26.534  1.00  0.00     0.261 C 
BRANCH   3   4
ATOM      4  O   UNL A   1      43.022  19.624  25.431  1.00  0.00    -0.460 OA
BRANCH   4   5
ATOM      5  C   UNL A   1      43.910  20.520  24.956  1.00  0.00     0.338 C 
ATOM      6  O   UNL A   1      44.617  20.193  24.002  1.00  0.00    -0.246 OA
BRANCH   5   7
ATOM      7  C   UNL A   1      44.015  21.918  25.458  1.00  0.00     0.060 A 
ATOM      8  C   UNL A   1      44.655  22.325  26.625  1.00  0.00     0.016 A 
ATOM      9  C   UNL A   1      43.316  22.882  24.705  1.00  0.00     0.016 A 
ATOM     10  C   UNL A   1      44.367  23.560  27.173  1.00  0.00     0.010 A 
ATOM     11  C   UNL A   1      43.087  24.150  25.209  1.00  0.00     0.010 A 
ATOM     12  C   UNL A   1      43.532  24.444  26.488  1.00  0.00    -0.014 A 
BRANCH  12  13
ATOM     13  C   UNL A   1      43.274  25.725  27.115  1.00  0.00     0.031 A 
ATOM     14  C   UNL A   1      44.331  26.728  26.837  1.00  0.00     0.074 A 
ATOM     15  C   UNL A   1      42.174  25.985  27.846  1.00  0.00     0.049 A 
ATOM     16  N   UNL A   1      45.232  27.161  27.655  1.00  0.00    -0.248 NA
ATOM     17  C   UNL A   1      44.547  27.132  25.439  1.00  0.00     0.031 C 
ATOM     18  C   UNL A   1      40.964  25.175  27.993  1.00  0.00     0.029 A 
ATOM     19  N   UNL A   1      41.880  27.100  28.566  1.00  0.00    -0.354 N 
ATOM     20  C   UNL A   1      45.982  28.083  26.933  1.00  0.00     0.074 A 
ATOM     21  C   UNL A   1      45.651  27.873  25.548  1.00  0.00     0.031 C 
ATOM     22  C   UNL A   1      39.989  25.930  28.551  1.00  0.00     0.029 A 
ATOM     23  C   UNL A   1      40.543  27.220  28.926  1.00  0.00     0.049 A 
ATOM     24  H   UNL A   1      42.558  27.770  28.813  1.00  0.00     0.167 HD
ATOM     25  C   UNL A   1      46.619  29.108  27.560  1.00  0.00     0.037 A 
ATOM     26  C   UNL A   1      39.943  28.329  29.433  1.00  0.00     0.037 A 
ATOM     27  C   UNL A   1      46.748  28.854  28.973  1.00  0.00     0.049 A 
ATOM     28  C   UNL A   1      41.020  29.179  30.009  1.00  0.00     0.074 A 
ATOM     29  C   UNL A   1      47.354  27.870  29.731  1.00  0.00     0.029 A 
ATOM     30  N   UNL A   1      45.860  29.484  29.812  1.00  0.00    -0.354 N 
ATOM     31  N   UNL A   1      41.719  28.847  31.062  1.00  0.00    -0.248 NA
ATOM     32  C   UNL A   1      41.644  30.167  29.139  1.00  0.00     0.031 C 
ATOM     33  C   UNL A   1      46.467  27.646  30.823  1.00  0.00     0.029 A 
ATOM     34  C   UNL A   1      45.412  28.553  30.714  1.00  0.00     0.049 A 
ATOM     35  H   UNL A   1      45.593  30.430  29.772  1.00  0.00     0.167 HD
ATOM     36  C   UNL A   1      43.019  29.229  30.761  1.00  0.00     0.074 A 
ATOM     37  C   UNL A   1      42.898  30.106  29.599  1.00  0.00     0.031 C 
ATOM     38  C   UNL A   1      44.089  28.574  31.300  1.00  0.00     0.037 A 
BRANCH  25  39
ATOM     39  C   UNL A   1      46.763  30.492  26.976  1.00  0.00     0.058 A 
ATOM     40  C   UNL A   1      48.022  31.124  27.008  1.00  0.00     0.135 A 
ATOM     41  C   UNL A   1      45.669  31.330  26.660  1.00  0.00     0.135 A 
ATOM     42  F   UNL A   1      49.131  30.427  27.308  1.00  0.00    -0.206 F 
ATOM     43  C   UNL A   1      48.174  32.497  26.815  1.00  0.00     0.059 A 
ATOM     44  C   UNL A   1      45.804  32.689  26.411  1.00  0.00     0.059 A 
ATOM     45  F   UNL A   1      44.404  30.897  26.674  1.00  0.00    -0.206 F 
ATOM     46  C   UNL A   1      47.054  33.272  26.528  1.00  0.00     0.060 A 
BRANCH  46  47
ATOM     47  S   UNL A   1      47.232  35.055  26.358  1.00  0.00     0.124 S 
ATOM     48  O   UNL A   1      48.304  35.147  25.374  1.00  0.00    -0.237 OA
ATOM     49  O   UNL A   1      45.904  35.445  25.896  1.00  0.00    -0.237 OA
ATOM     50  O   UNL A   1      47.572  35.489  27.708  1.00  0.00    -0.744 OA
ENDBRANCH  46  47
ENDBRANCH  25  39
BRANCH  26  51
ATOM     51  C   UNL A   1      38.588  28.863  29.118  1.00  0.00     0.058 A 
ATOM     52  C   UNL A   1      37.619  29.032  30.126  1.00  0.00     0.135 A 
ATOM     53  C   UNL A   1      38.311  29.491  27.886  1.00  0.00     0.135 A 
ATOM     54  F   UNL A   1      37.803  28.487  31.338  1.00  0.00    -0.206 F 
ATOM     55  C   UNL A   1      36.477  29.823  29.942  1.00  0.00     0.059 A 
ATOM     56  C   UNL A   1      37.177  30.275  27.677  1.00  0.00     0.059 A 
ATOM     57  F   UNL A   1      39.187  29.443  26.872  1.00  0.00    -0.206 F 
ATOM     58  C   UNL A   1      36.277  30.461  28.719  1.00  0.00     0.060 A 
BRANCH  58  59
ATOM     59  S   UNL A   1      34.911  31.634  28.534  1.00  0.00     0.124 S 
ATOM     60  O   UNL A   1      34.748  32.125  29.898  1.00  0.00    -0.237 OA
ATOM     61  O   UNL A   1      35.452  32.589  27.573  1.00  0.00    -0.237 OA
ATOM     62  O   UNL A   1      33.817  30.805  28.035  1.00  0.00    -0.744 OA
ENDBRANCH  58  59
ENDBRANCH  26  51
BRANCH  38  63
ATOM     63  C   UNL A   1      43.855  27.646  32.463  1.00  0.00     0.058 A 
ATOM     64  C   UNL A   1      43.783  26.245  32.376  1.00  0.00     0.135 A 
ATOM     65  C   UNL A   1      43.854  28.208  33.748  1.00  0.00     0.135 A 
ATOM     66  F   UNL A   1      43.885  25.619  31.193  1.00  0.00    -0.206 F 
ATOM     67  C   UNL A   1      43.671  25.444  33.516  1.00  0.00     0.059 A 
ATOM     68  C   UNL A   1      43.778  27.429  34.898  1.00  0.00     0.059 A 
ATOM     69  F   UNL A   1      43.982  29.537  33.902  1.00  0.00    -0.206 F 
ATOM     70  C   UNL A   1      43.669  26.046  34.774  1.00  0.00     0.060 A 
BRANCH  70  71
ATOM     71  S   UNL A   1      43.587  25.014  36.253  1.00  0.00     0.124 S 
ATOM     72  O   UNL A   1      44.921  25.179  36.817  1.00  0.00    -0.237 OA
ATOM     73  O   UNL A   1      42.498  25.627  37.007  1.00  0.00    -0.237 OA
ATOM     74  O   UNL A   1      43.293  23.683  35.726  1.00  0.00    -0.744 OA
ENDBRANCH  70  71
ENDBRANCH  38  63
ENDBRANCH  12  13
ENDBRANCH   5   7
ENDBRANCH   4   5
ENDBRANCH   3   4
ENDBRANCH   2   3
ENDBRANCH   1   2
BRANCH   1  75
ATOM     75  C   UNL A   1      39.207  22.274  26.311  1.00  0.00     0.202 C 
BRANCH  75  76
ATOM     76  C   UNL A   1      38.212  21.505  25.439  1.00  0.00     0.261 C 
BRANCH  76  77
ATOM     77  O   UNL A   1      37.093  22.351  25.145  1.00  0.00    -0.462 OA
BRANCH  77  78
ATOM     78  C   UNL A   1      35.865  21.867  25.445  1.00  0.00     0.329 C 
ATOM     79  O   UNL A   1      35.530  21.446  26.541  1.00  0.00    -0.250 OA
BRANCH  78  80
ATOM     80  C   UNL A   1      34.893  21.884  24.236  1.00  0.00     0.203 C 
ATOM     81  C   UNL A   1      35.005  23.313  23.648  1.00  0.00     0.093 C 
ATOM     82  N   UNL A   1      33.436  21.533  24.378  1.00  0.00    -0.305 N 
ATOM     83  C   UNL A   1      34.200  24.189  24.541  1.00  0.00     0.042 A 
ATOM     84  C   UNL A   1      32.675  22.332  25.391  1.00  0.00     0.180 C 
ATOM     85  N   UNL A   1      34.417  25.486  24.892  1.00  0.00    -0.348 N 
ATOM     86  C   UNL A   1      33.153  23.753  25.328  1.00  0.00     0.081 A 
ATOM     87  C   UNL A   1      33.492  25.789  25.857  1.00  0.00     0.197 A 
ATOM     88  H   UNL A   1      35.104  26.088  24.526  1.00  0.00     0.167 HD
ATOM     89  N   UNL A   1      32.708  24.769  26.129  1.00  0.00    -0.240 NA
BRANCH  82  90
ATOM     90  C   UNL A   1      32.663  20.736  23.588  1.00  0.00     0.318 C 
ATOM     91  O   UNL A   1      31.991  21.189  22.656  1.00  0.00    -0.249 OA
ATOM     92  N   UNL A   1      32.566  19.405  23.691  1.00  0.00    -0.329 N 
ATOM     93  H   UNL A   1      32.039  19.043  22.942  1.00  0.00     0.165 HD
BRANCH  92  94
ATOM     94  C   UNL A   1      33.001  18.321  24.572  1.00  0.00     0.233 C 
BRANCH  94  95
ATOM     95  C   UNL A   1      33.796  17.219  23.865  1.00  0.00     0.405 C 
ATOM     96  F   UNL A   1      33.824  17.430  22.530  1.00  0.00    -0.169 F 
ATOM     97  F   UNL A   1      35.075  17.201  24.305  1.00  0.00    -0.169 F 
ATOM     98  F   UNL A   1      33.271  15.995  24.086  1.00  0.00    -0.169 F 
ENDBRANCH  94  95
ENDBRANCH  92  94
ENDBRANCH  82  90
ENDBRANCH  78  80
ENDBRANCH  77  78
ENDBRANCH  76  77
ENDBRANCH  75  76
ENDBRANCH   1  75
TORSDOF 20
ENDMDL
MODEL 2
REMARK VINA RESULT:     -11.5      3.639      5.169
REMARK SMILES O=C(OCCOCCOC(=O)[C@@H]1Cc2[nH]cnc2CN1C(=O)NCC(F)(F)F)c1ccc(-c2c3nc(c(-c4c(F)cc(S(=O)(=O)[O-])cc4F)c4ccc([nH]4)c(-c4c(F)cc(S(=O)(=O)[O-])cc4F)c4nc(c(-c5c(F)cc(S(=O)(=O)[O-])cc5F)c5ccc2[nH]5)C=C4)C=C3)cc1
REMARK SMILES IDX 6 1 5 2 4 3 3 4 2 5 1 6 29 7 30 8 94 9 31 10 93 11 32 12
REMARK SMILES IDX 33 13 34 14 87 15 35 16 92 17 86 18 88 19 36 20 91 21 85 22
REMARK SMILES IDX 84 23 37 25 71 26 50 27 70 28 51 29 54 30 69 31 89 32 52 33
REMARK SMILES IDX 53 34 68 36 90 37 55 38 38 39 39 40 48 41 40 42 41 43 47 44
REMARK SMILES IDX 49 45 42 46 43 47 44 48 45 49 46 50 72 51 73 52 82 53 74 54
REMARK SMILES IDX 75 55 81 56 83 57 76 58 77 59 78 60 79 61 80 62 56 63 57 64
REMARK SMILES IDX 66 65 58 66 59 67 65 68 67 69 60 70 61 71 62 72 63 73 64 74
REMARK SMILES IDX 7 75 8 76 9 77 10 78 11 79 12 80 13 81 20 82 14 83 19 84
REMARK SMILES IDX 15 85 18 86 16 87 17 89 21 90 22 91 23 92 24 94 25 95 26 96
REMARK SMILES IDX 27 97 28 98
REMARK H PARENT 88 24 54 35 15 88 23 93
REMARK Flexibility Score: inf
ROOT
ATOM      1  O   UNL A   1      35.458  21.838  24.027  1.00  0.00    -0.374 OA
ENDROOT
BRANCH   1   2
ATOM      2  C   UNL A   1      36.654  22.455  24.496  1.00  0.00     0.202 C 
BRANCH   2   3
ATOM      3  C   UNL A   1      37.478  21.755  25.578  1.00  0.00     0.261 C 
BRANCH   3   4
ATOM      4  O   UNL A   1      38.855  22.156  25.583  1.00  0.00    -0.460 OA
BRANCH   4   5
ATOM      5  C   UNL A   1      39.672  22.390  26.630  1.00  0.00     0.338 C 
ATOM      6  O   UNL A   1      40.128  21.424  27.241  1.00  0.00    -0.246 OA
BRANCH   5   7
ATOM      7  C   UNL A   1      40.132  23.750  27.025  1.00  0.00     0.060 A 
ATOM      8  C   UNL A   1      41.271  24.048  27.768  1.00  0.00     0.016 A 
ATOM      9  C   UNL A   1      39.266  24.805  26.672  1.00  0.00     0.016 A 
ATOM     10  C   UNL A   1      41.389  25.279  28.383  1.00  0.00     0.010 A 
ATOM     11  C   UNL A   1      39.420  26.065  27.222  1.00  0.00     0.010 A 
ATOM     12  C   UNL A   1      40.426  26.262  28.155  1.00  0.00    -0.014 A 
BRANCH  12  13
ATOM     13  C   UNL A   1      40.611  27.533  28.827  1.00  0.00     0.031 A 
ATOM     14  C   UNL A   1      41.734  28.324  28.268  1.00  0.00     0.074 A 
ATOM     15  C   UNL A   1      39.824  27.963  29.831  1.00  0.00     0.049 A 
ATOM     16  N   UNL A   1      42.890  28.529  28.807  1.00  0.00    -0.248 NA
ATOM     17  C   UNL A   1      41.643  28.753  26.864  1.00  0.00     0.031 C 
ATOM     18  C   UNL A   1      38.561  27.397  30.306  1.00  0.00     0.029 A 
ATOM     19  N   UNL A   1      39.966  29.073  30.603  1.00  0.00    -0.354 N 
ATOM     20  C   UNL A   1      43.589  29.324  27.905  1.00  0.00     0.074 A 
ATOM     21  C   UNL A   1      42.862  29.259  26.664  1.00  0.00     0.031 C 
ATOM     22  C   UNL A   1      37.944  28.296  31.109  1.00  0.00     0.029 A 
ATOM     23  C   UNL A   1      38.828  29.431  31.316  1.00  0.00     0.049 A 
ATOM     24  H   UNL A   1      40.807  29.583  30.653  1.00  0.00     0.167 HD
ATOM     25  C   UNL A   1      44.565  30.170  28.332  1.00  0.00     0.037 A 
ATOM     26  C   UNL A   1      38.623  30.606  31.966  1.00  0.00     0.037 A 
ATOM     27  C   UNL A   1      45.014  29.820  29.656  1.00  0.00     0.049 A 
ATOM     28  C   UNL A   1      39.965  31.198  32.224  1.00  0.00     0.074 A 
ATOM     29  C   UNL A   1      45.590  28.696  30.219  1.00  0.00     0.029 A 
ATOM     30  N   UNL A   1      44.531  30.564  30.706  1.00  0.00    -0.354 N 
ATOM     31  N   UNL A   1      40.839  30.679  33.045  1.00  0.00    -0.248 NA
ATOM     32  C   UNL A   1      40.518  32.091  31.214  1.00  0.00     0.031 C 
ATOM     33  C   UNL A   1      45.003  28.591  31.513  1.00  0.00     0.029 A 
ATOM     34  C   UNL A   1      44.163  29.691  31.697  1.00  0.00     0.049 A 
ATOM     35  H   UNL A   1      44.461  31.545  30.739  1.00  0.00     0.167 HD
ATOM     36  C   UNL A   1      42.060  30.816  32.398  1.00  0.00     0.074 A 
ATOM     37  C   UNL A   1      41.810  31.762  31.313  1.00  0.00     0.031 C 
ATOM     38  C   UNL A   1      43.080  29.936  32.623  1.00  0.00     0.037 A 
BRANCH  25  39
ATOM     39  C   UNL A   1      44.822  31.529  27.730  1.00  0.00     0.058 A 
ATOM     40  C   UNL A   1      46.022  31.752  27.024  1.00  0.00     0.135 A 
ATOM     41  C   UNL A   1      44.089  32.690  28.064  1.00  0.00     0.135 A 
ATOM     42  F   UNL A   1      46.805  30.722  26.663  1.00  0.00    -0.206 F 
ATOM     43  C   UNL A   1      46.495  33.033  26.739  1.00  0.00     0.059 A 
ATOM     44  C   UNL A   1      44.514  33.973  27.743  1.00  0.00     0.059 A 
ATOM     45  F   UNL A   1      42.976  32.650  28.806  1.00  0.00    -0.206 F 
ATOM     46  C   UNL A   1      45.736  34.137  27.114  1.00  0.00     0.060 A 
BRANCH  46  47
ATOM     47  S   UNL A   1      46.377  35.793  26.821  1.00  0.00     0.124 S 
ATOM     48  O   UNL A   1      47.124  36.037  28.049  1.00  0.00    -0.237 OA
ATOM     49  O   UNL A   1      47.174  35.596  25.615  1.00  0.00    -0.237 OA
ATOM     50  O   UNL A   1      45.170  36.594  26.645  1.00  0.00    -0.744 OA
ENDBRANCH  46  47
ENDBRANCH  25  39
BRANCH  26  51
ATOM     51  C   UNL A   1      37.371  31.410  32.035  1.00  0.00     0.058 A 
ATOM     52  C   UNL A   1      36.873  31.881  33.265  1.00  0.00     0.135 A 
ATOM     53  C   UNL A   1      36.797  31.981  30.880  1.00  0.00     0.135 A 
ATOM     54  F   UNL A   1      37.371  31.411  34.419  1.00  0.00    -0.206 F 
ATOM     55  C   UNL A   1      35.911  32.896  33.345  1.00  0.00     0.059 A 
ATOM     56  C   UNL A   1      35.831  32.985  30.935  1.00  0.00     0.059 A 
ATOM     57  F   UNL A   1      37.230  31.648  29.655  1.00  0.00    -0.206 F 
ATOM     58  C   UNL A   1      35.412  33.459  32.171  1.00  0.00     0.060 A 
BRANCH  58  59
ATOM     59  S   UNL A   1      34.316  34.896  32.264  1.00  0.00     0.124 S 
ATOM     60  O   UNL A   1      34.186  35.268  30.859  1.00  0.00    -0.237 OA
ATOM     61  O   UNL A   1      33.122  34.334  32.887  1.00  0.00    -0.237 OA
ATOM     62  O   UNL A   1      35.062  35.839  33.093  1.00  0.00    -0.744 OA
ENDBRANCH  58  59
ENDBRANCH  26  51
BRANCH  38  63
ATOM     63  C   UNL A   1      42.984  29.010  33.808  1.00  0.00     0.058 A 
ATOM     64  C   UNL A   1      43.391  29.328  35.115  1.00  0.00     0.135 A 
ATOM     65  C   UNL A   1      42.305  27.796  33.625  1.00  0.00     0.135 A 
ATOM     66  F   UNL A   1      43.952  30.514  35.396  1.00  0.00    -0.206 F 
ATOM     67  C   UNL A   1      43.171  28.455  36.184  1.00  0.00     0.059 A 
ATOM     68  C   UNL A   1      42.045  26.928  34.680  1.00  0.00     0.059 A 
ATOM     69  F   UNL A   1      41.836  27.463  32.411  1.00  0.00    -0.206 F 
ATOM     70  C   UNL A   1      42.496  27.256  35.956  1.00  0.00     0.060 A 
BRANCH  70  71
ATOM     71  S   UNL A   1      42.153  26.152  37.343  1.00  0.00     0.124 S 
ATOM     72  O   UNL A   1      40.778  26.501  37.680  1.00  0.00    -0.237 OA
ATOM     73  O   UNL A   1      42.347  24.831  36.752  1.00  0.00    -0.237 OA
ATOM     74  O   UNL A   1      43.154  26.531  38.338  1.00  0.00    -0.744 OA
ENDBRANCH  70  71
ENDBRANCH  38  63
ENDBRANCH  12  13
ENDBRANCH   5   7
ENDBRANCH   4   5
ENDBRANCH   3   4
ENDBRANCH   2   3
ENDBRANCH   1   2
BRANCH   1  75
ATOM     75  C   UNL A   1      34.245  22.595  23.961  1.00  0.00     0.202 C 
BRANCH  75  76
ATOM     76  C   UNL A   1      33.913  23.321  22.656  1.00  0.00     0.261 C 
BRANCH  76  77
ATOM     77  O   UNL A   1      34.171  24.722  22.818  1.00  0.00    -0.462 OA
BRANCH  77  78
ATOM     78  C   UNL A   1      33.106  25.553  22.745  1.00  0.00     0.329 C 
ATOM     79  O   UNL A   1      32.141  25.389  22.016  1.00  0.00    -0.250 OA
BRANCH  78  80
ATOM     80  C   UNL A   1      33.226  26.779  23.689  1.00  0.00     0.203 C 
ATOM     81  C   UNL A   1      33.894  26.233  24.976  1.00  0.00     0.093 C 
ATOM     82  N   UNL A   1      32.031  27.607  24.079  1.00  0.00    -0.305 N 
ATOM     83  C   UNL A   1      32.821  25.529  25.728  1.00  0.00     0.042 A 
ATOM     84  C   UNL A   1      30.899  26.852  24.704  1.00  0.00     0.180 C 
ATOM     85  N   UNL A   1      32.910  24.418  26.510  1.00  0.00    -0.348 N 
ATOM     86  C   UNL A   1      31.473  25.802  25.608  1.00  0.00     0.081 A 
ATOM     87  C   UNL A   1      31.627  24.072  26.844  1.00  0.00     0.197 A 
ATOM     88  H   UNL A   1      33.734  23.953  26.781  1.00  0.00     0.167 HD
ATOM     89  N   UNL A   1      30.742  24.896  26.328  1.00  0.00    -0.240 NA
BRANCH  82  90
ATOM     90  C   UNL A   1      31.903  28.963  24.128  1.00  0.00     0.318 C 
ATOM     91  O   UNL A   1      32.443  29.641  25.008  1.00  0.00    -0.249 OA
ATOM     92  N   UNL A   1      31.236  29.711  23.241  1.00  0.00    -0.329 N 
ATOM     93  H   UNL A   1      31.382  30.667  23.424  1.00  0.00     0.165 HD
BRANCH  92  94
ATOM     94  C   UNL A   1      30.357  29.546  22.083  1.00  0.00     0.233 C 
BRANCH  94  95
ATOM     95  C   UNL A   1      29.017  30.277  22.204  1.00  0.00     0.405 C 
ATOM     96  F   UNL A   1      28.561  30.234  23.476  1.00  0.00    -0.169 F 
ATOM     97  F   UNL A   1      29.154  31.579  21.861  1.00  0.00    -0.169 F 
ATOM     98  F   UNL A   1      28.073  29.741  21.402  1.00  0.00    -0.169 F 
ENDBRANCH  94  95
ENDBRANCH  92  94
ENDBRANCH  82  90
ENDBRANCH  78  80
ENDBRANCH  77  78
ENDBRANCH  76  77
ENDBRANCH  75  76
ENDBRANCH   1  75
TORSDOF 20
ENDMDL
MODEL 3
REMARK VINA RESULT:     -11.2      2.400      3.384
REMARK SMILES O=C(OCCOCCOC(=O)[C@@H]1Cc2[nH]cnc2CN1C(=O)NCC(F)(F)F)c1ccc(-c2c3nc(c(-c4c(F)cc(S(=O)(=O)[O-])cc4F)c4ccc([nH]4)c(-c4c(F)cc(S(=O)(=O)[O-])cc4F)c4nc(c(-c5c(F)cc(S(=O)(=O)[O-])cc5F)c5ccc2[nH]5)C=C4)C=C3)cc1
REMARK SMILES IDX 6 1 5 2 4 3 3 4 2 5 1 6 29 7 30 8 94 9 31 10 93 11 32 12
REMARK SMILES IDX 33 13 34 14 87 15 35 16 92 17 86 18 88 19 36 20 91 21 85 22
REMARK SMILES IDX 84 23 37 25 71 26 50 27 70 28 51 29 54 30 69 31 89 32 52 33
REMARK SMILES IDX 53 34 68 36 90 37 55 38 38 39 39 40 48 41 40 42 41 43 47 44
REMARK SMILES IDX 49 45 42 46 43 47 44 48 45 49 46 50 72 51 73 52 82 53 74 54
REMARK SMILES IDX 75 55 81 56 83 57 76 58 77 59 78 60 79 61 80 62 56 63 57 64
REMARK SMILES IDX 66 65 58 66 59 67 65 68 67 69 60 70 61 71 62 72 63 73 64 74
REMARK SMILES IDX 7 75 8 76 9 77 10 78 11 79 12 80 13 81 20 82 14 83 19 84
REMARK SMILES IDX 15 85 18 86 16 87 17 89 21 90 22 91 23 92 24 94 25 95 26 96
REMARK SMILES IDX 27 97 28 98
REMARK H PARENT 88 24 54 35 15 88 23 93
REMARK Flexibility Score: inf
ROOT
ATOM      1  O   UNL A   1      36.550  21.808  25.476  1.00  0.00    -0.374 OA
ENDROOT
BRANCH   1   2
ATOM      2  C   UNL A   1      37.292  20.725  24.921  1.00  0.00     0.202 C 
BRANCH   2   3
ATOM      3  C   UNL A   1      38.741  20.511  25.362  1.00  0.00     0.261 C 
BRANCH   3   4
ATOM      4  O   UNL A   1      39.402  21.731  25.728  1.00  0.00    -0.460 OA
BRANCH   4   5
ATOM      5  C   UNL A   1      40.109  22.018  26.840  1.00  0.00     0.338 C 
ATOM      6  O   UNL A   1      40.468  21.085  27.560  1.00  0.00    -0.246 OA
BRANCH   5   7
ATOM      7  C   UNL A   1      40.565  23.391  27.191  1.00  0.00     0.060 A 
ATOM      8  C   UNL A   1      41.681  23.714  27.958  1.00  0.00     0.016 A 
ATOM      9  C   UNL A   1      39.718  24.434  26.767  1.00  0.00     0.016 A 
ATOM     10  C   UNL A   1      41.787  24.969  28.524  1.00  0.00     0.010 A 
ATOM     11  C   UNL A   1      39.861  25.716  27.267  1.00  0.00     0.010 A 
ATOM     12  C   UNL A   1      40.838  25.947  28.223  1.00  0.00    -0.014 A 
BRANCH  12  13
ATOM     13  C   UNL A   1      41.009  27.245  28.846  1.00  0.00     0.031 A 
ATOM     14  C   UNL A   1      42.129  28.023  28.261  1.00  0.00     0.074 A 
ATOM     15  C   UNL A   1      40.215  27.706  29.830  1.00  0.00     0.049 A 
ATOM     16  N   UNL A   1      43.280  28.258  28.796  1.00  0.00    -0.248 NA
ATOM     17  C   UNL A   1      42.040  28.397  26.841  1.00  0.00     0.031 C 
ATOM     18  C   UNL A   1      38.954  27.148  30.321  1.00  0.00     0.029 A 
ATOM     19  N   UNL A   1      40.345  28.846  30.559  1.00  0.00    -0.354 N 
ATOM     20  C   UNL A   1      43.976  29.024  27.868  1.00  0.00     0.074 A 
ATOM     21  C   UNL A   1      43.255  28.905  26.627  1.00  0.00     0.031 C 
ATOM     22  C   UNL A   1      38.327  28.071  31.086  1.00  0.00     0.029 A 
ATOM     23  C   UNL A   1      39.201  29.221  31.253  1.00  0.00     0.049 A 
ATOM     24  H   UNL A   1      41.180  29.365  30.593  1.00  0.00     0.167 HD
ATOM     25  C   UNL A   1      44.943  29.895  28.265  1.00  0.00     0.037 A 
ATOM     26  C   UNL A   1      38.983  30.419  31.857  1.00  0.00     0.037 A 
ATOM     27  C   UNL A   1      45.390  29.599  29.603  1.00  0.00     0.049 A 
ATOM     28  C   UNL A   1      40.319  31.032  32.097  1.00  0.00     0.074 A 
ATOM     29  C   UNL A   1      45.973  28.504  30.212  1.00  0.00     0.029 A 
ATOM     30  N   UNL A   1      44.896  30.379  30.622  1.00  0.00    -0.354 N 
ATOM     31  N   UNL A   1      41.194  30.553  32.940  1.00  0.00    -0.248 NA
ATOM     32  C   UNL A   1      40.869  31.890  31.055  1.00  0.00     0.031 C 
ATOM     33  C   UNL A   1      45.382  28.443  31.507  1.00  0.00     0.029 A 
ATOM     34  C   UNL A   1      44.532  29.542  31.644  1.00  0.00     0.049 A 
ATOM     35  H   UNL A   1      44.818  31.360  30.617  1.00  0.00     0.167 HD
ATOM     36  C   UNL A   1      42.416  30.675  32.294  1.00  0.00     0.074 A 
ATOM     37  C   UNL A   1      42.163  31.576  31.172  1.00  0.00     0.031 C 
ATOM     38  C   UNL A   1      43.443  29.814  32.556  1.00  0.00     0.037 A 
BRANCH  25  39
ATOM     39  C   UNL A   1      45.192  31.232  27.612  1.00  0.00     0.058 A 
ATOM     40  C   UNL A   1      46.450  31.489  27.031  1.00  0.00     0.135 A 
ATOM     41  C   UNL A   1      44.361  32.361  27.790  1.00  0.00     0.135 A 
ATOM     42  F   UNL A   1      47.326  30.492  26.824  1.00  0.00    -0.206 F 
ATOM     43  C   UNL A   1      46.880  32.780  26.721  1.00  0.00     0.059 A 
ATOM     44  C   UNL A   1      44.747  33.648  27.438  1.00  0.00     0.059 A 
ATOM     45  F   UNL A   1      43.175  32.292  28.404  1.00  0.00    -0.206 F 
ATOM     46  C   UNL A   1      46.023  33.854  26.941  1.00  0.00     0.060 A 
BRANCH  46  47
ATOM     47  S   UNL A   1      46.600  35.527  26.618  1.00  0.00     0.124 S 
ATOM     48  O   UNL A   1      47.379  35.336  25.400  1.00  0.00    -0.237 OA
ATOM     49  O   UNL A   1      45.344  36.254  26.468  1.00  0.00    -0.237 OA
ATOM     50  O   UNL A   1      47.367  35.854  27.816  1.00  0.00    -0.744 OA
ENDBRANCH  46  47
ENDBRANCH  25  39
BRANCH  26  51
ATOM     51  C   UNL A   1      37.724  31.214  31.890  1.00  0.00     0.058 A 
ATOM     52  C   UNL A   1      37.073  31.501  33.106  1.00  0.00     0.135 A 
ATOM     53  C   UNL A   1      37.291  31.956  30.771  1.00  0.00     0.135 A 
ATOM     54  F   UNL A   1      37.430  30.859  34.229  1.00  0.00    -0.206 F 
ATOM     55  C   UNL A   1      36.098  32.500  33.216  1.00  0.00     0.059 A 
ATOM     56  C   UNL A   1      36.316  32.949  30.855  1.00  0.00     0.059 A 
ATOM     57  F   UNL A   1      37.875  31.807  29.573  1.00  0.00    -0.206 F 
ATOM     58  C   UNL A   1      35.743  33.237  32.088  1.00  0.00     0.060 A 
BRANCH  58  59
ATOM     59  S   UNL A   1      34.629  34.653  32.257  1.00  0.00     0.124 S 
ATOM     60  O   UNL A   1      34.301  34.948  30.867  1.00  0.00    -0.237 OA
ATOM     61  O   UNL A   1      33.546  34.099  33.063  1.00  0.00    -0.237 OA
ATOM     62  O   UNL A   1      35.452  35.654  32.931  1.00  0.00    -0.744 OA
ENDBRANCH  58  59
ENDBRANCH  26  51
BRANCH  38  63
ATOM     63  C   UNL A   1      43.350  28.933  33.775  1.00  0.00     0.058 A 
ATOM     64  C   UNL A   1      43.665  29.333  35.085  1.00  0.00     0.135 A 
ATOM     65  C   UNL A   1      42.766  27.667  33.615  1.00  0.00     0.135 A 
ATOM     66  F   UNL A   1      44.126  30.567  35.339  1.00  0.00    -0.206 F 
ATOM     67  C   UNL A   1      43.451  28.492  36.181  1.00  0.00     0.059 A 
ATOM     68  C   UNL A   1      42.513  26.827  34.694  1.00  0.00     0.059 A 
ATOM     69  F   UNL A   1      42.385  27.251  32.395  1.00  0.00    -0.206 F 
ATOM     70  C   UNL A   1      42.873  27.239  35.974  1.00  0.00     0.060 A 
BRANCH  70  71
ATOM     71  S   UNL A   1      42.536  26.172  37.391  1.00  0.00     0.124 S 
ATOM     72  O   UNL A   1      43.459  26.692  38.393  1.00  0.00    -0.237 OA
ATOM     73  O   UNL A   1      41.119  26.419  37.644  1.00  0.00    -0.237 OA
ATOM     74  O   UNL A   1      42.846  24.834  36.893  1.00  0.00    -0.744 OA
ENDBRANCH  70  71
ENDBRANCH  38  63
ENDBRANCH  12  13
ENDBRANCH   5   7
ENDBRANCH   4   5
ENDBRANCH   3   4
ENDBRANCH   2   3
ENDBRANCH   1   2
BRANCH   1  75
ATOM     75  C   UNL A   1      36.562  23.084  24.828  1.00  0.00     0.202 C 
BRANCH  75  76
ATOM     76  C   UNL A   1      35.844  23.223  23.484  1.00  0.00     0.261 C 
BRANCH  76  77
ATOM     77  O   UNL A   1      34.701  24.072  23.647  1.00  0.00    -0.462 OA
BRANCH  77  78
ATOM     78  C   UNL A   1      33.572  23.712  22.992  1.00  0.00     0.329 C 
ATOM     79  O   UNL A   1      33.479  23.581  21.781  1.00  0.00    -0.250 OA
BRANCH  78  80
ATOM     80  C   UNL A   1      32.366  23.484  23.941  1.00  0.00     0.203 C 
ATOM     81  C   UNL A   1      31.155  24.122  23.214  1.00  0.00     0.093 C 
ATOM     82  N   UNL A   1      32.375  23.956  25.370  1.00  0.00    -0.305 N 
ATOM     83  C   UNL A   1      31.278  25.590  23.423  1.00  0.00     0.042 A 
ATOM     84  C   UNL A   1      32.645  25.416  25.566  1.00  0.00     0.180 C 
ATOM     85  N   UNL A   1      30.936  26.607  22.585  1.00  0.00    -0.348 N 
ATOM     86  C   UNL A   1      31.948  26.177  24.477  1.00  0.00     0.081 A 
ATOM     87  C   UNL A   1      31.392  27.761  23.165  1.00  0.00     0.197 A 
ATOM     88  H   UNL A   1      30.455  26.528  21.729  1.00  0.00     0.167 HD
ATOM     89  N   UNL A   1      31.993  27.535  24.312  1.00  0.00    -0.240 NA
BRANCH  82  90
ATOM     90  C   UNL A   1      31.981  23.297  26.496  1.00  0.00     0.318 C 
ATOM     91  O   UNL A   1      31.124  23.755  27.258  1.00  0.00    -0.249 OA
ATOM     92  N   UNL A   1      32.425  22.096  26.885  1.00  0.00    -0.329 N 
ATOM     93  H   UNL A   1      31.912  21.779  27.664  1.00  0.00     0.165 HD
BRANCH  92  94
ATOM     94  C   UNL A   1      33.437  21.108  26.511  1.00  0.00     0.233 C 
BRANCH  94  95
ATOM     95  C   UNL A   1      32.974  20.107  25.449  1.00  0.00     0.405 C 
ATOM     96  F   UNL A   1      33.866  20.037  24.435  1.00  0.00    -0.169 F 
ATOM     97  F   UNL A   1      32.861  18.868  25.981  1.00  0.00    -0.169 F 
ATOM     98  F   UNL A   1      31.774  20.439  24.929  1.00  0.00    -0.169 F 
ENDBRANCH  94  95
ENDBRANCH  92  94
ENDBRANCH  82  90
ENDBRANCH  78  80
ENDBRANCH  77  78
ENDBRANCH  76  77
ENDBRANCH  75  76
ENDBRANCH   1  75
TORSDOF 20
ENDMDL
