MODEL 1
REMARK VINA RESULT:     -10.1      0.000      0.000
REMARK SMILES COc1ccc(C(C)(C)C)cc1CC(=O)OCCOCCOC(=O)c1ccc(-c2c3nc(c(-c4c(F)cc(S(=O)(=O)[O-])cc4F)c4ccc([nH]4)c(-c4c(F)cc(S(=O)(=O)[O-])cc4F)c4nc(c(-c5c(F)cc(S(=O)(=O)[O-])cc5F)c5ccc2[nH]5)C=C4)C=C3)cc1
REMARK SMILES IDX 20 1 19 2 18 3 17 4 16 5 14 6 15 7 13 8 12 9 3 10 4 11 5 12
REMARK SMILES IDX 11 13 6 14 2 15 1 16 7 17 8 18 9 19 10 20 21 21 22 22 23 23
REMARK SMILES IDX 24 24 25 25 26 26 90 27 27 28 89 29 28 30 29 31 30 32 83 33
REMARK SMILES IDX 31 34 88 35 82 36 84 37 32 38 87 39 81 40 80 41 33 43 67 44
REMARK SMILES IDX 46 45 66 46 47 47 50 48 65 49 85 50 48 51 49 52 64 54 86 55
REMARK SMILES IDX 51 56 34 57 35 58 44 59 36 60 37 61 43 62 45 63 38 64 39 65
REMARK SMILES IDX 40 66 41 67 42 68 68 69 69 70 78 71 70 72 71 73 77 74 79 75
REMARK SMILES IDX 72 76 73 77 74 78 75 79 76 80 52 81 53 82 62 83 54 84 55 85
REMARK SMILES IDX 61 86 63 87 56 88 57 89 58 90 59 91 60 92
REMARK H PARENT 84 42 50 53
REMARK Flexibility Score: inf
ROOT
ATOM      1  C   UNL A   1      34.611  33.215  29.160  1.00  0.00     0.202 C 
ENDROOT
BRANCH   1   2
ATOM      2  O   UNL A   1      34.658  32.310  28.058  1.00  0.00    -0.374 OA
BRANCH   2   3
ATOM      3  C   UNL A   1      33.425  31.709  27.651  1.00  0.00     0.202 C 
BRANCH   3   4
ATOM      4  C   UNL A   1      33.498  30.254  27.169  1.00  0.00     0.261 C 
BRANCH   4   5
ATOM      5  O   UNL A   1      32.385  29.487  27.652  1.00  0.00    -0.463 OA
BRANCH   5   6
ATOM      6  C   UNL A   1      31.969  28.475  26.847  1.00  0.00     0.310 C 
ATOM      7  O   UNL A   1      31.184  27.591  27.180  1.00  0.00    -0.252 OA
BRANCH   6   8
ATOM      8  C   UNL A   1      32.405  28.639  25.409  1.00  0.00     0.162 C 
BRANCH   8   9
ATOM      9  C   UNL A   1      31.337  28.703  24.342  1.00  0.00     0.005 A 
ATOM     10  C   UNL A   1      31.082  27.632  23.480  1.00  0.00     0.122 A 
ATOM     11  C   UNL A   1      30.072  27.731  22.526  1.00  0.00     0.047 A 
ATOM     12  C   UNL A   1      29.304  28.894  22.423  1.00  0.00     0.008 A 
ATOM     13  C   UNL A   1      30.552  29.877  24.217  1.00  0.00     0.012 A 
ATOM     14  C   UNL A   1      29.537  30.007  23.251  1.00  0.00    -0.042 A 
BRANCH  10  15
ATOM     15  O   UNL A   1      31.863  26.511  23.427  1.00  0.00    -0.496 OA
ATOM     16  C   UNL A   1      32.806  26.508  22.359  1.00  0.00     0.278 C 
ENDBRANCH  10  15
BRANCH  14  17
ATOM     17  C   UNL A   1      28.715  31.298  23.056  1.00  0.00    -0.013 C 
ATOM     18  C   UNL A   1      28.453  31.518  21.547  1.00  0.00     0.016 C 
ATOM     19  C   UNL A   1      27.364  31.168  23.791  1.00  0.00     0.016 C 
ATOM     20  C   UNL A   1      29.380  32.584  23.599  1.00  0.00     0.016 C 
ENDBRANCH  14  17
ENDBRANCH   8   9
ENDBRANCH   6   8
ENDBRANCH   5   6
ENDBRANCH   4   5
ENDBRANCH   3   4
ENDBRANCH   2   3
ENDBRANCH   1   2
BRANCH   1  21
ATOM     21  C   UNL A   1      35.156  32.713  30.499  1.00  0.00     0.261 C 
BRANCH  21  22
ATOM     22  O   UNL A   1      35.746  31.411  30.420  1.00  0.00    -0.460 OA
BRANCH  22  23
ATOM     23  C   UNL A   1      36.647  31.147  31.391  1.00  0.00     0.338 C 
ATOM     24  O   UNL A   1      36.492  31.247  32.603  1.00  0.00    -0.246 OA
BRANCH  23  25
ATOM     25  C   UNL A   1      37.844  30.551  30.792  1.00  0.00     0.060 A 
ATOM     26  C   UNL A   1      38.791  29.985  31.653  1.00  0.00     0.016 A 
ATOM     27  C   UNL A   1      38.065  30.609  29.415  1.00  0.00     0.016 A 
ATOM     28  C   UNL A   1      39.988  29.498  31.137  1.00  0.00     0.010 A 
ATOM     29  C   UNL A   1      39.271  30.127  28.901  1.00  0.00     0.010 A 
ATOM     30  C   UNL A   1      40.245  29.592  29.763  1.00  0.00    -0.014 A 
BRANCH  30  31
ATOM     31  C   UNL A   1      41.572  29.205  29.239  1.00  0.00     0.031 A 
ATOM     32  C   UNL A   1      42.653  30.241  29.130  1.00  0.00     0.074 A 
ATOM     33  C   UNL A   1      41.805  27.931  28.879  1.00  0.00     0.049 A 
ATOM     34  N   UNL A   1      43.872  30.119  28.676  1.00  0.00    -0.248 NA
ATOM     35  C   UNL A   1      42.312  31.596  29.592  1.00  0.00     0.031 C 
ATOM     36  C   UNL A   1      40.830  26.843  28.965  1.00  0.00     0.029 A 
ATOM     37  N   UNL A   1      42.925  27.341  28.356  1.00  0.00    -0.354 N 
ATOM     38  C   UNL A   1      44.449  31.378  28.802  1.00  0.00     0.074 A 
ATOM     39  C   UNL A   1      43.433  32.256  29.343  1.00  0.00     0.031 C 
ATOM     40  C   UNL A   1      41.389  25.720  28.487  1.00  0.00     0.029 A 
ATOM     41  C   UNL A   1      42.747  26.016  28.036  1.00  0.00     0.049 A 
ATOM     42  H   UNL A   1      43.775  27.819  28.221  1.00  0.00     0.167 HD
ATOM     43  C   UNL A   1      45.713  31.759  28.502  1.00  0.00     0.037 A 
ATOM     44  C   UNL A   1      43.577  25.152  27.421  1.00  0.00     0.037 A 
ATOM     45  C   UNL A   1      46.705  30.878  27.943  1.00  0.00     0.049 A 
ATOM     46  C   UNL A   1      44.951  25.614  27.022  1.00  0.00     0.074 A 
ATOM     47  C   UNL A   1      48.024  31.153  27.626  1.00  0.00     0.029 A 
ATOM     48  N   UNL A   1      46.480  29.551  27.599  1.00  0.00    -0.354 N 
ATOM     49  N   UNL A   1      45.502  26.794  27.189  1.00  0.00    -0.248 NA
ATOM     50  C   UNL A   1      45.816  24.635  26.353  1.00  0.00     0.031 C 
ATOM     51  C   UNL A   1      48.580  30.007  27.044  1.00  0.00     0.029 A 
ATOM     52  C   UNL A   1      47.622  29.004  27.039  1.00  0.00     0.049 A 
ATOM     53  H   UNL A   1      45.632  29.070  27.736  1.00  0.00     0.167 HD
ATOM     54  C   UNL A   1      46.777  26.701  26.643  1.00  0.00     0.074 A 
ATOM     55  C   UNL A   1      46.924  25.339  26.164  1.00  0.00     0.031 C 
ATOM     56  C   UNL A   1      47.738  27.653  26.546  1.00  0.00     0.037 A 
BRANCH  43  57
ATOM     57  C   UNL A   1      46.074  33.198  28.747  1.00  0.00     0.058 A 
ATOM     58  C   UNL A   1      46.617  33.623  29.971  1.00  0.00     0.135 A 
ATOM     59  C   UNL A   1      45.864  34.167  27.754  1.00  0.00     0.135 A 
ATOM     60  F   UNL A   1      46.825  32.741  30.962  1.00  0.00    -0.206 F 
ATOM     61  C   UNL A   1      46.902  34.964  30.215  1.00  0.00     0.059 A 
ATOM     62  C   UNL A   1      46.165  35.510  27.967  1.00  0.00     0.059 A 
ATOM     63  F   UNL A   1      45.346  33.817  26.566  1.00  0.00    -0.206 F 
ATOM     64  C   UNL A   1      46.664  35.901  29.209  1.00  0.00     0.060 A 
BRANCH  64  65
ATOM     65  S   UNL A   1      47.003  37.641  29.550  1.00  0.00     0.124 S 
ATOM     66  O   UNL A   1      46.640  38.262  28.279  1.00  0.00    -0.237 OA
ATOM     67  O   UNL A   1      46.110  37.923  30.669  1.00  0.00    -0.237 OA
ATOM     68  O   UNL A   1      48.426  37.654  29.869  1.00  0.00    -0.744 OA
ENDBRANCH  64  65
ENDBRANCH  43  57
BRANCH  44  69
ATOM     69  C   UNL A   1      43.102  23.776  27.126  1.00  0.00     0.058 A 
ATOM     70  C   UNL A   1      42.756  23.388  25.825  1.00  0.00     0.135 A 
ATOM     71  C   UNL A   1      43.042  22.804  28.138  1.00  0.00     0.135 A 
ATOM     72  F   UNL A   1      42.786  24.283  24.827  1.00  0.00    -0.206 F 
ATOM     73  C   UNL A   1      42.377  22.080  25.533  1.00  0.00     0.059 A 
ATOM     74  C   UNL A   1      42.688  21.487  27.868  1.00  0.00     0.059 A 
ATOM     75  F   UNL A   1      43.372  23.126  29.399  1.00  0.00    -0.206 F 
ATOM     76  C   UNL A   1      42.357  21.134  26.560  1.00  0.00     0.060 A 
BRANCH  76  77
ATOM     77  S   UNL A   1      41.956  19.421  26.154  1.00  0.00     0.124 S 
ATOM     78  O   UNL A   1      40.515  19.495  25.950  1.00  0.00    -0.237 OA
ATOM     79  O   UNL A   1      42.760  19.192  24.957  1.00  0.00    -0.237 OA
ATOM     80  O   UNL A   1      42.389  18.685  27.339  1.00  0.00    -0.744 OA
ENDBRANCH  76  77
ENDBRANCH  44  69
BRANCH  56  81
ATOM     81  C   UNL A   1      49.028  27.264  25.880  1.00  0.00     0.058 A 
ATOM     82  C   UNL A   1      49.190  27.369  24.490  1.00  0.00     0.135 A 
ATOM     83  C   UNL A   1      50.131  26.846  26.640  1.00  0.00     0.135 A 
ATOM     84  F   UNL A   1      48.162  27.755  23.717  1.00  0.00    -0.206 F 
ATOM     85  C   UNL A   1      50.398  27.062  23.874  1.00  0.00     0.059 A 
ATOM     86  C   UNL A   1      51.357  26.556  26.048  1.00  0.00     0.059 A 
ATOM     87  F   UNL A   1      50.031  26.737  27.974  1.00  0.00    -0.206 F 
ATOM     88  C   UNL A   1      51.479  26.661  24.663  1.00  0.00     0.060 A 
BRANCH  88  89
ATOM     89  S   UNL A   1      53.056  26.313  23.857  1.00  0.00     0.124 S 
ATOM     90  O   UNL A   1      53.379  24.997  24.398  1.00  0.00    -0.237 OA
ATOM     91  O   UNL A   1      52.698  26.346  22.442  1.00  0.00    -0.237 OA
ATOM     92  O   UNL A   1      53.915  27.405  24.305  1.00  0.00    -0.744 OA
ENDBRANCH  88  89
ENDBRANCH  56  81
ENDBRANCH  30  31
ENDBRANCH  23  25
ENDBRANCH  22  23
ENDBRANCH  21  22
ENDBRANCH   1  21
TORSDOF 20
ENDMDL
MODEL 2
REMARK VINA RESULT:     -10.1      1.961      3.875
REMARK SMILES COc1ccc(C(C)(C)C)cc1CC(=O)OCCOCCOC(=O)c1ccc(-c2c3nc(c(-c4c(F)cc(S(=O)(=O)[O-])cc4F)c4ccc([nH]4)c(-c4c(F)cc(S(=O)(=O)[O-])cc4F)c4nc(c(-c5c(F)cc(S(=O)(=O)[O-])cc5F)c5ccc2[nH]5)C=C4)C=C3)cc1
REMARK SMILES IDX 20 1 19 2 18 3 17 4 16 5 14 6 15 7 13 8 12 9 3 10 4 11 5 12
REMARK SMILES IDX 11 13 6 14 2 15 1 16 7 17 8 18 9 19 10 20 21 21 22 22 23 23
REMARK SMILES IDX 24 24 25 25 26 26 90 27 27 28 89 29 28 30 29 31 30 32 83 33
REMARK SMILES IDX 31 34 88 35 82 36 84 37 32 38 87 39 81 40 80 41 33 43 67 44
REMARK SMILES IDX 46 45 66 46 47 47 50 48 65 49 85 50 48 51 49 52 64 54 86 55
REMARK SMILES IDX 51 56 34 57 35 58 44 59 36 60 37 61 43 62 45 63 38 64 39 65
REMARK SMILES IDX 40 66 41 67 42 68 68 69 69 70 78 71 70 72 71 73 77 74 79 75
REMARK SMILES IDX 72 76 73 77 74 78 75 79 76 80 52 81 53 82 62 83 54 84 55 85
REMARK SMILES IDX 61 86 63 87 56 88 57 89 58 90 59 91 60 92
REMARK H PARENT 84 42 50 53
REMARK Flexibility Score: inf
ROOT
ATOM      1  C   UNL A   1      34.482  31.624  27.635  1.00  0.00     0.202 C 
ENDROOT
BRANCH   1   2
ATOM      2  O   UNL A   1      33.113  31.343  27.346  1.00  0.00    -0.374 OA
BRANCH   2   3
ATOM      3  C   UNL A   1      32.761  29.978  27.104  1.00  0.00     0.202 C 
BRANCH   3   4
ATOM      4  C   UNL A   1      33.210  29.382  25.763  1.00  0.00     0.261 C 
BRANCH   4   5
ATOM      5  O   UNL A   1      32.222  28.488  25.231  1.00  0.00    -0.463 OA
BRANCH   5   6
ATOM      6  C   UNL A   1      32.677  27.273  24.829  1.00  0.00     0.310 C 
ATOM      7  O   UNL A   1      32.459  26.771  23.730  1.00  0.00    -0.252 OA
BRANCH   6   8
ATOM      8  C   UNL A   1      33.664  26.657  25.794  1.00  0.00     0.162 C 
BRANCH   8   9
ATOM      9  C   UNL A   1      33.789  25.151  25.823  1.00  0.00     0.005 A 
ATOM     10  C   UNL A   1      32.774  24.329  26.321  1.00  0.00     0.122 A 
ATOM     11  C   UNL A   1      32.927  22.945  26.307  1.00  0.00     0.047 A 
ATOM     12  C   UNL A   1      34.090  22.365  25.793  1.00  0.00     0.008 A 
ATOM     13  C   UNL A   1      34.965  24.544  25.312  1.00  0.00     0.012 A 
ATOM     14  C   UNL A   1      35.150  23.149  25.302  1.00  0.00    -0.042 A 
BRANCH  10  15
ATOM     15  O   UNL A   1      31.663  24.813  26.954  1.00  0.00    -0.496 OA
ATOM     16  C   UNL A   1      30.432  24.378  26.385  1.00  0.00     0.278 C 
ENDBRANCH  10  15
BRANCH  14  17
ATOM     17  C   UNL A   1      36.445  22.471  24.811  1.00  0.00    -0.013 C 
ATOM     18  C   UNL A   1      36.301  20.935  24.935  1.00  0.00     0.016 C 
ATOM     19  C   UNL A   1      36.696  22.838  23.333  1.00  0.00     0.016 C 
ATOM     20  C   UNL A   1      37.725  22.875  25.579  1.00  0.00     0.016 C 
ENDBRANCH  14  17
ENDBRANCH   8   9
ENDBRANCH   6   8
ENDBRANCH   5   6
ENDBRANCH   4   5
ENDBRANCH   3   4
ENDBRANCH   2   3
ENDBRANCH   1   2
BRANCH   1  21
ATOM     21  C   UNL A   1      34.956  31.380  29.070  1.00  0.00     0.261 C 
BRANCH  21  22
ATOM     22  O   UNL A   1      35.760  30.204  29.211  1.00  0.00    -0.460 OA
BRANCH  22  23
ATOM     23  C   UNL A   1      36.497  30.165  30.343  1.00  0.00     0.338 C 
ATOM     24  O   UNL A   1      36.091  30.132  31.499  1.00  0.00    -0.246 OA
BRANCH  23  25
ATOM     25  C   UNL A   1      37.911  30.007  29.994  1.00  0.00     0.060 A 
ATOM     26  C   UNL A   1      38.249  29.978  28.637  1.00  0.00     0.016 A 
ATOM     27  C   UNL A   1      38.880  29.820  30.983  1.00  0.00     0.016 A 
ATOM     28  C   UNL A   1      39.565  29.730  28.258  1.00  0.00     0.010 A 
ATOM     29  C   UNL A   1      40.198  29.563  30.600  1.00  0.00     0.010 A 
ATOM     30  C   UNL A   1      40.539  29.493  29.238  1.00  0.00    -0.014 A 
BRANCH  30  31
ATOM     31  C   UNL A   1      41.902  29.090  28.830  1.00  0.00     0.031 A 
ATOM     32  C   UNL A   1      42.988  30.123  28.763  1.00  0.00     0.074 A 
ATOM     33  C   UNL A   1      42.160  27.803  28.535  1.00  0.00     0.049 A 
ATOM     34  N   UNL A   1      44.237  29.988  28.406  1.00  0.00    -0.248 NA
ATOM     35  C   UNL A   1      42.614  31.493  29.149  1.00  0.00     0.031 C 
ATOM     36  C   UNL A   1      41.181  26.718  28.588  1.00  0.00     0.029 A 
ATOM     37  N   UNL A   1      43.316  27.197  28.119  1.00  0.00    -0.354 N 
ATOM     38  C   UNL A   1      44.804  31.251  28.529  1.00  0.00     0.074 A 
ATOM     39  C   UNL A   1      43.751  32.147  28.959  1.00  0.00     0.031 C 
ATOM     40  C   UNL A   1      41.774  25.579  28.194  1.00  0.00     0.029 A 
ATOM     41  C   UNL A   1      43.162  25.861  27.836  1.00  0.00     0.049 A 
ATOM     42  H   UNL A   1      44.174  27.673  28.030  1.00  0.00     0.167 HD
ATOM     43  C   UNL A   1      46.087  31.625  28.310  1.00  0.00     0.037 A 
ATOM     44  C   UNL A   1      44.035  24.977  27.317  1.00  0.00     0.037 A 
ATOM     45  C   UNL A   1      47.118  30.726  27.860  1.00  0.00     0.049 A 
ATOM     46  C   UNL A   1      45.435  25.427  27.005  1.00  0.00     0.074 A 
ATOM     47  C   UNL A   1      48.457  30.992  27.632  1.00  0.00     0.029 A 
ATOM     48  N   UNL A   1      46.918  29.387  27.549  1.00  0.00    -0.354 N 
ATOM     49  N   UNL A   1      45.973  26.614  27.168  1.00  0.00    -0.248 NA
ATOM     50  C   UNL A   1      46.348  24.426  26.439  1.00  0.00     0.031 C 
ATOM     51  C   UNL A   1      49.054  29.827  27.136  1.00  0.00     0.029 A 
ATOM     52  C   UNL A   1      48.099  28.822  27.096  1.00  0.00     0.049 A 
ATOM     53  H   UNL A   1      46.063  28.909  27.639  1.00  0.00     0.167 HD
ATOM     54  C   UNL A   1      47.285  26.503  26.724  1.00  0.00     0.074 A 
ATOM     55  C   UNL A   1      47.467  25.126  26.307  1.00  0.00     0.031 C 
ATOM     56  C   UNL A   1      48.251  27.453  26.663  1.00  0.00     0.037 A 
BRANCH  43  57
ATOM     57  C   UNL A   1      46.429  33.072  28.528  1.00  0.00     0.058 A 
ATOM     58  C   UNL A   1      46.238  34.034  27.523  1.00  0.00     0.135 A 
ATOM     59  C   UNL A   1      46.964  33.504  29.752  1.00  0.00     0.135 A 
ATOM     60  F   UNL A   1      45.742  33.674  26.328  1.00  0.00    -0.206 F 
ATOM     61  C   UNL A   1      46.603  35.365  27.708  1.00  0.00     0.059 A 
ATOM     62  C   UNL A   1      47.315  34.834  29.969  1.00  0.00     0.059 A 
ATOM     63  F   UNL A   1      47.170  32.628  30.748  1.00  0.00    -0.206 F 
ATOM     64  C   UNL A   1      47.150  35.753  28.932  1.00  0.00     0.060 A 
BRANCH  64  65
ATOM     65  S   UNL A   1      47.653  37.473  29.148  1.00  0.00     0.124 S 
ATOM     66  O   UNL A   1      48.968  37.472  28.513  1.00  0.00    -0.237 OA
ATOM     67  O   UNL A   1      46.607  38.199  28.434  1.00  0.00    -0.237 OA
ATOM     68  O   UNL A   1      47.657  37.648  30.596  1.00  0.00    -0.744 OA
ENDBRANCH  64  65
ENDBRANCH  43  57
BRANCH  44  69
ATOM     69  C   UNL A   1      43.583  23.590  27.038  1.00  0.00     0.058 A 
ATOM     70  C   UNL A   1      43.448  22.646  28.065  1.00  0.00     0.135 A 
ATOM     71  C   UNL A   1      43.220  23.201  25.738  1.00  0.00     0.135 A 
ATOM     72  F   UNL A   1      43.793  22.967  29.320  1.00  0.00    -0.206 F 
ATOM     73  C   UNL A   1      42.958  21.367  27.817  1.00  0.00     0.059 A 
ATOM     74  C   UNL A   1      42.707  21.936  25.469  1.00  0.00     0.059 A 
ATOM     75  F   UNL A   1      43.324  24.072  24.722  1.00  0.00    -0.206 F 
ATOM     76  C   UNL A   1      42.580  21.026  26.516  1.00  0.00     0.060 A 
BRANCH  76  77
ATOM     77  S   UNL A   1      41.857  19.397  26.223  1.00  0.00     0.124 S 
ATOM     78  O   UNL A   1      42.190  18.699  27.458  1.00  0.00    -0.237 OA
ATOM     79  O   UNL A   1      40.446  19.717  26.030  1.00  0.00    -0.237 OA
ATOM     80  O   UNL A   1      42.554  18.932  25.026  1.00  0.00    -0.744 OA
ENDBRANCH  76  77
ENDBRANCH  44  69
BRANCH  56  81
ATOM     81  C   UNL A   1      49.587  27.043  26.110  1.00  0.00     0.058 A 
ATOM     82  C   UNL A   1      50.571  26.475  26.932  1.00  0.00     0.135 A 
ATOM     83  C   UNL A   1      49.862  27.157  24.739  1.00  0.00     0.135 A 
ATOM     84  F   UNL A   1      50.361  26.352  28.253  1.00  0.00    -0.206 F 
ATOM     85  C   UNL A   1      51.788  26.044  26.417  1.00  0.00     0.059 A 
ATOM     86  C   UNL A   1      51.064  26.712  24.197  1.00  0.00     0.059 A 
ATOM     87  F   UNL A   1      48.951  27.687  23.908  1.00  0.00    -0.206 F 
ATOM     88  C   UNL A   1      52.024  26.162  25.045  1.00  0.00     0.060 A 
BRANCH  88  89
ATOM     89  S   UNL A   1      53.589  25.553  24.380  1.00  0.00     0.124 S 
ATOM     90  O   UNL A   1      53.441  25.853  22.960  1.00  0.00    -0.237 OA
ATOM     91  O   UNL A   1      54.569  26.361  25.100  1.00  0.00    -0.237 OA
ATOM     92  O   UNL A   1      53.577  24.136  24.728  1.00  0.00    -0.744 OA
ENDBRANCH  88  89
ENDBRANCH  56  81
ENDBRANCH  30  31
ENDBRANCH  23  25
ENDBRANCH  22  23
ENDBRANCH  21  22
ENDBRANCH   1  21
TORSDOF 20
ENDMDL
MODEL 3
REMARK VINA RESULT:     -10.0      6.878     12.464
REMARK SMILES COc1ccc(C(C)(C)C)cc1CC(=O)OCCOCCOC(=O)c1ccc(-c2c3nc(c(-c4c(F)cc(S(=O)(=O)[O-])cc4F)c4ccc([nH]4)c(-c4c(F)cc(S(=O)(=O)[O-])cc4F)c4nc(c(-c5c(F)cc(S(=O)(=O)[O-])cc5F)c5ccc2[nH]5)C=C4)C=C3)cc1
REMARK SMILES IDX 20 1 19 2 18 3 17 4 16 5 14 6 15 7 13 8 12 9 3 10 4 11 5 12
REMARK SMILES IDX 11 13 6 14 2 15 1 16 7 17 8 18 9 19 10 20 21 21 22 22 23 23
REMARK SMILES IDX 24 24 25 25 26 26 90 27 27 28 89 29 28 30 29 31 30 32 83 33
REMARK SMILES IDX 31 34 88 35 82 36 84 37 32 38 87 39 81 40 80 41 33 43 67 44
REMARK SMILES IDX 46 45 66 46 47 47 50 48 65 49 85 50 48 51 49 52 64 54 86 55
REMARK SMILES IDX 51 56 34 57 35 58 44 59 36 60 37 61 43 62 45 63 38 64 39 65
REMARK SMILES IDX 40 66 41 67 42 68 68 69 69 70 78 71 70 72 71 73 77 74 79 75
REMARK SMILES IDX 72 76 73 77 74 78 75 79 76 80 52 81 53 82 62 83 54 84 55 85
REMARK SMILES IDX 61 86 63 87 56 88 57 89 58 90 59 91 60 92
REMARK H PARENT 84 42 50 53
REMARK Flexibility Score: inf
ROOT
ATOM      1  C   UNL A   1      38.654  22.067  25.757  1.00  0.00     0.202 C 
ENDROOT
BRANCH   1   2
ATOM      2  O   UNL A   1      37.227  22.083  25.765  1.00  0.00    -0.374 OA
BRANCH   2   3
ATOM      3  C   UNL A   1      36.580  23.176  25.107  1.00  0.00     0.202 C 
BRANCH   3   4
ATOM      4  C   UNL A   1      35.391  23.811  25.840  1.00  0.00     0.261 C 
BRANCH   4   5
ATOM      5  O   UNL A   1      34.919  22.966  26.900  1.00  0.00    -0.463 OA
BRANCH   5   6
ATOM      6  C   UNL A   1      33.571  22.822  26.987  1.00  0.00     0.310 C 
ATOM      7  O   UNL A   1      32.958  22.560  28.018  1.00  0.00    -0.252 OA
BRANCH   6   8
ATOM      8  C   UNL A   1      32.846  23.214  25.720  1.00  0.00     0.162 C 
BRANCH   8   9
ATOM      9  C   UNL A   1      32.617  22.151  24.670  1.00  0.00     0.005 A 
ATOM     10  C   UNL A   1      31.979  22.429  23.457  1.00  0.00     0.122 A 
ATOM     11  C   UNL A   1      31.811  21.420  22.511  1.00  0.00     0.047 A 
ATOM     12  C   UNL A   1      32.279  20.127  22.761  1.00  0.00     0.008 A 
ATOM     13  C   UNL A   1      33.079  20.832  24.908  1.00  0.00     0.012 A 
ATOM     14  C   UNL A   1      32.907  19.792  23.975  1.00  0.00    -0.042 A 
BRANCH  10  15
ATOM     15  O   UNL A   1      31.382  23.627  23.182  1.00  0.00    -0.496 OA
ATOM     16  C   UNL A   1      32.225  24.558  22.510  1.00  0.00     0.278 C 
ENDBRANCH  10  15
BRANCH  14  17
ATOM     17  C   UNL A   1      33.344  18.337  24.240  1.00  0.00    -0.013 C 
ATOM     18  C   UNL A   1      34.855  18.306  24.569  1.00  0.00     0.016 C 
ATOM     19  C   UNL A   1      32.553  17.766  25.435  1.00  0.00     0.016 C 
ATOM     20  C   UNL A   1      33.111  17.361  23.063  1.00  0.00     0.016 C 
ENDBRANCH  14  17
ENDBRANCH   8   9
ENDBRANCH   6   8
ENDBRANCH   5   6
ENDBRANCH   4   5
ENDBRANCH   3   4
ENDBRANCH   2   3
ENDBRANCH   1   2
BRANCH   1  21
ATOM     21  C   UNL A   1      39.367  22.871  26.847  1.00  0.00     0.261 C 
BRANCH  21  22
ATOM     22  O   UNL A   1      39.386  24.280  26.592  1.00  0.00    -0.460 OA
BRANCH  22  23
ATOM     23  C   UNL A   1      40.617  24.835  26.620  1.00  0.00     0.338 C 
ATOM     24  O   UNL A   1      41.505  24.730  25.781  1.00  0.00    -0.246 OA
BRANCH  23  25
ATOM     25  C   UNL A   1      40.711  25.748  27.762  1.00  0.00     0.060 A 
ATOM     26  C   UNL A   1      39.635  25.788  28.655  1.00  0.00     0.016 A 
ATOM     27  C   UNL A   1      41.808  26.600  27.915  1.00  0.00     0.016 A 
ATOM     28  C   UNL A   1      39.637  26.710  29.697  1.00  0.00     0.010 A 
ATOM     29  C   UNL A   1      41.803  27.530  28.956  1.00  0.00     0.010 A 
ATOM     30  C   UNL A   1      40.708  27.604  29.835  1.00  0.00    -0.014 A 
BRANCH  30  31
ATOM     31  C   UNL A   1      40.640  28.674  30.854  1.00  0.00     0.031 A 
ATOM     32  C   UNL A   1      41.576  28.636  32.026  1.00  0.00     0.074 A 
ATOM     33  C   UNL A   1      39.753  29.675  30.716  1.00  0.00     0.049 A 
ATOM     34  N   UNL A   1      41.664  29.456  33.040  1.00  0.00    -0.248 NA
ATOM     35  C   UNL A   1      42.539  27.524  32.061  1.00  0.00     0.031 C 
ATOM     36  C   UNL A   1      38.812  29.815  29.604  1.00  0.00     0.029 A 
ATOM     37  N   UNL A   1      39.487  30.750  31.522  1.00  0.00    -0.354 N 
ATOM     38  C   UNL A   1      42.696  28.965  33.832  1.00  0.00     0.074 A 
ATOM     39  C   UNL A   1      43.178  27.756  33.198  1.00  0.00     0.031 C 
ATOM     40  C   UNL A   1      38.055  30.906  29.811  1.00  0.00     0.029 A 
ATOM     41  C   UNL A   1      38.438  31.520  31.081  1.00  0.00     0.049 A 
ATOM     42  H   UNL A   1      39.999  30.952  32.339  1.00  0.00     0.167 HD
ATOM     43  C   UNL A   1      43.198  29.483  34.978  1.00  0.00     0.037 A 
ATOM     44  C   UNL A   1      37.836  32.579  31.654  1.00  0.00     0.037 A 
ATOM     45  C   UNL A   1      42.692  30.675  35.609  1.00  0.00     0.049 A 
ATOM     46  C   UNL A   1      38.356  33.095  32.966  1.00  0.00     0.074 A 
ATOM     47  C   UNL A   1      43.143  31.303  36.756  1.00  0.00     0.029 A 
ATOM     48  N   UNL A   1      41.605  31.409  35.152  1.00  0.00    -0.354 N 
ATOM     49  N   UNL A   1      39.362  32.651  33.684  1.00  0.00    -0.248 NA
ATOM     50  C   UNL A   1      37.664  34.251  33.551  1.00  0.00     0.031 C 
ATOM     51  C   UNL A   1      42.297  32.387  37.021  1.00  0.00     0.029 A 
ATOM     52  C   UNL A   1      41.346  32.462  36.015  1.00  0.00     0.049 A 
ATOM     53  H   UNL A   1      41.094  31.211  34.335  1.00  0.00     0.167 HD
ATOM     54  C   UNL A   1      39.423  33.471  34.805  1.00  0.00     0.074 A 
ATOM     55  C   UNL A   1      38.366  34.454  34.658  1.00  0.00     0.031 C 
ATOM     56  C   UNL A   1      40.272  33.415  35.861  1.00  0.00     0.037 A 
BRANCH  43  57
ATOM     57  C   UNL A   1      44.331  28.741  35.630  1.00  0.00     0.058 A 
ATOM     58  C   UNL A   1      45.672  29.020  35.317  1.00  0.00     0.135 A 
ATOM     59  C   UNL A   1      44.077  27.732  36.571  1.00  0.00     0.135 A 
ATOM     60  F   UNL A   1      45.972  29.966  34.412  1.00  0.00    -0.206 F 
ATOM     61  C   UNL A   1      46.718  28.296  35.883  1.00  0.00     0.059 A 
ATOM     62  C   UNL A   1      45.108  27.012  37.169  1.00  0.00     0.059 A 
ATOM     63  F   UNL A   1      42.814  27.423  36.908  1.00  0.00    -0.206 F 
ATOM     64  C   UNL A   1      46.425  27.288  36.801  1.00  0.00     0.060 A 
BRANCH  64  65
ATOM     65  S   UNL A   1      47.787  26.332  37.501  1.00  0.00     0.124 S 
ATOM     66  O   UNL A   1      48.240  25.577  36.336  1.00  0.00    -0.237 OA
ATOM     67  O   UNL A   1      48.695  27.376  37.969  1.00  0.00    -0.237 OA
ATOM     68  O   UNL A   1      47.148  25.544  38.549  1.00  0.00    -0.744 OA
ENDBRANCH  64  65
ENDBRANCH  43  57
BRANCH  44  69
ATOM     69  C   UNL A   1      36.656  33.190  30.989  1.00  0.00     0.058 A 
ATOM     70  C   UNL A   1      35.363  33.025  31.502  1.00  0.00     0.135 A 
ATOM     71  C   UNL A   1      36.813  34.003  29.854  1.00  0.00     0.135 A 
ATOM     72  F   UNL A   1      35.162  32.249  32.577  1.00  0.00    -0.206 F 
ATOM     73  C   UNL A   1      34.265  33.654  30.922  1.00  0.00     0.059 A 
ATOM     74  C   UNL A   1      35.734  34.659  29.270  1.00  0.00     0.059 A 
ATOM     75  F   UNL A   1      38.033  34.199  29.331  1.00  0.00    -0.206 F 
ATOM     76  C   UNL A   1      34.463  34.478  29.812  1.00  0.00     0.060 A 
BRANCH  76  77
ATOM     77  S   UNL A   1      33.047  35.363  29.125  1.00  0.00     0.124 S 
ATOM     78  O   UNL A   1      32.591  34.437  28.095  1.00  0.00    -0.237 OA
ATOM     79  O   UNL A   1      32.177  35.502  30.289  1.00  0.00    -0.237 OA
ATOM     80  O   UNL A   1      33.634  36.609  28.640  1.00  0.00    -0.744 OA
ENDBRANCH  76  77
ENDBRANCH  44  69
BRANCH  56  81
ATOM     81  C   UNL A   1      40.085  34.433  36.950  1.00  0.00     0.058 A 
ATOM     82  C   UNL A   1      40.719  35.683  36.894  1.00  0.00     0.135 A 
ATOM     83  C   UNL A   1      39.216  34.185  38.023  1.00  0.00     0.135 A 
ATOM     84  F   UNL A   1      41.567  35.967  35.892  1.00  0.00    -0.206 F 
ATOM     85  C   UNL A   1      40.507  36.650  37.871  1.00  0.00     0.059 A 
ATOM     86  C   UNL A   1      38.970  35.146  39.000  1.00  0.00     0.059 A 
ATOM     87  F   UNL A   1      38.578  33.008  38.120  1.00  0.00    -0.206 F 
ATOM     88  C   UNL A   1      39.626  36.373  38.919  1.00  0.00     0.060 A 
BRANCH  88  89
ATOM     89  S   UNL A   1      39.322  37.654  40.154  1.00  0.00     0.124 S 
ATOM     90  O   UNL A   1      38.225  38.397  39.543  1.00  0.00    -0.237 OA
ATOM     91  O   UNL A   1      38.975  36.872  41.337  1.00  0.00    -0.237 OA
ATOM     92  O   UNL A   1      40.596  38.362  40.230  1.00  0.00    -0.744 OA
ENDBRANCH  88  89
ENDBRANCH  56  81
ENDBRANCH  30  31
ENDBRANCH  23  25
ENDBRANCH  22  23
ENDBRANCH  21  22
ENDBRANCH   1  21
TORSDOF 20
ENDMDL
