MODEL 1
REMARK VINA RESULT:     -10.5      0.000      0.000
REMARK SMILES O=C(OCCOCCOC(=O)[C@H]1C=NC2=C(CCCC2)C1=O)c1ccc(-c2c3nc(c(-c4c(F)cc(S(=O)(=O)[O-])cc4F)c4ccc([nH]4)c(-c4c(F)cc(S(=O)(=O)[O-])cc4F)c4nc(c(-c5c(F)cc(S(=O)(=O)[O-])cc5F)c5ccc2[nH]5)C=C4)C=C3)cc1
REMARK SMILES IDX 4 1 3 2 2 3 1 4 23 5 24 6 88 7 25 8 87 9 26 10 27 11 28 12
REMARK SMILES IDX 81 13 29 14 86 15 80 16 82 17 30 18 85 19 79 20 78 21 31 23
REMARK SMILES IDX 65 24 44 25 64 26 45 27 48 28 63 29 83 30 46 31 47 32 62 34
REMARK SMILES IDX 84 35 49 36 32 37 33 38 42 39 34 40 35 41 41 42 43 43 36 44
REMARK SMILES IDX 37 45 38 46 39 47 40 48 66 49 67 50 76 51 68 52 69 53 75 54
REMARK SMILES IDX 77 55 70 56 71 57 72 58 73 59 74 60 50 61 51 62 60 63 52 64
REMARK SMILES IDX 53 65 59 66 61 67 54 68 55 69 56 70 57 71 58 72 5 73 6 74
REMARK SMILES IDX 7 75 8 76 9 77 10 78 11 79 12 80 13 81 21 82 14 83 16 84
REMARK SMILES IDX 22 85 15 86 17 87 20 88 18 89 19 90
REMARK H PARENT 82 22 48 33
REMARK Flexibility Score: inf
ROOT
ATOM      1  C   UNL A   1      39.953  20.462  25.933  1.00  0.00     0.261 C 
ENDROOT
BRANCH   1   2
ATOM      2  O   UNL A   1      39.601  21.578  26.768  1.00  0.00    -0.460 OA
BRANCH   2   3
ATOM      3  C   UNL A   1      38.989  22.727  26.393  1.00  0.00     0.338 C 
ATOM      4  O   UNL A   1      38.022  22.666  25.638  1.00  0.00    -0.246 OA
BRANCH   3   5
ATOM      5  C   UNL A   1      39.456  24.070  26.844  1.00  0.00     0.060 A 
ATOM      6  C   UNL A   1      40.035  25.030  26.008  1.00  0.00     0.016 A 
ATOM      7  C   UNL A   1      39.219  24.412  28.183  1.00  0.00     0.016 A 
ATOM      8  C   UNL A   1      40.473  26.247  26.491  1.00  0.00     0.010 A 
ATOM      9  C   UNL A   1      39.615  25.657  28.674  1.00  0.00     0.010 A 
ATOM     10  C   UNL A   1      40.272  26.558  27.828  1.00  0.00    -0.014 A 
BRANCH  10  11
ATOM     11  C   UNL A   1      40.889  27.783  28.345  1.00  0.00     0.031 A 
ATOM     12  C   UNL A   1      42.379  27.881  28.302  1.00  0.00     0.074 A 
ATOM     13  C   UNL A   1      40.108  28.802  28.739  1.00  0.00     0.049 A 
ATOM     14  N   UNL A   1      43.160  28.785  28.816  1.00  0.00    -0.248 NA
ATOM     15  C   UNL A   1      43.082  26.812  27.570  1.00  0.00     0.031 C 
ATOM     16  C   UNL A   1      38.644  28.821  28.661  1.00  0.00     0.029 A 
ATOM     17  N   UNL A   1      40.432  30.018  29.271  1.00  0.00    -0.354 N 
ATOM     18  C   UNL A   1      44.451  28.371  28.517  1.00  0.00     0.074 A 
ATOM     19  C   UNL A   1      44.349  27.143  27.761  1.00  0.00     0.031 C 
ATOM     20  C   UNL A   1      38.197  29.992  29.142  1.00  0.00     0.029 A 
ATOM     21  C   UNL A   1      39.335  30.764  29.626  1.00  0.00     0.049 A 
ATOM     22  H   UNL A   1      41.360  30.328  29.387  1.00  0.00     0.167 HD
ATOM     23  C   UNL A   1      45.613  28.965  28.873  1.00  0.00     0.037 A 
ATOM     24  C   UNL A   1      39.271  31.915  30.320  1.00  0.00     0.037 A 
ATOM     25  C   UNL A   1      45.652  30.182  29.637  1.00  0.00     0.049 A 
ATOM     26  C   UNL A   1      40.569  32.523  30.777  1.00  0.00     0.074 A 
ATOM     27  C   UNL A   1      46.746  30.858  30.137  1.00  0.00     0.029 A 
ATOM     28  N   UNL A   1      44.523  30.904  30.010  1.00  0.00    -0.354 N 
ATOM     29  N   UNL A   1      41.793  32.086  30.578  1.00  0.00    -0.248 NA
ATOM     30  C   UNL A   1      40.489  33.760  31.558  1.00  0.00     0.031 C 
ATOM     31  C   UNL A   1      46.275  31.969  30.846  1.00  0.00     0.029 A 
ATOM     32  C   UNL A   1      44.890  32.014  30.744  1.00  0.00     0.049 A 
ATOM     33  H   UNL A   1      43.596  30.659  29.783  1.00  0.00     0.167 HD
ATOM     34  C   UNL A   1      42.633  33.002  31.193  1.00  0.00     0.074 A 
ATOM     35  C   UNL A   1      41.773  34.022  31.770  1.00  0.00     0.031 C 
ATOM     36  C   UNL A   1      43.987  33.008  31.278  1.00  0.00     0.037 A 
BRANCH  23  37
ATOM     37  C   UNL A   1      46.880  28.238  28.526  1.00  0.00     0.058 A 
ATOM     38  C   UNL A   1      47.572  28.470  27.326  1.00  0.00     0.135 A 
ATOM     39  C   UNL A   1      47.360  27.225  29.371  1.00  0.00     0.135 A 
ATOM     40  F   UNL A   1      47.139  29.403  26.465  1.00  0.00    -0.206 F 
ATOM     41  C   UNL A   1      48.663  27.687  26.953  1.00  0.00     0.059 A 
ATOM     42  C   UNL A   1      48.463  26.448  29.031  1.00  0.00     0.059 A 
ATOM     43  F   UNL A   1      46.729  26.952  30.525  1.00  0.00    -0.206 F 
ATOM     44  C   UNL A   1      49.090  26.668  27.807  1.00  0.00     0.060 A 
BRANCH  44  45
ATOM     45  S   UNL A   1      50.456  25.610  27.281  1.00  0.00     0.124 S 
ATOM     46  O   UNL A   1      49.964  24.290  27.667  1.00  0.00    -0.237 OA
ATOM     47  O   UNL A   1      50.520  25.866  25.846  1.00  0.00    -0.237 OA
ATOM     48  O   UNL A   1      51.589  26.109  28.055  1.00  0.00    -0.744 OA
ENDBRANCH  44  45
ENDBRANCH  23  37
BRANCH  24  49
ATOM     49  C   UNL A   1      37.947  32.499  30.655  1.00  0.00     0.058 A 
ATOM     50  C   UNL A   1      37.337  32.265  31.894  1.00  0.00     0.135 A 
ATOM     51  C   UNL A   1      37.297  33.372  29.765  1.00  0.00     0.135 A 
ATOM     52  F   UNL A   1      37.911  31.435  32.778  1.00  0.00    -0.206 F 
ATOM     53  C   UNL A   1      36.137  32.882  32.245  1.00  0.00     0.059 A 
ATOM     54  C   UNL A   1      36.112  34.018  30.101  1.00  0.00     0.059 A 
ATOM     55  F   UNL A   1      37.844  33.644  28.569  1.00  0.00    -0.206 F 
ATOM     56  C   UNL A   1      35.538  33.765  31.345  1.00  0.00     0.060 A 
BRANCH  56  57
ATOM     57  S   UNL A   1      34.029  34.626  31.843  1.00  0.00     0.124 S 
ATOM     58  O   UNL A   1      33.460  33.689  32.806  1.00  0.00    -0.237 OA
ATOM     59  O   UNL A   1      34.553  35.871  32.396  1.00  0.00    -0.237 OA
ATOM     60  O   UNL A   1      33.293  34.766  30.590  1.00  0.00    -0.744 OA
ENDBRANCH  56  57
ENDBRANCH  24  49
BRANCH  36  61
ATOM     61  C   UNL A   1      44.621  34.171  31.977  1.00  0.00     0.058 A 
ATOM     62  C   UNL A   1      44.939  34.123  33.341  1.00  0.00     0.135 A 
ATOM     63  C   UNL A   1      45.022  35.295  31.238  1.00  0.00     0.135 A 
ATOM     64  F   UNL A   1      44.568  33.069  34.085  1.00  0.00    -0.206 F 
ATOM     65  C   UNL A   1      45.641  35.153  33.952  1.00  0.00     0.059 A 
ATOM     66  C   UNL A   1      45.743  36.327  31.824  1.00  0.00     0.059 A 
ATOM     67  F   UNL A   1      44.744  35.376  29.927  1.00  0.00    -0.206 F 
ATOM     68  C   UNL A   1      46.048  36.245  33.182  1.00  0.00     0.060 A 
BRANCH  68  69
ATOM     69  S   UNL A   1      47.039  37.534  33.966  1.00  0.00     0.124 S 
ATOM     70  O   UNL A   1      46.025  38.269  34.713  1.00  0.00    -0.237 OA
ATOM     71  O   UNL A   1      47.982  36.760  34.767  1.00  0.00    -0.237 OA
ATOM     72  O   UNL A   1      47.625  38.246  32.834  1.00  0.00    -0.744 OA
ENDBRANCH  68  69
ENDBRANCH  36  61
ENDBRANCH  10  11
ENDBRANCH   3   5
ENDBRANCH   2   3
ENDBRANCH   1   2
BRANCH   1  73
ATOM     73  C   UNL A   1      41.337  19.916  26.308  1.00  0.00     0.202 C 
BRANCH  73  74
ATOM     74  O   UNL A   1      42.140  19.345  25.267  1.00  0.00    -0.374 OA
BRANCH  74  75
ATOM     75  C   UNL A   1      43.356  18.694  25.661  1.00  0.00     0.202 C 
BRANCH  75  76
ATOM     76  C   UNL A   1      44.449  18.952  24.621  1.00  0.00     0.261 C 
BRANCH  76  77
ATOM     77  O   UNL A   1      44.386  20.347  24.294  1.00  0.00    -0.462 OA
BRANCH  77  78
ATOM     78  C   UNL A   1      45.388  21.066  24.878  1.00  0.00     0.322 C 
ATOM     79  O   UNL A   1      46.399  20.589  25.361  1.00  0.00    -0.251 OA
BRANCH  78  80
ATOM     80  C   UNL A   1      45.063  22.525  24.776  1.00  0.00     0.212 C 
ATOM     81  C   UNL A   1      43.596  22.752  24.714  1.00  0.00     0.107 C 
ATOM     82  C   UNL A   1      45.670  23.286  25.907  1.00  0.00     0.180 C 
ATOM     83  N   UNL A   1      42.874  23.095  25.732  1.00  0.00    -0.264 NA
ATOM     84  C   UNL A   1      44.839  23.381  27.123  1.00  0.00     0.018 C 
ATOM     85  O   UNL A   1      46.798  23.771  25.861  1.00  0.00    -0.293 OA
ATOM     86  C   UNL A   1      43.511  23.244  26.944  1.00  0.00     0.047 C 
ATOM     87  C   UNL A   1      45.531  23.562  28.435  1.00  0.00     0.041 C 
ATOM     88  C   UNL A   1      42.583  23.232  28.134  1.00  0.00     0.056 C 
ATOM     89  C   UNL A   1      44.553  23.884  29.563  1.00  0.00     0.005 C 
ATOM     90  C   UNL A   1      43.302  23.016  29.466  1.00  0.00     0.007 C 
ENDBRANCH  78  80
ENDBRANCH  77  78
ENDBRANCH  76  77
ENDBRANCH  75  76
ENDBRANCH  74  75
ENDBRANCH  73  74
ENDBRANCH   1  73
TORSDOF 17
ENDMDL
MODEL 2
REMARK VINA RESULT:     -10.4      3.575     11.892
REMARK SMILES O=C(OCCOCCOC(=O)[C@H]1C=NC2=C(CCCC2)C1=O)c1ccc(-c2c3nc(c(-c4c(F)cc(S(=O)(=O)[O-])cc4F)c4ccc([nH]4)c(-c4c(F)cc(S(=O)(=O)[O-])cc4F)c4nc(c(-c5c(F)cc(S(=O)(=O)[O-])cc5F)c5ccc2[nH]5)C=C4)C=C3)cc1
REMARK SMILES IDX 4 1 3 2 2 3 1 4 23 5 24 6 88 7 25 8 87 9 26 10 27 11 28 12
REMARK SMILES IDX 81 13 29 14 86 15 80 16 82 17 30 18 85 19 79 20 78 21 31 23
REMARK SMILES IDX 65 24 44 25 64 26 45 27 48 28 63 29 83 30 46 31 47 32 62 34
REMARK SMILES IDX 84 35 49 36 32 37 33 38 42 39 34 40 35 41 41 42 43 43 36 44
REMARK SMILES IDX 37 45 38 46 39 47 40 48 66 49 67 50 76 51 68 52 69 53 75 54
REMARK SMILES IDX 77 55 70 56 71 57 72 58 73 59 74 60 50 61 51 62 60 63 52 64
REMARK SMILES IDX 53 65 59 66 61 67 54 68 55 69 56 70 57 71 58 72 5 73 6 74
REMARK SMILES IDX 7 75 8 76 9 77 10 78 11 79 12 80 13 81 21 82 14 83 16 84
REMARK SMILES IDX 22 85 15 86 17 87 20 88 18 89 19 90
REMARK H PARENT 82 22 48 33
REMARK Flexibility Score: inf
ROOT
ATOM      1  C   UNL A   1      33.258  32.703  27.981  1.00  0.00     0.261 C 
ENDROOT
BRANCH   1   2
ATOM      2  O   UNL A   1      34.403  32.016  27.449  1.00  0.00    -0.460 OA
BRANCH   2   3
ATOM      3  C   UNL A   1      34.680  30.692  27.526  1.00  0.00     0.338 C 
ATOM      4  O   UNL A   1      33.848  29.886  27.116  1.00  0.00    -0.246 OA
BRANCH   3   5
ATOM      5  C   UNL A   1      35.950  30.170  28.109  1.00  0.00     0.060 A 
ATOM      6  C   UNL A   1      36.050  29.539  29.353  1.00  0.00     0.016 A 
ATOM      7  C   UNL A   1      37.100  30.251  27.311  1.00  0.00     0.016 A 
ATOM      8  C   UNL A   1      37.261  29.101  29.851  1.00  0.00     0.010 A 
ATOM      9  C   UNL A   1      38.321  29.769  27.783  1.00  0.00     0.010 A 
ATOM     10  C   UNL A   1      38.401  29.224  29.070  1.00  0.00    -0.014 A 
BRANCH  10  11
ATOM     11  C   UNL A   1      39.691  28.900  29.687  1.00  0.00     0.031 A 
ATOM     12  C   UNL A   1      40.106  29.692  30.883  1.00  0.00     0.074 A 
ATOM     13  C   UNL A   1      40.398  27.855  29.230  1.00  0.00     0.049 A 
ATOM     14  N   UNL A   1      41.243  29.694  31.516  1.00  0.00    -0.248 NA
ATOM     15  C   UNL A   1      39.093  30.603  31.447  1.00  0.00     0.031 C 
ATOM     16  C   UNL A   1      39.969  26.949  28.160  1.00  0.00     0.029 A 
ATOM     17  N   UNL A   1      41.617  27.370  29.612  1.00  0.00    -0.354 N 
ATOM     18  C   UNL A   1      41.104  30.641  32.521  1.00  0.00     0.074 A 
ATOM     19  C   UNL A   1      39.767  31.183  32.427  1.00  0.00     0.031 C 
ATOM     20  C   UNL A   1      40.920  26.024  27.964  1.00  0.00     0.029 A 
ATOM     21  C   UNL A   1      42.048  26.319  28.840  1.00  0.00     0.049 A 
ATOM     22  H   UNL A   1      42.134  27.737  30.365  1.00  0.00     0.167 HD
ATOM     23  C   UNL A   1      42.034  31.032  33.422  1.00  0.00     0.037 A 
ATOM     24  C   UNL A   1      43.249  25.713  28.814  1.00  0.00     0.037 A 
ATOM     25  C   UNL A   1      43.354  30.465  33.461  1.00  0.00     0.049 A 
ATOM     26  C   UNL A   1      44.298  26.210  29.769  1.00  0.00     0.074 A 
ATOM     27  C   UNL A   1      44.425  30.809  34.260  1.00  0.00     0.029 A 
ATOM     28  N   UNL A   1      43.776  29.419  32.645  1.00  0.00    -0.354 N 
ATOM     29  N   UNL A   1      44.205  27.171  30.661  1.00  0.00    -0.248 NA
ATOM     30  C   UNL A   1      45.613  25.565  29.714  1.00  0.00     0.031 C 
ATOM     31  C   UNL A   1      45.507  29.997  33.901  1.00  0.00     0.029 A 
ATOM     32  C   UNL A   1      45.095  29.110  32.914  1.00  0.00     0.049 A 
ATOM     33  H   UNL A   1      43.216  28.964  31.975  1.00  0.00     0.167 HD
ATOM     34  C   UNL A   1      45.441  27.237  31.288  1.00  0.00     0.074 A 
ATOM     35  C   UNL A   1      46.266  26.212  30.671  1.00  0.00     0.031 C 
ATOM     36  C   UNL A   1      45.861  28.062  32.279  1.00  0.00     0.037 A 
BRANCH  23  37
ATOM     37  C   UNL A   1      41.665  32.172  34.327  1.00  0.00     0.058 A 
ATOM     38  C   UNL A   1      41.090  31.969  35.592  1.00  0.00     0.135 A 
ATOM     39  C   UNL A   1      41.807  33.495  33.879  1.00  0.00     0.135 A 
ATOM     40  F   UNL A   1      40.900  30.725  36.056  1.00  0.00    -0.206 F 
ATOM     41  C   UNL A   1      40.621  33.035  36.357  1.00  0.00     0.059 A 
ATOM     42  C   UNL A   1      41.369  34.577  34.637  1.00  0.00     0.059 A 
ATOM     43  F   UNL A   1      42.339  33.747  32.672  1.00  0.00    -0.206 F 
ATOM     44  C   UNL A   1      40.751  34.334  35.862  1.00  0.00     0.060 A 
BRANCH  44  45
ATOM     45  S   UNL A   1      40.073  35.703  36.826  1.00  0.00     0.124 S 
ATOM     46  O   UNL A   1      41.232  36.099  37.621  1.00  0.00    -0.237 OA
ATOM     47  O   UNL A   1      39.666  36.647  35.789  1.00  0.00    -0.237 OA
ATOM     48  O   UNL A   1      38.981  35.086  37.571  1.00  0.00    -0.744 OA
ENDBRANCH  44  45
ENDBRANCH  23  37
BRANCH  24  49
ATOM     49  C   UNL A   1      43.508  24.637  27.822  1.00  0.00     0.058 A 
ATOM     50  C   UNL A   1      44.150  24.902  26.606  1.00  0.00     0.135 A 
ATOM     51  C   UNL A   1      43.185  23.298  28.109  1.00  0.00     0.135 A 
ATOM     52  F   UNL A   1      44.474  26.163  26.280  1.00  0.00    -0.206 F 
ATOM     53  C   UNL A   1      44.473  23.882  25.713  1.00  0.00     0.059 A 
ATOM     54  C   UNL A   1      43.519  22.260  27.245  1.00  0.00     0.059 A 
ATOM     55  F   UNL A   1      42.583  22.985  29.267  1.00  0.00    -0.206 F 
ATOM     56  C   UNL A   1      44.163  22.562  26.047  1.00  0.00     0.060 A 
BRANCH  56  57
ATOM     57  S   UNL A   1      44.662  21.238  24.923  1.00  0.00     0.124 S 
ATOM     58  O   UNL A   1      44.609  21.913  23.632  1.00  0.00    -0.237 OA
ATOM     59  O   UNL A   1      45.995  20.904  25.415  1.00  0.00    -0.237 OA
ATOM     60  O   UNL A   1      43.647  20.212  25.141  1.00  0.00    -0.744 OA
ENDBRANCH  56  57
ENDBRANCH  24  49
BRANCH  36  61
ATOM     61  C   UNL A   1      47.255  27.861  32.788  1.00  0.00     0.058 A 
ATOM     62  C   UNL A   1      47.540  26.933  33.799  1.00  0.00     0.135 A 
ATOM     63  C   UNL A   1      48.327  28.521  32.167  1.00  0.00     0.135 A 
ATOM     64  F   UNL A   1      46.544  26.285  34.424  1.00  0.00    -0.206 F 
ATOM     65  C   UNL A   1      48.848  26.660  34.176  1.00  0.00     0.059 A 
ATOM     66  C   UNL A   1      49.644  28.249  32.513  1.00  0.00     0.059 A 
ATOM     67  F   UNL A   1      48.097  29.411  31.188  1.00  0.00    -0.206 F 
ATOM     68  C   UNL A   1      49.893  27.315  33.519  1.00  0.00     0.060 A 
BRANCH  68  69
ATOM     69  S   UNL A   1      51.592  26.886  33.954  1.00  0.00     0.124 S 
ATOM     70  O   UNL A   1      52.348  27.878  33.200  1.00  0.00    -0.237 OA
ATOM     71  O   UNL A   1      51.594  27.052  35.404  1.00  0.00    -0.237 OA
ATOM     72  O   UNL A   1      51.722  25.508  33.487  1.00  0.00    -0.744 OA
ENDBRANCH  68  69
ENDBRANCH  36  61
ENDBRANCH  10  11
ENDBRANCH   3   5
ENDBRANCH   2   3
ENDBRANCH   1   2
BRANCH   1  73
ATOM     73  C   UNL A   1      33.664  34.051  28.589  1.00  0.00     0.202 C 
BRANCH  73  74
ATOM     74  O   UNL A   1      32.748  34.688  29.488  1.00  0.00    -0.374 OA
BRANCH  74  75
ATOM     75  C   UNL A   1      33.079  36.011  29.931  1.00  0.00     0.202 C 
BRANCH  75  76
ATOM     76  C   UNL A   1      32.699  36.181  31.403  1.00  0.00     0.261 C 
BRANCH  76  77
ATOM     77  O   UNL A   1      33.225  35.042  32.099  1.00  0.00    -0.462 OA
BRANCH  77  78
ATOM     78  C   UNL A   1      34.383  35.326  32.764  1.00  0.00     0.322 C 
ATOM     79  O   UNL A   1      34.766  36.445  33.052  1.00  0.00    -0.251 OA
BRANCH  78  80
ATOM     80  C   UNL A   1      35.066  34.041  33.121  1.00  0.00     0.212 C 
ATOM     81  C   UNL A   1      34.710  32.955  32.171  1.00  0.00     0.107 C 
ATOM     82  C   UNL A   1      36.545  34.224  33.187  1.00  0.00     0.180 C 
ATOM     83  N   UNL A   1      35.459  32.587  31.182  1.00  0.00    -0.264 NA
ATOM     84  C   UNL A   1      37.264  34.031  31.913  1.00  0.00     0.018 C 
ATOM     85  O   UNL A   1      37.134  34.554  34.213  1.00  0.00    -0.293 OA
ATOM     86  C   UNL A   1      36.649  33.256  30.998  1.00  0.00     0.047 C 
ATOM     87  C   UNL A   1      38.564  34.743  31.724  1.00  0.00     0.041 C 
ATOM     88  C   UNL A   1      37.256  33.071  29.630  1.00  0.00     0.056 C 
ATOM     89  C   UNL A   1      39.306  34.267  30.477  1.00  0.00     0.005 C 
ATOM     90  C   UNL A   1      38.346  34.093  29.303  1.00  0.00     0.007 C 
ENDBRANCH  78  80
ENDBRANCH  77  78
ENDBRANCH  76  77
ENDBRANCH  75  76
ENDBRANCH  74  75
ENDBRANCH  73  74
ENDBRANCH   1  73
TORSDOF 17
ENDMDL
MODEL 3
REMARK VINA RESULT:      -9.7      2.573     11.695
REMARK SMILES O=C(OCCOCCOC(=O)[C@H]1C=NC2=C(CCCC2)C1=O)c1ccc(-c2c3nc(c(-c4c(F)cc(S(=O)(=O)[O-])cc4F)c4ccc([nH]4)c(-c4c(F)cc(S(=O)(=O)[O-])cc4F)c4nc(c(-c5c(F)cc(S(=O)(=O)[O-])cc5F)c5ccc2[nH]5)C=C4)C=C3)cc1
REMARK SMILES IDX 4 1 3 2 2 3 1 4 23 5 24 6 88 7 25 8 87 9 26 10 27 11 28 12
REMARK SMILES IDX 81 13 29 14 86 15 80 16 82 17 30 18 85 19 79 20 78 21 31 23
REMARK SMILES IDX 65 24 44 25 64 26 45 27 48 28 63 29 83 30 46 31 47 32 62 34
REMARK SMILES IDX 84 35 49 36 32 37 33 38 42 39 34 40 35 41 41 42 43 43 36 44
REMARK SMILES IDX 37 45 38 46 39 47 40 48 66 49 67 50 76 51 68 52 69 53 75 54
REMARK SMILES IDX 77 55 70 56 71 57 72 58 73 59 74 60 50 61 51 62 60 63 52 64
REMARK SMILES IDX 53 65 59 66 61 67 54 68 55 69 56 70 57 71 58 72 5 73 6 74
REMARK SMILES IDX 7 75 8 76 9 77 10 78 11 79 12 80 13 81 21 82 14 83 16 84
REMARK SMILES IDX 22 85 15 86 17 87 20 88 18 89 19 90
REMARK H PARENT 82 22 48 33
REMARK Flexibility Score: inf
ROOT
ATOM      1  C   UNL A   1      34.750  32.993  28.970  1.00  0.00     0.261 C 
ENDROOT
BRANCH   1   2
ATOM      2  O   UNL A   1      34.045  31.986  28.225  1.00  0.00    -0.460 OA
BRANCH   2   3
ATOM      3  C   UNL A   1      34.382  30.682  28.078  1.00  0.00     0.338 C 
ATOM      4  O   UNL A   1      33.509  29.875  27.766  1.00  0.00    -0.246 OA
BRANCH   3   5
ATOM      5  C   UNL A   1      35.769  30.181  28.300  1.00  0.00     0.060 A 
ATOM      6  C   UNL A   1      36.243  29.673  29.514  1.00  0.00     0.016 A 
ATOM      7  C   UNL A   1      36.622  30.147  27.188  1.00  0.00     0.016 A 
ATOM      8  C   UNL A   1      37.548  29.249  29.666  1.00  0.00     0.010 A 
ATOM      9  C   UNL A   1      37.929  29.677  27.317  1.00  0.00     0.010 A 
ATOM     10  C   UNL A   1      38.396  29.259  28.568  1.00  0.00    -0.014 A 
BRANCH  10  11
ATOM     11  C   UNL A   1      39.813  28.957  28.796  1.00  0.00     0.031 A 
ATOM     12  C   UNL A   1      40.664  30.032  29.389  1.00  0.00     0.074 A 
ATOM     13  C   UNL A   1      40.270  27.717  28.566  1.00  0.00     0.049 A 
ATOM     14  N   UNL A   1      41.954  30.063  29.557  1.00  0.00    -0.248 NA
ATOM     15  C   UNL A   1      39.959  31.236  29.864  1.00  0.00     0.031 C 
ATOM     16  C   UNL A   1      39.449  26.583  28.131  1.00  0.00     0.029 A 
ATOM     17  N   UNL A   1      41.529  27.198  28.676  1.00  0.00    -0.354 N 
ATOM     18  C   UNL A   1      42.225  31.307  30.110  1.00  0.00     0.074 A 
ATOM     19  C   UNL A   1      40.964  31.997  30.265  1.00  0.00     0.031 C 
ATOM     20  C   UNL A   1      40.234  25.502  27.999  1.00  0.00     0.029 A 
ATOM     21  C   UNL A   1      41.613  25.889  28.267  1.00  0.00     0.049 A 
ATOM     22  H   UNL A   1      42.298  27.710  29.015  1.00  0.00     0.167 HD
ATOM     23  C   UNL A   1      43.433  31.824  30.429  1.00  0.00     0.037 A 
ATOM     24  C   UNL A   1      42.701  25.120  28.078  1.00  0.00     0.037 A 
ATOM     25  C   UNL A   1      44.656  31.093  30.242  1.00  0.00     0.049 A 
ATOM     26  C   UNL A   1      44.043  25.734  28.365  1.00  0.00     0.074 A 
ATOM     27  C   UNL A   1      45.956  31.509  30.445  1.00  0.00     0.029 A 
ATOM     28  N   UNL A   1      44.716  29.776  29.797  1.00  0.00    -0.354 N 
ATOM     29  N   UNL A   1      44.315  26.945  28.799  1.00  0.00    -0.248 NA
ATOM     30  C   UNL A   1      45.225  24.900  28.127  1.00  0.00     0.031 C 
ATOM     31  C   UNL A   1      46.804  30.455  30.086  1.00  0.00     0.029 A 
ATOM     32  C   UNL A   1      46.031  29.364  29.709  1.00  0.00     0.049 A 
ATOM     33  H   UNL A   1      43.934  29.218  29.578  1.00  0.00     0.167 HD
ATOM     34  C   UNL A   1      45.696  27.016  28.905  1.00  0.00     0.074 A 
ATOM     35  C   UNL A   1      46.204  25.720  28.490  1.00  0.00     0.031 C 
ATOM     36  C   UNL A   1      46.477  28.050  29.306  1.00  0.00     0.037 A 
BRANCH  23  37
ATOM     37  C   UNL A   1      43.458  33.250  30.898  1.00  0.00     0.058 A 
ATOM     38  C   UNL A   1      43.609  34.329  30.011  1.00  0.00     0.135 A 
ATOM     39  C   UNL A   1      43.421  33.536  32.272  1.00  0.00     0.135 A 
ATOM     40  F   UNL A   1      43.684  34.111  28.689  1.00  0.00    -0.206 F 
ATOM     41  C   UNL A   1      43.775  35.633  30.472  1.00  0.00     0.059 A 
ATOM     42  C   UNL A   1      43.560  34.834  32.755  1.00  0.00     0.059 A 
ATOM     43  F   UNL A   1      43.291  32.542  33.166  1.00  0.00    -0.206 F 
ATOM     44  C   UNL A   1      43.765  35.871  31.848  1.00  0.00     0.060 A 
BRANCH  44  45
ATOM     45  S   UNL A   1      44.057  37.553  32.441  1.00  0.00     0.124 S 
ATOM     46  O   UNL A   1      42.987  37.702  33.424  1.00  0.00    -0.237 OA
ATOM     47  O   UNL A   1      45.409  37.465  32.985  1.00  0.00    -0.237 OA
ATOM     48  O   UNL A   1      43.921  38.365  31.236  1.00  0.00    -0.744 OA
ENDBRANCH  44  45
ENDBRANCH  23  37
BRANCH  24  49
ATOM     49  C   UNL A   1      42.543  23.741  27.547  1.00  0.00     0.058 A 
ATOM     50  C   UNL A   1      42.576  23.480  26.171  1.00  0.00     0.135 A 
ATOM     51  C   UNL A   1      42.434  22.641  28.415  1.00  0.00     0.135 A 
ATOM     52  F   UNL A   1      42.672  24.494  25.298  1.00  0.00    -0.206 F 
ATOM     53  C   UNL A   1      42.516  22.179  25.674  1.00  0.00     0.059 A 
ATOM     54  C   UNL A   1      42.399  21.332  27.944  1.00  0.00     0.059 A 
ATOM     55  F   UNL A   1      42.414  22.832  29.744  1.00  0.00    -0.206 F 
ATOM     56  C   UNL A   1      42.439  21.111  26.569  1.00  0.00     0.060 A 
BRANCH  56  57
ATOM     57  S   UNL A   1      42.449  19.425  25.919  1.00  0.00     0.124 S 
ATOM     58  O   UNL A   1      41.049  19.243  25.553  1.00  0.00    -0.237 OA
ATOM     59  O   UNL A   1      43.391  19.530  24.809  1.00  0.00    -0.237 OA
ATOM     60  O   UNL A   1      42.914  18.631  27.052  1.00  0.00    -0.744 OA
ENDBRANCH  56  57
ENDBRANCH  24  49
BRANCH  36  61
ATOM     61  C   UNL A   1      47.954  27.807  29.360  1.00  0.00     0.058 A 
ATOM     62  C   UNL A   1      48.558  27.200  30.469  1.00  0.00     0.135 A 
ATOM     63  C   UNL A   1      48.747  28.079  28.234  1.00  0.00     0.135 A 
ATOM     64  F   UNL A   1      47.837  26.930  31.569  1.00  0.00    -0.206 F 
ATOM     65  C   UNL A   1      49.905  26.862  30.459  1.00  0.00     0.059 A 
ATOM     66  C   UNL A   1      50.091  27.731  28.194  1.00  0.00     0.059 A 
ATOM     67  F   UNL A   1      48.205  28.652  27.148  1.00  0.00    -0.206 F 
ATOM     68  C   UNL A   1      50.660  27.122  29.312  1.00  0.00     0.060 A 
BRANCH  68  69
ATOM     69  S   UNL A   1      52.386  26.597  29.277  1.00  0.00     0.124 S 
ATOM     70  O   UNL A   1      53.082  27.878  29.237  1.00  0.00    -0.237 OA
ATOM     71  O   UNL A   1      52.509  25.845  30.522  1.00  0.00    -0.237 OA
ATOM     72  O   UNL A   1      52.471  25.797  28.059  1.00  0.00    -0.744 OA
ENDBRANCH  68  69
ENDBRANCH  36  61
ENDBRANCH  10  11
ENDBRANCH   3   5
ENDBRANCH   2   3
ENDBRANCH   1   2
BRANCH   1  73
ATOM     73  C   UNL A   1      34.023  34.341  28.888  1.00  0.00     0.202 C 
BRANCH  73  74
ATOM     74  O   UNL A   1      33.012  34.622  29.864  1.00  0.00    -0.374 OA
BRANCH  74  75
ATOM     75  C   UNL A   1      32.917  35.972  30.339  1.00  0.00     0.202 C 
BRANCH  75  76
ATOM     76  C   UNL A   1      32.902  35.989  31.869  1.00  0.00     0.261 C 
BRANCH  76  77
ATOM     77  O   UNL A   1      33.466  34.742  32.301  1.00  0.00    -0.462 OA
BRANCH  77  78
ATOM     78  C   UNL A   1      34.340  34.897  33.338  1.00  0.00     0.322 C 
ATOM     79  O   UNL A   1      34.610  35.957  33.872  1.00  0.00    -0.251 OA
BRANCH  78  80
ATOM     80  C   UNL A   1      34.861  33.550  33.739  1.00  0.00     0.212 C 
ATOM     81  C   UNL A   1      35.285  32.758  32.556  1.00  0.00     0.107 C 
ATOM     82  C   UNL A   1      35.978  33.681  34.718  1.00  0.00     0.180 C 
ATOM     83  N   UNL A   1      36.514  32.647  32.163  1.00  0.00    -0.264 NA
ATOM     84  C   UNL A   1      37.324  33.814  34.127  1.00  0.00     0.018 C 
ATOM     85  O   UNL A   1      35.804  33.719  35.934  1.00  0.00    -0.293 OA
ATOM     86  C   UNL A   1      37.477  33.318  32.885  1.00  0.00     0.047 C 
ATOM     87  C   UNL A   1      38.373  34.527  34.920  1.00  0.00     0.041 C 
ATOM     88  C   UNL A   1      38.787  33.487  32.156  1.00  0.00     0.056 C 
ATOM     89  C   UNL A   1      39.761  34.380  34.301  1.00  0.00     0.005 C 
ATOM     90  C   UNL A   1      39.703  34.537  32.785  1.00  0.00     0.007 C 
ENDBRANCH  78  80
ENDBRANCH  77  78
ENDBRANCH  76  77
ENDBRANCH  75  76
ENDBRANCH  74  75
ENDBRANCH  73  74
ENDBRANCH   1  73
TORSDOF 17
ENDMDL
