MODEL 1
REMARK VINA RESULT:     -10.7      0.000      0.000
REMARK SMILES Cc1cccc([C@@H](CCC[C@@H]2CCCO2)C(=O)OCCOCCOC(=O)c2ccc(-c3c4nc(c(-c5c(F)cc(S(=O)(=O)[O-])cc5F)c5ccc([nH]5)c(-c5c(F)cc(S(=O)(=O)[O-])cc5F)c5nc(c(-c6c(F)cc(S(=O)(=O)[O-])cc6F)c6ccc3[nH]6)C=C5)C=C4)cc2)c1
REMARK SMILES IDX 20 1 19 2 18 3 16 4 17 5 7 6 6 7 1 8 2 9 3 10 93 11 4 12
REMARK SMILES IDX 5 13 8 14 9 15 10 16 11 17 12 18 15 19 13 20 14 21 21 22
REMARK SMILES IDX 22 23 23 24 24 25 25 26 26 27 27 28 28 29 92 30 29 31 91 32
REMARK SMILES IDX 30 33 31 34 32 35 85 36 33 37 90 38 84 39 86 40 34 41 89 42
REMARK SMILES IDX 83 43 82 44 35 46 69 47 48 48 68 49 49 50 52 51 67 52 87 53
REMARK SMILES IDX 50 54 51 55 66 57 88 58 53 59 36 60 37 61 46 62 38 63 39 64
REMARK SMILES IDX 45 65 47 66 40 67 41 68 42 69 43 70 44 71 70 72 71 73 80 74
REMARK SMILES IDX 72 75 73 76 79 77 81 78 74 79 75 80 76 81 77 82 78 83 54 84
REMARK SMILES IDX 55 85 64 86 56 87 57 88 63 89 65 90 58 91 59 92 60 93 61 94
REMARK SMILES IDX 62 95
REMARK H PARENT 86 45 52 56
REMARK Flexibility Score: inf
ROOT
ATOM      1  C   UNL A   1      31.515  28.181  27.156  1.00  0.00     0.202 C 
ENDROOT
BRANCH   1   2
ATOM      2  C   UNL A   1      32.344  27.051  26.597  1.00  0.00     0.261 C 
BRANCH   2   3
ATOM      3  O   UNL A   1      31.695  26.559  25.434  1.00  0.00    -0.463 OA
BRANCH   3   4
ATOM      4  C   UNL A   1      30.730  25.616  25.448  1.00  0.00     0.313 C 
ATOM      5  O   UNL A   1      30.259  25.042  26.429  1.00  0.00    -0.252 OA
BRANCH   4   6
ATOM      6  C   UNL A   1      30.262  25.437  24.006  1.00  0.00     0.129 C 
BRANCH   6   7
ATOM      7  C   UNL A   1      29.915  26.792  23.368  1.00  0.00    -0.034 A 
ATOM      8  C   UNL A   1      26.881  29.048  23.182  1.00  0.00     0.044 C 
ATOM      9  C   UNL A   1      28.294  28.573  23.094  1.00  0.00    -0.051 A 
ATOM     10  C   UNL A   1      29.292  29.415  22.590  1.00  0.00     0.003 A 
ATOM     11  C   UNL A   1      28.614  27.274  23.500  1.00  0.00     0.008 A 
ATOM     12  C   UNL A   1      30.582  28.939  22.415  1.00  0.00     0.001 A 
ATOM     13  C   UNL A   1      30.868  27.621  22.740  1.00  0.00     0.004 A 
ENDBRANCH   6   7
BRANCH   6  14
ATOM     14  C   UNL A   1      31.155  24.583  23.096  1.00  0.00     0.020 C 
BRANCH  14  15
ATOM     15  C   UNL A   1      31.271  23.093  23.394  1.00  0.00     0.004 C 
BRANCH  15  16
ATOM     16  C   UNL A   1      32.656  22.494  23.394  1.00  0.00     0.032 C 
BRANCH  16  17
ATOM     17  C   UNL A   1      33.692  23.027  24.366  1.00  0.00     0.118 C 
ATOM     18  C   UNL A   1      33.205  22.995  25.791  1.00  0.00     0.034 C 
ATOM     19  O   UNL A   1      34.231  24.347  24.277  1.00  0.00    -0.378 OA
ATOM     20  C   UNL A   1      34.453  23.485  26.462  1.00  0.00     0.031 C 
ATOM     21  C   UNL A   1      35.060  24.456  25.462  1.00  0.00     0.160 C 
ENDBRANCH  16  17
ENDBRANCH  15  16
ENDBRANCH  14  15
ENDBRANCH   6  14
ENDBRANCH   4   6
ENDBRANCH   3   4
ENDBRANCH   2   3
ENDBRANCH   1   2
BRANCH   1  22
ATOM     22  O   UNL A   1      32.470  29.117  27.642  1.00  0.00    -0.374 OA
BRANCH  22  23
ATOM     23  C   UNL A   1      32.912  30.106  26.745  1.00  0.00     0.202 C 
BRANCH  23  24
ATOM     24  C   UNL A   1      34.244  30.699  27.191  1.00  0.00     0.261 C 
BRANCH  24  25
ATOM     25  O   UNL A   1      34.055  31.430  28.427  1.00  0.00    -0.460 OA
BRANCH  25  26
ATOM     26  C   UNL A   1      35.190  31.980  28.958  1.00  0.00     0.338 C 
ATOM     27  O   UNL A   1      35.333  33.175  29.152  1.00  0.00    -0.246 OA
BRANCH  26  28
ATOM     28  C   UNL A   1      36.245  30.933  29.178  1.00  0.00     0.060 A 
ATOM     29  C   UNL A   1      36.121  29.983  30.212  1.00  0.00     0.016 A 
ATOM     30  C   UNL A   1      37.475  31.091  28.556  1.00  0.00     0.016 A 
ATOM     31  C   UNL A   1      37.255  29.302  30.717  1.00  0.00     0.010 A 
ATOM     32  C   UNL A   1      38.593  30.519  29.137  1.00  0.00     0.010 A 
ATOM     33  C   UNL A   1      38.518  29.611  30.216  1.00  0.00    -0.014 A 
BRANCH  33  34
ATOM     34  C   UNL A   1      39.845  29.130  30.682  1.00  0.00     0.031 A 
ATOM     35  C   UNL A   1      40.397  27.942  29.923  1.00  0.00     0.074 A 
ATOM     36  C   UNL A   1      40.672  29.809  31.521  1.00  0.00     0.049 A 
ATOM     37  N   UNL A   1      41.634  27.594  29.831  1.00  0.00    -0.248 NA
ATOM     38  C   UNL A   1      39.547  27.090  29.093  1.00  0.00     0.031 C 
ATOM     39  C   UNL A   1      42.097  29.518  31.678  1.00  0.00     0.029 A 
ATOM     40  N   UNL A   1      40.524  30.911  32.359  1.00  0.00    -0.354 N 
ATOM     41  C   UNL A   1      41.769  26.529  28.968  1.00  0.00     0.074 A 
ATOM     42  C   UNL A   1      40.450  26.368  28.420  1.00  0.00     0.031 C 
ATOM     43  C   UNL A   1      42.676  30.355  32.540  1.00  0.00     0.029 A 
ATOM     44  C   UNL A   1      41.605  30.984  33.245  1.00  0.00     0.049 A 
ATOM     45  H   UNL A   1      39.771  31.544  32.333  1.00  0.00     0.167 HD
ATOM     46  C   UNL A   1      42.986  25.909  28.866  1.00  0.00     0.037 A 
ATOM     47  C   UNL A   1      41.566  30.903  34.604  1.00  0.00     0.037 A 
ATOM     48  C   UNL A   1      43.858  26.296  30.014  1.00  0.00     0.049 A 
ATOM     49  C   UNL A   1      42.335  29.621  34.984  1.00  0.00     0.074 A 
ATOM     50  C   UNL A   1      45.145  26.773  30.186  1.00  0.00     0.029 A 
ATOM     51  N   UNL A   1      43.309  26.294  31.314  1.00  0.00    -0.354 N 
ATOM     52  N   UNL A   1      42.224  28.475  34.328  1.00  0.00    -0.248 NA
ATOM     53  C   UNL A   1      43.573  29.699  35.773  1.00  0.00     0.031 C 
ATOM     54  C   UNL A   1      45.315  27.166  31.554  1.00  0.00     0.029 A 
ATOM     55  C   UNL A   1      44.148  26.878  32.252  1.00  0.00     0.049 A 
ATOM     56  H   UNL A   1      42.426  25.919  31.532  1.00  0.00     0.167 HD
ATOM     57  C   UNL A   1      43.422  27.788  34.448  1.00  0.00     0.074 A 
ATOM     58  C   UNL A   1      44.218  28.588  35.377  1.00  0.00     0.031 C 
ATOM     59  C   UNL A   1      43.882  26.743  33.685  1.00  0.00     0.037 A 
BRANCH  46  60
ATOM     60  C   UNL A   1      43.430  24.966  27.721  1.00  0.00     0.058 A 
ATOM     61  C   UNL A   1      43.103  23.587  27.742  1.00  0.00     0.135 A 
ATOM     62  C   UNL A   1      44.220  25.313  26.597  1.00  0.00     0.135 A 
ATOM     63  F   UNL A   1      42.318  23.059  28.685  1.00  0.00    -0.206 F 
ATOM     64  C   UNL A   1      43.556  22.653  26.799  1.00  0.00     0.059 A 
ATOM     65  C   UNL A   1      44.684  24.397  25.635  1.00  0.00     0.059 A 
ATOM     66  F   UNL A   1      44.568  26.570  26.328  1.00  0.00    -0.206 F 
ATOM     67  C   UNL A   1      44.356  23.061  25.748  1.00  0.00     0.060 A 
BRANCH  67  68
ATOM     68  S   UNL A   1      44.903  21.841  24.539  1.00  0.00     0.124 S 
ATOM     69  O   UNL A   1      44.515  20.587  25.176  1.00  0.00    -0.237 OA
ATOM     70  O   UNL A   1      44.135  22.213  23.355  1.00  0.00    -0.237 OA
ATOM     71  O   UNL A   1      46.342  22.072  24.445  1.00  0.00    -0.744 OA
ENDBRANCH  67  68
ENDBRANCH  46  60
BRANCH  47  72
ATOM     72  C   UNL A   1      40.398  31.630  35.173  1.00  0.00     0.058 A 
ATOM     73  C   UNL A   1      40.386  33.015  34.866  1.00  0.00     0.135 A 
ATOM     74  C   UNL A   1      39.158  30.984  35.243  1.00  0.00     0.135 A 
ATOM     75  F   UNL A   1      41.539  33.705  34.843  1.00  0.00    -0.206 F 
ATOM     76  C   UNL A   1      39.249  33.642  34.356  1.00  0.00     0.059 A 
ATOM     77  C   UNL A   1      38.006  31.595  34.731  1.00  0.00     0.059 A 
ATOM     78  F   UNL A   1      39.098  29.684  35.564  1.00  0.00    -0.206 F 
ATOM     79  C   UNL A   1      38.083  32.895  34.217  1.00  0.00     0.060 A 
BRANCH  79  80
ATOM     80  S   UNL A   1      36.784  33.517  33.108  1.00  0.00     0.124 S 
ATOM     81  O   UNL A   1      37.232  33.025  31.813  1.00  0.00    -0.237 OA
ATOM     82  O   UNL A   1      35.578  32.892  33.646  1.00  0.00    -0.237 OA
ATOM     83  O   UNL A   1      36.859  34.959  33.313  1.00  0.00    -0.744 OA
ENDBRANCH  79  80
ENDBRANCH  47  72
BRANCH  59  84
ATOM     84  C   UNL A   1      44.442  25.505  34.351  1.00  0.00     0.058 A 
ATOM     85  C   UNL A   1      45.804  25.341  34.638  1.00  0.00     0.135 A 
ATOM     86  C   UNL A   1      43.583  24.483  34.840  1.00  0.00     0.135 A 
ATOM     87  F   UNL A   1      46.713  26.275  34.323  1.00  0.00    -0.206 F 
ATOM     88  C   UNL A   1      46.288  24.218  35.293  1.00  0.00     0.059 A 
ATOM     89  C   UNL A   1      44.044  23.362  35.509  1.00  0.00     0.059 A 
ATOM     90  F   UNL A   1      42.249  24.548  34.737  1.00  0.00    -0.206 F 
ATOM     91  C   UNL A   1      45.403  23.232  35.717  1.00  0.00     0.060 A 
BRANCH  91  92
ATOM     92  S   UNL A   1      46.054  21.813  36.595  1.00  0.00     0.124 S 
ATOM     93  O   UNL A   1      47.474  21.900  36.268  1.00  0.00    -0.237 OA
ATOM     94  O   UNL A   1      45.701  22.123  37.978  1.00  0.00    -0.237 OA
ATOM     95  O   UNL A   1      45.337  20.686  36.009  1.00  0.00    -0.744 OA
ENDBRANCH  91  92
ENDBRANCH  59  84
ENDBRANCH  33  34
ENDBRANCH  26  28
ENDBRANCH  25  26
ENDBRANCH  24  25
ENDBRANCH  23  24
ENDBRANCH  22  23
ENDBRANCH   1  22
TORSDOF 22
ENDMDL
MODEL 2
REMARK VINA RESULT:     -10.6      1.443      3.562
REMARK SMILES Cc1cccc([C@@H](CCC[C@@H]2CCCO2)C(=O)OCCOCCOC(=O)c2ccc(-c3c4nc(c(-c5c(F)cc(S(=O)(=O)[O-])cc5F)c5ccc([nH]5)c(-c5c(F)cc(S(=O)(=O)[O-])cc5F)c5nc(c(-c6c(F)cc(S(=O)(=O)[O-])cc6F)c6ccc3[nH]6)C=C5)C=C4)cc2)c1
REMARK SMILES IDX 20 1 19 2 18 3 16 4 17 5 7 6 6 7 1 8 2 9 3 10 93 11 4 12
REMARK SMILES IDX 5 13 8 14 9 15 10 16 11 17 12 18 15 19 13 20 14 21 21 22
REMARK SMILES IDX 22 23 23 24 24 25 25 26 26 27 27 28 28 29 92 30 29 31 91 32
REMARK SMILES IDX 30 33 31 34 32 35 85 36 33 37 90 38 84 39 86 40 34 41 89 42
REMARK SMILES IDX 83 43 82 44 35 46 69 47 48 48 68 49 49 50 52 51 67 52 87 53
REMARK SMILES IDX 50 54 51 55 66 57 88 58 53 59 36 60 37 61 46 62 38 63 39 64
REMARK SMILES IDX 45 65 47 66 40 67 41 68 42 69 43 70 44 71 70 72 71 73 80 74
REMARK SMILES IDX 72 75 73 76 79 77 81 78 74 79 75 80 76 81 77 82 78 83 54 84
REMARK SMILES IDX 55 85 64 86 56 87 57 88 63 89 65 90 58 91 59 92 60 93 61 94
REMARK SMILES IDX 62 95
REMARK H PARENT 86 45 52 56
REMARK Flexibility Score: inf
ROOT
ATOM      1  C   UNL A   1      31.758  28.846  26.233  1.00  0.00     0.202 C 
ENDROOT
BRANCH   1   2
ATOM      2  C   UNL A   1      32.795  27.757  26.117  1.00  0.00     0.261 C 
BRANCH   2   3
ATOM      3  O   UNL A   1      32.239  26.694  25.356  1.00  0.00    -0.463 OA
BRANCH   3   4
ATOM      4  C   UNL A   1      32.765  26.236  24.200  1.00  0.00     0.313 C 
ATOM      5  O   UNL A   1      33.918  26.377  23.795  1.00  0.00    -0.252 OA
BRANCH   4   6
ATOM      6  C   UNL A   1      31.671  25.432  23.503  1.00  0.00     0.129 C 
BRANCH   6   7
ATOM      7  C   UNL A   1      31.513  24.045  24.148  1.00  0.00    -0.034 A 
ATOM      8  C   UNL A   1      32.617  20.508  23.373  1.00  0.00     0.044 C 
ATOM      9  C   UNL A   1      32.093  21.692  24.117  1.00  0.00    -0.051 A 
ATOM     10  C   UNL A   1      31.623  21.551  25.428  1.00  0.00     0.003 A 
ATOM     11  C   UNL A   1      32.055  22.942  23.492  1.00  0.00     0.008 A 
ATOM     12  C   UNL A   1      31.045  22.628  26.081  1.00  0.00     0.001 A 
ATOM     13  C   UNL A   1      30.934  23.842  25.417  1.00  0.00     0.004 A 
ENDBRANCH   6   7
BRANCH   6  14
ATOM     14  C   UNL A   1      30.322  26.134  23.306  1.00  0.00     0.020 C 
BRANCH  14  15
ATOM     15  C   UNL A   1      30.322  27.635  23.043  1.00  0.00     0.004 C 
BRANCH  15  16
ATOM     16  C   UNL A   1      28.985  28.298  22.820  1.00  0.00     0.032 C 
BRANCH  16  17
ATOM     17  C   UNL A   1      28.936  29.655  22.143  1.00  0.00     0.118 C 
ATOM     18  C   UNL A   1      28.859  30.784  23.138  1.00  0.00     0.034 C 
ATOM     19  O   UNL A   1      27.913  30.021  21.215  1.00  0.00    -0.378 OA
ATOM     20  C   UNL A   1      28.913  31.932  22.174  1.00  0.00     0.031 C 
ATOM     21  C   UNL A   1      28.190  31.419  20.940  1.00  0.00     0.160 C 
ENDBRANCH  16  17
ENDBRANCH  15  16
ENDBRANCH  14  15
ENDBRANCH   6  14
ENDBRANCH   4   6
ENDBRANCH   3   4
ENDBRANCH   2   3
ENDBRANCH   1   2
BRANCH   1  22
ATOM     22  O   UNL A   1      32.245  29.692  27.267  1.00  0.00    -0.374 OA
BRANCH  22  23
ATOM     23  C   UNL A   1      32.458  31.044  26.943  1.00  0.00     0.202 C 
BRANCH  23  24
ATOM     24  C   UNL A   1      33.650  31.613  27.707  1.00  0.00     0.261 C 
BRANCH  24  25
ATOM     25  O   UNL A   1      34.792  30.740  27.536  1.00  0.00    -0.460 OA
BRANCH  25  26
ATOM     26  C   UNL A   1      35.992  31.266  27.930  1.00  0.00     0.338 C 
ATOM     27  O   UNL A   1      36.256  32.455  27.878  1.00  0.00    -0.246 OA
BRANCH  26  28
ATOM     28  C   UNL A   1      36.947  30.183  28.342  1.00  0.00     0.060 A 
ATOM     29  C   UNL A   1      36.799  29.512  29.573  1.00  0.00     0.016 A 
ATOM     30  C   UNL A   1      38.142  30.054  27.648  1.00  0.00     0.016 A 
ATOM     31  C   UNL A   1      37.891  28.839  30.173  1.00  0.00     0.010 A 
ATOM     32  C   UNL A   1      39.233  29.504  28.296  1.00  0.00     0.010 A 
ATOM     33  C   UNL A   1      39.141  28.879  29.560  1.00  0.00    -0.014 A 
BRANCH  33  34
ATOM     34  C   UNL A   1      40.441  28.367  30.066  1.00  0.00     0.031 A 
ATOM     35  C   UNL A   1      40.896  27.059  29.455  1.00  0.00     0.074 A 
ATOM     36  C   UNL A   1      41.329  29.085  30.805  1.00  0.00     0.049 A 
ATOM     37  N   UNL A   1      42.104  26.616  29.393  1.00  0.00    -0.248 NA
ATOM     38  C   UNL A   1      39.973  26.172  28.748  1.00  0.00     0.031 C 
ATOM     39  C   UNL A   1      42.734  28.716  30.980  1.00  0.00     0.029 A 
ATOM     40  N   UNL A   1      41.273  30.291  31.500  1.00  0.00    -0.354 N 
ATOM     41  C   UNL A   1      42.149  25.446  28.668  1.00  0.00     0.074 A 
ATOM     42  C   UNL A   1      40.811  25.311  28.159  1.00  0.00     0.031 C 
ATOM     43  C   UNL A   1      43.385  29.611  31.724  1.00  0.00     0.029 A 
ATOM     44  C   UNL A   1      42.375  30.396  32.358  1.00  0.00     0.049 A 
ATOM     45  H   UNL A   1      40.565  30.966  31.404  1.00  0.00     0.167 HD
ATOM     46  C   UNL A   1      43.318  24.735  28.630  1.00  0.00     0.037 A 
ATOM     47  C   UNL A   1      42.357  30.487  33.717  1.00  0.00     0.037 A 
ATOM     48  C   UNL A   1      44.238  25.198  29.711  1.00  0.00     0.049 A 
ATOM     49  C   UNL A   1      43.045  29.211  34.245  1.00  0.00     0.074 A 
ATOM     50  C   UNL A   1      45.557  25.602  29.808  1.00  0.00     0.029 A 
ATOM     51  N   UNL A   1      43.716  25.396  31.007  1.00  0.00    -0.354 N 
ATOM     52  N   UNL A   1      42.843  28.003  33.738  1.00  0.00    -0.248 NA
ATOM     53  C   UNL A   1      44.301  29.298  35.004  1.00  0.00     0.031 C 
ATOM     54  C   UNL A   1      45.781  26.147  31.113  1.00  0.00     0.029 A 
ATOM     55  C   UNL A   1      44.611  26.031  31.855  1.00  0.00     0.049 A 
ATOM     56  H   UNL A   1      42.813  25.114  31.281  1.00  0.00     0.167 HD
ATOM     57  C   UNL A   1      43.994  27.253  33.929  1.00  0.00     0.074 A 
ATOM     58  C   UNL A   1      44.860  28.105  34.742  1.00  0.00     0.031 C 
ATOM     59  C   UNL A   1      44.366  26.093  33.297  1.00  0.00     0.037 A 
BRANCH  46  60
ATOM     60  C   UNL A   1      43.673  23.628  27.607  1.00  0.00     0.058 A 
ATOM     61  C   UNL A   1      44.756  23.786  26.706  1.00  0.00     0.135 A 
ATOM     62  C   UNL A   1      42.977  22.412  27.401  1.00  0.00     0.135 A 
ATOM     63  F   UNL A   1      45.579  24.836  26.764  1.00  0.00    -0.206 F 
ATOM     64  C   UNL A   1      45.074  22.878  25.685  1.00  0.00     0.059 A 
ATOM     65  C   UNL A   1      43.277  21.482  26.388  1.00  0.00     0.059 A 
ATOM     66  F   UNL A   1      41.980  22.015  28.191  1.00  0.00    -0.206 F 
ATOM     67  C   UNL A   1      44.324  21.728  25.523  1.00  0.00     0.060 A 
BRANCH  67  68
ATOM     68  S   UNL A   1      44.771  20.569  24.216  1.00  0.00     0.124 S 
ATOM     69  O   UNL A   1      44.542  21.364  23.014  1.00  0.00    -0.237 OA
ATOM     70  O   UNL A   1      46.167  20.278  24.525  1.00  0.00    -0.237 OA
ATOM     71  O   UNL A   1      43.846  19.457  24.412  1.00  0.00    -0.744 OA
ENDBRANCH  67  68
ENDBRANCH  46  60
BRANCH  47  72
ATOM     72  C   UNL A   1      41.254  31.359  34.203  1.00  0.00     0.058 A 
ATOM     73  C   UNL A   1      41.421  32.728  33.871  1.00  0.00     0.135 A 
ATOM     74  C   UNL A   1      39.944  30.863  34.214  1.00  0.00     0.135 A 
ATOM     75  F   UNL A   1      42.646  33.278  33.903  1.00  0.00    -0.206 F 
ATOM     76  C   UNL A   1      40.396  33.470  33.285  1.00  0.00     0.059 A 
ATOM     77  C   UNL A   1      38.902  31.591  33.625  1.00  0.00     0.059 A 
ATOM     78  F   UNL A   1      39.714  29.587  34.555  1.00  0.00    -0.206 F 
ATOM     79  C   UNL A   1      39.160  32.860  33.093  1.00  0.00     0.060 A 
BRANCH  79  80
ATOM     80  S   UNL A   1      38.006  33.601  31.900  1.00  0.00     0.124 S 
ATOM     81  O   UNL A   1      36.815  33.799  32.714  1.00  0.00    -0.237 OA
ATOM     82  O   UNL A   1      38.706  34.816  31.489  1.00  0.00    -0.237 OA
ATOM     83  O   UNL A   1      37.920  32.576  30.867  1.00  0.00    -0.744 OA
ENDBRANCH  79  80
ENDBRANCH  47  72
BRANCH  59  84
ATOM     84  C   UNL A   1      44.853  24.910  34.105  1.00  0.00     0.058 A 
ATOM     85  C   UNL A   1      46.202  24.709  34.427  1.00  0.00     0.135 A 
ATOM     86  C   UNL A   1      43.936  23.997  34.696  1.00  0.00     0.135 A 
ATOM     87  F   UNL A   1      47.163  25.551  34.021  1.00  0.00    -0.206 F 
ATOM     88  C   UNL A   1      46.620  23.642  35.212  1.00  0.00     0.059 A 
ATOM     89  C   UNL A   1      44.332  22.937  35.493  1.00  0.00     0.059 A 
ATOM     90  F   UNL A   1      42.609  24.121  34.568  1.00  0.00    -0.206 F 
ATOM     91  C   UNL A   1      45.680  22.759  35.732  1.00  0.00     0.060 A 
BRANCH  91  92
ATOM     92  S   UNL A   1      46.247  21.417  36.773  1.00  0.00     0.124 S 
ATOM     93  O   UNL A   1      45.674  21.793  38.062  1.00  0.00    -0.237 OA
ATOM     94  O   UNL A   1      45.645  20.254  36.127  1.00  0.00    -0.237 OA
ATOM     95  O   UNL A   1      47.700  21.498  36.679  1.00  0.00    -0.744 OA
ENDBRANCH  91  92
ENDBRANCH  59  84
ENDBRANCH  33  34
ENDBRANCH  26  28
ENDBRANCH  25  26
ENDBRANCH  24  25
ENDBRANCH  23  24
ENDBRANCH  22  23
ENDBRANCH   1  22
TORSDOF 22
ENDMDL
MODEL 3
REMARK VINA RESULT:     -10.5      1.724      3.698
REMARK SMILES Cc1cccc([C@@H](CCC[C@@H]2CCCO2)C(=O)OCCOCCOC(=O)c2ccc(-c3c4nc(c(-c5c(F)cc(S(=O)(=O)[O-])cc5F)c5ccc([nH]5)c(-c5c(F)cc(S(=O)(=O)[O-])cc5F)c5nc(c(-c6c(F)cc(S(=O)(=O)[O-])cc6F)c6ccc3[nH]6)C=C5)C=C4)cc2)c1
REMARK SMILES IDX 20 1 19 2 18 3 16 4 17 5 7 6 6 7 1 8 2 9 3 10 93 11 4 12
REMARK SMILES IDX 5 13 8 14 9 15 10 16 11 17 12 18 15 19 13 20 14 21 21 22
REMARK SMILES IDX 22 23 23 24 24 25 25 26 26 27 27 28 28 29 92 30 29 31 91 32
REMARK SMILES IDX 30 33 31 34 32 35 85 36 33 37 90 38 84 39 86 40 34 41 89 42
REMARK SMILES IDX 83 43 82 44 35 46 69 47 48 48 68 49 49 50 52 51 67 52 87 53
REMARK SMILES IDX 50 54 51 55 66 57 88 58 53 59 36 60 37 61 46 62 38 63 39 64
REMARK SMILES IDX 45 65 47 66 40 67 41 68 42 69 43 70 44 71 70 72 71 73 80 74
REMARK SMILES IDX 72 75 73 76 79 77 81 78 74 79 75 80 76 81 77 82 78 83 54 84
REMARK SMILES IDX 55 85 64 86 56 87 57 88 63 89 65 90 58 91 59 92 60 93 61 94
REMARK SMILES IDX 62 95
REMARK H PARENT 86 45 52 56
REMARK Flexibility Score: inf
ROOT
ATOM      1  C   UNL A   1      31.554  28.670  25.979  1.00  0.00     0.202 C 
ENDROOT
BRANCH   1   2
ATOM      2  C   UNL A   1      32.522  27.576  26.352  1.00  0.00     0.261 C 
BRANCH   2   3
ATOM      3  O   UNL A   1      32.619  26.677  25.258  1.00  0.00    -0.463 OA
BRANCH   3   4
ATOM      4  C   UNL A   1      33.350  26.911  24.148  1.00  0.00     0.313 C 
ATOM      5  O   UNL A   1      34.198  27.788  23.982  1.00  0.00    -0.252 OA
BRANCH   4   6
ATOM      6  C   UNL A   1      32.986  25.827  23.138  1.00  0.00     0.129 C 
BRANCH   6   7
ATOM      7  C   UNL A   1      33.334  24.431  23.680  1.00  0.00    -0.034 A 
ATOM      8  C   UNL A   1      32.263  20.866  22.991  1.00  0.00     0.044 C 
ATOM      9  C   UNL A   1      33.049  22.031  23.496  1.00  0.00    -0.051 A 
ATOM     10  C   UNL A   1      34.170  21.827  24.309  1.00  0.00     0.003 A 
ATOM     11  C   UNL A   1      32.651  23.330  23.168  1.00  0.00     0.008 A 
ATOM     12  C   UNL A   1      34.838  22.910  24.859  1.00  0.00     0.001 A 
ATOM     13  C   UNL A   1      34.379  24.193  24.596  1.00  0.00     0.004 A 
ENDBRANCH   6   7
BRANCH   6  14
ATOM     14  C   UNL A   1      31.569  25.881  22.553  1.00  0.00     0.020 C 
BRANCH  14  15
ATOM     15  C   UNL A   1      30.985  27.245  22.205  1.00  0.00     0.004 C 
BRANCH  15  16
ATOM     16  C   UNL A   1      29.727  27.664  22.926  1.00  0.00     0.032 C 
BRANCH  16  17
ATOM     17  C   UNL A   1      29.110  29.014  22.613  1.00  0.00     0.118 C 
ATOM     18  C   UNL A   1      29.580  30.087  23.560  1.00  0.00     0.034 C 
ATOM     19  O   UNL A   1      27.699  29.237  22.606  1.00  0.00    -0.378 OA
ATOM     20  C   UNL A   1      28.876  31.255  22.937  1.00  0.00     0.031 C 
ATOM     21  C   UNL A   1      27.583  30.668  22.395  1.00  0.00     0.160 C 
ENDBRANCH  16  17
ENDBRANCH  15  16
ENDBRANCH  14  15
ENDBRANCH   6  14
ENDBRANCH   4   6
ENDBRANCH   3   4
ENDBRANCH   2   3
ENDBRANCH   1   2
BRANCH   1  22
ATOM     22  O   UNL A   1      31.643  29.605  27.048  1.00  0.00    -0.374 OA
BRANCH  22  23
ATOM     23  C   UNL A   1      31.883  30.948  26.707  1.00  0.00     0.202 C 
BRANCH  23  24
ATOM     24  C   UNL A   1      32.995  31.543  27.565  1.00  0.00     0.261 C 
BRANCH  24  25
ATOM     25  O   UNL A   1      34.152  30.674  27.525  1.00  0.00    -0.460 OA
BRANCH  25  26
ATOM     26  C   UNL A   1      35.349  31.286  27.776  1.00  0.00     0.338 C 
ATOM     27  O   UNL A   1      35.580  32.452  27.508  1.00  0.00    -0.246 OA
BRANCH  26  28
ATOM     28  C   UNL A   1      36.347  30.311  28.335  1.00  0.00     0.060 A 
ATOM     29  C   UNL A   1      36.275  29.887  29.678  1.00  0.00     0.016 A 
ATOM     30  C   UNL A   1      37.507  30.064  27.615  1.00  0.00     0.016 A 
ATOM     31  C   UNL A   1      37.409  29.352  30.335  1.00  0.00     0.010 A 
ATOM     32  C   UNL A   1      38.640  29.660  28.297  1.00  0.00     0.010 A 
ATOM     33  C   UNL A   1      38.625  29.287  29.659  1.00  0.00    -0.014 A 
BRANCH  33  34
ATOM     34  C   UNL A   1      39.960  28.895  30.183  1.00  0.00     0.031 A 
ATOM     35  C   UNL A   1      40.533  27.626  29.589  1.00  0.00     0.074 A 
ATOM     36  C   UNL A   1      40.774  29.694  30.924  1.00  0.00     0.049 A 
ATOM     37  N   UNL A   1      41.776  27.290  29.542  1.00  0.00    -0.248 NA
ATOM     38  C   UNL A   1      39.699  26.656  28.881  1.00  0.00     0.031 C 
ATOM     39  C   UNL A   1      42.204  29.450  31.116  1.00  0.00     0.029 A 
ATOM     40  N   UNL A   1      40.606  30.895  31.607  1.00  0.00    -0.354 N 
ATOM     41  C   UNL A   1      41.930  26.122  28.830  1.00  0.00     0.074 A 
ATOM     42  C   UNL A   1      40.615  25.867  28.309  1.00  0.00     0.031 C 
ATOM     43  C   UNL A   1      42.767  30.405  31.858  1.00  0.00     0.029 A 
ATOM     44  C   UNL A   1      41.684  31.104  32.474  1.00  0.00     0.049 A 
ATOM     45  H   UNL A   1      39.842  31.506  31.498  1.00  0.00     0.167 HD
ATOM     46  C   UNL A   1      43.158  25.515  28.810  1.00  0.00     0.037 A 
ATOM     47  C   UNL A   1      41.645  31.205  33.832  1.00  0.00     0.037 A 
ATOM     48  C   UNL A   1      44.022  26.067  29.896  1.00  0.00     0.049 A 
ATOM     49  C   UNL A   1      42.435  29.998  34.379  1.00  0.00     0.074 A 
ATOM     50  C   UNL A   1      45.300  26.584  30.001  1.00  0.00     0.029 A 
ATOM     51  N   UNL A   1      43.471  26.228  31.184  1.00  0.00    -0.354 N 
ATOM     52  N   UNL A   1      42.345  28.773  33.882  1.00  0.00    -0.248 NA
ATOM     53  C   UNL A   1      43.671  30.201  35.149  1.00  0.00     0.031 C 
ATOM     54  C   UNL A   1      45.461  27.158  31.304  1.00  0.00     0.029 A 
ATOM     55  C   UNL A   1      44.298  26.946  32.035  1.00  0.00     0.049 A 
ATOM     56  H   UNL A   1      42.594  25.871  31.451  1.00  0.00     0.167 HD
ATOM     57  C   UNL A   1      43.555  28.128  34.091  1.00  0.00     0.074 A 
ATOM     58  C   UNL A   1      44.335  29.059  34.904  1.00  0.00     0.031 C 
ATOM     59  C   UNL A   1      44.033  26.999  33.473  1.00  0.00     0.037 A 
BRANCH  46  60
ATOM     60  C   UNL A   1      43.619  24.435  27.801  1.00  0.00     0.058 A 
ATOM     61  C   UNL A   1      44.603  24.722  26.822  1.00  0.00     0.135 A 
ATOM     62  C   UNL A   1      43.113  23.117  27.682  1.00  0.00     0.135 A 
ATOM     63  F   UNL A   1      45.250  25.890  26.788  1.00  0.00    -0.206 F 
ATOM     64  C   UNL A   1      44.996  23.832  25.811  1.00  0.00     0.059 A 
ATOM     65  C   UNL A   1      43.493  22.203  26.682  1.00  0.00     0.059 A 
ATOM     66  F   UNL A   1      42.245  22.603  28.553  1.00  0.00    -0.206 F 
ATOM     67  C   UNL A   1      44.430  22.573  25.739  1.00  0.00     0.060 A 
BRANCH  67  68
ATOM     68  S   UNL A   1      44.972  21.444  24.442  1.00  0.00     0.124 S 
ATOM     69  O   UNL A   1      44.156  20.263  24.706  1.00  0.00    -0.237 OA
ATOM     70  O   UNL A   1      44.639  22.184  23.229  1.00  0.00    -0.237 OA
ATOM     71  O   UNL A   1      46.400  21.284  24.700  1.00  0.00    -0.744 OA
ENDBRANCH  67  68
ENDBRANCH  46  60
BRANCH  47  72
ATOM     72  C   UNL A   1      40.465  31.981  34.300  1.00  0.00     0.058 A 
ATOM     73  C   UNL A   1      39.477  31.187  34.938  1.00  0.00     0.135 A 
ATOM     74  C   UNL A   1      40.651  33.279  34.792  1.00  0.00     0.135 A 
ATOM     75  F   UNL A   1      39.209  29.955  34.474  1.00  0.00    -0.206 F 
ATOM     76  C   UNL A   1      38.935  31.544  36.172  1.00  0.00     0.059 A 
ATOM     77  C   UNL A   1      40.120  33.654  36.032  1.00  0.00     0.059 A 
ATOM     78  F   UNL A   1      41.543  34.093  34.210  1.00  0.00    -0.206 F 
ATOM     79  C   UNL A   1      39.330  32.747  36.749  1.00  0.00     0.060 A 
BRANCH  79  80
ATOM     80  S   UNL A   1      39.057  32.983  38.531  1.00  0.00     0.124 S 
ATOM     81  O   UNL A   1      38.642  34.378  38.591  1.00  0.00    -0.237 OA
ATOM     82  O   UNL A   1      38.022  31.997  38.829  1.00  0.00    -0.237 OA
ATOM     83  O   UNL A   1      40.366  32.673  39.093  1.00  0.00    -0.744 OA
ENDBRANCH  79  80
ENDBRANCH  47  72
BRANCH  59  84
ATOM     84  C   UNL A   1      44.613  25.871  34.298  1.00  0.00     0.058 A 
ATOM     85  C   UNL A   1      45.944  25.851  34.737  1.00  0.00     0.135 A 
ATOM     86  C   UNL A   1      43.789  24.818  34.783  1.00  0.00     0.135 A 
ATOM     87  F   UNL A   1      46.805  26.833  34.437  1.00  0.00    -0.206 F 
ATOM     88  C   UNL A   1      46.441  24.828  35.533  1.00  0.00     0.059 A 
ATOM     89  C   UNL A   1      44.262  23.798  35.590  1.00  0.00     0.059 A 
ATOM     90  F   UNL A   1      42.474  24.757  34.538  1.00  0.00    -0.206 F 
ATOM     91  C   UNL A   1      45.596  23.804  35.947  1.00  0.00     0.060 A 
BRANCH  91  92
ATOM     92  S   UNL A   1      46.257  22.520  37.007  1.00  0.00     0.124 S 
ATOM     93  O   UNL A   1      45.464  21.368  36.591  1.00  0.00    -0.237 OA
ATOM     94  O   UNL A   1      47.664  22.498  36.617  1.00  0.00    -0.237 OA
ATOM     95  O   UNL A   1      45.994  23.016  38.353  1.00  0.00    -0.744 OA
ENDBRANCH  91  92
ENDBRANCH  59  84
ENDBRANCH  33  34
ENDBRANCH  26  28
ENDBRANCH  25  26
ENDBRANCH  24  25
ENDBRANCH  23  24
ENDBRANCH  22  23
ENDBRANCH   1  22
TORSDOF 22
ENDMDL
