MODEL 1
REMARK VINA RESULT:     -12.5      0.000      0.000
REMARK SMILES Cc1cccc(-c2ncc(C[NH+]3CCC4(CC3)NC(=O)C[C@H]4C(=O)OCCOCCOC(=O)c3ccc(-c4c5nc(c(-c6c(F)cc(S(=O)(=O)[O-])cc6F)c6ccc([nH]6)c(-c6c(F)cc(S(=O)(=O)[O-])cc6F)c6nc(c(-c7c(F)cc(S(=O)(=O)[O-])cc7F)c7ccc4[nH]7)C=C6)C=C5)cc3)cn2)c1
REMARK SMILES IDX 28 1 27 2 26 3 25 4 23 5 24 6 22 7 12 8 13 9 17 10 14 12
REMARK SMILES IDX 16 13 15 14 18 15 19 16 21 18 20 19 11 20 10 21 7 22 8 23
REMARK SMILES IDX 101 24 9 25 100 26 6 27 1 28 2 29 3 30 102 31 4 32 5 33
REMARK SMILES IDX 29 34 30 35 31 36 32 37 33 38 34 39 35 40 99 41 36 42 98 43
REMARK SMILES IDX 37 44 38 45 39 46 92 47 40 48 97 49 91 50 93 51 41 52 96 53
REMARK SMILES IDX 90 54 89 55 42 57 76 58 55 59 75 60 56 61 59 62 74 63 94 64
REMARK SMILES IDX 57 65 58 66 73 68 95 69 60 70 43 71 44 72 53 73 45 74 46 75
REMARK SMILES IDX 52 76 54 77 47 78 48 79 49 80 50 81 51 82 77 83 78 84 87 85
REMARK SMILES IDX 79 86 80 87 86 88 88 89 81 90 82 91 83 92 84 93 85 94 61 95
REMARK SMILES IDX 62 96 71 97 63 98 64 99 70 100 72 101 65 102 66 103 67 104
REMARK SMILES IDX 68 105 69 106
REMARK H PARENT 12 11 18 17 93 56 59 67
REMARK Flexibility Score: inf
ROOT
ATOM      1  O   UNL A   1      39.946  24.033  26.154  1.00  0.00    -0.374 OA
ENDROOT
BRANCH   1   2
ATOM      2  C   UNL A   1      38.940  24.370  27.092  1.00  0.00     0.202 C 
BRANCH   2   3
ATOM      3  C   UNL A   1      37.611  24.076  26.452  1.00  0.00     0.261 C 
BRANCH   3   4
ATOM      4  O   UNL A   1      37.537  23.812  25.011  1.00  0.00    -0.463 OA
BRANCH   4   5
ATOM      5  C   UNL A   1      36.676  22.944  24.420  1.00  0.00     0.311 C 
ATOM      6  O   UNL A   1      36.693  22.604  23.247  1.00  0.00    -0.252 OA
BRANCH   5   7
ATOM      7  C   UNL A   1      35.640  22.411  25.428  1.00  0.00     0.134 C 
ATOM      8  N   UNL A   1      32.699  25.173  24.946  1.00  0.00    -0.331 N 
ATOM      9  C   UNL A   1      32.634  24.317  26.132  1.00  0.00     0.264 C 
ATOM     10  C   UNL A   1      33.925  24.894  24.224  1.00  0.00     0.264 C 
ATOM     11  H   UNL A   1      32.681  26.104  25.365  1.00  0.00     0.348 HD
ATOM     12  C   UNL A   1      33.073  22.828  26.015  1.00  0.00     0.091 C 
ATOM     13  C   UNL A   1      33.925  23.436  23.814  1.00  0.00     0.091 C 
ATOM     14  C   UNL A   1      34.168  22.490  24.957  1.00  0.00     0.064 C 
ATOM     15  N   UNL A   1      33.919  21.137  24.496  1.00  0.00    -0.349 N 
ATOM     16  C   UNL A   1      34.878  20.217  24.841  1.00  0.00     0.221 C 
ATOM     17  H   UNL A   1      33.121  20.895  23.972  1.00  0.00     0.164 HD
ATOM     18  C   UNL A   1      35.889  20.920  25.708  1.00  0.00     0.117 C 
ATOM     19  O   UNL A   1      34.841  19.042  24.562  1.00  0.00    -0.275 OA
BRANCH   8  20
ATOM     20  C   UNL A   1      31.526  25.384  24.053  1.00  0.00     0.302 C 
BRANCH  20  21
ATOM     21  C   UNL A   1      30.769  26.695  24.144  1.00  0.00     0.043 A 
ATOM     22  C   UNL A   1      29.751  29.158  23.514  1.00  0.00     0.159 A 
ATOM     23  N   UNL A   1      29.050  28.066  23.139  1.00  0.00    -0.236 NA
ATOM     24  N   UNL A   1      30.840  29.112  24.300  1.00  0.00    -0.236 NA
ATOM     25  C   UNL A   1      29.561  26.864  23.495  1.00  0.00     0.124 A 
ATOM     26  C   UNL A   1      31.337  27.885  24.594  1.00  0.00     0.124 A 
BRANCH  22  27
ATOM     27  C   UNL A   1      29.304  30.461  22.992  1.00  0.00     0.019 A 
ATOM     28  C   UNL A   1      27.796  32.004  19.802  1.00  0.00     0.044 C 
ATOM     29  C   UNL A   1      28.314  31.849  21.206  1.00  0.00    -0.050 A 
ATOM     30  C   UNL A   1      28.255  32.930  22.087  1.00  0.00     0.003 A 
ATOM     31  C   UNL A   1      28.844  30.629  21.664  1.00  0.00     0.015 A 
ATOM     32  C   UNL A   1      28.750  32.802  23.384  1.00  0.00     0.001 A 
ATOM     33  C   UNL A   1      29.277  31.584  23.827  1.00  0.00     0.012 A 
ENDBRANCH  22  27
ENDBRANCH  20  21
ENDBRANCH   8  20
ENDBRANCH   5   7
ENDBRANCH   4   5
ENDBRANCH   3   4
ENDBRANCH   2   3
ENDBRANCH   1   2
BRANCH   1  34
ATOM     34  C   UNL A   1      41.286  24.387  26.433  1.00  0.00     0.202 C 
BRANCH  34  35
ATOM     35  C   UNL A   1      41.919  25.486  25.568  1.00  0.00     0.261 C 
BRANCH  35  36
ATOM     36  O   UNL A   1      41.176  26.727  25.589  1.00  0.00    -0.460 OA
BRANCH  36  37
ATOM     37  C   UNL A   1      41.887  27.892  25.489  1.00  0.00     0.338 C 
ATOM     38  O   UNL A   1      42.549  28.193  24.512  1.00  0.00    -0.246 OA
BRANCH  37  39
ATOM     39  C   UNL A   1      41.630  28.779  26.656  1.00  0.00     0.060 A 
ATOM     40  C   UNL A   1      42.653  29.505  27.290  1.00  0.00     0.016 A 
ATOM     41  C   UNL A   1      40.367  28.726  27.227  1.00  0.00     0.016 A 
ATOM     42  C   UNL A   1      42.442  30.047  28.570  1.00  0.00     0.010 A 
ATOM     43  C   UNL A   1      40.229  29.085  28.544  1.00  0.00     0.010 A 
ATOM     44  C   UNL A   1      41.253  29.761  29.230  1.00  0.00    -0.014 A 
BRANCH  44  45
ATOM     45  C   UNL A   1      40.868  30.103  30.602  1.00  0.00     0.031 A 
ATOM     46  C   UNL A   1      40.133  31.383  30.724  1.00  0.00     0.074 A 
ATOM     47  C   UNL A   1      40.845  29.189  31.611  1.00  0.00     0.049 A 
ATOM     48  N   UNL A   1      39.619  31.794  31.818  1.00  0.00    -0.248 NA
ATOM     49  C   UNL A   1      39.888  32.312  29.614  1.00  0.00     0.031 C 
ATOM     50  C   UNL A   1      40.021  29.153  32.823  1.00  0.00     0.029 A 
ATOM     51  N   UNL A   1      41.637  28.049  31.786  1.00  0.00    -0.354 N 
ATOM     52  C   UNL A   1      38.728  32.793  31.525  1.00  0.00     0.074 A 
ATOM     53  C   UNL A   1      39.012  33.158  30.164  1.00  0.00     0.031 C 
ATOM     54  C   UNL A   1      40.571  28.300  33.713  1.00  0.00     0.029 A 
ATOM     55  C   UNL A   1      41.842  27.859  33.158  1.00  0.00     0.049 A 
ATOM     56  H   UNL A   1      41.990  27.476  31.067  1.00  0.00     0.167 HD
ATOM     57  C   UNL A   1      37.800  33.075  32.481  1.00  0.00     0.037 A 
ATOM     58  C   UNL A   1      43.107  28.034  33.627  1.00  0.00     0.037 A 
ATOM     59  C   UNL A   1      38.223  32.469  33.767  1.00  0.00     0.049 A 
ATOM     60  C   UNL A   1      43.132  29.321  34.427  1.00  0.00     0.074 A 
ATOM     61  C   UNL A   1      37.795  31.454  34.605  1.00  0.00     0.029 A 
ATOM     62  N   UNL A   1      39.525  32.738  34.182  1.00  0.00    -0.354 N 
ATOM     63  N   UNL A   1      42.077  30.081  34.571  1.00  0.00    -0.248 NA
ATOM     64  C   UNL A   1      44.281  29.870  35.128  1.00  0.00     0.031 C 
ATOM     65  C   UNL A   1      38.900  31.085  35.462  1.00  0.00     0.029 A 
ATOM     66  C   UNL A   1      39.989  31.897  35.172  1.00  0.00     0.049 A 
ATOM     67  H   UNL A   1      40.066  33.467  33.802  1.00  0.00     0.167 HD
ATOM     68  C   UNL A   1      42.340  31.168  35.330  1.00  0.00     0.074 A 
ATOM     69  C   UNL A   1      43.763  31.013  35.627  1.00  0.00     0.031 C 
ATOM     70  C   UNL A   1      41.372  32.089  35.641  1.00  0.00     0.037 A 
BRANCH  57  71
ATOM     71  C   UNL A   1      36.500  33.818  32.237  1.00  0.00     0.058 A 
ATOM     72  C   UNL A   1      35.992  34.690  33.221  1.00  0.00     0.135 A 
ATOM     73  C   UNL A   1      35.657  33.673  31.106  1.00  0.00     0.135 A 
ATOM     74  F   UNL A   1      36.648  34.889  34.374  1.00  0.00    -0.206 F 
ATOM     75  C   UNL A   1      34.777  35.374  33.086  1.00  0.00     0.059 A 
ATOM     76  C   UNL A   1      34.463  34.379  30.929  1.00  0.00     0.059 A 
ATOM     77  F   UNL A   1      35.904  32.795  30.130  1.00  0.00    -0.206 F 
ATOM     78  C   UNL A   1      34.024  35.226  31.928  1.00  0.00     0.060 A 
BRANCH  78  79
ATOM     79  S   UNL A   1      32.472  36.125  31.756  1.00  0.00     0.124 S 
ATOM     80  O   UNL A   1      31.532  35.242  32.439  1.00  0.00    -0.237 OA
ATOM     81  O   UNL A   1      32.769  37.384  32.431  1.00  0.00    -0.237 OA
ATOM     82  O   UNL A   1      32.290  36.224  30.310  1.00  0.00    -0.744 OA
ENDBRANCH  78  79
ENDBRANCH  57  71
BRANCH  58  83
ATOM     83  C   UNL A   1      44.105  27.430  32.656  1.00  0.00     0.058 A 
ATOM     84  C   UNL A   1      44.206  26.012  32.635  1.00  0.00     0.135 A 
ATOM     85  C   UNL A   1      44.499  28.083  31.478  1.00  0.00     0.135 A 
ATOM     86  F   UNL A   1      43.839  25.311  33.719  1.00  0.00    -0.206 F 
ATOM     87  C   UNL A   1      44.509  25.282  31.475  1.00  0.00     0.059 A 
ATOM     88  C   UNL A   1      44.814  27.369  30.304  1.00  0.00     0.059 A 
ATOM     89  F   UNL A   1      44.426  29.420  31.395  1.00  0.00    -0.206 F 
ATOM     90  C   UNL A   1      44.750  25.974  30.293  1.00  0.00     0.060 A 
BRANCH  90  91
ATOM     91  S   UNL A   1      44.735  25.059  28.714  1.00  0.00     0.124 S 
ATOM     92  O   UNL A   1      43.692  24.067  28.937  1.00  0.00    -0.237 OA
ATOM     93  O   UNL A   1      44.428  26.102  27.737  1.00  0.00    -0.237 OA
ATOM     94  O   UNL A   1      46.094  24.537  28.621  1.00  0.00    -0.744 OA
ENDBRANCH  90  91
ENDBRANCH  58  83
BRANCH  70  95
ATOM     95  C   UNL A   1      41.717  33.343  36.389  1.00  0.00     0.058 A 
ATOM     96  C   UNL A   1      41.323  33.555  37.716  1.00  0.00     0.135 A 
ATOM     97  C   UNL A   1      42.441  34.395  35.780  1.00  0.00     0.135 A 
ATOM     98  F   UNL A   1      40.517  32.684  38.345  1.00  0.00    -0.206 F 
ATOM     99  C   UNL A   1      41.752  34.663  38.438  1.00  0.00     0.059 A 
ATOM    100  C   UNL A   1      42.804  35.546  36.454  1.00  0.00     0.059 A 
ATOM    101  F   UNL A   1      42.879  34.336  34.516  1.00  0.00    -0.206 F 
ATOM    102  C   UNL A   1      42.506  35.644  37.799  1.00  0.00     0.060 A 
BRANCH 102 103
ATOM    103  S   UNL A   1      43.102  37.057  38.730  1.00  0.00     0.124 S 
ATOM    104  O   UNL A   1      43.433  38.008  37.674  1.00  0.00    -0.237 OA
ATOM    105  O   UNL A   1      41.930  37.383  39.536  1.00  0.00    -0.237 OA
ATOM    106  O   UNL A   1      44.243  36.522  39.466  1.00  0.00    -0.744 OA
ENDBRANCH 102 103
ENDBRANCH  70  95
ENDBRANCH  44  45
ENDBRANCH  37  39
ENDBRANCH  36  37
ENDBRANCH  35  36
ENDBRANCH  34  35
ENDBRANCH   1  34
TORSDOF 20
ENDMDL
MODEL 2
REMARK VINA RESULT:     -12.1      1.801      2.762
REMARK SMILES Cc1cccc(-c2ncc(C[NH+]3CCC4(CC3)NC(=O)C[C@H]4C(=O)OCCOCCOC(=O)c3ccc(-c4c5nc(c(-c6c(F)cc(S(=O)(=O)[O-])cc6F)c6ccc([nH]6)c(-c6c(F)cc(S(=O)(=O)[O-])cc6F)c6nc(c(-c7c(F)cc(S(=O)(=O)[O-])cc7F)c7ccc4[nH]7)C=C6)C=C5)cc3)cn2)c1
REMARK SMILES IDX 28 1 27 2 26 3 25 4 23 5 24 6 22 7 12 8 13 9 17 10 14 12
REMARK SMILES IDX 16 13 15 14 18 15 19 16 21 18 20 19 11 20 10 21 7 22 8 23
REMARK SMILES IDX 101 24 9 25 100 26 6 27 1 28 2 29 3 30 102 31 4 32 5 33
REMARK SMILES IDX 29 34 30 35 31 36 32 37 33 38 34 39 35 40 99 41 36 42 98 43
REMARK SMILES IDX 37 44 38 45 39 46 92 47 40 48 97 49 91 50 93 51 41 52 96 53
REMARK SMILES IDX 90 54 89 55 42 57 76 58 55 59 75 60 56 61 59 62 74 63 94 64
REMARK SMILES IDX 57 65 58 66 73 68 95 69 60 70 43 71 44 72 53 73 45 74 46 75
REMARK SMILES IDX 52 76 54 77 47 78 48 79 49 80 50 81 51 82 77 83 78 84 87 85
REMARK SMILES IDX 79 86 80 87 86 88 88 89 81 90 82 91 83 92 84 93 85 94 61 95
REMARK SMILES IDX 62 96 71 97 63 98 64 99 70 100 72 101 65 102 66 103 67 104
REMARK SMILES IDX 68 105 69 106
REMARK H PARENT 12 11 18 17 93 56 59 67
REMARK Flexibility Score: inf
ROOT
ATOM      1  O   UNL A   1      39.825  24.196  26.519  1.00  0.00    -0.374 OA
ENDROOT
BRANCH   1   2
ATOM      2  C   UNL A   1      38.504  24.648  26.759  1.00  0.00     0.202 C 
BRANCH   2   3
ATOM      3  C   UNL A   1      37.570  23.532  26.377  1.00  0.00     0.261 C 
BRANCH   3   4
ATOM      4  O   UNL A   1      36.154  23.818  26.129  1.00  0.00    -0.463 OA
BRANCH   4   5
ATOM      5  C   UNL A   1      35.123  22.991  26.445  1.00  0.00     0.311 C 
ATOM      6  O   UNL A   1      34.705  22.765  27.570  1.00  0.00    -0.252 OA
BRANCH   5   7
ATOM      7  C   UNL A   1      34.513  22.351  25.183  1.00  0.00     0.134 C 
ATOM      8  N   UNL A   1      30.930  24.265  25.085  1.00  0.00    -0.331 N 
ATOM      9  C   UNL A   1      31.079  23.065  24.258  1.00  0.00     0.264 C 
ATOM     10  C   UNL A   1      32.131  24.449  25.874  1.00  0.00     0.264 C 
ATOM     11  H   UNL A   1      30.111  24.027  25.645  1.00  0.00     0.348 HD
ATOM     12  C   UNL A   1      32.443  22.791  23.561  1.00  0.00     0.091 C 
ATOM     13  C   UNL A   1      33.310  24.607  24.936  1.00  0.00     0.091 C 
ATOM     14  C   UNL A   1      33.725  23.323  24.273  1.00  0.00     0.064 C 
ATOM     15  N   UNL A   1      34.696  23.633  23.239  1.00  0.00    -0.349 N 
ATOM     16  C   UNL A   1      35.811  22.833  23.228  1.00  0.00     0.221 C 
ATOM     17  H   UNL A   1      34.565  24.364  22.593  1.00  0.00     0.164 HD
ATOM     18  C   UNL A   1      35.624  21.779  24.287  1.00  0.00     0.117 C 
ATOM     19  O   UNL A   1      36.721  22.925  22.438  1.00  0.00    -0.275 OA
BRANCH   8  20
ATOM     20  C   UNL A   1      30.380  25.539  24.544  1.00  0.00     0.302 C 
BRANCH  20  21
ATOM     21  C   UNL A   1      30.830  26.847  25.166  1.00  0.00     0.043 A 
ATOM     22  C   UNL A   1      32.391  28.765  26.341  1.00  0.00     0.159 A 
ATOM     23  N   UNL A   1      32.380  28.695  24.992  1.00  0.00    -0.236 NA
ATOM     24  N   UNL A   1      31.575  28.048  27.133  1.00  0.00    -0.236 NA
ATOM     25  C   UNL A   1      31.571  27.760  24.440  1.00  0.00     0.124 A 
ATOM     26  C   UNL A   1      30.817  27.096  26.536  1.00  0.00     0.124 A 
BRANCH  22  27
ATOM     27  C   UNL A   1      33.386  29.655  26.964  1.00  0.00     0.019 A 
ATOM     28  C   UNL A   1      37.118  29.706  27.912  1.00  0.00     0.044 C 
ATOM     29  C   UNL A   1      35.694  30.140  27.694  1.00  0.00    -0.050 A 
ATOM     30  C   UNL A   1      35.325  31.459  27.965  1.00  0.00     0.003 A 
ATOM     31  C   UNL A   1      34.721  29.251  27.203  1.00  0.00     0.015 A 
ATOM     32  C   UNL A   1      34.004  31.866  27.785  1.00  0.00     0.001 A 
ATOM     33  C   UNL A   1      33.045  30.970  27.299  1.00  0.00     0.012 A 
ENDBRANCH  22  27
ENDBRANCH  20  21
ENDBRANCH   8  20
ENDBRANCH   5   7
ENDBRANCH   4   5
ENDBRANCH   3   4
ENDBRANCH   2   3
ENDBRANCH   1   2
BRANCH   1  34
ATOM     34  C   UNL A   1      40.907  25.046  26.845  1.00  0.00     0.202 C 
BRANCH  34  35
ATOM     35  C   UNL A   1      41.552  25.835  25.698  1.00  0.00     0.261 C 
BRANCH  35  36
ATOM     36  O   UNL A   1      42.501  26.829  26.152  1.00  0.00    -0.460 OA
BRANCH  36  37
ATOM     37  C   UNL A   1      42.291  28.126  25.770  1.00  0.00     0.338 C 
ATOM     38  O   UNL A   1      42.260  28.486  24.607  1.00  0.00    -0.246 OA
BRANCH  37  39
ATOM     39  C   UNL A   1      41.975  28.986  26.942  1.00  0.00     0.060 A 
ATOM     40  C   UNL A   1      42.960  29.718  27.627  1.00  0.00     0.016 A 
ATOM     41  C   UNL A   1      40.693  28.898  27.465  1.00  0.00     0.016 A 
ATOM     42  C   UNL A   1      42.692  30.232  28.908  1.00  0.00     0.010 A 
ATOM     43  C   UNL A   1      40.499  29.230  28.783  1.00  0.00     0.010 A 
ATOM     44  C   UNL A   1      41.485  29.911  29.518  1.00  0.00    -0.014 A 
BRANCH  44  45
ATOM     45  C   UNL A   1      41.043  30.220  30.881  1.00  0.00     0.031 A 
ATOM     46  C   UNL A   1      40.301  31.496  31.003  1.00  0.00     0.074 A 
ATOM     47  C   UNL A   1      40.982  29.282  31.867  1.00  0.00     0.049 A 
ATOM     48  N   UNL A   1      39.743  31.880  32.086  1.00  0.00    -0.248 NA
ATOM     49  C   UNL A   1      40.100  32.451  29.907  1.00  0.00     0.031 C 
ATOM     50  C   UNL A   1      40.109  29.216  33.042  1.00  0.00     0.029 A 
ATOM     51  N   UNL A   1      41.768  28.139  32.047  1.00  0.00    -0.354 N 
ATOM     52  C   UNL A   1      38.862  32.885  31.781  1.00  0.00     0.074 A 
ATOM     53  C   UNL A   1      39.201  33.283  30.441  1.00  0.00     0.031 C 
ATOM     54  C   UNL A   1      40.624  28.343  33.934  1.00  0.00     0.029 A 
ATOM     55  C   UNL A   1      41.917  27.917  33.421  1.00  0.00     0.049 A 
ATOM     56  H   UNL A   1      42.151  27.583  31.329  1.00  0.00     0.167 HD
ATOM     57  C   UNL A   1      37.895  33.143  32.704  1.00  0.00     0.037 A 
ATOM     58  C   UNL A   1      43.161  28.082  33.945  1.00  0.00     0.037 A 
ATOM     59  C   UNL A   1      38.267  32.506  33.992  1.00  0.00     0.049 A 
ATOM     60  C   UNL A   1      43.151  29.349  34.776  1.00  0.00     0.074 A 
ATOM     61  C   UNL A   1      37.807  31.471  34.787  1.00  0.00     0.029 A 
ATOM     62  N   UNL A   1      39.550  32.767  34.466  1.00  0.00    -0.354 N 
ATOM     63  N   UNL A   1      42.090  30.104  34.895  1.00  0.00    -0.248 NA
ATOM     64  C   UNL A   1      44.270  29.882  35.536  1.00  0.00     0.031 C 
ATOM     65  C   UNL A   1      38.877  31.084  35.679  1.00  0.00     0.029 A 
ATOM     66  C   UNL A   1      39.975  31.903  35.453  1.00  0.00     0.049 A 
ATOM     67  H   UNL A   1      40.105  33.505  34.126  1.00  0.00     0.167 HD
ATOM     68  C   UNL A   1      42.319  31.173  35.690  1.00  0.00     0.074 A 
ATOM     69  C   UNL A   1      43.729  31.012  36.040  1.00  0.00     0.031 C 
ATOM     70  C   UNL A   1      41.338  32.085  35.983  1.00  0.00     0.037 A 
BRANCH  57  71
ATOM     71  C   UNL A   1      36.605  33.890  32.425  1.00  0.00     0.058 A 
ATOM     72  C   UNL A   1      36.004  34.661  33.441  1.00  0.00     0.135 A 
ATOM     73  C   UNL A   1      35.857  33.840  31.221  1.00  0.00     0.135 A 
ATOM     74  F   UNL A   1      36.562  34.760  34.656  1.00  0.00    -0.206 F 
ATOM     75  C   UNL A   1      34.790  35.340  33.271  1.00  0.00     0.059 A 
ATOM     76  C   UNL A   1      34.667  34.546  31.014  1.00  0.00     0.059 A 
ATOM     77  F   UNL A   1      36.198  33.060  30.192  1.00  0.00    -0.206 F 
ATOM     78  C   UNL A   1      34.135  35.292  32.047  1.00  0.00     0.060 A 
BRANCH  78  79
ATOM     79  S   UNL A   1      32.584  36.184  31.833  1.00  0.00     0.124 S 
ATOM     80  O   UNL A   1      31.638  35.324  32.537  1.00  0.00    -0.237 OA
ATOM     81  O   UNL A   1      32.876  37.465  32.469  1.00  0.00    -0.237 OA
ATOM     82  O   UNL A   1      32.415  36.237  30.383  1.00  0.00    -0.744 OA
ENDBRANCH  78  79
ENDBRANCH  57  71
BRANCH  58  83
ATOM     83  C   UNL A   1      44.200  27.502  33.001  1.00  0.00     0.058 A 
ATOM     84  C   UNL A   1      44.191  26.091  32.822  1.00  0.00     0.135 A 
ATOM     85  C   UNL A   1      44.756  28.244  31.947  1.00  0.00     0.135 A 
ATOM     86  F   UNL A   1      43.668  25.311  33.781  1.00  0.00    -0.206 F 
ATOM     87  C   UNL A   1      44.549  25.469  31.616  1.00  0.00     0.059 A 
ATOM     88  C   UNL A   1      45.128  27.637  30.730  1.00  0.00     0.059 A 
ATOM     89  F   UNL A   1      44.795  29.582  32.016  1.00  0.00    -0.206 F 
ATOM     90  C   UNL A   1      44.956  26.263  30.549  1.00  0.00     0.060 A 
BRANCH  90  91
ATOM     91  S   UNL A   1      45.025  25.532  28.879  1.00  0.00     0.124 S 
ATOM     92  O   UNL A   1      43.794  24.755  28.827  1.00  0.00    -0.237 OA
ATOM     93  O   UNL A   1      45.077  26.707  28.012  1.00  0.00    -0.237 OA
ATOM     94  O   UNL A   1      46.261  24.757  28.907  1.00  0.00    -0.744 OA
ENDBRANCH  90  91
ENDBRANCH  58  83
BRANCH  70  95
ATOM     95  C   UNL A   1      41.650  33.322  36.774  1.00  0.00     0.058 A 
ATOM     96  C   UNL A   1      42.400  34.378  36.243  1.00  0.00     0.135 A 
ATOM     97  C   UNL A   1      41.222  33.474  38.112  1.00  0.00     0.135 A 
ATOM     98  F   UNL A   1      42.971  34.280  35.031  1.00  0.00    -0.206 F 
ATOM     99  C   UNL A   1      42.579  35.570  36.938  1.00  0.00     0.059 A 
ATOM    100  C   UNL A   1      41.463  34.616  38.853  1.00  0.00     0.059 A 
ATOM    101  F   UNL A   1      40.501  32.546  38.753  1.00  0.00    -0.206 F 
ATOM    102  C   UNL A   1      42.091  35.682  38.237  1.00  0.00     0.060 A 
BRANCH 102 103
ATOM    103  S   UNL A   1      42.277  37.227  39.128  1.00  0.00     0.124 S 
ATOM    104  O   UNL A   1      40.896  37.685  39.247  1.00  0.00    -0.237 OA
ATOM    105  O   UNL A   1      42.903  36.771  40.365  1.00  0.00    -0.237 OA
ATOM    106  O   UNL A   1      43.125  38.026  38.250  1.00  0.00    -0.744 OA
ENDBRANCH 102 103
ENDBRANCH  70  95
ENDBRANCH  44  45
ENDBRANCH  37  39
ENDBRANCH  36  37
ENDBRANCH  35  36
ENDBRANCH  34  35
ENDBRANCH   1  34
TORSDOF 20
ENDMDL
MODEL 3
REMARK VINA RESULT:     -11.2      6.055     12.724
REMARK SMILES Cc1cccc(-c2ncc(C[NH+]3CCC4(CC3)NC(=O)C[C@H]4C(=O)OCCOCCOC(=O)c3ccc(-c4c5nc(c(-c6c(F)cc(S(=O)(=O)[O-])cc6F)c6ccc([nH]6)c(-c6c(F)cc(S(=O)(=O)[O-])cc6F)c6nc(c(-c7c(F)cc(S(=O)(=O)[O-])cc7F)c7ccc4[nH]7)C=C6)C=C5)cc3)cn2)c1
REMARK SMILES IDX 28 1 27 2 26 3 25 4 23 5 24 6 22 7 12 8 13 9 17 10 14 12
REMARK SMILES IDX 16 13 15 14 18 15 19 16 21 18 20 19 11 20 10 21 7 22 8 23
REMARK SMILES IDX 101 24 9 25 100 26 6 27 1 28 2 29 3 30 102 31 4 32 5 33
REMARK SMILES IDX 29 34 30 35 31 36 32 37 33 38 34 39 35 40 99 41 36 42 98 43
REMARK SMILES IDX 37 44 38 45 39 46 92 47 40 48 97 49 91 50 93 51 41 52 96 53
REMARK SMILES IDX 90 54 89 55 42 57 76 58 55 59 75 60 56 61 59 62 74 63 94 64
REMARK SMILES IDX 57 65 58 66 73 68 95 69 60 70 43 71 44 72 53 73 45 74 46 75
REMARK SMILES IDX 52 76 54 77 47 78 48 79 49 80 50 81 51 82 77 83 78 84 87 85
REMARK SMILES IDX 79 86 80 87 86 88 88 89 81 90 82 91 83 92 84 93 85 94 61 95
REMARK SMILES IDX 62 96 71 97 63 98 64 99 70 100 72 101 65 102 66 103 67 104
REMARK SMILES IDX 68 105 69 106
REMARK H PARENT 12 11 18 17 93 56 59 67
REMARK Flexibility Score: inf
ROOT
ATOM      1  O   UNL A   1      38.534  30.076  35.364  1.00  0.00    -0.374 OA
ENDROOT
BRANCH   1   2
ATOM      2  C   UNL A   1      38.232  30.369  34.012  1.00  0.00     0.202 C 
BRANCH   2   3
ATOM      3  C   UNL A   1      38.304  29.077  33.244  1.00  0.00     0.261 C 
BRANCH   3   4
ATOM      4  O   UNL A   1      37.270  28.757  32.256  1.00  0.00    -0.463 OA
BRANCH   4   5
ATOM      5  C   UNL A   1      36.948  29.528  31.185  1.00  0.00     0.311 C 
ATOM      6  O   UNL A   1      35.855  29.580  30.642  1.00  0.00    -0.252 OA
BRANCH   5   7
ATOM      7  C   UNL A   1      38.153  30.365  30.717  1.00  0.00     0.134 C 
ATOM      8  N   UNL A   1      40.422  27.450  29.025  1.00  0.00    -0.331 N 
ATOM      9  C   UNL A   1      41.072  28.730  29.314  1.00  0.00     0.264 C 
ATOM     10  C   UNL A   1      39.064  27.481  29.531  1.00  0.00     0.264 C 
ATOM     11  H   UNL A   1      41.025  26.797  29.526  1.00  0.00     0.348 HD
ATOM     12  C   UNL A   1      40.266  30.048  29.122  1.00  0.00     0.091 C 
ATOM     13  C   UNL A   1      38.318  28.609  28.849  1.00  0.00     0.091 C 
ATOM     14  C   UNL A   1      38.722  29.974  29.332  1.00  0.00     0.064 C 
ATOM     15  N   UNL A   1      38.121  30.967  28.461  1.00  0.00    -0.349 N 
ATOM     16  C   UNL A   1      37.513  32.016  29.104  1.00  0.00     0.221 C 
ATOM     17  H   UNL A   1      38.145  30.893  27.479  1.00  0.00     0.164 HD
ATOM     18  C   UNL A   1      37.752  31.843  30.580  1.00  0.00     0.117 C 
ATOM     19  O   UNL A   1      36.971  32.945  28.552  1.00  0.00    -0.275 OA
BRANCH   8  20
ATOM     20  C   UNL A   1      40.541  26.780  27.700  1.00  0.00     0.302 C 
BRANCH  20  21
ATOM     21  C   UNL A   1      40.728  25.276  27.659  1.00  0.00     0.043 A 
ATOM     22  C   UNL A   1      41.582  22.782  26.918  1.00  0.00     0.159 A 
ATOM     23  N   UNL A   1      42.333  23.474  27.803  1.00  0.00    -0.236 NA
ATOM     24  N   UNL A   1      40.373  23.183  26.491  1.00  0.00    -0.236 NA
ATOM     25  C   UNL A   1      41.867  24.688  28.177  1.00  0.00     0.124 A 
ATOM     26  C   UNL A   1      39.970  24.424  26.859  1.00  0.00     0.124 A 
BRANCH  22  27
ATOM     27  C   UNL A   1      42.154  21.539  26.371  1.00  0.00     0.019 A 
ATOM     28  C   UNL A   1      45.371  20.261  24.684  1.00  0.00     0.044 C 
ATOM     29  C   UNL A   1      44.009  20.292  25.322  1.00  0.00    -0.050 A 
ATOM     30  C   UNL A   1      43.312  19.099  25.524  1.00  0.00     0.003 A 
ATOM     31  C   UNL A   1      43.420  21.500  25.741  1.00  0.00     0.015 A 
ATOM     32  C   UNL A   1      42.042  19.120  26.096  1.00  0.00     0.001 A 
ATOM     33  C   UNL A   1      41.467  20.328  26.506  1.00  0.00     0.012 A 
ENDBRANCH  22  27
ENDBRANCH  20  21
ENDBRANCH   8  20
ENDBRANCH   5   7
ENDBRANCH   4   5
ENDBRANCH   3   4
ENDBRANCH   2   3
ENDBRANCH   1   2
BRANCH   1  34
ATOM     34  C   UNL A   1      39.336  30.981  36.097  1.00  0.00     0.202 C 
BRANCH  34  35
ATOM     35  C   UNL A   1      40.225  31.941  35.296  1.00  0.00     0.261 C 
BRANCH  35  36
ATOM     36  O   UNL A   1      39.562  33.180  34.951  1.00  0.00    -0.460 OA
BRANCH  36  37
ATOM     37  C   UNL A   1      40.326  34.314  34.897  1.00  0.00     0.338 C 
ATOM     38  O   UNL A   1      40.736  34.894  35.886  1.00  0.00    -0.246 OA
BRANCH  37  39
ATOM     39  C   UNL A   1      40.695  34.646  33.494  1.00  0.00     0.060 A 
ATOM     40  C   UNL A   1      39.972  34.159  32.390  1.00  0.00     0.016 A 
ATOM     41  C   UNL A   1      41.898  35.305  33.293  1.00  0.00     0.016 A 
ATOM     42  C   UNL A   1      40.537  34.205  31.104  1.00  0.00     0.010 A 
ATOM     43  C   UNL A   1      42.522  35.174  32.078  1.00  0.00     0.010 A 
ATOM     44  C   UNL A   1      41.851  34.638  30.965  1.00  0.00    -0.014 A 
BRANCH  44  45
ATOM     45  C   UNL A   1      42.683  34.650  29.759  1.00  0.00     0.031 A 
ATOM     46  C   UNL A   1      43.463  33.409  29.548  1.00  0.00     0.074 A 
ATOM     47  C   UNL A   1      42.491  35.533  28.740  1.00  0.00     0.049 A 
ATOM     48  N   UNL A   1      44.158  33.188  28.499  1.00  0.00    -0.248 NA
ATOM     49  C   UNL A   1      43.516  32.288  30.493  1.00  0.00     0.031 C 
ATOM     50  C   UNL A   1      42.785  35.391  27.311  1.00  0.00     0.029 A 
ATOM     51  N   UNL A   1      41.993  36.839  28.787  1.00  0.00    -0.354 N 
ATOM     52  C   UNL A   1      44.449  31.850  28.451  1.00  0.00     0.074 A 
ATOM     53  C   UNL A   1      44.132  31.354  29.763  1.00  0.00     0.031 C 
ATOM     54  C   UNL A   1      42.790  36.610  26.732  1.00  0.00     0.029 A 
ATOM     55  C   UNL A   1      42.631  37.592  27.794  1.00  0.00     0.049 A 
ATOM     56  H   UNL A   1      41.308  37.174  29.411  1.00  0.00     0.167 HD
ATOM     57  C   UNL A   1      44.818  31.354  27.238  1.00  0.00     0.037 A 
ATOM     58  C   UNL A   1      43.476  38.576  28.207  1.00  0.00     0.037 A 
ATOM     59  C   UNL A   1      45.171  32.479  26.338  1.00  0.00     0.049 A 
ATOM     60  C   UNL A   1      44.892  38.126  27.913  1.00  0.00     0.074 A 
ATOM     61  C   UNL A   1      44.663  33.065  25.191  1.00  0.00     0.029 A 
ATOM     62  N   UNL A   1      46.074  33.415  26.837  1.00  0.00    -0.354 N 
ATOM     63  N   UNL A   1      45.165  36.966  27.372  1.00  0.00    -0.248 NA
ATOM     64  C   UNL A   1      46.103  38.889  28.169  1.00  0.00     0.031 C 
ATOM     65  C   UNL A   1      45.229  34.391  25.079  1.00  0.00     0.029 A 
ATOM     66  C   UNL A   1      46.108  34.600  26.133  1.00  0.00     0.049 A 
ATOM     67  H   UNL A   1      46.640  33.243  27.624  1.00  0.00     0.167 HD
ATOM     68  C   UNL A   1      46.494  36.791  27.199  1.00  0.00     0.074 A 
ATOM     69  C   UNL A   1      47.052  38.021  27.757  1.00  0.00     0.031 C 
ATOM     70  C   UNL A   1      47.009  35.660  26.619  1.00  0.00     0.037 A 
BRANCH  57  71
ATOM     71  C   UNL A   1      44.786  29.887  26.853  1.00  0.00     0.058 A 
ATOM     72  C   UNL A   1      45.993  29.177  26.687  1.00  0.00     0.135 A 
ATOM     73  C   UNL A   1      43.626  29.129  26.555  1.00  0.00     0.135 A 
ATOM     74  F   UNL A   1      47.178  29.774  26.878  1.00  0.00    -0.206 F 
ATOM     75  C   UNL A   1      46.044  27.835  26.288  1.00  0.00     0.059 A 
ATOM     76  C   UNL A   1      43.650  27.776  26.199  1.00  0.00     0.059 A 
ATOM     77  F   UNL A   1      42.402  29.663  26.529  1.00  0.00    -0.206 F 
ATOM     78  C   UNL A   1      44.865  27.135  26.062  1.00  0.00     0.060 A 
BRANCH  78  79
ATOM     79  S   UNL A   1      44.941  25.404  25.568  1.00  0.00     0.124 S 
ATOM     80  O   UNL A   1      45.993  25.421  24.557  1.00  0.00    -0.237 OA
ATOM     81  O   UNL A   1      45.275  24.740  26.824  1.00  0.00    -0.237 OA
ATOM     82  O   UNL A   1      43.598  25.132  25.061  1.00  0.00    -0.744 OA
ENDBRANCH  78  79
ENDBRANCH  57  71
BRANCH  58  83
ATOM     83  C   UNL A   1      42.875  39.306  29.395  1.00  0.00     0.058 A 
ATOM     84  C   UNL A   1      43.569  39.203  30.631  1.00  0.00     0.135 A 
ATOM     85  C   UNL A   1      42.062  40.441  29.248  1.00  0.00     0.135 A 
ATOM     86  F   UNL A   1      44.376  38.152  30.847  1.00  0.00    -0.206 F 
ATOM     87  C   UNL A   1      43.593  40.233  31.585  1.00  0.00     0.059 A 
ATOM     88  C   UNL A   1      42.065  41.483  30.197  1.00  0.00     0.059 A 
ATOM     89  F   UNL A   1      41.379  40.634  28.111  1.00  0.00    -0.206 F 
ATOM     90  C   UNL A   1      42.885  41.402  31.326  1.00  0.00     0.060 A 
BRANCH  90  91
ATOM     91  S   UNL A   1      43.227  42.885  32.331  1.00  0.00     0.124 S 
ATOM     92  O   UNL A   1      42.573  43.939  31.566  1.00  0.00    -0.237 OA
ATOM     93  O   UNL A   1      42.618  42.556  33.617  1.00  0.00    -0.237 OA
ATOM     94  O   UNL A   1      44.685  42.938  32.358  1.00  0.00    -0.744 OA
ENDBRANCH  90  91
ENDBRANCH  58  83
BRANCH  70  95
ATOM     95  C   UNL A   1      48.491  35.442  26.543  1.00  0.00     0.058 A 
ATOM     96  C   UNL A   1      49.252  35.087  27.664  1.00  0.00     0.135 A 
ATOM     97  C   UNL A   1      49.206  35.611  25.335  1.00  0.00     0.135 A 
ATOM     98  F   UNL A   1      48.700  35.034  28.887  1.00  0.00    -0.206 F 
ATOM     99  C   UNL A   1      50.602  34.768  27.560  1.00  0.00     0.059 A 
ATOM    100  C   UNL A   1      50.565  35.384  25.227  1.00  0.00     0.059 A 
ATOM    101  F   UNL A   1      48.613  35.954  24.185  1.00  0.00    -0.206 F 
ATOM    102  C   UNL A   1      51.243  34.905  26.331  1.00  0.00     0.060 A 
BRANCH 102 103
ATOM    103  S   UNL A   1      52.972  34.455  26.174  1.00  0.00     0.124 S 
ATOM    104  O   UNL A   1      53.199  33.665  27.380  1.00  0.00    -0.237 OA
ATOM    105  O   UNL A   1      52.960  33.710  24.919  1.00  0.00    -0.237 OA
ATOM    106  O   UNL A   1      53.657  35.743  26.135  1.00  0.00    -0.744 OA
ENDBRANCH 102 103
ENDBRANCH  70  95
ENDBRANCH  44  45
ENDBRANCH  37  39
ENDBRANCH  36  37
ENDBRANCH  35  36
ENDBRANCH  34  35
ENDBRANCH   1  34
TORSDOF 20
ENDMDL
