MODEL 1
REMARK VINA RESULT:     -12.0      0.000      0.000
REMARK SMILES O=C(OCCOCCOC(=O)c1ccc(-c2c3nc(c(-c4c(F)cc(S(=O)(=O)[O-])cc4F)c4ccc([nH]4)c(-c4c(F)cc(S(=O)(=O)[O-])cc4F)c4nc(c(-c5c(F)cc(S(=O)(=O)[O-])cc5F)c5ccc2[nH]5)C=C4)C=C3)cc1)C1=NN(c2ccc(S(=O)(=O)[O-])cc2)C(=O)/C1=C/Nc1ccccc1
REMARK SMILES IDX 7 1 6 2 5 3 4 4 3 5 2 6 1 7 78 8 79 9 93 10 80 11 91 12
REMARK SMILES IDX 94 13 92 14 81 15 82 16 90 17 83 18 89 19 84 20 85 21 86 22
REMARK SMILES IDX 87 23 88 24 95 25 96 27 97 28 101 29 98 30 100 31 99 32 8 33
REMARK SMILES IDX 9 34 10 35 11 36 12 37 13 38 77 39 14 40 76 41 15 42 16 43
REMARK SMILES IDX 17 44 70 45 18 46 75 47 69 48 71 49 19 50 74 51 68 52 67 53
REMARK SMILES IDX 20 55 54 56 33 57 53 58 34 59 37 60 52 61 72 62 35 63 36 64
REMARK SMILES IDX 51 66 73 67 38 68 21 69 22 70 31 71 23 72 24 73 30 74 32 75
REMARK SMILES IDX 25 76 26 77 27 78 28 79 29 80 55 81 56 82 65 83 57 84 58 85
REMARK SMILES IDX 64 86 66 87 59 88 60 89 61 90 62 91 63 92 39 93 40 94 49 95
REMARK SMILES IDX 41 96 42 97 48 98 50 99 43 100 44 101 45 102 46 103 47 104
REMARK H PARENT 95 26 71 54 37 65
REMARK Flexibility Score: inf
ROOT
ATOM      1  C   UNL A   1      35.411  23.419  25.507  1.00  0.00     0.202 C 
ENDROOT
BRANCH   1   2
ATOM      2  O   UNL A   1      34.723  23.662  26.744  1.00  0.00    -0.374 OA
BRANCH   2   3
ATOM      3  C   UNL A   1      34.301  22.495  27.463  1.00  0.00     0.202 C 
BRANCH   3   4
ATOM      4  C   UNL A   1      32.801  22.529  27.730  1.00  0.00     0.261 C 
BRANCH   4   5
ATOM      5  O   UNL A   1      32.246  23.808  27.408  1.00  0.00    -0.458 OA
BRANCH   5   6
ATOM      6  C   UNL A   1      31.208  23.873  26.549  1.00  0.00     0.359 C 
ATOM      7  O   UNL A   1      30.140  24.401  26.845  1.00  0.00    -0.244 OA
BRANCH   6   8
ATOM      8  C   UNL A   1      31.479  23.635  25.086  1.00  0.00     0.183 C 
ATOM      9  N   UNL A   1      31.160  22.417  24.729  1.00  0.00    -0.157 NA
ATOM     10  C   UNL A   1      32.331  24.333  24.063  1.00  0.00     0.093 C 
ATOM     11  N   UNL A   1      31.925  22.130  23.635  1.00  0.00    -0.196 N 
ATOM     12  C   UNL A   1      32.539  23.241  23.053  1.00  0.00     0.282 C 
ATOM     13  C   UNL A   1      33.008  25.456  23.741  1.00  0.00     0.099 C 
ATOM     14  O   UNL A   1      33.192  23.310  22.026  1.00  0.00    -0.267 OA
BRANCH  11  15
ATOM     15  C   UNL A   1      32.483  20.827  23.658  1.00  0.00     0.069 A 
ATOM     16  C   UNL A   1      32.069  19.870  22.714  1.00  0.00     0.030 A 
ATOM     17  C   UNL A   1      33.290  20.415  24.728  1.00  0.00     0.030 A 
ATOM     18  C   UNL A   1      32.480  18.541  22.816  1.00  0.00     0.021 A 
ATOM     19  C   UNL A   1      33.689  19.085  24.850  1.00  0.00     0.021 A 
ATOM     20  C   UNL A   1      33.299  18.163  23.881  1.00  0.00     0.054 A 
BRANCH  20  21
ATOM     21  S   UNL A   1      33.860  16.493  23.967  1.00  0.00     0.124 S 
ATOM     22  O   UNL A   1      32.869  15.714  24.672  1.00  0.00    -0.237 OA
ATOM     23  O   UNL A   1      34.327  16.122  22.649  1.00  0.00    -0.237 OA
ATOM     24  O   UNL A   1      35.184  16.522  24.891  1.00  0.00    -0.744 OA
ENDBRANCH  20  21
ENDBRANCH  11  15
BRANCH  13  25
ATOM     25  N   UNL A   1      33.236  26.661  24.356  1.00  0.00    -0.361 N 
ATOM     26  H   UNL A   1      34.137  27.037  24.228  1.00  0.00     0.166 HD
BRANCH  25  27
ATOM     27  C   UNL A   1      32.343  27.453  25.164  1.00  0.00     0.038 A 
ATOM     28  C   UNL A   1      32.013  28.738  24.686  1.00  0.00     0.026 A 
ATOM     29  C   UNL A   1      32.247  27.230  26.550  1.00  0.00     0.026 A 
ATOM     30  C   UNL A   1      31.745  29.799  25.562  1.00  0.00     0.002 A 
ATOM     31  C   UNL A   1      31.962  28.292  27.426  1.00  0.00     0.002 A 
ATOM     32  C   UNL A   1      31.751  29.582  26.936  1.00  0.00     0.000 A 
ENDBRANCH  25  27
ENDBRANCH  13  25
ENDBRANCH   6   8
ENDBRANCH   5   6
ENDBRANCH   4   5
ENDBRANCH   3   4
ENDBRANCH   2   3
ENDBRANCH   1   2
BRANCH   1  33
ATOM     33  C   UNL A   1      36.704  22.650  25.756  1.00  0.00     0.261 C 
BRANCH  33  34
ATOM     34  O   UNL A   1      37.849  23.417  25.386  1.00  0.00    -0.460 OA
BRANCH  34  35
ATOM     35  C   UNL A   1      38.947  23.240  26.142  1.00  0.00     0.338 C 
ATOM     36  O   UNL A   1      39.713  22.292  26.168  1.00  0.00    -0.246 OA
BRANCH  35  37
ATOM     37  C   UNL A   1      39.337  24.454  26.802  1.00  0.00     0.060 A 
ATOM     38  C   UNL A   1      38.852  24.648  28.109  1.00  0.00     0.016 A 
ATOM     39  C   UNL A   1      40.209  25.326  26.170  1.00  0.00     0.016 A 
ATOM     40  C   UNL A   1      39.277  25.738  28.823  1.00  0.00     0.010 A 
ATOM     41  C   UNL A   1      40.656  26.399  26.892  1.00  0.00     0.010 A 
ATOM     42  C   UNL A   1      40.186  26.590  28.205  1.00  0.00    -0.014 A 
BRANCH  42  43
ATOM     43  C   UNL A   1      40.668  27.777  28.886  1.00  0.00     0.031 A 
ATOM     44  C   UNL A   1      41.877  27.605  29.728  1.00  0.00     0.074 A 
ATOM     45  C   UNL A   1      39.860  28.844  28.881  1.00  0.00     0.049 A 
ATOM     46  N   UNL A   1      42.294  28.341  30.711  1.00  0.00    -0.248 NA
ATOM     47  C   UNL A   1      42.682  26.395  29.472  1.00  0.00     0.031 C 
ATOM     48  C   UNL A   1      38.651  28.986  28.062  1.00  0.00     0.029 A 
ATOM     49  N   UNL A   1      39.888  29.967  29.647  1.00  0.00    -0.354 N 
ATOM     50  C   UNL A   1      43.392  27.667  31.224  1.00  0.00     0.074 A 
ATOM     51  C   UNL A   1      43.554  26.447  30.466  1.00  0.00     0.031 C 
ATOM     52  C   UNL A   1      38.022  30.117  28.409  1.00  0.00     0.029 A 
ATOM     53  C   UNL A   1      38.758  30.732  29.506  1.00  0.00     0.049 A 
ATOM     54  H   UNL A   1      40.637  30.206  30.239  1.00  0.00     0.167 HD
ATOM     55  C   UNL A   1      44.174  28.058  32.250  1.00  0.00     0.037 A 
ATOM     56  C   UNL A   1      38.351  31.779  30.240  1.00  0.00     0.037 A 
ATOM     57  C   UNL A   1      43.918  29.277  32.971  1.00  0.00     0.049 A 
ATOM     58  C   UNL A   1      39.240  32.206  31.369  1.00  0.00     0.074 A 
ATOM     59  C   UNL A   1      44.641  29.844  33.999  1.00  0.00     0.029 A 
ATOM     60  N   UNL A   1      42.825  30.109  32.734  1.00  0.00    -0.354 N 
ATOM     61  N   UNL A   1      40.321  31.613  31.828  1.00  0.00    -0.248 NA
ATOM     62  C   UNL A   1      38.876  33.436  32.071  1.00  0.00     0.031 C 
ATOM     63  C   UNL A   1      43.957  30.991  34.416  1.00  0.00     0.029 A 
ATOM     64  C   UNL A   1      42.844  31.179  33.605  1.00  0.00     0.049 A 
ATOM     65  H   UNL A   1      42.139  29.955  32.044  1.00  0.00     0.167 HD
ATOM     66  C   UNL A   1      40.794  32.420  32.852  1.00  0.00     0.074 A 
ATOM     67  C   UNL A   1      39.871  33.539  32.944  1.00  0.00     0.031 C 
ATOM     68  C   UNL A   1      41.891  32.267  33.636  1.00  0.00     0.037 A 
BRANCH  55  69
ATOM     69  C   UNL A   1      45.302  27.150  32.645  1.00  0.00     0.058 A 
ATOM     70  C   UNL A   1      45.149  26.157  33.630  1.00  0.00     0.135 A 
ATOM     71  C   UNL A   1      46.573  27.304  32.070  1.00  0.00     0.135 A 
ATOM     72  F   UNL A   1      43.964  25.982  34.235  1.00  0.00    -0.206 F 
ATOM     73  C   UNL A   1      46.222  25.386  34.061  1.00  0.00     0.059 A 
ATOM     74  C   UNL A   1      47.654  26.519  32.462  1.00  0.00     0.059 A 
ATOM     75  F   UNL A   1      46.786  28.246  31.138  1.00  0.00    -0.206 F 
ATOM     76  C   UNL A   1      47.473  25.578  33.475  1.00  0.00     0.060 A 
BRANCH  76  77
ATOM     77  S   UNL A   1      48.861  24.588  34.066  1.00  0.00     0.124 S 
ATOM     78  O   UNL A   1      49.332  25.391  35.190  1.00  0.00    -0.237 OA
ATOM     79  O   UNL A   1      48.217  23.326  34.414  1.00  0.00    -0.237 OA
ATOM     80  O   UNL A   1      49.755  24.535  32.913  1.00  0.00    -0.744 OA
ENDBRANCH  76  77
ENDBRANCH  55  69
BRANCH  56  81
ATOM     81  C   UNL A   1      37.090  32.468  29.880  1.00  0.00     0.058 A 
ATOM     82  C   UNL A   1      35.893  32.135  30.528  1.00  0.00     0.135 A 
ATOM     83  C   UNL A   1      37.073  33.558  28.992  1.00  0.00     0.135 A 
ATOM     84  F   UNL A   1      35.864  31.112  31.396  1.00  0.00    -0.206 F 
ATOM     85  C   UNL A   1      34.723  32.854  30.312  1.00  0.00     0.059 A 
ATOM     86  C   UNL A   1      35.921  34.307  28.776  1.00  0.00     0.059 A 
ATOM     87  F   UNL A   1      38.204  33.942  28.379  1.00  0.00    -0.206 F 
ATOM     88  C   UNL A   1      34.750  33.947  29.441  1.00  0.00     0.060 A 
BRANCH  88  89
ATOM     89  S   UNL A   1      33.245  34.924  29.245  1.00  0.00     0.124 S 
ATOM     90  O   UNL A   1      33.777  36.189  28.754  1.00  0.00    -0.237 OA
ATOM     91  O   UNL A   1      32.492  34.130  28.279  1.00  0.00    -0.237 OA
ATOM     92  O   UNL A   1      32.685  34.954  30.593  1.00  0.00    -0.744 OA
ENDBRANCH  88  89
ENDBRANCH  56  81
BRANCH  68  93
ATOM     93  C   UNL A   1      42.175  33.364  34.617  1.00  0.00     0.058 A 
ATOM     94  C   UNL A   1      41.684  33.327  35.929  1.00  0.00     0.135 A 
ATOM     95  C   UNL A   1      43.032  34.415  34.255  1.00  0.00     0.135 A 
ATOM     96  F   UNL A   1      40.852  32.345  36.314  1.00  0.00    -0.206 F 
ATOM     97  C   UNL A   1      42.030  34.303  36.853  1.00  0.00     0.059 A 
ATOM     98  C   UNL A   1      43.417  35.383  35.171  1.00  0.00     0.059 A 
ATOM     99  F   UNL A   1      43.533  34.482  33.010  1.00  0.00    -0.206 F 
ATOM    100  C   UNL A   1      42.906  35.321  36.466  1.00  0.00     0.060 A 
BRANCH 100 101
ATOM    101  S   UNL A   1      43.404  36.541  37.696  1.00  0.00     0.124 S 
ATOM    102  O   UNL A   1      44.109  35.709  38.664  1.00  0.00    -0.237 OA
ATOM    103  O   UNL A   1      44.236  37.449  36.912  1.00  0.00    -0.237 OA
ATOM    104  O   UNL A   1      42.135  37.100  38.154  1.00  0.00    -0.744 OA
ENDBRANCH 100 101
ENDBRANCH  68  93
ENDBRANCH  42  43
ENDBRANCH  35  37
ENDBRANCH  34  35
ENDBRANCH  33  34
ENDBRANCH   1  33
TORSDOF 21
ENDMDL
MODEL 2
REMARK VINA RESULT:     -11.9      3.998     10.081
REMARK SMILES O=C(OCCOCCOC(=O)c1ccc(-c2c3nc(c(-c4c(F)cc(S(=O)(=O)[O-])cc4F)c4ccc([nH]4)c(-c4c(F)cc(S(=O)(=O)[O-])cc4F)c4nc(c(-c5c(F)cc(S(=O)(=O)[O-])cc5F)c5ccc2[nH]5)C=C4)C=C3)cc1)C1=NN(c2ccc(S(=O)(=O)[O-])cc2)C(=O)/C1=C/Nc1ccccc1
REMARK SMILES IDX 7 1 6 2 5 3 4 4 3 5 2 6 1 7 78 8 79 9 93 10 80 11 91 12
REMARK SMILES IDX 94 13 92 14 81 15 82 16 90 17 83 18 89 19 84 20 85 21 86 22
REMARK SMILES IDX 87 23 88 24 95 25 96 27 97 28 101 29 98 30 100 31 99 32 8 33
REMARK SMILES IDX 9 34 10 35 11 36 12 37 13 38 77 39 14 40 76 41 15 42 16 43
REMARK SMILES IDX 17 44 70 45 18 46 75 47 69 48 71 49 19 50 74 51 68 52 67 53
REMARK SMILES IDX 20 55 54 56 33 57 53 58 34 59 37 60 52 61 72 62 35 63 36 64
REMARK SMILES IDX 51 66 73 67 38 68 21 69 22 70 31 71 23 72 24 73 30 74 32 75
REMARK SMILES IDX 25 76 26 77 27 78 28 79 29 80 55 81 56 82 65 83 57 84 58 85
REMARK SMILES IDX 64 86 66 87 59 88 60 89 61 90 62 91 63 92 39 93 40 94 49 95
REMARK SMILES IDX 41 96 42 97 48 98 50 99 43 100 44 101 45 102 46 103 47 104
REMARK H PARENT 95 26 71 54 37 65
REMARK Flexibility Score: inf
ROOT
ATOM      1  C   UNL A   1      33.194  29.605  25.418  1.00  0.00     0.202 C 
ENDROOT
BRANCH   1   2
ATOM      2  O   UNL A   1      33.969  28.428  25.140  1.00  0.00    -0.374 OA
BRANCH   2   3
ATOM      3  C   UNL A   1      33.709  27.792  23.882  1.00  0.00     0.202 C 
BRANCH   3   4
ATOM      4  C   UNL A   1      34.044  26.307  23.939  1.00  0.00     0.261 C 
BRANCH   4   5
ATOM      5  O   UNL A   1      33.688  25.648  22.720  1.00  0.00    -0.458 OA
BRANCH   5   6
ATOM      6  C   UNL A   1      32.866  24.579  22.770  1.00  0.00     0.359 C 
ATOM      7  O   UNL A   1      33.196  23.475  22.350  1.00  0.00    -0.244 OA
BRANCH   6   8
ATOM      8  C   UNL A   1      31.673  24.642  23.688  1.00  0.00     0.183 C 
ATOM      9  N   UNL A   1      30.664  25.257  23.127  1.00  0.00    -0.157 NA
ATOM     10  C   UNL A   1      31.499  24.481  25.173  1.00  0.00     0.093 C 
ATOM     11  N   UNL A   1      29.903  25.749  24.148  1.00  0.00    -0.196 N 
ATOM     12  C   UNL A   1      30.210  25.218  25.402  1.00  0.00     0.282 C 
ATOM     13  C   UNL A   1      32.039  24.035  26.327  1.00  0.00     0.099 C 
ATOM     14  O   UNL A   1      29.647  25.389  26.470  1.00  0.00    -0.267 OA
BRANCH  11  15
ATOM     15  C   UNL A   1      29.444  27.072  23.928  1.00  0.00     0.069 A 
ATOM     16  C   UNL A   1      28.098  27.300  23.589  1.00  0.00     0.030 A 
ATOM     17  C   UNL A   1      30.352  28.138  23.845  1.00  0.00     0.030 A 
ATOM     18  C   UNL A   1      27.662  28.569  23.211  1.00  0.00     0.021 A 
ATOM     19  C   UNL A   1      29.929  29.405  23.448  1.00  0.00     0.021 A 
ATOM     20  C   UNL A   1      28.583  29.616  23.155  1.00  0.00     0.054 A 
BRANCH  20  21
ATOM     21  S   UNL A   1      28.008  31.229  22.732  1.00  0.00     0.124 S 
ATOM     22  O   UNL A   1      27.912  31.317  21.293  1.00  0.00    -0.237 OA
ATOM     23  O   UNL A   1      26.885  31.531  23.593  1.00  0.00    -0.237 OA
ATOM     24  O   UNL A   1      29.177  32.245  23.190  1.00  0.00    -0.744 OA
ENDBRANCH  20  21
ENDBRANCH  11  15
BRANCH  13  25
ATOM     25  N   UNL A   1      33.216  23.421  26.673  1.00  0.00    -0.361 N 
ATOM     26  H   UNL A   1      33.370  23.316  27.640  1.00  0.00     0.166 HD
BRANCH  25  27
ATOM     27  C   UNL A   1      34.260  22.909  25.819  1.00  0.00     0.038 A 
ATOM     28  C   UNL A   1      34.078  21.615  25.288  1.00  0.00     0.026 A 
ATOM     29  C   UNL A   1      35.578  23.383  25.942  1.00  0.00     0.026 A 
ATOM     30  C   UNL A   1      35.167  20.770  25.031  1.00  0.00     0.002 A 
ATOM     31  C   UNL A   1      36.670  22.539  25.668  1.00  0.00     0.002 A 
ATOM     32  C   UNL A   1      36.463  21.223  25.252  1.00  0.00     0.000 A 
ENDBRANCH  25  27
ENDBRANCH  13  25
ENDBRANCH   6   8
ENDBRANCH   5   6
ENDBRANCH   4   5
ENDBRANCH   3   4
ENDBRANCH   2   3
ENDBRANCH   1   2
BRANCH   1  33
ATOM     33  C   UNL A   1      33.041  29.803  26.922  1.00  0.00     0.261 C 
BRANCH  33  34
ATOM     34  O   UNL A   1      34.195  29.351  27.629  1.00  0.00    -0.460 OA
BRANCH  34  35
ATOM     35  C   UNL A   1      34.927  30.305  28.232  1.00  0.00     0.338 C 
ATOM     36  O   UNL A   1      34.555  31.354  28.729  1.00  0.00    -0.246 OA
BRANCH  35  37
ATOM     37  C   UNL A   1      36.265  29.858  28.499  1.00  0.00     0.060 A 
ATOM     38  C   UNL A   1      37.178  29.919  27.430  1.00  0.00     0.016 A 
ATOM     39  C   UNL A   1      36.610  29.462  29.782  1.00  0.00     0.016 A 
ATOM     40  C   UNL A   1      38.492  29.602  27.656  1.00  0.00     0.010 A 
ATOM     41  C   UNL A   1      37.927  29.174  30.015  1.00  0.00     0.010 A 
ATOM     42  C   UNL A   1      38.848  29.248  28.953  1.00  0.00    -0.014 A 
BRANCH  42  43
ATOM     43  C   UNL A   1      40.215  28.880  29.270  1.00  0.00     0.031 A 
ATOM     44  C   UNL A   1      41.137  29.995  29.594  1.00  0.00     0.074 A 
ATOM     45  C   UNL A   1      40.571  27.614  29.019  1.00  0.00     0.049 A 
ATOM     46  N   UNL A   1      42.432  30.021  29.539  1.00  0.00    -0.248 NA
ATOM     47  C   UNL A   1      40.505  31.279  29.956  1.00  0.00     0.031 C 
ATOM     48  C   UNL A   1      39.647  26.528  28.672  1.00  0.00     0.029 A 
ATOM     49  N   UNL A   1      41.807  27.053  28.932  1.00  0.00    -0.354 N 
ATOM     50  C   UNL A   1      42.779  31.333  29.821  1.00  0.00     0.074 A 
ATOM     51  C   UNL A   1      41.556  32.080  30.011  1.00  0.00     0.031 C 
ATOM     52  C   UNL A   1      40.359  25.437  28.359  1.00  0.00     0.029 A 
ATOM     53  C   UNL A   1      41.774  25.775  28.431  1.00  0.00     0.049 A 
ATOM     54  H   UNL A   1      42.635  27.513  29.199  1.00  0.00     0.167 HD
ATOM     55  C   UNL A   1      44.025  31.842  29.897  1.00  0.00     0.037 A 
ATOM     56  C   UNL A   1      42.792  25.004  28.021  1.00  0.00     0.037 A 
ATOM     57  C   UNL A   1      45.188  31.028  29.660  1.00  0.00     0.049 A 
ATOM     58  C   UNL A   1      44.171  25.584  28.125  1.00  0.00     0.074 A 
ATOM     59  C   UNL A   1      46.520  31.373  29.749  1.00  0.00     0.029 A 
ATOM     60  N   UNL A   1      45.138  29.692  29.266  1.00  0.00    -0.354 N 
ATOM     61  N   UNL A   1      44.521  26.809  28.453  1.00  0.00    -0.248 NA
ATOM     62  C   UNL A   1      45.290  24.692  27.824  1.00  0.00     0.031 C 
ATOM     63  C   UNL A   1      47.273  30.261  29.359  1.00  0.00     0.029 A 
ATOM     64  C   UNL A   1      46.415  29.200  29.092  1.00  0.00     0.049 A 
ATOM     65  H   UNL A   1      44.311  29.175  29.131  1.00  0.00     0.167 HD
ATOM     66  C   UNL A   1      45.907  26.828  28.437  1.00  0.00     0.074 A 
ATOM     67  C   UNL A   1      46.326  25.488  28.059  1.00  0.00     0.031 C 
ATOM     68  C   UNL A   1      46.761  27.845  28.719  1.00  0.00     0.037 A 
BRANCH  55  69
ATOM     69  C   UNL A   1      44.156  33.306  30.199  1.00  0.00     0.058 A 
ATOM     70  C   UNL A   1      44.159  33.797  31.518  1.00  0.00     0.135 A 
ATOM     71  C   UNL A   1      44.228  34.244  29.158  1.00  0.00     0.135 A 
ATOM     72  F   UNL A   1      44.065  32.950  32.555  1.00  0.00    -0.206 F 
ATOM     73  C   UNL A   1      44.181  35.160  31.789  1.00  0.00     0.059 A 
ATOM     74  C   UNL A   1      44.287  35.613  29.408  1.00  0.00     0.059 A 
ATOM     75  F   UNL A   1      44.212  33.839  27.878  1.00  0.00    -0.206 F 
ATOM     76  C   UNL A   1      44.240  36.061  30.726  1.00  0.00     0.060 A 
BRANCH  76  77
ATOM     77  S   UNL A   1      44.240  37.828  31.095  1.00  0.00     0.124 S 
ATOM     78  O   UNL A   1      43.352  38.341  30.057  1.00  0.00    -0.237 OA
ATOM     79  O   UNL A   1      43.711  37.862  32.455  1.00  0.00    -0.237 OA
ATOM     80  O   UNL A   1      45.645  38.202  30.962  1.00  0.00    -0.744 OA
ENDBRANCH  76  77
ENDBRANCH  55  69
BRANCH  56  81
ATOM     81  C   UNL A   1      42.511  23.634  27.532  1.00  0.00     0.058 A 
ATOM     82  C   UNL A   1      42.558  23.350  26.161  1.00  0.00     0.135 A 
ATOM     83  C   UNL A   1      42.327  22.560  28.418  1.00  0.00     0.135 A 
ATOM     84  F   UNL A   1      42.747  24.343  25.278  1.00  0.00    -0.206 F 
ATOM     85  C   UNL A   1      42.434  22.051  25.682  1.00  0.00     0.059 A 
ATOM     86  C   UNL A   1      42.221  21.248  27.965  1.00  0.00     0.059 A 
ATOM     87  F   UNL A   1      42.316  22.775  29.744  1.00  0.00    -0.206 F 
ATOM     88  C   UNL A   1      42.277  21.005  26.594  1.00  0.00     0.060 A 
BRANCH  88  89
ATOM     89  S   UNL A   1      42.211  19.316  25.958  1.00  0.00     0.124 S 
ATOM     90  O   UNL A   1      42.736  18.556  27.086  1.00  0.00    -0.237 OA
ATOM     91  O   UNL A   1      40.785  19.151  25.684  1.00  0.00    -0.237 OA
ATOM     92  O   UNL A   1      43.066  19.367  24.777  1.00  0.00    -0.744 OA
ENDBRANCH  88  89
ENDBRANCH  56  81
BRANCH  68  93
ATOM     93  C   UNL A   1      48.224  27.525  28.682  1.00  0.00     0.058 A 
ATOM     94  C   UNL A   1      48.967  27.604  27.496  1.00  0.00     0.135 A 
ATOM     95  C   UNL A   1      48.901  27.229  29.875  1.00  0.00     0.135 A 
ATOM     96  F   UNL A   1      48.357  27.872  26.331  1.00  0.00    -0.206 F 
ATOM     97  C   UNL A   1      50.339  27.393  27.494  1.00  0.00     0.059 A 
ATOM     98  C   UNL A   1      50.276  27.047  29.901  1.00  0.00     0.059 A 
ATOM     99  F   UNL A   1      48.227  27.154  31.035  1.00  0.00    -0.206 F 
ATOM    100  C   UNL A   1      50.985  27.125  28.704  1.00  0.00     0.060 A 
BRANCH 100 101
ATOM    101  S   UNL A   1      52.777  26.926  28.697  1.00  0.00     0.124 S 
ATOM    102  O   UNL A   1      52.976  26.041  29.839  1.00  0.00    -0.237 OA
ATOM    103  O   UNL A   1      53.017  26.333  27.384  1.00  0.00    -0.237 OA
ATOM    104  O   UNL A   1      53.272  28.289  28.864  1.00  0.00    -0.744 OA
ENDBRANCH 100 101
ENDBRANCH  68  93
ENDBRANCH  42  43
ENDBRANCH  35  37
ENDBRANCH  34  35
ENDBRANCH  33  34
ENDBRANCH   1  33
TORSDOF 21
ENDMDL
MODEL 3
REMARK VINA RESULT:     -11.8      3.602      9.071
REMARK SMILES O=C(OCCOCCOC(=O)c1ccc(-c2c3nc(c(-c4c(F)cc(S(=O)(=O)[O-])cc4F)c4ccc([nH]4)c(-c4c(F)cc(S(=O)(=O)[O-])cc4F)c4nc(c(-c5c(F)cc(S(=O)(=O)[O-])cc5F)c5ccc2[nH]5)C=C4)C=C3)cc1)C1=NN(c2ccc(S(=O)(=O)[O-])cc2)C(=O)/C1=C/Nc1ccccc1
REMARK SMILES IDX 7 1 6 2 5 3 4 4 3 5 2 6 1 7 78 8 79 9 93 10 80 11 91 12
REMARK SMILES IDX 94 13 92 14 81 15 82 16 90 17 83 18 89 19 84 20 85 21 86 22
REMARK SMILES IDX 87 23 88 24 95 25 96 27 97 28 101 29 98 30 100 31 99 32 8 33
REMARK SMILES IDX 9 34 10 35 11 36 12 37 13 38 77 39 14 40 76 41 15 42 16 43
REMARK SMILES IDX 17 44 70 45 18 46 75 47 69 48 71 49 19 50 74 51 68 52 67 53
REMARK SMILES IDX 20 55 54 56 33 57 53 58 34 59 37 60 52 61 72 62 35 63 36 64
REMARK SMILES IDX 51 66 73 67 38 68 21 69 22 70 31 71 23 72 24 73 30 74 32 75
REMARK SMILES IDX 25 76 26 77 27 78 28 79 29 80 55 81 56 82 65 83 57 84 58 85
REMARK SMILES IDX 64 86 66 87 59 88 60 89 61 90 62 91 63 92 39 93 40 94 49 95
REMARK SMILES IDX 41 96 42 97 48 98 50 99 43 100 44 101 45 102 46 103 47 104
REMARK H PARENT 95 26 71 54 37 65
REMARK Flexibility Score: inf
ROOT
ATOM      1  C   UNL A   1      32.379  29.168  25.644  1.00  0.00     0.202 C 
ENDROOT
BRANCH   1   2
ATOM      2  O   UNL A   1      33.548  28.823  24.884  1.00  0.00    -0.374 OA
BRANCH   2   3
ATOM      3  C   UNL A   1      33.454  29.024  23.467  1.00  0.00     0.202 C 
BRANCH   3   4
ATOM      4  C   UNL A   1      34.357  28.055  22.715  1.00  0.00     0.261 C 
BRANCH   4   5
ATOM      5  O   UNL A   1      33.677  27.470  21.600  1.00  0.00    -0.458 OA
BRANCH   5   6
ATOM      6  C   UNL A   1      33.163  26.229  21.725  1.00  0.00     0.359 C 
ATOM      7  O   UNL A   1      33.431  25.324  20.940  1.00  0.00    -0.244 OA
BRANCH   6   8
ATOM      8  C   UNL A   1      32.555  25.840  23.047  1.00  0.00     0.183 C 
ATOM      9  N   UNL A   1      33.189  24.834  23.592  1.00  0.00    -0.157 NA
ATOM     10  C   UNL A   1      31.221  26.099  23.691  1.00  0.00     0.093 C 
ATOM     11  N   UNL A   1      32.290  24.221  24.417  1.00  0.00    -0.196 N 
ATOM     12  C   UNL A   1      31.144  24.972  24.679  1.00  0.00     0.282 C 
ATOM     13  C   UNL A   1      30.097  26.847  23.686  1.00  0.00     0.099 C 
ATOM     14  O   UNL A   1      30.224  24.733  25.444  1.00  0.00    -0.267 OA
BRANCH  11  15
ATOM     15  C   UNL A   1      32.321  22.805  24.338  1.00  0.00     0.069 A 
ATOM     16  C   UNL A   1      32.882  22.057  25.390  1.00  0.00     0.030 A 
ATOM     17  C   UNL A   1      31.986  22.149  23.146  1.00  0.00     0.030 A 
ATOM     18  C   UNL A   1      33.070  20.681  25.265  1.00  0.00     0.021 A 
ATOM     19  C   UNL A   1      32.190  20.778  23.005  1.00  0.00     0.021 A 
ATOM     20  C   UNL A   1      32.710  20.050  24.074  1.00  0.00     0.054 A 
BRANCH  20  21
ATOM     21  S   UNL A   1      32.898  18.300  23.949  1.00  0.00     0.124 S 
ATOM     22  O   UNL A   1      34.305  17.985  24.039  1.00  0.00    -0.237 OA
ATOM     23  O   UNL A   1      31.922  17.694  24.828  1.00  0.00    -0.237 OA
ATOM     24  O   UNL A   1      32.421  17.913  22.456  1.00  0.00    -0.744 OA
ENDBRANCH  20  21
ENDBRANCH  11  15
BRANCH  13  25
ATOM     25  N   UNL A   1      29.628  27.889  22.926  1.00  0.00    -0.361 N 
ATOM     26  H   UNL A   1      29.773  27.802  21.956  1.00  0.00     0.166 HD
BRANCH  25  27
ATOM     27  C   UNL A   1      28.954  29.092  23.348  1.00  0.00     0.038 A 
ATOM     28  C   UNL A   1      27.694  29.357  22.773  1.00  0.00     0.026 A 
ATOM     29  C   UNL A   1      29.689  30.186  23.839  1.00  0.00     0.026 A 
ATOM     30  C   UNL A   1      27.249  30.670  22.559  1.00  0.00     0.002 A 
ATOM     31  C   UNL A   1      29.233  31.501  23.638  1.00  0.00     0.002 A 
ATOM     32  C   UNL A   1      28.035  31.743  22.963  1.00  0.00     0.000 A 
ENDBRANCH  25  27
ENDBRANCH  13  25
ENDBRANCH   6   8
ENDBRANCH   5   6
ENDBRANCH   4   5
ENDBRANCH   3   4
ENDBRANCH   2   3
ENDBRANCH   1   2
BRANCH   1  33
ATOM     33  C   UNL A   1      32.687  29.148  27.137  1.00  0.00     0.261 C 
BRANCH  33  34
ATOM     34  O   UNL A   1      34.092  29.075  27.380  1.00  0.00    -0.460 OA
BRANCH  34  35
ATOM     35  C   UNL A   1      34.657  30.176  27.905  1.00  0.00     0.338 C 
ATOM     36  O   UNL A   1      34.125  31.217  28.253  1.00  0.00    -0.246 OA
BRANCH  35  37
ATOM     37  C   UNL A   1      36.018  29.939  28.296  1.00  0.00     0.060 A 
ATOM     38  C   UNL A   1      36.236  29.560  29.634  1.00  0.00     0.016 A 
ATOM     39  C   UNL A   1      37.026  30.022  27.347  1.00  0.00     0.016 A 
ATOM     40  C   UNL A   1      37.503  29.222  30.033  1.00  0.00     0.010 A 
ATOM     41  C   UNL A   1      38.285  29.657  27.738  1.00  0.00     0.010 A 
ATOM     42  C   UNL A   1      38.506  29.262  29.071  1.00  0.00    -0.014 A 
BRANCH  42  43
ATOM     43  C   UNL A   1      39.877  28.938  29.419  1.00  0.00     0.031 A 
ATOM     44  C   UNL A   1      40.749  30.080  29.787  1.00  0.00     0.074 A 
ATOM     45  C   UNL A   1      40.286  27.691  29.158  1.00  0.00     0.049 A 
ATOM     46  N   UNL A   1      42.043  30.153  29.768  1.00  0.00    -0.248 NA
ATOM     47  C   UNL A   1      40.061  31.334  30.152  1.00  0.00     0.031 C 
ATOM     48  C   UNL A   1      39.412  26.578  28.768  1.00  0.00     0.029 A 
ATOM     49  N   UNL A   1      41.543  27.176  29.096  1.00  0.00    -0.354 N 
ATOM     50  C   UNL A   1      42.333  31.472  30.080  1.00  0.00     0.074 A 
ATOM     51  C   UNL A   1      41.080  32.172  30.249  1.00  0.00     0.031 C 
ATOM     52  C   UNL A   1      40.172  25.518  28.458  1.00  0.00     0.029 A 
ATOM     53  C   UNL A   1      41.571  25.907  28.574  1.00  0.00     0.049 A 
ATOM     54  H   UNL A   1      42.347  27.660  29.393  1.00  0.00     0.167 HD
ATOM     55  C   UNL A   1      43.558  32.024  30.200  1.00  0.00     0.037 A 
ATOM     56  C   UNL A   1      42.627  25.180  28.180  1.00  0.00     0.037 A 
ATOM     57  C   UNL A   1      44.755  31.258  29.982  1.00  0.00     0.049 A 
ATOM     58  C   UNL A   1      43.980  25.807  28.332  1.00  0.00     0.074 A 
ATOM     59  C   UNL A   1      46.071  31.648  30.113  1.00  0.00     0.029 A 
ATOM     60  N   UNL A   1      44.765  29.928  29.565  1.00  0.00    -0.354 N 
ATOM     61  N   UNL A   1      44.276  27.039  28.689  1.00  0.00    -0.248 NA
ATOM     62  C   UNL A   1      45.139  24.961  28.048  1.00  0.00     0.031 C 
ATOM     63  C   UNL A   1      46.875  30.571  29.726  1.00  0.00     0.029 A 
ATOM     64  C   UNL A   1      46.064  29.485  29.419  1.00  0.00     0.049 A 
ATOM     65  H   UNL A   1      43.962  29.383  29.399  1.00  0.00     0.167 HD
ATOM     66  C   UNL A   1      45.661  27.108  28.712  1.00  0.00     0.074 A 
ATOM     67  C   UNL A   1      46.138  25.791  28.323  1.00  0.00     0.031 C 
ATOM     68  C   UNL A   1      46.469  28.150  29.034  1.00  0.00     0.037 A 
BRANCH  55  69
ATOM     69  C   UNL A   1      43.627  33.487  30.529  1.00  0.00     0.058 A 
ATOM     70  C   UNL A   1      43.657  34.475  29.527  1.00  0.00     0.135 A 
ATOM     71  C   UNL A   1      43.718  33.914  31.863  1.00  0.00     0.135 A 
ATOM     72  F   UNL A   1      43.602  34.127  28.231  1.00  0.00    -0.206 F 
ATOM     73  C   UNL A   1      43.821  35.821  29.834  1.00  0.00     0.059 A 
ATOM     74  C   UNL A   1      43.847  35.259  32.195  1.00  0.00     0.059 A 
ATOM     75  F   UNL A   1      43.712  33.017  32.862  1.00  0.00    -0.206 F 
ATOM     76  C   UNL A   1      43.921  36.203  31.172  1.00  0.00     0.060 A 
BRANCH  76  77
ATOM     77  S   UNL A   1      44.160  37.951  31.551  1.00  0.00     0.124 S 
ATOM     78  O   UNL A   1      45.614  38.028  31.656  1.00  0.00    -0.237 OA
ATOM     79  O   UNL A   1      43.573  38.606  30.387  1.00  0.00    -0.237 OA
ATOM     80  O   UNL A   1      43.430  38.130  32.803  1.00  0.00    -0.744 OA
ENDBRANCH  76  77
ENDBRANCH  55  69
BRANCH  56  81
ATOM     81  C   UNL A   1      42.409  23.809  27.661  1.00  0.00     0.058 A 
ATOM     82  C   UNL A   1      42.334  23.580  26.281  1.00  0.00     0.135 A 
ATOM     83  C   UNL A   1      42.409  22.692  28.513  1.00  0.00     0.135 A 
ATOM     84  F   UNL A   1      42.348  24.617  25.429  1.00  0.00    -0.206 F 
ATOM     85  C   UNL A   1      42.268  22.293  25.759  1.00  0.00     0.059 A 
ATOM     86  C   UNL A   1      42.364  21.393  28.014  1.00  0.00     0.059 A 
ATOM     87  F   UNL A   1      42.520  22.858  29.841  1.00  0.00    -0.206 F 
ATOM     88  C   UNL A   1      42.295  21.205  26.635  1.00  0.00     0.060 A 
BRANCH  88  89
ATOM     89  S   UNL A   1      42.301  19.540  25.934  1.00  0.00     0.124 S 
ATOM     90  O   UNL A   1      43.200  19.703  24.798  1.00  0.00    -0.237 OA
ATOM     91  O   UNL A   1      42.815  18.746  27.047  1.00  0.00    -0.237 OA
ATOM     92  O   UNL A   1      40.898  19.309  25.604  1.00  0.00    -0.744 OA
ENDBRANCH  88  89
ENDBRANCH  56  81
BRANCH  68  93
ATOM     93  C   UNL A   1      47.944  27.883  29.032  1.00  0.00     0.058 A 
ATOM     94  C   UNL A   1      48.632  27.530  30.200  1.00  0.00     0.135 A 
ATOM     95  C   UNL A   1      48.649  27.891  27.818  1.00  0.00     0.135 A 
ATOM     96  F   UNL A   1      47.998  27.521  31.384  1.00  0.00    -0.206 F 
ATOM     97  C   UNL A   1      49.979  27.197  30.166  1.00  0.00     0.059 A 
ATOM     98  C   UNL A   1      49.987  27.531  27.757  1.00  0.00     0.059 A 
ATOM     99  F   UNL A   1      48.024  28.214  26.674  1.00  0.00    -0.206 F 
ATOM    100  C   UNL A   1      50.644  27.190  28.938  1.00  0.00     0.060 A 
BRANCH 100 101
ATOM    101  S   UNL A   1      52.375  26.686  28.899  1.00  0.00     0.124 S 
ATOM    102  O   UNL A   1      53.054  27.957  29.119  1.00  0.00    -0.237 OA
ATOM    103  O   UNL A   1      52.443  25.730  30.000  1.00  0.00    -0.237 OA
ATOM    104  O   UNL A   1      52.532  26.111  27.567  1.00  0.00    -0.744 OA
ENDBRANCH 100 101
ENDBRANCH  68  93
ENDBRANCH  42  43
ENDBRANCH  35  37
ENDBRANCH  34  35
ENDBRANCH  33  34
ENDBRANCH   1  33
TORSDOF 21
ENDMDL
