MODEL 1
REMARK VINA RESULT:     -11.6      0.000      0.000
REMARK SMILES Cc1ccnc(C(=O)c2[nH]c3ccc(C(C)(C)C)cc3c2CC(=O)OCCOCCOC(=O)c2ccc(-c3c4nc(c(-c5c(F)cc(S(=O)(=O)[O-])cc5F)c5ccc([nH]5)c(-c5c(F)cc(S(=O)(=O)[O-])cc5F)c5nc(c(-c6c(F)cc(S(=O)(=O)[O-])cc6F)c6ccc3[nH]6)C=C5)C=C4)cc2)c1
REMARK SMILES IDX 28 1 27 2 26 3 25 4 23 5 24 6 22 7 21 8 9 9 10 10 11 11
REMARK SMILES IDX 20 13 12 14 19 15 13 16 14 17 7 18 8 19 6 20 1 21 2 22 3 23
REMARK SMILES IDX 100 24 4 25 5 26 15 27 16 28 17 29 18 30 29 31 30 32 31 33
REMARK SMILES IDX 32 34 33 35 34 36 35 37 99 38 36 39 98 40 37 41 38 42 39 43
REMARK SMILES IDX 92 44 40 45 97 46 91 47 93 48 41 49 96 50 90 51 89 52 42 54
REMARK SMILES IDX 76 55 55 56 75 57 56 58 59 59 74 60 94 61 57 62 58 63 73 65
REMARK SMILES IDX 95 66 60 67 43 68 44 69 53 70 45 71 46 72 52 73 54 74 47 75
REMARK SMILES IDX 48 76 49 77 50 78 51 79 77 80 78 81 87 82 79 83 80 84 86 85
REMARK SMILES IDX 88 86 81 87 82 88 83 89 84 90 85 91 61 92 62 93 71 94 63 95
REMARK SMILES IDX 64 96 70 97 72 98 65 99 66 100 67 101 68 102 69 103
REMARK H PARENT 10 12 93 53 59 64
REMARK Flexibility Score: inf
ROOT
ATOM      1  O   UNL A   1      39.194  21.510  26.489  1.00  0.00    -0.374 OA
ENDROOT
BRANCH   1   2
ATOM      2  C   UNL A   1      38.281  21.525  25.392  1.00  0.00     0.202 C 
BRANCH   2   3
ATOM      3  C   UNL A   1      37.223  22.636  25.343  1.00  0.00     0.261 C 
BRANCH   3   4
ATOM      4  O   UNL A   1      36.473  22.660  24.109  1.00  0.00    -0.463 OA
BRANCH   4   5
ATOM      5  C   UNL A   1      35.485  23.593  24.048  1.00  0.00     0.310 C 
ATOM      6  O   UNL A   1      34.970  23.982  23.000  1.00  0.00    -0.252 OA
BRANCH   5   7
ATOM      7  C   UNL A   1      35.090  24.211  25.370  1.00  0.00     0.161 C 
BRANCH   7   8
ATOM      8  C   UNL A   1      33.650  24.158  25.809  1.00  0.00     0.000 A 
ATOM      9  C   UNL A   1      32.893  23.028  26.137  1.00  0.00     0.093 A 
ATOM     10  N   UNL A   1      31.639  23.489  26.493  1.00  0.00    -0.352 N 
ATOM     11  C   UNL A   1      31.477  24.795  26.091  1.00  0.00     0.046 A 
ATOM     12  H   UNL A   1      30.958  22.958  26.967  1.00  0.00     0.167 HD
ATOM     13  C   UNL A   1      32.727  25.243  25.686  1.00  0.00     0.004 A 
ATOM     14  C   UNL A   1      30.339  25.607  26.034  1.00  0.00     0.027 A 
ATOM     15  C   UNL A   1      32.840  26.551  25.176  1.00  0.00     0.015 A 
ATOM     16  C   UNL A   1      30.474  26.883  25.454  1.00  0.00     0.006 A 
ATOM     17  C   UNL A   1      31.705  27.365  24.987  1.00  0.00    -0.042 A 
BRANCH   9  18
ATOM     18  C   UNL A   1      33.338  21.640  26.113  1.00  0.00     0.227 C 
ATOM     19  O   UNL A   1      33.956  21.142  27.054  1.00  0.00    -0.285 OA
BRANCH  18  20
ATOM     20  C   UNL A   1      33.141  20.772  24.910  1.00  0.00     0.113 A 
ATOM     21  C   UNL A   1      33.172  17.125  23.899  1.00  0.00     0.044 C 
ATOM     22  C   UNL A   1      32.992  18.612  23.878  1.00  0.00    -0.047 A 
ATOM     23  C   UNL A   1      32.312  19.218  22.819  1.00  0.00     0.023 A 
ATOM     24  C   UNL A   1      33.409  19.406  24.953  1.00  0.00     0.036 A 
ATOM     25  C   UNL A   1      32.110  20.588  22.852  1.00  0.00     0.112 A 
ATOM     26  N   UNL A   1      32.520  21.375  23.863  1.00  0.00    -0.253 NA
ENDBRANCH  18  20
ENDBRANCH   9  18
BRANCH  17  27
ATOM     27  C   UNL A   1      31.869  28.692  24.223  1.00  0.00    -0.013 C 
ATOM     28  C   UNL A   1      30.603  28.985  23.391  1.00  0.00     0.016 C 
ATOM     29  C   UNL A   1      32.077  29.836  25.246  1.00  0.00     0.016 C 
ATOM     30  C   UNL A   1      33.077  28.722  23.264  1.00  0.00     0.016 C 
ENDBRANCH  17  27
ENDBRANCH   7   8
ENDBRANCH   5   7
ENDBRANCH   4   5
ENDBRANCH   3   4
ENDBRANCH   2   3
ENDBRANCH   1   2
BRANCH   1  31
ATOM     31  C   UNL A   1      40.547  21.174  26.194  1.00  0.00     0.202 C 
BRANCH  31  32
ATOM     32  C   UNL A   1      41.592  22.295  26.290  1.00  0.00     0.261 C 
BRANCH  32  33
ATOM     33  O   UNL A   1      41.024  23.588  26.540  1.00  0.00    -0.460 OA
BRANCH  33  34
ATOM     34  C   UNL A   1      41.906  24.613  26.451  1.00  0.00     0.338 C 
ATOM     35  O   UNL A   1      42.779  24.774  25.610  1.00  0.00    -0.246 OA
BRANCH  34  36
ATOM     36  C   UNL A   1      41.566  25.640  27.448  1.00  0.00     0.060 A 
ATOM     37  C   UNL A   1      42.395  26.767  27.525  1.00  0.00     0.016 A 
ATOM     38  C   UNL A   1      40.480  25.488  28.312  1.00  0.00     0.016 A 
ATOM     39  C   UNL A   1      42.148  27.744  28.484  1.00  0.00     0.010 A 
ATOM     40  C   UNL A   1      40.243  26.463  29.283  1.00  0.00     0.010 A 
ATOM     41  C   UNL A   1      41.087  27.584  29.384  1.00  0.00    -0.014 A 
BRANCH  41  42
ATOM     42  C   UNL A   1      40.914  28.549  30.493  1.00  0.00     0.031 A 
ATOM     43  C   UNL A   1      41.798  28.436  31.704  1.00  0.00     0.074 A 
ATOM     44  C   UNL A   1      39.982  29.515  30.405  1.00  0.00     0.049 A 
ATOM     45  N   UNL A   1      41.784  29.139  32.804  1.00  0.00    -0.248 NA
ATOM     46  C   UNL A   1      42.833  27.389  31.668  1.00  0.00     0.031 C 
ATOM     47  C   UNL A   1      39.101  29.731  29.256  1.00  0.00     0.029 A 
ATOM     48  N   UNL A   1      39.616  30.490  31.296  1.00  0.00    -0.354 N 
ATOM     49  C   UNL A   1      42.799  28.615  33.599  1.00  0.00     0.074 A 
ATOM     50  C   UNL A   1      43.394  27.522  32.861  1.00  0.00     0.031 C 
ATOM     51  C   UNL A   1      38.287  30.767  29.519  1.00  0.00     0.029 A 
ATOM     52  C   UNL A   1      38.564  31.263  30.865  1.00  0.00     0.049 A 
ATOM     53  H   UNL A   1      40.064  30.624  32.163  1.00  0.00     0.167 HD
ATOM     54  C   UNL A   1      43.194  29.018  34.829  1.00  0.00     0.037 A 
ATOM     55  C   UNL A   1      37.885  32.239  31.501  1.00  0.00     0.037 A 
ATOM     56  C   UNL A   1      42.589  30.113  35.544  1.00  0.00     0.049 A 
ATOM     57  C   UNL A   1      38.299  32.617  32.899  1.00  0.00     0.074 A 
ATOM     58  C   UNL A   1      42.936  30.629  36.779  1.00  0.00     0.029 A 
ATOM     59  N   UNL A   1      41.502  30.849  35.092  1.00  0.00    -0.354 N 
ATOM     60  N   UNL A   1      39.288  32.144  33.623  1.00  0.00    -0.248 NA
ATOM     61  C   UNL A   1      37.506  33.654  33.571  1.00  0.00     0.031 C 
ATOM     62  C   UNL A   1      42.021  31.635  37.103  1.00  0.00     0.029 A 
ATOM     63  C   UNL A   1      41.139  31.787  36.044  1.00  0.00     0.049 A 
ATOM     64  H   UNL A   1      41.055  30.722  34.225  1.00  0.00     0.167 HD
ATOM     65  C   UNL A   1      39.246  32.840  34.826  1.00  0.00     0.074 A 
ATOM     66  C   UNL A   1      38.149  33.780  34.725  1.00  0.00     0.031 C 
ATOM     67  C   UNL A   1      40.040  32.713  35.920  1.00  0.00     0.037 A 
BRANCH  54  68
ATOM     68  C   UNL A   1      44.307  28.260  35.499  1.00  0.00     0.058 A 
ATOM     69  C   UNL A   1      44.061  27.147  36.317  1.00  0.00     0.135 A 
ATOM     70  C   UNL A   1      45.646  28.619  35.269  1.00  0.00     0.135 A 
ATOM     71  F   UNL A   1      42.802  26.770  36.588  1.00  0.00    -0.206 F 
ATOM     72  C   UNL A   1      45.102  26.423  36.892  1.00  0.00     0.059 A 
ATOM     73  C   UNL A   1      46.702  27.895  35.812  1.00  0.00     0.059 A 
ATOM     74  F   UNL A   1      45.938  29.680  34.500  1.00  0.00    -0.206 F 
ATOM     75  C   UNL A   1      46.420  26.801  36.629  1.00  0.00     0.060 A 
BRANCH  75  76
ATOM     76  S   UNL A   1      47.758  25.832  37.357  1.00  0.00     0.124 S 
ATOM     77  O   UNL A   1      48.810  26.836  37.487  1.00  0.00    -0.237 OA
ATOM     78  O   UNL A   1      47.163  25.372  38.608  1.00  0.00    -0.237 OA
ATOM     79  O   UNL A   1      48.005  24.792  36.364  1.00  0.00    -0.744 OA
ENDBRANCH  75  76
ENDBRANCH  54  68
BRANCH  55  80
ATOM     80  C   UNL A   1      36.734  32.908  30.837  1.00  0.00     0.058 A 
ATOM     81  C   UNL A   1      36.931  33.847  29.814  1.00  0.00     0.135 A 
ATOM     82  C   UNL A   1      35.412  32.635  31.223  1.00  0.00     0.135 A 
ATOM     83  F   UNL A   1      38.176  34.152  29.416  1.00  0.00    -0.206 F 
ATOM     84  C   UNL A   1      35.864  34.505  29.211  1.00  0.00     0.059 A 
ATOM     85  C   UNL A   1      34.326  33.258  30.615  1.00  0.00     0.059 A 
ATOM     86  F   UNL A   1      35.164  31.738  32.191  1.00  0.00    -0.206 F 
ATOM     87  C   UNL A   1      34.563  34.203  29.618  1.00  0.00     0.060 A 
BRANCH  87  88
ATOM     88  S   UNL A   1      33.184  35.043  28.809  1.00  0.00     0.124 S 
ATOM     89  O   UNL A   1      33.857  36.177  28.185  1.00  0.00    -0.237 OA
ATOM     90  O   UNL A   1      32.690  34.014  27.901  1.00  0.00    -0.237 OA
ATOM     91  O   UNL A   1      32.294  35.370  29.920  1.00  0.00    -0.744 OA
ENDBRANCH  87  88
ENDBRANCH  55  80
BRANCH  67  92
ATOM     92  C   UNL A   1      39.759  33.620  37.086  1.00  0.00     0.058 A 
ATOM     93  C   UNL A   1      38.857  33.258  38.097  1.00  0.00     0.135 A 
ATOM     94  C   UNL A   1      40.448  34.836  37.225  1.00  0.00     0.135 A 
ATOM     95  F   UNL A   1      38.166  32.110  38.007  1.00  0.00    -0.206 F 
ATOM     96  C   UNL A   1      38.630  34.080  39.196  1.00  0.00     0.059 A 
ATOM     97  C   UNL A   1      40.261  35.658  38.332  1.00  0.00     0.059 A 
ATOM     98  F   UNL A   1      41.331  35.225  36.291  1.00  0.00    -0.206 F 
ATOM     99  C   UNL A   1      39.341  35.277  39.307  1.00  0.00     0.060 A 
BRANCH  99 100
ATOM    100  S   UNL A   1      39.067  36.309  40.761  1.00  0.00     0.124 S 
ATOM    101  O   UNL A   1      40.410  36.384  41.326  1.00  0.00    -0.237 OA
ATOM    102  O   UNL A   1      38.556  37.544  40.175  1.00  0.00    -0.237 OA
ATOM    103  O   UNL A   1      38.098  35.545  41.543  1.00  0.00    -0.744 OA
ENDBRANCH  99 100
ENDBRANCH  67  92
ENDBRANCH  41  42
ENDBRANCH  34  36
ENDBRANCH  33  34
ENDBRANCH  32  33
ENDBRANCH  31  32
ENDBRANCH   1  31
TORSDOF 21
ENDMDL
MODEL 2
REMARK VINA RESULT:     -11.6      6.217     11.950
REMARK SMILES Cc1ccnc(C(=O)c2[nH]c3ccc(C(C)(C)C)cc3c2CC(=O)OCCOCCOC(=O)c2ccc(-c3c4nc(c(-c5c(F)cc(S(=O)(=O)[O-])cc5F)c5ccc([nH]5)c(-c5c(F)cc(S(=O)(=O)[O-])cc5F)c5nc(c(-c6c(F)cc(S(=O)(=O)[O-])cc6F)c6ccc3[nH]6)C=C5)C=C4)cc2)c1
REMARK SMILES IDX 28 1 27 2 26 3 25 4 23 5 24 6 22 7 21 8 9 9 10 10 11 11
REMARK SMILES IDX 20 13 12 14 19 15 13 16 14 17 7 18 8 19 6 20 1 21 2 22 3 23
REMARK SMILES IDX 100 24 4 25 5 26 15 27 16 28 17 29 18 30 29 31 30 32 31 33
REMARK SMILES IDX 32 34 33 35 34 36 35 37 99 38 36 39 98 40 37 41 38 42 39 43
REMARK SMILES IDX 92 44 40 45 97 46 91 47 93 48 41 49 96 50 90 51 89 52 42 54
REMARK SMILES IDX 76 55 55 56 75 57 56 58 59 59 74 60 94 61 57 62 58 63 73 65
REMARK SMILES IDX 95 66 60 67 43 68 44 69 53 70 45 71 46 72 52 73 54 74 47 75
REMARK SMILES IDX 48 76 49 77 50 78 51 79 77 80 78 81 87 82 79 83 80 84 86 85
REMARK SMILES IDX 88 86 81 87 82 88 83 89 84 90 85 91 61 92 62 93 71 94 63 95
REMARK SMILES IDX 64 96 70 97 72 98 65 99 66 100 67 101 68 102 69 103
REMARK H PARENT 10 12 93 53 59 64
REMARK Flexibility Score: inf
ROOT
ATOM      1  O   UNL A   1      33.423  31.712  27.654  1.00  0.00    -0.374 OA
ENDROOT
BRANCH   1   2
ATOM      2  C   UNL A   1      33.323  30.540  26.845  1.00  0.00     0.202 C 
BRANCH   2   3
ATOM      3  C   UNL A   1      31.926  30.052  26.440  1.00  0.00     0.261 C 
BRANCH   3   4
ATOM      4  O   UNL A   1      31.816  29.726  25.038  1.00  0.00    -0.463 OA
BRANCH   4   5
ATOM      5  C   UNL A   1      32.651  28.743  24.603  1.00  0.00     0.310 C 
ATOM      6  O   UNL A   1      33.597  28.933  23.840  1.00  0.00    -0.252 OA
BRANCH   5   7
ATOM      7  C   UNL A   1      32.302  27.344  25.056  1.00  0.00     0.161 C 
BRANCH   7   8
ATOM      8  C   UNL A   1      31.961  26.298  24.026  1.00  0.00     0.000 A 
ATOM      9  C   UNL A   1      30.731  26.082  23.396  1.00  0.00     0.093 A 
ATOM     10  N   UNL A   1      30.920  25.026  22.524  1.00  0.00    -0.352 N 
ATOM     11  C   UNL A   1      32.093  24.369  22.815  1.00  0.00     0.046 A 
ATOM     12  H   UNL A   1      30.303  24.779  21.797  1.00  0.00     0.167 HD
ATOM     13  C   UNL A   1      32.774  25.159  23.730  1.00  0.00     0.004 A 
ATOM     14  C   UNL A   1      32.600  23.145  22.365  1.00  0.00     0.027 A 
ATOM     15  C   UNL A   1      34.001  24.693  24.241  1.00  0.00     0.015 A 
ATOM     16  C   UNL A   1      33.793  22.676  22.947  1.00  0.00     0.006 A 
ATOM     17  C   UNL A   1      34.495  23.415  23.910  1.00  0.00    -0.042 A 
BRANCH   9  18
ATOM     18  C   UNL A   1      29.495  26.825  23.612  1.00  0.00     0.227 C 
ATOM     19  O   UNL A   1      28.551  26.343  24.237  1.00  0.00    -0.285 OA
BRANCH  18  20
ATOM     20  C   UNL A   1      29.279  28.180  23.017  1.00  0.00     0.113 A 
ATOM     21  C   UNL A   1      27.382  31.391  23.665  1.00  0.00     0.044 C 
ATOM     22  C   UNL A   1      28.325  30.380  23.088  1.00  0.00    -0.047 A 
ATOM     23  C   UNL A   1      29.290  30.777  22.158  1.00  0.00     0.023 A 
ATOM     24  C   UNL A   1      28.325  29.053  23.534  1.00  0.00     0.036 A 
ATOM     25  C   UNL A   1      30.186  29.834  21.682  1.00  0.00     0.112 A 
ATOM     26  N   UNL A   1      30.192  28.548  22.079  1.00  0.00    -0.253 NA
ENDBRANCH  18  20
ENDBRANCH   9  18
BRANCH  17  27
ATOM     27  C   UNL A   1      35.723  22.880  24.670  1.00  0.00    -0.013 C 
ATOM     28  C   UNL A   1      35.855  23.591  26.032  1.00  0.00     0.016 C 
ATOM     29  C   UNL A   1      35.542  21.361  24.907  1.00  0.00     0.016 C 
ATOM     30  C   UNL A   1      37.057  23.060  23.916  1.00  0.00     0.016 C 
ENDBRANCH  17  27
ENDBRANCH   7   8
ENDBRANCH   5   7
ENDBRANCH   4   5
ENDBRANCH   3   4
ENDBRANCH   2   3
ENDBRANCH   1   2
BRANCH   1  31
ATOM     31  C   UNL A   1      34.734  32.123  28.030  1.00  0.00     0.202 C 
BRANCH  31  32
ATOM     32  C   UNL A   1      35.162  31.879  29.485  1.00  0.00     0.261 C 
BRANCH  32  33
ATOM     33  O   UNL A   1      35.859  30.640  29.678  1.00  0.00    -0.460 OA
BRANCH  33  34
ATOM     34  C   UNL A   1      36.648  30.607  30.778  1.00  0.00     0.338 C 
ATOM     35  O   UNL A   1      36.295  30.643  31.949  1.00  0.00    -0.246 OA
BRANCH  34  36
ATOM     36  C   UNL A   1      38.039  30.352  30.377  1.00  0.00     0.060 A 
ATOM     37  C   UNL A   1      38.323  30.320  29.006  1.00  0.00     0.016 A 
ATOM     38  C   UNL A   1      39.039  30.114  31.322  1.00  0.00     0.016 A 
ATOM     39  C   UNL A   1      39.613  30.032  28.571  1.00  0.00     0.010 A 
ATOM     40  C   UNL A   1      40.330  29.812  30.883  1.00  0.00     0.010 A 
ATOM     41  C   UNL A   1      40.617  29.751  29.507  1.00  0.00    -0.014 A 
BRANCH  41  42
ATOM     42  C   UNL A   1      41.948  29.304  29.042  1.00  0.00     0.031 A 
ATOM     43  C   UNL A   1      43.069  30.303  28.965  1.00  0.00     0.074 A 
ATOM     44  C   UNL A   1      42.144  28.017  28.701  1.00  0.00     0.049 A 
ATOM     45  N   UNL A   1      44.292  30.140  28.540  1.00  0.00    -0.248 NA
ATOM     46  C   UNL A   1      42.766  31.668  29.429  1.00  0.00     0.031 C 
ATOM     47  C   UNL A   1      41.131  26.963  28.776  1.00  0.00     0.029 A 
ATOM     48  N   UNL A   1      43.257  27.378  28.220  1.00  0.00    -0.354 N 
ATOM     49  C   UNL A   1      44.906  31.381  28.673  1.00  0.00     0.074 A 
ATOM     50  C   UNL A   1      43.913  32.292  29.200  1.00  0.00     0.031 C 
ATOM     51  C   UNL A   1      41.667  25.810  28.343  1.00  0.00     0.029 A 
ATOM     52  C   UNL A   1      43.047  26.051  27.927  1.00  0.00     0.049 A 
ATOM     53  H   UNL A   1      44.125  27.827  28.095  1.00  0.00     0.167 HD
ATOM     54  C   UNL A   1      46.183  31.721  28.383  1.00  0.00     0.037 A 
ATOM     55  C   UNL A   1      43.869  25.146  27.360  1.00  0.00     0.037 A 
ATOM     56  C   UNL A   1      47.158  30.796  27.862  1.00  0.00     0.049 A 
ATOM     57  C   UNL A   1      45.263  25.572  26.978  1.00  0.00     0.074 A 
ATOM     58  C   UNL A   1      48.490  31.025  27.570  1.00  0.00     0.029 A 
ATOM     59  N   UNL A   1      46.900  29.470  27.544  1.00  0.00    -0.354 N 
ATOM     60  N   UNL A   1      45.846  26.736  27.150  1.00  0.00    -0.248 NA
ATOM     61  C   UNL A   1      46.110  24.567  26.323  1.00  0.00     0.031 C 
ATOM     62  C   UNL A   1      49.021  29.856  27.016  1.00  0.00     0.029 A 
ATOM     63  C   UNL A   1      48.037  28.880  27.018  1.00  0.00     0.049 A 
ATOM     64  H   UNL A   1      46.036  29.016  27.672  1.00  0.00     0.167 HD
ATOM     65  C   UNL A   1      47.133  26.596  26.641  1.00  0.00     0.074 A 
ATOM     66  C   UNL A   1      47.250  25.230  26.176  1.00  0.00     0.031 C 
ATOM     67  C   UNL A   1      48.129  27.515  26.561  1.00  0.00     0.037 A 
BRANCH  54  68
ATOM     68  C   UNL A   1      46.600  33.152  28.587  1.00  0.00     0.058 A 
ATOM     69  C   UNL A   1      47.192  33.590  29.782  1.00  0.00     0.135 A 
ATOM     70  C   UNL A   1      46.457  34.086  27.547  1.00  0.00     0.135 A 
ATOM     71  F   UNL A   1      47.335  32.747  30.816  1.00  0.00    -0.206 F 
ATOM     72  C   UNL A   1      47.619  34.906  29.942  1.00  0.00     0.059 A 
ATOM     73  C   UNL A   1      46.900  35.398  27.675  1.00  0.00     0.059 A 
ATOM     74  F   UNL A   1      45.890  33.722  26.386  1.00  0.00    -0.206 F 
ATOM     75  C   UNL A   1      47.473  35.802  28.880  1.00  0.00     0.060 A 
BRANCH  75  76
ATOM     76  S   UNL A   1      48.062  37.495  29.093  1.00  0.00     0.124 S 
ATOM     77  O   UNL A   1      47.340  38.192  28.033  1.00  0.00    -0.237 OA
ATOM     78  O   UNL A   1      47.638  37.802  30.456  1.00  0.00    -0.237 OA
ATOM     79  O   UNL A   1      49.504  37.382  28.899  1.00  0.00    -0.744 OA
ENDBRANCH  75  76
ENDBRANCH  54  68
BRANCH  55  80
ATOM     80  C   UNL A   1      43.392  23.761  27.095  1.00  0.00     0.058 A 
ATOM     81  C   UNL A   1      43.032  23.353  25.803  1.00  0.00     0.135 A 
ATOM     82  C   UNL A   1      43.273  22.822  28.132  1.00  0.00     0.135 A 
ATOM     83  F   UNL A   1      43.117  24.216  24.779  1.00  0.00    -0.206 F 
ATOM     84  C   UNL A   1      42.551  22.072  25.549  1.00  0.00     0.059 A 
ATOM     85  C   UNL A   1      42.822  21.526  27.899  1.00  0.00     0.059 A 
ATOM     86  F   UNL A   1      43.612  23.156  29.387  1.00  0.00    -0.206 F 
ATOM     87  C   UNL A   1      42.451  21.164  26.606  1.00  0.00     0.060 A 
BRANCH  87  88
ATOM     88  S   UNL A   1      41.852  19.496  26.261  1.00  0.00     0.124 S 
ATOM     89  O   UNL A   1      42.561  19.178  25.026  1.00  0.00    -0.237 OA
ATOM     90  O   UNL A   1      42.280  18.765  27.449  1.00  0.00    -0.237 OA
ATOM     91  O   UNL A   1      40.409  19.678  26.130  1.00  0.00    -0.744 OA
ENDBRANCH  87  88
ENDBRANCH  55  80
BRANCH  67  92
ATOM     92  C   UNL A   1      49.433  27.068  25.962  1.00  0.00     0.058 A 
ATOM     93  C   UNL A   1      49.708  27.230  24.596  1.00  0.00     0.135 A 
ATOM     94  C   UNL A   1      50.444  26.530  26.775  1.00  0.00     0.135 A 
ATOM     95  F   UNL A   1      48.773  27.731  23.773  1.00  0.00    -0.206 F 
ATOM     96  C   UNL A   1      50.931  26.854  24.051  1.00  0.00     0.059 A 
ATOM     97  C   UNL A   1      51.687  26.178  26.258  1.00  0.00     0.059 A 
ATOM     98  F   UNL A   1      50.237  26.365  28.092  1.00  0.00    -0.206 F 
ATOM     99  C   UNL A   1      51.917  26.333  24.892  1.00  0.00     0.060 A 
BRANCH  99 100
ATOM    100  S   UNL A   1      53.514  25.892  24.178  1.00  0.00     0.124 S 
ATOM    101  O   UNL A   1      53.210  25.899  22.751  1.00  0.00    -0.237 OA
ATOM    102  O   UNL A   1      54.375  26.973  24.649  1.00  0.00    -0.237 OA
ATOM    103  O   UNL A   1      53.794  24.579  24.754  1.00  0.00    -0.744 OA
ENDBRANCH  99 100
ENDBRANCH  67  92
ENDBRANCH  41  42
ENDBRANCH  34  36
ENDBRANCH  33  34
ENDBRANCH  32  33
ENDBRANCH  31  32
ENDBRANCH   1  31
TORSDOF 21
ENDMDL
MODEL 3
REMARK VINA RESULT:     -11.3      6.229     11.695
REMARK SMILES Cc1ccnc(C(=O)c2[nH]c3ccc(C(C)(C)C)cc3c2CC(=O)OCCOCCOC(=O)c2ccc(-c3c4nc(c(-c5c(F)cc(S(=O)(=O)[O-])cc5F)c5ccc([nH]5)c(-c5c(F)cc(S(=O)(=O)[O-])cc5F)c5nc(c(-c6c(F)cc(S(=O)(=O)[O-])cc6F)c6ccc3[nH]6)C=C5)C=C4)cc2)c1
REMARK SMILES IDX 28 1 27 2 26 3 25 4 23 5 24 6 22 7 21 8 9 9 10 10 11 11
REMARK SMILES IDX 20 13 12 14 19 15 13 16 14 17 7 18 8 19 6 20 1 21 2 22 3 23
REMARK SMILES IDX 100 24 4 25 5 26 15 27 16 28 17 29 18 30 29 31 30 32 31 33
REMARK SMILES IDX 32 34 33 35 34 36 35 37 99 38 36 39 98 40 37 41 38 42 39 43
REMARK SMILES IDX 92 44 40 45 97 46 91 47 93 48 41 49 96 50 90 51 89 52 42 54
REMARK SMILES IDX 76 55 55 56 75 57 56 58 59 59 74 60 94 61 57 62 58 63 73 65
REMARK SMILES IDX 95 66 60 67 43 68 44 69 53 70 45 71 46 72 52 73 54 74 47 75
REMARK SMILES IDX 48 76 49 77 50 78 51 79 77 80 78 81 87 82 79 83 80 84 86 85
REMARK SMILES IDX 88 86 81 87 82 88 83 89 84 90 85 91 61 92 62 93 71 94 63 95
REMARK SMILES IDX 64 96 70 97 72 98 65 99 66 100 67 101 68 102 69 103
REMARK H PARENT 10 12 93 53 59 64
REMARK Flexibility Score: inf
ROOT
ATOM      1  O   UNL A   1      33.734  32.105  28.167  1.00  0.00    -0.374 OA
ENDROOT
BRANCH   1   2
ATOM      2  C   UNL A   1      33.689  31.012  27.250  1.00  0.00     0.202 C 
BRANCH   2   3
ATOM      3  C   UNL A   1      32.445  30.113  27.252  1.00  0.00     0.261 C 
BRANCH   3   4
ATOM      4  O   UNL A   1      32.324  29.299  26.065  1.00  0.00    -0.463 OA
BRANCH   4   5
ATOM      5  C   UNL A   1      32.753  28.014  26.197  1.00  0.00     0.310 C 
ATOM      6  O   UNL A   1      33.906  27.701  26.492  1.00  0.00    -0.252 OA
BRANCH   5   7
ATOM      7  C   UNL A   1      31.730  26.950  25.872  1.00  0.00     0.161 C 
BRANCH   7   8
ATOM      8  C   UNL A   1      31.788  26.253  24.537  1.00  0.00     0.000 A 
ATOM      9  C   UNL A   1      30.808  26.226  23.539  1.00  0.00     0.093 A 
ATOM     10  N   UNL A   1      31.329  25.476  22.501  1.00  0.00    -0.352 N 
ATOM     11  C   UNL A   1      32.428  24.768  22.927  1.00  0.00     0.046 A 
ATOM     12  H   UNL A   1      30.964  25.452  21.587  1.00  0.00     0.167 HD
ATOM     13  C   UNL A   1      32.751  25.257  24.186  1.00  0.00     0.004 A 
ATOM     14  C   UNL A   1      33.150  23.735  22.321  1.00  0.00     0.027 A 
ATOM     15  C   UNL A   1      33.824  24.667  24.882  1.00  0.00     0.015 A 
ATOM     16  C   UNL A   1      34.171  23.121  23.072  1.00  0.00     0.006 A 
ATOM     17  C   UNL A   1      34.505  23.545  24.366  1.00  0.00    -0.042 A 
BRANCH   9  18
ATOM     18  C   UNL A   1      29.498  26.867  23.582  1.00  0.00     0.227 C 
ATOM     19  O   UNL A   1      28.515  26.297  24.055  1.00  0.00    -0.285 OA
BRANCH  18  20
ATOM     20  C   UNL A   1      29.263  28.216  22.981  1.00  0.00     0.113 A 
ATOM     21  C   UNL A   1      27.293  31.389  23.595  1.00  0.00     0.044 C 
ATOM     22  C   UNL A   1      28.264  30.396  23.033  1.00  0.00    -0.047 A 
ATOM     23  C   UNL A   1      29.234  30.811  22.117  1.00  0.00     0.023 A 
ATOM     24  C   UNL A   1      28.285  29.070  23.482  1.00  0.00     0.036 A 
ATOM     25  C   UNL A   1      30.155  29.885  21.656  1.00  0.00     0.112 A 
ATOM     26  N   UNL A   1      30.181  28.600  22.056  1.00  0.00    -0.253 NA
ENDBRANCH  18  20
ENDBRANCH   9  18
BRANCH  17  27
ATOM     27  C   UNL A   1      35.516  22.816  25.270  1.00  0.00    -0.013 C 
ATOM     28  C   UNL A   1      36.058  21.561  24.555  1.00  0.00     0.016 C 
ATOM     29  C   UNL A   1      36.694  23.772  25.578  1.00  0.00     0.016 C 
ATOM     30  C   UNL A   1      34.936  22.367  26.628  1.00  0.00     0.016 C 
ENDBRANCH  17  27
ENDBRANCH   7   8
ENDBRANCH   5   7
ENDBRANCH   4   5
ENDBRANCH   3   4
ENDBRANCH   2   3
ENDBRANCH   1   2
BRANCH   1  31
ATOM     31  C   UNL A   1      35.012  32.447  28.696  1.00  0.00     0.202 C 
BRANCH  31  32
ATOM     32  C   UNL A   1      35.264  32.156  30.183  1.00  0.00     0.261 C 
BRANCH  32  33
ATOM     33  O   UNL A   1      35.960  30.924  30.417  1.00  0.00    -0.460 OA
BRANCH  33  34
ATOM     34  C   UNL A   1      37.003  31.024  31.275  1.00  0.00     0.338 C 
ATOM     35  O   UNL A   1      36.970  31.352  32.453  1.00  0.00    -0.246 OA
BRANCH  34  36
ATOM     36  C   UNL A   1      38.222  30.514  30.629  1.00  0.00     0.060 A 
ATOM     37  C   UNL A   1      39.290  30.147  31.458  1.00  0.00     0.016 A 
ATOM     38  C   UNL A   1      38.330  30.428  29.240  1.00  0.00     0.016 A 
ATOM     39  C   UNL A   1      40.484  29.706  30.896  1.00  0.00     0.010 A 
ATOM     40  C   UNL A   1      39.534  29.999  28.678  1.00  0.00     0.010 A 
ATOM     41  C   UNL A   1      40.620  29.655  29.502  1.00  0.00    -0.014 A 
BRANCH  41  42
ATOM     42  C   UNL A   1      41.935  29.326  28.907  1.00  0.00     0.031 A 
ATOM     43  C   UNL A   1      42.186  27.926  28.420  1.00  0.00     0.074 A 
ATOM     44  C   UNL A   1      42.881  30.276  28.801  1.00  0.00     0.049 A 
ATOM     45  N   UNL A   1      43.274  27.410  27.916  1.00  0.00    -0.248 NA
ATOM     46  C   UNL A   1      41.059  26.983  28.518  1.00  0.00     0.031 C 
ATOM     47  C   UNL A   1      42.721  31.672  29.210  1.00  0.00     0.029 A 
ATOM     48  N   UNL A   1      44.164  30.211  28.324  1.00  0.00    -0.354 N 
ATOM     49  C   UNL A   1      42.971  26.080  27.644  1.00  0.00     0.074 A 
ATOM     50  C   UNL A   1      41.602  25.864  28.059  1.00  0.00     0.031 C 
ATOM     51  C   UNL A   1      43.869  32.330  28.976  1.00  0.00     0.029 A 
ATOM     52  C   UNL A   1      44.854  31.395  28.437  1.00  0.00     0.049 A 
ATOM     53  H   UNL A   1      44.556  29.394  27.937  1.00  0.00     0.167 HD
ATOM     54  C   UNL A   1      43.766  25.133  27.096  1.00  0.00     0.037 A 
ATOM     55  C   UNL A   1      46.143  31.679  28.163  1.00  0.00     0.037 A 
ATOM     56  C   UNL A   1      45.127  25.373  26.685  1.00  0.00     0.049 A 
ATOM     57  C   UNL A   1      47.027  30.585  27.622  1.00  0.00     0.074 A 
ATOM     58  C   UNL A   1      46.010  24.495  26.083  1.00  0.00     0.029 A 
ATOM     59  N   UNL A   1      45.804  26.573  26.849  1.00  0.00    -0.354 N 
ATOM     60  N   UNL A   1      46.717  29.343  27.329  1.00  0.00    -0.248 NA
ATOM     61  C   UNL A   1      48.435  30.926  27.380  1.00  0.00     0.031 C 
ATOM     62  C   UNL A   1      47.239  25.144  25.940  1.00  0.00     0.029 A 
ATOM     63  C   UNL A   1      47.107  26.446  26.398  1.00  0.00     0.049 A 
ATOM     64  H   UNL A   1      45.416  27.393  27.230  1.00  0.00     0.167 HD
ATOM     65  C   UNL A   1      47.886  28.762  26.850  1.00  0.00     0.074 A 
ATOM     66  C   UNL A   1      48.903  29.793  26.872  1.00  0.00     0.031 C 
ATOM     67  C   UNL A   1      48.103  27.489  26.432  1.00  0.00     0.037 A 
BRANCH  54  68
ATOM     68  C   UNL A   1      43.208  23.746  26.933  1.00  0.00     0.058 A 
ATOM     69  C   UNL A   1      42.862  23.227  25.676  1.00  0.00     0.135 A 
ATOM     70  C   UNL A   1      43.073  22.903  28.049  1.00  0.00     0.135 A 
ATOM     71  F   UNL A   1      42.952  23.993  24.579  1.00  0.00    -0.206 F 
ATOM     72  C   UNL A   1      42.393  21.924  25.532  1.00  0.00     0.059 A 
ATOM     73  C   UNL A   1      42.631  21.589  27.925  1.00  0.00     0.059 A 
ATOM     74  F   UNL A   1      43.383  23.351  29.276  1.00  0.00    -0.206 F 
ATOM     75  C   UNL A   1      42.286  21.111  26.662  1.00  0.00     0.060 A 
BRANCH  75  76
ATOM     76  S   UNL A   1      41.707  19.414  26.453  1.00  0.00     0.124 S 
ATOM     77  O   UNL A   1      42.150  18.796  27.698  1.00  0.00    -0.237 OA
ATOM     78  O   UNL A   1      40.264  19.593  26.313  1.00  0.00    -0.237 OA
ATOM     79  O   UNL A   1      42.399  18.963  25.249  1.00  0.00    -0.744 OA
ENDBRANCH  75  76
ENDBRANCH  54  68
BRANCH  55  80
ATOM     80  C   UNL A   1      46.683  33.043  28.418  1.00  0.00     0.058 A 
ATOM     81  C   UNL A   1      47.168  33.407  29.682  1.00  0.00     0.135 A 
ATOM     82  C   UNL A   1      46.708  34.016  27.406  1.00  0.00     0.135 A 
ATOM     83  F   UNL A   1      47.156  32.517  30.686  1.00  0.00    -0.206 F 
ATOM     84  C   UNL A   1      47.642  34.689  29.941  1.00  0.00     0.059 A 
ATOM     85  C   UNL A   1      47.203  35.296  27.632  1.00  0.00     0.059 A 
ATOM     86  F   UNL A   1      46.263  33.720  26.174  1.00  0.00    -0.206 F 
ATOM     87  C   UNL A   1      47.656  35.628  28.907  1.00  0.00     0.060 A 
BRANCH  87  88
ATOM     88  S   UNL A   1      48.297  37.281  29.247  1.00  0.00     0.124 S 
ATOM     89  O   UNL A   1      47.412  37.726  30.317  1.00  0.00    -0.237 OA
ATOM     90  O   UNL A   1      49.676  37.001  29.634  1.00  0.00    -0.237 OA
ATOM     91  O   UNL A   1      48.140  37.971  27.970  1.00  0.00    -0.744 OA
ENDBRANCH  87  88
ENDBRANCH  55  80
BRANCH  67  92
ATOM     92  C   UNL A   1      49.486  27.146  25.952  1.00  0.00     0.058 A 
ATOM     93  C   UNL A   1      50.445  26.591  26.813  1.00  0.00     0.135 A 
ATOM     94  C   UNL A   1      49.836  27.316  24.602  1.00  0.00     0.135 A 
ATOM     95  F   UNL A   1      50.165  26.416  28.114  1.00  0.00    -0.206 F 
ATOM     96  C   UNL A   1      51.710  26.236  26.358  1.00  0.00     0.059 A 
ATOM     97  C   UNL A   1      51.084  26.938  24.119  1.00  0.00     0.059 A 
ATOM     98  F   UNL A   1      48.951  27.832  23.734  1.00  0.00    -0.206 F 
ATOM     99  C   UNL A   1      52.019  26.409  25.007  1.00  0.00     0.060 A 
BRANCH  99 100
ATOM    100  S   UNL A   1      53.649  25.901  24.424  1.00  0.00     0.124 S 
ATOM    101  O   UNL A   1      54.517  26.851  25.112  1.00  0.00    -0.237 OA
ATOM    102  O   UNL A   1      53.729  24.518  24.885  1.00  0.00    -0.237 OA
ATOM    103  O   UNL A   1      53.560  26.068  22.975  1.00  0.00    -0.744 OA
ENDBRANCH  99 100
ENDBRANCH  67  92
ENDBRANCH  41  42
ENDBRANCH  34  36
ENDBRANCH  33  34
ENDBRANCH  32  33
ENDBRANCH  31  32
ENDBRANCH   1  31
TORSDOF 21
ENDMDL
