MODEL 1
REMARK VINA RESULT:      -9.8      0.000      0.000
REMARK SMILES CCC(CC)(CC(=O)Nc1cccc(OC)c1)C(=O)OCCOCCOC(=O)c1ccc(-c2c3nc(c(-c4c(F)cc(S(=O)(=O)[O-])cc4F)c4ccc([nH]4)c(-c4c(F)cc(S(=O)(=O)[O-])cc4F)c4nc(c(-c5c(F)cc(S(=O)(=O)[O-])cc5F)c5ccc2[nH]5)C=C4)C=C3)cc1
REMARK SMILES IDX 22 1 21 2 20 3 18 4 19 5 3 6 2 7 1 8 4 9 5 10 6 11 7 12 8 13
REMARK SMILES IDX 9 14 10 16 11 17 17 18 12 19 14 20 13 21 15 22 16 23 23 24
REMARK SMILES IDX 24 25 25 26 26 27 27 28 28 29 29 30 30 31 94 32 31 33 93 34
REMARK SMILES IDX 32 35 33 36 34 37 87 38 35 39 92 40 86 41 88 42 36 43 91 44
REMARK SMILES IDX 85 45 84 46 37 48 71 49 50 50 70 51 51 52 54 53 69 54 89 55
REMARK SMILES IDX 52 56 53 57 68 59 90 60 55 61 38 62 39 63 48 64 40 65 41 66
REMARK SMILES IDX 47 67 49 68 42 69 43 70 44 71 45 72 46 73 72 74 73 75 82 76
REMARK SMILES IDX 74 77 75 78 81 79 83 80 76 81 77 82 78 83 79 84 80 85 56 86
REMARK SMILES IDX 57 87 66 88 58 89 59 90 65 91 67 92 60 93 61 94 62 95 63 96
REMARK SMILES IDX 64 97
REMARK H PARENT 9 15 88 47 54 58
REMARK Flexibility Score: inf
ROOT
ATOM      1  C   UNL A   1      37.800  21.744  24.947  1.00  0.00     0.202 C 
ENDROOT
BRANCH   1   2
ATOM      2  C   UNL A   1      36.763  22.607  24.220  1.00  0.00     0.261 C 
BRANCH   2   3
ATOM      3  O   UNL A   1      35.549  21.895  23.913  1.00  0.00    -0.463 OA
BRANCH   3   4
ATOM      4  C   UNL A   1      34.503  22.723  23.679  1.00  0.00     0.312 C 
ATOM      5  O   UNL A   1      34.304  23.245  22.584  1.00  0.00    -0.252 OA
BRANCH   4   6
ATOM      6  C   UNL A   1      33.463  22.754  24.831  1.00  0.00     0.076 C 
BRANCH   6   7
ATOM      7  C   UNL A   1      34.069  23.616  25.975  1.00  0.00     0.016 C 
ATOM      8  C   UNL A   1      34.186  25.124  25.781  1.00  0.00     0.005 C 
ENDBRANCH   6   7
BRANCH   6   9
ATOM      9  C   UNL A   1      33.372  21.220  25.243  1.00  0.00     0.016 C 
ATOM     10  C   UNL A   1      32.841  20.166  24.277  1.00  0.00     0.005 C 
ENDBRANCH   6   9
BRANCH   6  11
ATOM     11  C   UNL A   1      32.049  23.236  24.381  1.00  0.00     0.119 C 
BRANCH  11  12
ATOM     12  C   UNL A   1      30.899  23.463  25.356  1.00  0.00     0.225 C 
ATOM     13  O   UNL A   1      30.485  22.502  26.019  1.00  0.00    -0.275 OA
ATOM     14  N   UNL A   1      30.306  24.653  25.655  1.00  0.00    -0.326 N 
ATOM     15  H   UNL A   1      29.688  24.557  26.416  1.00  0.00     0.169 HD
BRANCH  14  16
ATOM     16  C   UNL A   1      30.322  25.981  25.185  1.00  0.00     0.044 A 
ATOM     17  C   UNL A   1      29.519  26.257  24.066  1.00  0.00     0.026 A 
ATOM     18  C   UNL A   1      31.105  27.011  25.685  1.00  0.00     0.072 A 
ATOM     19  C   UNL A   1      29.572  27.496  23.417  1.00  0.00     0.006 A 
ATOM     20  C   UNL A   1      31.223  28.226  24.995  1.00  0.00     0.120 A 
ATOM     21  C   UNL A   1      30.446  28.477  23.871  1.00  0.00     0.046 A 
BRANCH  20  22
ATOM     22  O   UNL A   1      32.060  29.227  25.414  1.00  0.00    -0.497 OA
ATOM     23  C   UNL A   1      32.279  29.190  26.827  1.00  0.00     0.278 C 
ENDBRANCH  20  22
ENDBRANCH  14  16
ENDBRANCH  11  12
ENDBRANCH   6  11
ENDBRANCH   4   6
ENDBRANCH   3   4
ENDBRANCH   2   3
ENDBRANCH   1   2
BRANCH   1  24
ATOM     24  O   UNL A   1      38.383  22.309  26.121  1.00  0.00    -0.374 OA
BRANCH  24  25
ATOM     25  C   UNL A   1      39.761  21.997  26.368  1.00  0.00     0.202 C 
BRANCH  25  26
ATOM     26  C   UNL A   1      40.706  23.183  26.588  1.00  0.00     0.261 C 
BRANCH  26  27
ATOM     27  O   UNL A   1      40.013  24.442  26.471  1.00  0.00    -0.460 OA
BRANCH  27  28
ATOM     28  C   UNL A   1      40.822  25.513  26.322  1.00  0.00     0.338 C 
ATOM     29  O   UNL A   1      41.189  26.018  25.266  1.00  0.00    -0.246 OA
BRANCH  28  30
ATOM     30  C   UNL A   1      41.059  26.154  27.625  1.00  0.00     0.060 A 
ATOM     31  C   UNL A   1      40.044  26.070  28.584  1.00  0.00     0.016 A 
ATOM     32  C   UNL A   1      42.191  26.941  27.852  1.00  0.00     0.016 A 
ATOM     33  C   UNL A   1      40.131  26.821  29.755  1.00  0.00     0.010 A 
ATOM     34  C   UNL A   1      42.269  27.703  29.025  1.00  0.00     0.010 A 
ATOM     35  C   UNL A   1      41.220  27.679  29.962  1.00  0.00    -0.014 A 
BRANCH  35  36
ATOM     36  C   UNL A   1      41.159  28.652  31.081  1.00  0.00     0.031 A 
ATOM     37  C   UNL A   1      40.114  29.738  31.050  1.00  0.00     0.074 A 
ATOM     38  C   UNL A   1      41.970  28.525  32.148  1.00  0.00     0.049 A 
ATOM     39  N   UNL A   1      39.844  30.655  31.943  1.00  0.00    -0.248 NA
ATOM     40  C   UNL A   1      39.251  29.789  29.858  1.00  0.00     0.031 C 
ATOM     41  C   UNL A   1      42.995  27.495  32.309  1.00  0.00     0.029 A 
ATOM     42  N   UNL A   1      42.050  29.264  33.301  1.00  0.00    -0.354 N 
ATOM     43  C   UNL A   1      38.778  31.385  31.429  1.00  0.00     0.074 A 
ATOM     44  C   UNL A   1      38.471  30.826  30.131  1.00  0.00     0.031 C 
ATOM     45  C   UNL A   1      43.607  27.671  33.494  1.00  0.00     0.029 A 
ATOM     46  C   UNL A   1      43.029  28.834  34.165  1.00  0.00     0.049 A 
ATOM     47  H   UNL A   1      41.461  30.030  33.492  1.00  0.00     0.167 HD
ATOM     48  C   UNL A   1      38.109  32.419  31.993  1.00  0.00     0.037 A 
ATOM     49  C   UNL A   1      43.421  29.331  35.354  1.00  0.00     0.037 A 
ATOM     50  C   UNL A   1      38.421  32.979  33.282  1.00  0.00     0.049 A 
ATOM     51  C   UNL A   1      42.700  30.523  35.932  1.00  0.00     0.074 A 
ATOM     52  C   UNL A   1      37.798  34.026  33.940  1.00  0.00     0.029 A 
ATOM     53  N   UNL A   1      39.446  32.543  34.109  1.00  0.00    -0.354 N 
ATOM     54  N   UNL A   1      41.680  31.188  35.443  1.00  0.00    -0.248 NA
ATOM     55  C   UNL A   1      43.180  31.028  37.226  1.00  0.00     0.031 C 
ATOM     56  C   UNL A   1      38.470  34.248  35.147  1.00  0.00     0.029 A 
ATOM     57  C   UNL A   1      39.486  33.312  35.260  1.00  0.00     0.049 A 
ATOM     58  H   UNL A   1      40.054  31.796  33.906  1.00  0.00     0.167 HD
ATOM     59  C   UNL A   1      41.385  32.175  36.378  1.00  0.00     0.074 A 
ATOM     60  C   UNL A   1      42.322  32.010  37.469  1.00  0.00     0.031 C 
ATOM     61  C   UNL A   1      40.427  33.133  36.337  1.00  0.00     0.037 A 
BRANCH  48  62
ATOM     62  C   UNL A   1      36.977  33.025  31.211  1.00  0.00     0.058 A 
ATOM     63  C   UNL A   1      37.210  33.922  30.158  1.00  0.00     0.135 A 
ATOM     64  C   UNL A   1      35.647  32.667  31.487  1.00  0.00     0.135 A 
ATOM     65  F   UNL A   1      38.461  34.310  29.864  1.00  0.00    -0.206 F 
ATOM     66  C   UNL A   1      36.163  34.453  29.411  1.00  0.00     0.059 A 
ATOM     67  C   UNL A   1      34.586  33.170  30.740  1.00  0.00     0.059 A 
ATOM     68  F   UNL A   1      35.370  31.815  32.487  1.00  0.00    -0.206 F 
ATOM     69  C   UNL A   1      34.853  34.071  29.709  1.00  0.00     0.060 A 
BRANCH  69  70
ATOM     70  S   UNL A   1      33.506  34.753  28.719  1.00  0.00     0.124 S 
ATOM     71  O   UNL A   1      34.111  35.977  28.206  1.00  0.00    -0.237 OA
ATOM     72  O   UNL A   1      33.276  33.699  27.736  1.00  0.00    -0.237 OA
ATOM     73  O   UNL A   1      32.433  34.944  29.690  1.00  0.00    -0.744 OA
ENDBRANCH  69  70
ENDBRANCH  48  62
BRANCH  49  74
ATOM     74  C   UNL A   1      44.565  28.717  36.080  1.00  0.00     0.058 A 
ATOM     75  C   UNL A   1      45.881  29.153  35.872  1.00  0.00     0.135 A 
ATOM     76  C   UNL A   1      44.360  27.664  36.985  1.00  0.00     0.135 A 
ATOM     77  F   UNL A   1      46.128  30.149  35.008  1.00  0.00    -0.206 F 
ATOM     78  C   UNL A   1      46.958  28.553  36.517  1.00  0.00     0.059 A 
ATOM     79  C   UNL A   1      45.418  27.064  37.661  1.00  0.00     0.059 A 
ATOM     80  F   UNL A   1      43.119  27.215  37.226  1.00  0.00    -0.206 F 
ATOM     81  C   UNL A   1      46.716  27.507  37.409  1.00  0.00     0.060 A 
BRANCH  81  82
ATOM     82  S   UNL A   1      48.114  26.750  38.268  1.00  0.00     0.124 S 
ATOM     83  O   UNL A   1      49.068  26.579  37.178  1.00  0.00    -0.237 OA
ATOM     84  O   UNL A   1      48.453  27.766  39.260  1.00  0.00    -0.237 OA
ATOM     85  O   UNL A   1      47.546  25.520  38.811  1.00  0.00    -0.744 OA
ENDBRANCH  81  82
ENDBRANCH  49  74
BRANCH  61  86
ATOM     86  C   UNL A   1      40.330  34.062  37.515  1.00  0.00     0.058 A 
ATOM     87  C   UNL A   1      41.028  35.279  37.551  1.00  0.00     0.135 A 
ATOM     88  C   UNL A   1      39.504  33.746  38.607  1.00  0.00     0.135 A 
ATOM     89  F   UNL A   1      41.833  35.626  36.534  1.00  0.00    -0.206 F 
ATOM     90  C   UNL A   1      40.934  36.138  38.642  1.00  0.00     0.059 A 
ATOM     91  C   UNL A   1      39.377  34.602  39.697  1.00  0.00     0.059 A 
ATOM     92  F   UNL A   1      38.805  32.601  38.617  1.00  0.00    -0.206 F 
ATOM     93  C   UNL A   1      40.109  35.789  39.712  1.00  0.00     0.060 A 
BRANCH  93  94
ATOM     94  S   UNL A   1      39.982  36.918  41.115  1.00  0.00     0.124 S 
ATOM     95  O   UNL A   1      38.711  36.510  41.706  1.00  0.00    -0.237 OA
ATOM     96  O   UNL A   1      41.174  36.595  41.891  1.00  0.00    -0.237 OA
ATOM     97  O   UNL A   1      39.988  38.237  40.490  1.00  0.00    -0.744 OA
ENDBRANCH  93  94
ENDBRANCH  61  86
ENDBRANCH  35  36
ENDBRANCH  28  30
ENDBRANCH  27  28
ENDBRANCH  26  27
ENDBRANCH  25  26
ENDBRANCH  24  25
ENDBRANCH   1  24
TORSDOF 23
ENDMDL
MODEL 2
REMARK VINA RESULT:      -9.8      2.313      8.579
REMARK SMILES CCC(CC)(CC(=O)Nc1cccc(OC)c1)C(=O)OCCOCCOC(=O)c1ccc(-c2c3nc(c(-c4c(F)cc(S(=O)(=O)[O-])cc4F)c4ccc([nH]4)c(-c4c(F)cc(S(=O)(=O)[O-])cc4F)c4nc(c(-c5c(F)cc(S(=O)(=O)[O-])cc5F)c5ccc2[nH]5)C=C4)C=C3)cc1
REMARK SMILES IDX 22 1 21 2 20 3 18 4 19 5 3 6 2 7 1 8 4 9 5 10 6 11 7 12 8 13
REMARK SMILES IDX 9 14 10 16 11 17 17 18 12 19 14 20 13 21 15 22 16 23 23 24
REMARK SMILES IDX 24 25 25 26 26 27 27 28 28 29 29 30 30 31 94 32 31 33 93 34
REMARK SMILES IDX 32 35 33 36 34 37 87 38 35 39 92 40 86 41 88 42 36 43 91 44
REMARK SMILES IDX 85 45 84 46 37 48 71 49 50 50 70 51 51 52 54 53 69 54 89 55
REMARK SMILES IDX 52 56 53 57 68 59 90 60 55 61 38 62 39 63 48 64 40 65 41 66
REMARK SMILES IDX 47 67 49 68 42 69 43 70 44 71 45 72 46 73 72 74 73 75 82 76
REMARK SMILES IDX 74 77 75 78 81 79 83 80 76 81 77 82 78 83 79 84 80 85 56 86
REMARK SMILES IDX 57 87 66 88 58 89 59 90 65 91 67 92 60 93 61 94 62 95 63 96
REMARK SMILES IDX 64 97
REMARK H PARENT 9 15 88 47 54 58
REMARK Flexibility Score: inf
ROOT
ATOM      1  C   UNL A   1      32.567  30.069  26.023  1.00  0.00     0.202 C 
ENDROOT
BRANCH   1   2
ATOM      2  C   UNL A   1      32.716  28.573  26.317  1.00  0.00     0.261 C 
BRANCH   2   3
ATOM      3  O   UNL A   1      32.300  27.736  25.222  1.00  0.00    -0.463 OA
BRANCH   3   4
ATOM      4  C   UNL A   1      33.003  26.581  25.150  1.00  0.00     0.312 C 
ATOM      5  O   UNL A   1      34.114  26.451  25.658  1.00  0.00    -0.252 OA
BRANCH   4   6
ATOM      6  C   UNL A   1      32.184  25.386  24.590  1.00  0.00     0.076 C 
BRANCH   6   7
ATOM      7  C   UNL A   1      30.923  25.232  25.486  1.00  0.00     0.016 C 
ATOM      8  C   UNL A   1      30.690  23.912  26.213  1.00  0.00     0.005 C 
ENDBRANCH   6   7
BRANCH   6   9
ATOM      9  C   UNL A   1      33.190  24.169  24.784  1.00  0.00     0.016 C 
ATOM     10  C   UNL A   1      33.984  23.597  23.615  1.00  0.00     0.005 C 
ENDBRANCH   6   9
BRANCH   6  11
ATOM     11  C   UNL A   1      31.848  25.520  23.072  1.00  0.00     0.119 C 
BRANCH  11  12
ATOM     12  C   UNL A   1      32.278  26.715  22.229  1.00  0.00     0.225 C 
ATOM     13  O   UNL A   1      33.375  26.674  21.655  1.00  0.00    -0.275 OA
ATOM     14  N   UNL A   1      31.540  27.828  21.956  1.00  0.00    -0.326 N 
ATOM     15  H   UNL A   1      31.982  28.387  21.276  1.00  0.00     0.169 HD
BRANCH  14  16
ATOM     16  C   UNL A   1      30.325  28.409  22.370  1.00  0.00     0.044 A 
ATOM     17  C   UNL A   1      29.479  27.600  23.147  1.00  0.00     0.026 A 
ATOM     18  C   UNL A   1      29.868  29.673  22.025  1.00  0.00     0.072 A 
ATOM     19  C   UNL A   1      28.184  28.011  23.485  1.00  0.00     0.006 A 
ATOM     20  C   UNL A   1      28.547  30.058  22.291  1.00  0.00     0.120 A 
ATOM     21  C   UNL A   1      27.708  29.237  23.034  1.00  0.00     0.046 A 
BRANCH  20  22
ATOM     22  O   UNL A   1      28.040  31.263  21.881  1.00  0.00    -0.497 OA
ATOM     23  C   UNL A   1      28.444  32.338  22.734  1.00  0.00     0.278 C 
ENDBRANCH  20  22
ENDBRANCH  14  16
ENDBRANCH  11  12
ENDBRANCH   6  11
ENDBRANCH   4   6
ENDBRANCH   3   4
ENDBRANCH   2   3
ENDBRANCH   1   2
BRANCH   1  24
ATOM     24  O   UNL A   1      32.289  30.911  27.141  1.00  0.00    -0.374 OA
BRANCH  24  25
ATOM     25  C   UNL A   1      31.638  32.158  26.862  1.00  0.00     0.202 C 
BRANCH  25  26
ATOM     26  C   UNL A   1      32.424  33.432  27.192  1.00  0.00     0.261 C 
BRANCH  26  27
ATOM     27  O   UNL A   1      32.341  33.759  28.593  1.00  0.00    -0.460 OA
BRANCH  27  28
ATOM     28  C   UNL A   1      32.979  34.897  28.940  1.00  0.00     0.338 C 
ATOM     29  O   UNL A   1      32.588  36.046  28.760  1.00  0.00    -0.246 OA
BRANCH  28  30
ATOM     30  C   UNL A   1      34.150  34.587  29.775  1.00  0.00     0.060 A 
ATOM     31  C   UNL A   1      35.405  34.580  29.157  1.00  0.00     0.016 A 
ATOM     32  C   UNL A   1      34.007  34.173  31.101  1.00  0.00     0.016 A 
ATOM     33  C   UNL A   1      36.518  34.104  29.848  1.00  0.00     0.010 A 
ATOM     34  C   UNL A   1      35.126  33.684  31.789  1.00  0.00     0.010 A 
ATOM     35  C   UNL A   1      36.377  33.608  31.151  1.00  0.00    -0.014 A 
BRANCH  35  36
ATOM     36  C   UNL A   1      37.513  32.873  31.762  1.00  0.00     0.031 A 
ATOM     37  C   UNL A   1      38.077  33.356  33.073  1.00  0.00     0.074 A 
ATOM     38  C   UNL A   1      37.984  31.745  31.198  1.00  0.00     0.049 A 
ATOM     39  N   UNL A   1      39.026  32.837  33.809  1.00  0.00    -0.248 NA
ATOM     40  C   UNL A   1      37.486  34.583  33.633  1.00  0.00     0.031 C 
ATOM     41  C   UNL A   1      37.497  31.158  29.951  1.00  0.00     0.029 A 
ATOM     42  N   UNL A   1      38.974  30.888  31.609  1.00  0.00    -0.354 N 
ATOM     43  C   UNL A   1      39.140  33.663  34.922  1.00  0.00     0.074 A 
ATOM     44  C   UNL A   1      38.186  34.737  34.748  1.00  0.00     0.031 C 
ATOM     45  C   UNL A   1      38.193  30.037  29.694  1.00  0.00     0.029 A 
ATOM     46  C   UNL A   1      39.186  29.837  30.748  1.00  0.00     0.049 A 
ATOM     47  H   UNL A   1      39.484  31.013  32.442  1.00  0.00     0.167 HD
ATOM     48  C   UNL A   1      39.955  33.532  35.995  1.00  0.00     0.037 A 
ATOM     49  C   UNL A   1      40.087  28.837  30.801  1.00  0.00     0.037 A 
ATOM     50  C   UNL A   1      40.908  32.466  36.163  1.00  0.00     0.049 A 
ATOM     51  C   UNL A   1      41.027  28.748  31.976  1.00  0.00     0.074 A 
ATOM     52  C   UNL A   1      41.778  32.246  37.218  1.00  0.00     0.029 A 
ATOM     53  N   UNL A   1      41.122  31.444  35.250  1.00  0.00    -0.354 N 
ATOM     54  N   UNL A   1      41.107  29.526  33.030  1.00  0.00    -0.248 NA
ATOM     55  C   UNL A   1      41.996  27.643  31.972  1.00  0.00     0.031 C 
ATOM     56  C   UNL A   1      42.544  31.112  36.925  1.00  0.00     0.029 A 
ATOM     57  C   UNL A   1      42.123  30.602  35.707  1.00  0.00     0.049 A 
ATOM     58  H   UNL A   1      40.634  31.333  34.403  1.00  0.00     0.167 HD
ATOM     59  C   UNL A   1      42.119  28.992  33.822  1.00  0.00     0.074 A 
ATOM     60  C   UNL A   1      42.611  27.816  33.134  1.00  0.00     0.031 C 
ATOM     61  C   UNL A   1      42.600  29.435  35.009  1.00  0.00     0.037 A 
BRANCH  48  62
ATOM     62  C   UNL A   1      39.864  34.578  37.072  1.00  0.00     0.058 A 
ATOM     63  C   UNL A   1      40.613  35.762  37.010  1.00  0.00     0.135 A 
ATOM     64  C   UNL A   1      38.981  34.414  38.151  1.00  0.00     0.135 A 
ATOM     65  F   UNL A   1      41.484  35.960  36.008  1.00  0.00    -0.206 F 
ATOM     66  C   UNL A   1      40.499  36.746  37.988  1.00  0.00     0.059 A 
ATOM     67  C   UNL A   1      38.836  35.394  39.130  1.00  0.00     0.059 A 
ATOM     68  F   UNL A   1      38.244  33.298  38.259  1.00  0.00    -0.206 F 
ATOM     69  C   UNL A   1      39.607  36.553  39.045  1.00  0.00     0.060 A 
BRANCH  69  70
ATOM     70  S   UNL A   1      39.455  37.846  40.296  1.00  0.00     0.124 S 
ATOM     71  O   UNL A   1      40.838  38.297  40.419  1.00  0.00    -0.237 OA
ATOM     72  O   UNL A   1      38.535  38.786  39.664  1.00  0.00    -0.237 OA
ATOM     73  O   UNL A   1      38.923  37.136  41.455  1.00  0.00    -0.744 OA
ENDBRANCH  69  70
ENDBRANCH  48  62
BRANCH  49  74
ATOM     74  C   UNL A   1      40.162  27.840  29.699  1.00  0.00     0.058 A 
ATOM     75  C   UNL A   1      41.013  28.027  28.600  1.00  0.00     0.135 A 
ATOM     76  C   UNL A   1      39.362  26.687  29.718  1.00  0.00     0.135 A 
ATOM     77  F   UNL A   1      41.788  29.120  28.532  1.00  0.00    -0.206 F 
ATOM     78  C   UNL A   1      41.054  27.118  27.547  1.00  0.00     0.059 A 
ATOM     79  C   UNL A   1      39.403  25.751  28.689  1.00  0.00     0.059 A 
ATOM     80  F   UNL A   1      38.536  26.457  30.750  1.00  0.00    -0.206 F 
ATOM     81  C   UNL A   1      40.243  25.983  27.600  1.00  0.00     0.060 A 
BRANCH  81  82
ATOM     82  S   UNL A   1      40.322  24.790  26.246  1.00  0.00     0.124 S 
ATOM     83  O   UNL A   1      41.123  23.726  26.840  1.00  0.00    -0.237 OA
ATOM     84  O   UNL A   1      38.912  24.482  26.024  1.00  0.00    -0.237 OA
ATOM     85  O   UNL A   1      40.966  25.544  25.175  1.00  0.00    -0.744 OA
ENDBRANCH  81  82
ENDBRANCH  49  74
BRANCH  61  86
ATOM     86  C   UNL A   1      43.699  28.634  35.651  1.00  0.00     0.058 A 
ATOM     87  C   UNL A   1      45.052  28.918  35.412  1.00  0.00     0.135 A 
ATOM     88  C   UNL A   1      43.394  27.589  36.539  1.00  0.00     0.135 A 
ATOM     89  F   UNL A   1      45.396  29.905  34.569  1.00  0.00    -0.206 F 
ATOM     90  C   UNL A   1      46.067  28.176  36.010  1.00  0.00     0.059 A 
ATOM     91  C   UNL A   1      44.393  26.850  37.166  1.00  0.00     0.059 A 
ATOM     92  F   UNL A   1      42.116  27.283  36.811  1.00  0.00    -0.206 F 
ATOM     93  C   UNL A   1      45.727  27.142  36.882  1.00  0.00     0.060 A 
BRANCH  93  94
ATOM     94  S   UNL A   1      47.051  26.195  37.664  1.00  0.00     0.124 S 
ATOM     95  O   UNL A   1      46.340  24.994  38.090  1.00  0.00    -0.237 OA
ATOM     96  O   UNL A   1      48.001  26.016  36.570  1.00  0.00    -0.237 OA
ATOM     97  O   UNL A   1      47.504  27.072  38.740  1.00  0.00    -0.744 OA
ENDBRANCH  93  94
ENDBRANCH  61  86
ENDBRANCH  35  36
ENDBRANCH  28  30
ENDBRANCH  27  28
ENDBRANCH  26  27
ENDBRANCH  25  26
ENDBRANCH  24  25
ENDBRANCH   1  24
TORSDOF 23
ENDMDL
MODEL 3
REMARK VINA RESULT:      -9.6      5.135      9.235
REMARK SMILES CCC(CC)(CC(=O)Nc1cccc(OC)c1)C(=O)OCCOCCOC(=O)c1ccc(-c2c3nc(c(-c4c(F)cc(S(=O)(=O)[O-])cc4F)c4ccc([nH]4)c(-c4c(F)cc(S(=O)(=O)[O-])cc4F)c4nc(c(-c5c(F)cc(S(=O)(=O)[O-])cc5F)c5ccc2[nH]5)C=C4)C=C3)cc1
REMARK SMILES IDX 22 1 21 2 20 3 18 4 19 5 3 6 2 7 1 8 4 9 5 10 6 11 7 12 8 13
REMARK SMILES IDX 9 14 10 16 11 17 17 18 12 19 14 20 13 21 15 22 16 23 23 24
REMARK SMILES IDX 24 25 25 26 26 27 27 28 28 29 29 30 30 31 94 32 31 33 93 34
REMARK SMILES IDX 32 35 33 36 34 37 87 38 35 39 92 40 86 41 88 42 36 43 91 44
REMARK SMILES IDX 85 45 84 46 37 48 71 49 50 50 70 51 51 52 54 53 69 54 89 55
REMARK SMILES IDX 52 56 53 57 68 59 90 60 55 61 38 62 39 63 48 64 40 65 41 66
REMARK SMILES IDX 47 67 49 68 42 69 43 70 44 71 45 72 46 73 72 74 73 75 82 76
REMARK SMILES IDX 74 77 75 78 81 79 83 80 76 81 77 82 78 83 79 84 80 85 56 86
REMARK SMILES IDX 57 87 66 88 58 89 59 90 65 91 67 92 60 93 61 94 62 95 63 96
REMARK SMILES IDX 64 97
REMARK H PARENT 9 15 88 47 54 58
REMARK Flexibility Score: inf
ROOT
ATOM      1  C   UNL A   1      34.843  21.686  24.432  1.00  0.00     0.202 C 
ENDROOT
BRANCH   1   2
ATOM      2  C   UNL A   1      33.623  22.394  25.028  1.00  0.00     0.261 C 
BRANCH   2   3
ATOM      3  O   UNL A   1      33.880  23.767  25.380  1.00  0.00    -0.463 OA
BRANCH   3   4
ATOM      4  C   UNL A   1      32.785  24.396  25.869  1.00  0.00     0.312 C 
ATOM      5  O   UNL A   1      32.191  24.006  26.871  1.00  0.00    -0.252 OA
BRANCH   4   6
ATOM      6  C   UNL A   1      32.503  25.768  25.199  1.00  0.00     0.076 C 
BRANCH   6   7
ATOM      7  C   UNL A   1      32.269  26.798  26.340  1.00  0.00     0.016 C 
ATOM      8  C   UNL A   1      33.437  27.660  26.807  1.00  0.00     0.005 C 
ENDBRANCH   6   7
BRANCH   6   9
ATOM      9  C   UNL A   1      31.163  25.478  24.392  1.00  0.00     0.016 C 
ATOM     10  C   UNL A   1      29.793  25.801  24.979  1.00  0.00     0.005 C 
ENDBRANCH   6   9
BRANCH   6  11
ATOM     11  C   UNL A   1      33.610  26.207  24.191  1.00  0.00     0.119 C 
BRANCH  11  12
ATOM     12  C   UNL A   1      33.333  26.464  22.714  1.00  0.00     0.225 C 
ATOM     13  O   UNL A   1      33.920  25.771  21.871  1.00  0.00    -0.275 OA
ATOM     14  N   UNL A   1      32.426  27.338  22.194  1.00  0.00    -0.326 N 
ATOM     15  H   UNL A   1      32.336  27.216  21.221  1.00  0.00     0.169 HD
BRANCH  14  16
ATOM     16  C   UNL A   1      31.581  28.369  22.650  1.00  0.00     0.044 A 
ATOM     17  C   UNL A   1      31.960  29.003  23.846  1.00  0.00     0.026 A 
ATOM     18  C   UNL A   1      30.387  28.762  22.064  1.00  0.00     0.072 A 
ATOM     19  C   UNL A   1      31.123  29.930  24.477  1.00  0.00     0.006 A 
ATOM     20  C   UNL A   1      29.509  29.628  22.730  1.00  0.00     0.120 A 
ATOM     21  C   UNL A   1      29.881  30.227  23.927  1.00  0.00     0.046 A 
BRANCH  20  22
ATOM     22  O   UNL A   1      28.282  29.961  22.219  1.00  0.00    -0.497 OA
ATOM     23  C   UNL A   1      27.241  29.837  23.192  1.00  0.00     0.278 C 
ENDBRANCH  20  22
ENDBRANCH  14  16
ENDBRANCH  11  12
ENDBRANCH   6  11
ENDBRANCH   4   6
ENDBRANCH   3   4
ENDBRANCH   2   3
ENDBRANCH   1   2
BRANCH   1  24
ATOM     24  O   UNL A   1      35.513  20.755  25.281  1.00  0.00    -0.374 OA
BRANCH  24  25
ATOM     25  C   UNL A   1      36.899  20.514  25.004  1.00  0.00     0.202 C 
BRANCH  25  26
ATOM     26  C   UNL A   1      37.794  21.749  24.847  1.00  0.00     0.261 C 
BRANCH  26  27
ATOM     27  O   UNL A   1      38.008  22.413  26.108  1.00  0.00    -0.460 OA
BRANCH  27  28
ATOM     28  C   UNL A   1      39.304  22.655  26.399  1.00  0.00     0.338 C 
ATOM     29  O   UNL A   1      40.262  21.928  26.156  1.00  0.00    -0.246 OA
BRANCH  28  30
ATOM     30  C   UNL A   1      39.467  24.037  26.876  1.00  0.00     0.060 A 
ATOM     31  C   UNL A   1      40.026  24.968  25.993  1.00  0.00     0.016 A 
ATOM     32  C   UNL A   1      39.210  24.382  28.205  1.00  0.00     0.016 A 
ATOM     33  C   UNL A   1      40.384  26.234  26.452  1.00  0.00     0.010 A 
ATOM     34  C   UNL A   1      39.582  25.652  28.666  1.00  0.00     0.010 A 
ATOM     35  C   UNL A   1      40.209  26.568  27.802  1.00  0.00    -0.014 A 
BRANCH  35  36
ATOM     36  C   UNL A   1      40.833  27.813  28.315  1.00  0.00     0.031 A 
ATOM     37  C   UNL A   1      42.327  27.980  28.210  1.00  0.00     0.074 A 
ATOM     38  C   UNL A   1      40.074  28.815  28.796  1.00  0.00     0.049 A 
ATOM     39  N   UNL A   1      43.073  29.003  28.540  1.00  0.00    -0.248 NA
ATOM     40  C   UNL A   1      43.080  26.846  27.647  1.00  0.00     0.031 C 
ATOM     41  C   UNL A   1      38.617  28.786  28.916  1.00  0.00     0.029 A 
ATOM     42  N   UNL A   1      40.426  30.055  29.267  1.00  0.00    -0.354 N 
ATOM     43  C   UNL A   1      44.377  28.644  28.218  1.00  0.00     0.074 A 
ATOM     44  C   UNL A   1      44.326  27.295  27.697  1.00  0.00     0.031 C 
ATOM     45  C   UNL A   1      38.198  29.955  29.431  1.00  0.00     0.029 A 
ATOM     46  C   UNL A   1      39.357  30.806  29.695  1.00  0.00     0.049 A 
ATOM     47  H   UNL A   1      41.356  30.377  29.294  1.00  0.00     0.167 HD
ATOM     48  C   UNL A   1      45.511  29.375  28.334  1.00  0.00     0.037 A 
ATOM     49  C   UNL A   1      39.321  32.035  30.247  1.00  0.00     0.037 A 
ATOM     50  C   UNL A   1      45.561  30.714  28.860  1.00  0.00     0.049 A 
ATOM     51  C   UNL A   1      40.606  32.804  30.424  1.00  0.00     0.074 A 
ATOM     52  C   UNL A   1      46.663  31.539  29.015  1.00  0.00     0.029 A 
ATOM     53  N   UNL A   1      44.463  31.426  29.321  1.00  0.00    -0.354 N 
ATOM     54  N   UNL A   1      41.828  32.458  30.093  1.00  0.00    -0.248 NA
ATOM     55  C   UNL A   1      40.505  34.134  31.042  1.00  0.00     0.031 C 
ATOM     56  C   UNL A   1      46.237  32.734  29.605  1.00  0.00     0.029 A 
ATOM     57  C   UNL A   1      44.863  32.670  29.779  1.00  0.00     0.049 A 
ATOM     58  H   UNL A   1      43.536  31.095  29.321  1.00  0.00     0.167 HD
ATOM     59  C   UNL A   1      42.637  33.534  30.447  1.00  0.00     0.074 A 
ATOM     60  C   UNL A   1      41.764  34.549  30.999  1.00  0.00     0.031 C 
ATOM     61  C   UNL A   1      43.981  33.669  30.326  1.00  0.00     0.037 A 
BRANCH  48  62
ATOM     62  C   UNL A   1      46.800  28.736  27.897  1.00  0.00     0.058 A 
ATOM     63  C   UNL A   1      47.255  28.834  26.573  1.00  0.00     0.135 A 
ATOM     64  C   UNL A   1      47.612  28.061  28.822  1.00  0.00     0.135 A 
ATOM     65  F   UNL A   1      46.508  29.454  25.645  1.00  0.00    -0.206 F 
ATOM     66  C   UNL A   1      48.466  28.275  26.178  1.00  0.00     0.059 A 
ATOM     67  C   UNL A   1      48.837  27.512  28.454  1.00  0.00     0.059 A 
ATOM     68  F   UNL A   1      47.221  27.936  30.100  1.00  0.00    -0.206 F 
ATOM     69  C   UNL A   1      49.251  27.615  27.126  1.00  0.00     0.060 A 
BRANCH  69  70
ATOM     70  S   UNL A   1      50.830  26.911  26.604  1.00  0.00     0.124 S 
ATOM     71  O   UNL A   1      50.595  25.485  26.808  1.00  0.00    -0.237 OA
ATOM     72  O   UNL A   1      50.921  27.346  25.214  1.00  0.00    -0.237 OA
ATOM     73  O   UNL A   1      51.793  27.523  27.514  1.00  0.00    -0.744 OA
ENDBRANCH  69  70
ENDBRANCH  48  62
BRANCH  49  74
ATOM     74  C   UNL A   1      38.026  32.617  30.691  1.00  0.00     0.058 A 
ATOM     75  C   UNL A   1      37.211  33.342  29.811  1.00  0.00     0.135 A 
ATOM     76  C   UNL A   1      37.591  32.471  32.018  1.00  0.00     0.135 A 
ATOM     77  F   UNL A   1      37.590  33.518  28.537  1.00  0.00    -0.206 F 
ATOM     78  C   UNL A   1      36.019  33.924  30.234  1.00  0.00     0.059 A 
ATOM     79  C   UNL A   1      36.391  33.022  32.458  1.00  0.00     0.059 A 
ATOM     80  F   UNL A   1      38.330  31.779  32.898  1.00  0.00    -0.206 F 
ATOM     81  C   UNL A   1      35.619  33.760  31.562  1.00  0.00     0.060 A 
BRANCH  81  82
ATOM     82  S   UNL A   1      34.057  34.490  32.099  1.00  0.00     0.124 S 
ATOM     83  O   UNL A   1      33.545  33.460  32.996  1.00  0.00    -0.237 OA
ATOM     84  O   UNL A   1      34.498  35.729  32.733  1.00  0.00    -0.237 OA
ATOM     85  O   UNL A   1      33.321  34.662  30.849  1.00  0.00    -0.744 OA
ENDBRANCH  81  82
ENDBRANCH  49  74
BRANCH  61  86
ATOM     86  C   UNL A   1      44.586  34.968  30.780  1.00  0.00     0.058 A 
ATOM     87  C   UNL A   1      44.701  36.068  29.915  1.00  0.00     0.135 A 
ATOM     88  C   UNL A   1      45.028  35.126  32.104  1.00  0.00     0.135 A 
ATOM     89  F   UNL A   1      44.297  35.967  28.639  1.00  0.00    -0.206 F 
ATOM     90  C   UNL A   1      45.259  37.270  30.339  1.00  0.00     0.059 A 
ATOM     91  C   UNL A   1      45.566  36.327  32.556  1.00  0.00     0.059 A 
ATOM     92  F   UNL A   1      44.929  34.110  32.976  1.00  0.00    -0.206 F 
ATOM     93  C   UNL A   1      45.692  37.389  31.660  1.00  0.00     0.060 A 
BRANCH  93  94
ATOM     94  S   UNL A   1      46.401  38.958  32.204  1.00  0.00     0.124 S 
ATOM     95  O   UNL A   1      47.745  38.551  32.600  1.00  0.00    -0.237 OA
ATOM     96  O   UNL A   1      46.315  39.778  31.000  1.00  0.00    -0.237 OA
ATOM     97  O   UNL A   1      45.521  39.366  33.295  1.00  0.00    -0.744 OA
ENDBRANCH  93  94
ENDBRANCH  61  86
ENDBRANCH  35  36
ENDBRANCH  28  30
ENDBRANCH  27  28
ENDBRANCH  26  27
ENDBRANCH  25  26
ENDBRANCH  24  25
ENDBRANCH   1  24
TORSDOF 23
ENDMDL
