MODEL 1
REMARK VINA RESULT:     -10.8      0.000      0.000
REMARK SMILES O=C(CSc1nc(O)cc(=O)[nH]1)Nc1cccc(C(=O)OCCOCCOC(=O)c2ccc(-c3c4nc(c(-c5c(F)cc(S(=O)(=O)[O-])cc5F)c5ccc([nH]5)c(-c5c(F)cc(S(=O)(=O)[O-])cc5F)c5nc(c(-c6c(F)cc(S(=O)(=O)[O-])cc6F)c6ccc3[nH]6)C=C5)C=C4)cc2)c1
REMARK SMILES IDX 23 1 22 2 21 3 19 4 20 5 18 6 14 7 15 8 96 9 16 10 17 11
REMARK SMILES IDX 13 12 1 13 2 14 3 16 4 17 5 18 6 19 12 20 7 21 10 22 9 24
REMARK SMILES IDX 11 25 8 26 24 28 25 29 26 30 27 31 28 32 29 33 30 34 31 35
REMARK SMILES IDX 95 36 32 37 94 38 33 39 34 40 35 41 88 42 36 43 93 44 87 45
REMARK SMILES IDX 89 46 37 47 92 48 86 49 85 50 38 52 72 53 51 54 71 55 52 56
REMARK SMILES IDX 55 57 70 58 90 59 53 60 54 61 69 63 91 64 56 65 39 66 40 67
REMARK SMILES IDX 49 68 41 69 42 70 48 71 50 72 43 73 44 74 45 75 46 76 47 77
REMARK SMILES IDX 73 78 74 79 83 80 75 81 76 82 82 83 84 84 77 85 78 86 79 87
REMARK SMILES IDX 80 88 81 89 57 90 58 91 67 92 59 93 60 94 66 95 68 96 61 97
REMARK SMILES IDX 62 98 63 99 64 100 65 101
REMARK H PARENT 13 15 12 23 8 27 89 51 55 62
REMARK Flexibility Score: inf
ROOT
ATOM      1  C   UNL A   1      34.575  34.467  30.428  1.00  0.00     0.202 C 
ENDROOT
BRANCH   1   2
ATOM      2  C   UNL A   1      33.536  34.775  29.343  1.00  0.00     0.261 C 
BRANCH   2   3
ATOM      3  O   UNL A   1      33.847  34.090  28.118  1.00  0.00    -0.460 OA
BRANCH   3   4
ATOM      4  C   UNL A   1      32.924  33.198  27.691  1.00  0.00     0.338 C 
ATOM      5  O   UNL A   1      31.805  33.440  27.260  1.00  0.00    -0.246 OA
BRANCH   4   6
ATOM      6  C   UNL A   1      33.537  31.854  27.609  1.00  0.00     0.062 A 
ATOM      7  C   UNL A   1      33.449  29.487  27.108  1.00  0.00     0.042 A 
ATOM      8  C   UNL A   1      34.762  29.356  27.582  1.00  0.00     0.026 A 
ATOM      9  C   UNL A   1      32.826  30.737  27.155  1.00  0.00     0.041 A 
ATOM     10  C   UNL A   1      35.471  30.470  28.037  1.00  0.00     0.003 A 
ATOM     11  C   UNL A   1      34.864  31.721  28.035  1.00  0.00     0.016 A 
BRANCH   7  12
ATOM     12  N   UNL A   1      32.845  28.332  26.573  1.00  0.00    -0.325 N 
ATOM     13  O   UNL A   1      31.138  27.965  28.110  1.00  0.00    -0.274 OA
ATOM     14  C   UNL A   1      31.734  27.675  27.075  1.00  0.00     0.234 C 
ATOM     15  H   UNL A   1      33.253  27.954  25.761  1.00  0.00     0.169 HD
BRANCH  14  16
ATOM     16  C   UNL A   1      31.291  26.472  26.257  1.00  0.00     0.178 C 
BRANCH  16  17
ATOM     17  S   UNL A   1      32.659  25.463  25.612  1.00  0.00    -0.078 SA
BRANCH  17  18
ATOM     18  C   UNL A   1      32.406  25.661  23.906  1.00  0.00     0.172 A 
ATOM     19  N   UNL A   1      32.908  24.836  23.054  1.00  0.00    -0.189 NA
ATOM     20  N   UNL A   1      31.598  26.705  23.593  1.00  0.00    -0.301 N 
ATOM     21  C   UNL A   1      32.609  25.073  21.744  1.00  0.00     0.218 A 
ATOM     22  C   UNL A   1      31.233  26.953  22.305  1.00  0.00     0.255 A 
ATOM     23  H   UNL A   1      31.270  27.293  24.310  1.00  0.00     0.172 HD
ATOM     24  C   UNL A   1      31.818  26.053  21.304  1.00  0.00     0.139 A 
ATOM     25  O   UNL A   1      30.460  27.850  21.992  1.00  0.00    -0.269 OA
BRANCH  21  26
ATOM     26  O   UNL A   1      33.188  24.216  20.846  1.00  0.00    -0.493 OA
ATOM     27  H   UNL A   1      34.095  24.304  20.633  1.00  0.00     0.295 HD
ENDBRANCH  21  26
ENDBRANCH  17  18
ENDBRANCH  16  17
ENDBRANCH  14  16
ENDBRANCH   7  12
ENDBRANCH   4   6
ENDBRANCH   3   4
ENDBRANCH   2   3
ENDBRANCH   1   2
BRANCH   1  28
ATOM     28  O   UNL A   1      34.056  34.007  31.679  1.00  0.00    -0.374 OA
BRANCH  28  29
ATOM     29  C   UNL A   1      34.394  32.674  32.064  1.00  0.00     0.202 C 
BRANCH  29  30
ATOM     30  C   UNL A   1      35.770  32.475  32.709  1.00  0.00     0.261 C 
BRANCH  30  31
ATOM     31  O   UNL A   1      36.651  31.702  31.880  1.00  0.00    -0.460 OA
BRANCH  31  32
ATOM     32  C   UNL A   1      37.604  32.428  31.248  1.00  0.00     0.338 C 
ATOM     33  O   UNL A   1      37.717  33.645  31.245  1.00  0.00    -0.246 OA
BRANCH  32  34
ATOM     34  C   UNL A   1      38.629  31.541  30.669  1.00  0.00     0.060 A 
ATOM     35  C   UNL A   1      39.634  31.081  31.529  1.00  0.00     0.016 A 
ATOM     36  C   UNL A   1      38.666  31.231  29.306  1.00  0.00     0.016 A 
ATOM     37  C   UNL A   1      40.719  30.374  31.019  1.00  0.00     0.010 A 
ATOM     38  C   UNL A   1      39.759  30.521  28.796  1.00  0.00     0.010 A 
ATOM     39  C   UNL A   1      40.812  30.132  29.642  1.00  0.00    -0.014 A 
BRANCH  39  40
ATOM     40  C   UNL A   1      42.088  29.613  29.091  1.00  0.00     0.031 A 
ATOM     41  C   UNL A   1      43.268  30.541  28.980  1.00  0.00     0.074 A 
ATOM     42  C   UNL A   1      42.212  28.318  28.748  1.00  0.00     0.049 A 
ATOM     43  N   UNL A   1      44.483  30.293  28.563  1.00  0.00    -0.248 NA
ATOM     44  C   UNL A   1      43.048  31.938  29.390  1.00  0.00     0.031 C 
ATOM     45  C   UNL A   1      41.148  27.319  28.828  1.00  0.00     0.029 A 
ATOM     46  N   UNL A   1      43.292  27.623  28.264  1.00  0.00    -0.354 N 
ATOM     47  C   UNL A   1      45.169  31.500  28.652  1.00  0.00     0.074 A 
ATOM     48  C   UNL A   1      44.225  32.487  29.132  1.00  0.00     0.031 C 
ATOM     49  C   UNL A   1      41.626  26.138  28.400  1.00  0.00     0.029 A 
ATOM     50  C   UNL A   1      43.022  26.303  27.996  1.00  0.00     0.049 A 
ATOM     51  H   UNL A   1      44.176  28.031  28.121  1.00  0.00     0.167 HD
ATOM     52  C   UNL A   1      46.469  31.759  28.371  1.00  0.00     0.037 A 
ATOM     53  C   UNL A   1      43.808  25.339  27.475  1.00  0.00     0.037 A 
ATOM     54  C   UNL A   1      47.406  30.770  27.905  1.00  0.00     0.049 A 
ATOM     55  C   UNL A   1      45.243  25.656  27.146  1.00  0.00     0.074 A 
ATOM     56  C   UNL A   1      48.754  30.924  27.629  1.00  0.00     0.029 A 
ATOM     57  N   UNL A   1      47.092  29.446  27.636  1.00  0.00    -0.354 N 
ATOM     58  N   UNL A   1      45.889  26.790  27.277  1.00  0.00    -0.248 NA
ATOM     59  C   UNL A   1      46.060  24.557  26.612  1.00  0.00     0.031 C 
ATOM     60  C   UNL A   1      49.242  29.705  27.144  1.00  0.00     0.029 A 
ATOM     61  C   UNL A   1      48.214  28.777  27.171  1.00  0.00     0.049 A 
ATOM     62  H   UNL A   1      46.204  29.039  27.757  1.00  0.00     0.167 HD
ATOM     63  C   UNL A   1      47.194  26.536  26.865  1.00  0.00     0.074 A 
ATOM     64  C   UNL A   1      47.246  25.136  26.493  1.00  0.00     0.031 C 
ATOM     65  C   UNL A   1      48.252  27.383  26.802  1.00  0.00     0.037 A 
BRANCH  52  66
ATOM     66  C   UNL A   1      46.946  33.177  28.534  1.00  0.00     0.058 A 
ATOM     67  C   UNL A   1      47.487  33.645  29.741  1.00  0.00     0.135 A 
ATOM     68  C   UNL A   1      46.880  34.074  27.456  1.00  0.00     0.135 A 
ATOM     69  F   UNL A   1      47.559  32.836  30.810  1.00  0.00    -0.206 F 
ATOM     70  C   UNL A   1      47.916  34.961  29.885  1.00  0.00     0.059 A 
ATOM     71  C   UNL A   1      47.329  35.387  27.567  1.00  0.00     0.059 A 
ATOM     72  F   UNL A   1      46.371  33.679  26.278  1.00  0.00    -0.206 F 
ATOM     73  C   UNL A   1      47.831  35.825  28.791  1.00  0.00     0.060 A 
BRANCH  73  74
ATOM     74  S   UNL A   1      48.384  37.532  28.992  1.00  0.00     0.124 S 
ATOM     75  O   UNL A   1      49.825  37.396  28.797  1.00  0.00    -0.237 OA
ATOM     76  O   UNL A   1      47.664  38.222  27.927  1.00  0.00    -0.237 OA
ATOM     77  O   UNL A   1      47.964  37.869  30.349  1.00  0.00    -0.744 OA
ENDBRANCH  73  74
ENDBRANCH  52  66
BRANCH  53  78
ATOM     78  C   UNL A   1      43.245  23.985  27.229  1.00  0.00     0.058 A 
ATOM     79  C   UNL A   1      42.840  23.584  25.947  1.00  0.00     0.135 A 
ATOM     80  C   UNL A   1      43.119  23.057  28.275  1.00  0.00     0.135 A 
ATOM     81  F   UNL A   1      42.930  24.439  24.918  1.00  0.00    -0.206 F 
ATOM     82  C   UNL A   1      42.321  22.315  25.713  1.00  0.00     0.059 A 
ATOM     83  C   UNL A   1      42.628  21.774  28.061  1.00  0.00     0.059 A 
ATOM     84  F   UNL A   1      43.502  23.390  29.518  1.00  0.00    -0.206 F 
ATOM     85  C   UNL A   1      42.224  21.415  26.775  1.00  0.00     0.060 A 
BRANCH  85  86
ATOM     86  S   UNL A   1      41.608  19.748  26.448  1.00  0.00     0.124 S 
ATOM     87  O   UNL A   1      42.067  19.028  27.629  1.00  0.00    -0.237 OA
ATOM     88  O   UNL A   1      40.167  19.968  26.353  1.00  0.00    -0.237 OA
ATOM     89  O   UNL A   1      42.263  19.390  25.193  1.00  0.00    -0.744 OA
ENDBRANCH  85  86
ENDBRANCH  53  78
BRANCH  65  90
ATOM     90  C   UNL A   1      49.568  26.814  26.342  1.00  0.00     0.058 A 
ATOM     91  C   UNL A   1      49.971  26.872  24.999  1.00  0.00     0.135 A 
ATOM     92  C   UNL A   1      50.454  26.237  27.267  1.00  0.00     0.135 A 
ATOM     93  F   UNL A   1      49.161  27.411  24.073  1.00  0.00    -0.206 F 
ATOM     94  C   UNL A   1      51.191  26.348  24.582  1.00  0.00     0.059 A 
ATOM     95  C   UNL A   1      51.692  25.734  26.878  1.00  0.00     0.059 A 
ATOM     96  F   UNL A   1      50.126  26.169  28.567  1.00  0.00    -0.206 F 
ATOM     97  C   UNL A   1      52.045  25.779  25.530  1.00  0.00     0.060 A 
BRANCH  97  98
ATOM     98  S   UNL A   1      53.630  25.115  24.980  1.00  0.00     0.124 S 
ATOM     99  O   UNL A   1      53.738  25.682  23.639  1.00  0.00    -0.237 OA
ATOM    100  O   UNL A   1      54.557  25.651  25.971  1.00  0.00    -0.237 OA
ATOM    101  O   UNL A   1      53.431  23.669  25.035  1.00  0.00    -0.744 OA
ENDBRANCH  97  98
ENDBRANCH  65  90
ENDBRANCH  39  40
ENDBRANCH  32  34
ENDBRANCH  31  32
ENDBRANCH  30  31
ENDBRANCH  29  30
ENDBRANCH  28  29
ENDBRANCH   1  28
TORSDOF 22
ENDMDL
MODEL 2
REMARK VINA RESULT:     -10.6      3.727      5.151
REMARK SMILES O=C(CSc1nc(O)cc(=O)[nH]1)Nc1cccc(C(=O)OCCOCCOC(=O)c2ccc(-c3c4nc(c(-c5c(F)cc(S(=O)(=O)[O-])cc5F)c5ccc([nH]5)c(-c5c(F)cc(S(=O)(=O)[O-])cc5F)c5nc(c(-c6c(F)cc(S(=O)(=O)[O-])cc6F)c6ccc3[nH]6)C=C5)C=C4)cc2)c1
REMARK SMILES IDX 23 1 22 2 21 3 19 4 20 5 18 6 14 7 15 8 96 9 16 10 17 11
REMARK SMILES IDX 13 12 1 13 2 14 3 16 4 17 5 18 6 19 12 20 7 21 10 22 9 24
REMARK SMILES IDX 11 25 8 26 24 28 25 29 26 30 27 31 28 32 29 33 30 34 31 35
REMARK SMILES IDX 95 36 32 37 94 38 33 39 34 40 35 41 88 42 36 43 93 44 87 45
REMARK SMILES IDX 89 46 37 47 92 48 86 49 85 50 38 52 72 53 51 54 71 55 52 56
REMARK SMILES IDX 55 57 70 58 90 59 53 60 54 61 69 63 91 64 56 65 39 66 40 67
REMARK SMILES IDX 49 68 41 69 42 70 48 71 50 72 43 73 44 74 45 75 46 76 47 77
REMARK SMILES IDX 73 78 74 79 83 80 75 81 76 82 82 83 84 84 77 85 78 86 79 87
REMARK SMILES IDX 80 88 81 89 57 90 58 91 67 92 59 93 60 94 66 95 68 96 61 97
REMARK SMILES IDX 62 98 63 99 64 100 65 101
REMARK H PARENT 13 15 12 23 8 27 89 51 55 62
REMARK Flexibility Score: inf
ROOT
ATOM      1  C   UNL A   1      36.604  33.728  35.275  1.00  0.00     0.202 C 
ENDROOT
BRANCH   1   2
ATOM      2  C   UNL A   1      38.133  33.824  35.335  1.00  0.00     0.261 C 
BRANCH   2   3
ATOM      3  O   UNL A   1      38.722  33.519  34.059  1.00  0.00    -0.460 OA
BRANCH   3   4
ATOM      4  C   UNL A   1      39.519  34.478  33.534  1.00  0.00     0.338 C 
ATOM      5  O   UNL A   1      40.280  35.221  34.139  1.00  0.00    -0.246 OA
BRANCH   4   6
ATOM      6  C   UNL A   1      39.514  34.371  32.059  1.00  0.00     0.062 A 
ATOM      7  C   UNL A   1      38.380  34.297  29.921  1.00  0.00     0.042 A 
ATOM      8  C   UNL A   1      39.613  34.070  29.294  1.00  0.00     0.026 A 
ATOM      9  C   UNL A   1      38.330  34.415  31.313  1.00  0.00     0.041 A 
ATOM     10  C   UNL A   1      40.794  34.025  30.039  1.00  0.00     0.003 A 
ATOM     11  C   UNL A   1      40.746  34.192  31.419  1.00  0.00     0.016 A 
BRANCH   7  12
ATOM     12  N   UNL A   1      37.254  34.430  29.084  1.00  0.00    -0.325 N 
ATOM     13  O   UNL A   1      36.612  32.208  28.839  1.00  0.00    -0.274 OA
ATOM     14  C   UNL A   1      36.439  33.407  28.631  1.00  0.00     0.234 C 
ATOM     15  H   UNL A   1      37.024  35.342  28.793  1.00  0.00     0.169 HD
BRANCH  14  16
ATOM     16  C   UNL A   1      35.274  33.865  27.768  1.00  0.00     0.178 C 
BRANCH  16  17
ATOM     17  S   UNL A   1      33.637  33.519  28.478  1.00  0.00    -0.078 SA
BRANCH  17  18
ATOM     18  C   UNL A   1      33.437  34.920  29.484  1.00  0.00     0.172 A 
ATOM     19  N   UNL A   1      33.445  36.108  28.987  1.00  0.00    -0.189 NA
ATOM     20  N   UNL A   1      33.215  34.625  30.789  1.00  0.00    -0.301 N 
ATOM     21  C   UNL A   1      33.241  37.126  29.871  1.00  0.00     0.218 A 
ATOM     22  C   UNL A   1      32.959  35.604  31.700  1.00  0.00     0.255 A 
ATOM     23  H   UNL A   1      33.239  33.686  31.083  1.00  0.00     0.172 HD
ATOM     24  C   UNL A   1      32.998  36.974  31.173  1.00  0.00     0.139 A 
ATOM     25  O   UNL A   1      32.697  35.371  32.873  1.00  0.00    -0.269 OA
BRANCH  21  26
ATOM     26  O   UNL A   1      33.299  38.387  29.336  1.00  0.00    -0.493 OA
ATOM     27  H   UNL A   1      33.363  39.132  29.900  1.00  0.00     0.295 HD
ENDBRANCH  21  26
ENDBRANCH  17  18
ENDBRANCH  16  17
ENDBRANCH  14  16
ENDBRANCH   7  12
ENDBRANCH   4   6
ENDBRANCH   3   4
ENDBRANCH   2   3
ENDBRANCH   1   2
BRANCH   1  28
ATOM     28  O   UNL A   1      36.074  32.631  34.527  1.00  0.00    -0.374 OA
BRANCH  28  29
ATOM     29  C   UNL A   1      35.387  32.951  33.316  1.00  0.00     0.202 C 
BRANCH  29  30
ATOM     30  C   UNL A   1      35.635  32.023  32.122  1.00  0.00     0.261 C 
BRANCH  30  31
ATOM     31  O   UNL A   1      36.866  31.294  32.248  1.00  0.00    -0.460 OA
BRANCH  31  32
ATOM     32  C   UNL A   1      37.008  30.283  31.359  1.00  0.00     0.338 C 
ATOM     33  O   UNL A   1      36.123  29.571  30.908  1.00  0.00    -0.246 OA
BRANCH  32  34
ATOM     34  C   UNL A   1      38.392  30.235  30.850  1.00  0.00     0.060 A 
ATOM     35  C   UNL A   1      38.557  30.131  29.464  1.00  0.00     0.016 A 
ATOM     36  C   UNL A   1      39.500  30.204  31.701  1.00  0.00     0.016 A 
ATOM     37  C   UNL A   1      39.824  29.921  28.927  1.00  0.00     0.010 A 
ATOM     38  C   UNL A   1      40.773  29.991  31.159  1.00  0.00     0.010 A 
ATOM     39  C   UNL A   1      40.934  29.800  29.775  1.00  0.00    -0.014 A 
BRANCH  39  40
ATOM     40  C   UNL A   1      42.218  29.321  29.210  1.00  0.00     0.031 A 
ATOM     41  C   UNL A   1      43.381  30.273  29.126  1.00  0.00     0.074 A 
ATOM     42  C   UNL A   1      42.366  28.038  28.830  1.00  0.00     0.049 A 
ATOM     43  N   UNL A   1      44.601  30.060  28.703  1.00  0.00    -0.248 NA
ATOM     44  C   UNL A   1      43.136  31.653  29.576  1.00  0.00     0.031 C 
ATOM     45  C   UNL A   1      41.320  27.019  28.880  1.00  0.00     0.029 A 
ATOM     46  N   UNL A   1      43.458  27.378  28.326  1.00  0.00    -0.354 N 
ATOM     47  C   UNL A   1      45.264  31.276  28.827  1.00  0.00     0.074 A 
ATOM     48  C   UNL A   1      44.303  32.231  29.335  1.00  0.00     0.031 C 
ATOM     49  C   UNL A   1      41.820  25.860  28.419  1.00  0.00     0.029 A 
ATOM     50  C   UNL A   1      43.212  26.061  28.020  1.00  0.00     0.049 A 
ATOM     51  H   UNL A   1      44.334  27.806  28.195  1.00  0.00     0.167 HD
ATOM     52  C   UNL A   1      46.559  31.566  28.555  1.00  0.00     0.037 A 
ATOM     53  C   UNL A   1      44.015  25.128  27.471  1.00  0.00     0.037 A 
ATOM     54  C   UNL A   1      47.514  30.608  28.061  1.00  0.00     0.049 A 
ATOM     55  C   UNL A   1      45.445  25.479  27.153  1.00  0.00     0.074 A 
ATOM     56  C   UNL A   1      48.859  30.794  27.790  1.00  0.00     0.029 A 
ATOM     57  N   UNL A   1      47.224  29.287  27.753  1.00  0.00    -0.354 N 
ATOM     58  N   UNL A   1      46.070  26.621  27.317  1.00  0.00    -0.248 NA
ATOM     59  C   UNL A   1      46.281  24.411  26.587  1.00  0.00     0.031 C 
ATOM     60  C   UNL A   1      49.370  29.599  27.271  1.00  0.00     0.029 A 
ATOM     61  C   UNL A   1      48.359  28.652  27.270  1.00  0.00     0.049 A 
ATOM     62  H   UNL A   1      46.344  28.861  27.862  1.00  0.00     0.167 HD
ATOM     63  C   UNL A   1      47.379  26.403  26.898  1.00  0.00     0.074 A 
ATOM     64  C   UNL A   1      47.457  25.016  26.486  1.00  0.00     0.031 C 
ATOM     65  C   UNL A   1      48.422  27.270  26.860  1.00  0.00     0.037 A 
BRANCH  52  66
ATOM     66  C   UNL A   1      47.011  32.987  28.759  1.00  0.00     0.058 A 
ATOM     67  C   UNL A   1      47.561  33.425  29.973  1.00  0.00     0.135 A 
ATOM     68  C   UNL A   1      46.910  33.919  27.713  1.00  0.00     0.135 A 
ATOM     69  F   UNL A   1      47.665  32.582  31.012  1.00  0.00    -0.206 F 
ATOM     70  C   UNL A   1      47.966  34.744  30.155  1.00  0.00     0.059 A 
ATOM     71  C   UNL A   1      47.335  35.236  27.862  1.00  0.00     0.059 A 
ATOM     72  F   UNL A   1      46.391  33.553  26.530  1.00  0.00    -0.206 F 
ATOM     73  C   UNL A   1      47.846  35.643  29.093  1.00  0.00     0.060 A 
BRANCH  73  74
ATOM     74  S   UNL A   1      48.369  37.353  29.344  1.00  0.00     0.124 S 
ATOM     75  O   UNL A   1      49.686  37.350  28.714  1.00  0.00    -0.237 OA
ATOM     76  O   UNL A   1      47.333  38.103  28.641  1.00  0.00    -0.237 OA
ATOM     77  O   UNL A   1      48.368  37.499  30.796  1.00  0.00    -0.744 OA
ENDBRANCH  73  74
ENDBRANCH  52  66
BRANCH  53  78
ATOM     78  C   UNL A   1      43.477  23.771  27.186  1.00  0.00     0.058 A 
ATOM     79  C   UNL A   1      42.936  23.449  25.933  1.00  0.00     0.135 A 
ATOM     80  C   UNL A   1      43.511  22.763  28.163  1.00  0.00     0.135 A 
ATOM     81  F   UNL A   1      42.871  24.381  24.971  1.00  0.00    -0.206 F 
ATOM     82  C   UNL A   1      42.440  22.178  25.660  1.00  0.00     0.059 A 
ATOM     83  C   UNL A   1      43.046  21.479  27.906  1.00  0.00     0.059 A 
ATOM     84  F   UNL A   1      44.028  23.019  29.375  1.00  0.00    -0.206 F 
ATOM     85  C   UNL A   1      42.504  21.198  26.652  1.00  0.00     0.060 A 
BRANCH  85  86
ATOM     86  S   UNL A   1      41.915  19.534  26.268  1.00  0.00     0.124 S 
ATOM     87  O   UNL A   1      42.688  19.217  25.073  1.00  0.00    -0.237 OA
ATOM     88  O   UNL A   1      42.274  18.796  27.475  1.00  0.00    -0.237 OA
ATOM     89  O   UNL A   1      40.482  19.726  26.062  1.00  0.00    -0.744 OA
ENDBRANCH  85  86
ENDBRANCH  53  78
BRANCH  65  90
ATOM     90  C   UNL A   1      49.748  26.740  26.385  1.00  0.00     0.058 A 
ATOM     91  C   UNL A   1      50.149  26.841  25.043  1.00  0.00     0.135 A 
ATOM     92  C   UNL A   1      50.645  26.155  27.294  1.00  0.00     0.135 A 
ATOM     93  F   UNL A   1      49.328  27.389  24.133  1.00  0.00    -0.206 F 
ATOM     94  C   UNL A   1      51.378  26.352  24.613  1.00  0.00     0.059 A 
ATOM     95  C   UNL A   1      51.893  25.685  26.891  1.00  0.00     0.059 A 
ATOM     96  F   UNL A   1      50.320  26.044  28.592  1.00  0.00    -0.206 F 
ATOM     97  C   UNL A   1      52.243  25.774  25.544  1.00  0.00     0.060 A 
BRANCH  97  98
ATOM     98  S   UNL A   1      53.841  25.154  24.976  1.00  0.00     0.124 S 
ATOM     99  O   UNL A   1      54.718  25.553  26.073  1.00  0.00    -0.237 OA
ATOM    100  O   UNL A   1      53.595  23.722  24.849  1.00  0.00    -0.237 OA
ATOM    101  O   UNL A   1      54.051  25.861  23.716  1.00  0.00    -0.744 OA
ENDBRANCH  97  98
ENDBRANCH  65  90
ENDBRANCH  39  40
ENDBRANCH  32  34
ENDBRANCH  31  32
ENDBRANCH  30  31
ENDBRANCH  29  30
ENDBRANCH  28  29
ENDBRANCH   1  28
TORSDOF 22
ENDMDL
MODEL 3
REMARK VINA RESULT:     -10.5      1.746      2.633
REMARK SMILES O=C(CSc1nc(O)cc(=O)[nH]1)Nc1cccc(C(=O)OCCOCCOC(=O)c2ccc(-c3c4nc(c(-c5c(F)cc(S(=O)(=O)[O-])cc5F)c5ccc([nH]5)c(-c5c(F)cc(S(=O)(=O)[O-])cc5F)c5nc(c(-c6c(F)cc(S(=O)(=O)[O-])cc6F)c6ccc3[nH]6)C=C5)C=C4)cc2)c1
REMARK SMILES IDX 23 1 22 2 21 3 19 4 20 5 18 6 14 7 15 8 96 9 16 10 17 11
REMARK SMILES IDX 13 12 1 13 2 14 3 16 4 17 5 18 6 19 12 20 7 21 10 22 9 24
REMARK SMILES IDX 11 25 8 26 24 28 25 29 26 30 27 31 28 32 29 33 30 34 31 35
REMARK SMILES IDX 95 36 32 37 94 38 33 39 34 40 35 41 88 42 36 43 93 44 87 45
REMARK SMILES IDX 89 46 37 47 92 48 86 49 85 50 38 52 72 53 51 54 71 55 52 56
REMARK SMILES IDX 55 57 70 58 90 59 53 60 54 61 69 63 91 64 56 65 39 66 40 67
REMARK SMILES IDX 49 68 41 69 42 70 48 71 50 72 43 73 44 74 45 75 46 76 47 77
REMARK SMILES IDX 73 78 74 79 83 80 75 81 76 82 82 83 84 84 77 85 78 86 79 87
REMARK SMILES IDX 80 88 81 89 57 90 58 91 67 92 59 93 60 94 66 95 68 96 61 97
REMARK SMILES IDX 62 98 63 99 64 100 65 101
REMARK H PARENT 13 15 12 23 8 27 89 51 55 62
REMARK Flexibility Score: inf
ROOT
ATOM      1  C   UNL A   1      34.845  33.850  28.855  1.00  0.00     0.202 C 
ENDROOT
BRANCH   1   2
ATOM      2  C   UNL A   1      35.425  32.726  27.987  1.00  0.00     0.261 C 
BRANCH   2   3
ATOM      3  O   UNL A   1      34.772  31.474  28.255  1.00  0.00    -0.460 OA
BRANCH   3   4
ATOM      4  C   UNL A   1      35.246  30.405  27.574  1.00  0.00     0.338 C 
ATOM      5  O   UNL A   1      36.406  30.020  27.515  1.00  0.00    -0.246 OA
BRANCH   4   6
ATOM      6  C   UNL A   1      34.113  29.605  27.060  1.00  0.00     0.062 A 
ATOM      7  C   UNL A   1      33.198  27.733  25.827  1.00  0.00     0.042 A 
ATOM      8  C   UNL A   1      31.908  28.227  26.068  1.00  0.00     0.026 A 
ATOM      9  C   UNL A   1      34.304  28.446  26.299  1.00  0.00     0.041 A 
ATOM     10  C   UNL A   1      31.718  29.385  26.825  1.00  0.00     0.003 A 
ATOM     11  C   UNL A   1      32.819  30.064  27.335  1.00  0.00     0.016 A 
BRANCH   7  12
ATOM     12  N   UNL A   1      33.294  26.505  25.142  1.00  0.00    -0.325 N 
ATOM     13  O   UNL A   1      33.004  27.197  22.940  1.00  0.00    -0.274 OA
ATOM     14  C   UNL A   1      33.225  26.319  23.772  1.00  0.00     0.234 C 
ATOM     15  H   UNL A   1      33.422  25.700  25.692  1.00  0.00     0.169 HD
BRANCH  14  16
ATOM     16  C   UNL A   1      33.398  24.877  23.323  1.00  0.00     0.178 C 
BRANCH  16  17
ATOM     17  S   UNL A   1      34.749  23.992  24.158  1.00  0.00    -0.078 SA
BRANCH  17  18
ATOM     18  C   UNL A   1      33.905  22.568  24.681  1.00  0.00     0.172 A 
ATOM     19  N   UNL A   1      32.696  22.630  25.123  1.00  0.00    -0.189 NA
ATOM     20  N   UNL A   1      34.613  21.423  24.516  1.00  0.00    -0.301 N 
ATOM     21  C   UNL A   1      32.125  21.441  25.469  1.00  0.00     0.218 A 
ATOM     22  C   UNL A   1      34.069  20.209  24.802  1.00  0.00     0.255 A 
ATOM     23  H   UNL A   1      35.538  21.473  24.183  1.00  0.00     0.172 HD
ATOM     24  C   UNL A   1      32.705  20.246  25.343  1.00  0.00     0.139 A 
ATOM     25  O   UNL A   1      34.659  19.152  24.610  1.00  0.00    -0.269 OA
BRANCH  21  26
ATOM     26  O   UNL A   1      30.857  21.526  25.981  1.00  0.00    -0.493 OA
ATOM     27  H   UNL A   1      30.418  20.753  26.276  1.00  0.00     0.295 HD
ENDBRANCH  21  26
ENDBRANCH  17  18
ENDBRANCH  16  17
ENDBRANCH  14  16
ENDBRANCH   7  12
ENDBRANCH   4   6
ENDBRANCH   3   4
ENDBRANCH   2   3
ENDBRANCH   1   2
BRANCH   1  28
ATOM     28  O   UNL A   1      34.133  33.435  30.024  1.00  0.00    -0.374 OA
BRANCH  28  29
ATOM     29  C   UNL A   1      34.770  33.669  31.280  1.00  0.00     0.202 C 
BRANCH  29  30
ATOM     30  C   UNL A   1      35.264  32.433  32.039  1.00  0.00     0.261 C 
BRANCH  30  31
ATOM     31  O   UNL A   1      36.317  31.751  31.338  1.00  0.00    -0.460 OA
BRANCH  31  32
ATOM     32  C   UNL A   1      37.491  31.699  32.011  1.00  0.00     0.338 C 
ATOM     33  O   UNL A   1      37.703  32.085  33.150  1.00  0.00    -0.246 OA
BRANCH  32  34
ATOM     34  C   UNL A   1      38.494  30.944  31.237  1.00  0.00     0.060 A 
ATOM     35  C   UNL A   1      39.433  30.202  31.963  1.00  0.00     0.016 A 
ATOM     36  C   UNL A   1      38.577  31.023  29.843  1.00  0.00     0.016 A 
ATOM     37  C   UNL A   1      40.501  29.597  31.308  1.00  0.00     0.010 A 
ATOM     38  C   UNL A   1      39.653  30.415  29.187  1.00  0.00     0.010 A 
ATOM     39  C   UNL A   1      40.645  29.741  29.921  1.00  0.00    -0.014 A 
BRANCH  39  40
ATOM     40  C   UNL A   1      41.916  29.315  29.285  1.00  0.00     0.031 A 
ATOM     41  C   UNL A   1      43.036  30.312  29.151  1.00  0.00     0.074 A 
ATOM     42  C   UNL A   1      42.091  28.043  28.883  1.00  0.00     0.049 A 
ATOM     43  N   UNL A   1      44.239  30.149  28.663  1.00  0.00    -0.248 NA
ATOM     44  C   UNL A   1      42.763  31.677  29.630  1.00  0.00     0.031 C 
ATOM     45  C   UNL A   1      41.088  26.984  28.975  1.00  0.00     0.029 A 
ATOM     46  N   UNL A   1      43.179  27.430  28.315  1.00  0.00    -0.354 N 
ATOM     47  C   UNL A   1      44.862  31.388  28.767  1.00  0.00     0.074 A 
ATOM     48  C   UNL A   1      43.894  32.301  29.335  1.00  0.00     0.031 C 
ATOM     49  C   UNL A   1      41.605  25.849  28.476  1.00  0.00     0.029 A 
ATOM     50  C   UNL A   1      42.967  26.107  28.008  1.00  0.00     0.049 A 
ATOM     51  H   UNL A   1      44.031  27.892  28.144  1.00  0.00     0.167 HD
ATOM     52  C   UNL A   1      46.129  31.730  28.431  1.00  0.00     0.037 A 
ATOM     53  C   UNL A   1      43.775  25.210  27.407  1.00  0.00     0.037 A 
ATOM     54  C   UNL A   1      47.092  30.813  27.877  1.00  0.00     0.049 A 
ATOM     55  C   UNL A   1      45.171  25.619  27.019  1.00  0.00     0.074 A 
ATOM     56  C   UNL A   1      48.413  31.053  27.539  1.00  0.00     0.029 A 
ATOM     57  N   UNL A   1      46.836  29.485  27.570  1.00  0.00    -0.354 N 
ATOM     58  N   UNL A   1      45.761  26.782  27.164  1.00  0.00    -0.248 NA
ATOM     59  C   UNL A   1      46.016  24.589  26.399  1.00  0.00     0.031 C 
ATOM     60  C   UNL A   1      48.940  29.883  26.980  1.00  0.00     0.029 A 
ATOM     61  C   UNL A   1      47.967  28.899  27.021  1.00  0.00     0.049 A 
ATOM     62  H   UNL A   1      45.979  29.025  27.719  1.00  0.00     0.167 HD
ATOM     63  C   UNL A   1      47.054  26.617  26.675  1.00  0.00     0.074 A 
ATOM     64  C   UNL A   1      47.162  25.238  26.243  1.00  0.00     0.031 C 
ATOM     65  C   UNL A   1      48.060  27.524  26.593  1.00  0.00     0.037 A 
BRANCH  52  66
ATOM     66  C   UNL A   1      46.537  33.165  28.628  1.00  0.00     0.058 A 
ATOM     67  C   UNL A   1      46.376  34.129  27.620  1.00  0.00     0.135 A 
ATOM     68  C   UNL A   1      47.078  33.585  29.854  1.00  0.00     0.135 A 
ATOM     69  F   UNL A   1      45.879  33.780  26.423  1.00  0.00    -0.206 F 
ATOM     70  C   UNL A   1      46.766  35.451  27.809  1.00  0.00     0.059 A 
ATOM     71  C   UNL A   1      47.450  34.908  30.074  1.00  0.00     0.059 A 
ATOM     72  F   UNL A   1      47.255  32.705  30.852  1.00  0.00    -0.206 F 
ATOM     73  C   UNL A   1      47.304  35.830  29.040  1.00  0.00     0.060 A 
BRANCH  73  74
ATOM     74  S   UNL A   1      47.814  37.547  29.269  1.00  0.00     0.124 S 
ATOM     75  O   UNL A   1      47.163  38.198  28.136  1.00  0.00    -0.237 OA
ATOM     76  O   UNL A   1      47.262  37.865  30.583  1.00  0.00    -0.237 OA
ATOM     77  O   UNL A   1      49.270  37.482  29.204  1.00  0.00    -0.744 OA
ENDBRANCH  73  74
ENDBRANCH  52  66
BRANCH  53  78
ATOM     78  C   UNL A   1      43.273  23.837  27.135  1.00  0.00     0.058 A 
ATOM     79  C   UNL A   1      42.761  23.483  25.878  1.00  0.00     0.135 A 
ATOM     80  C   UNL A   1      43.315  22.846  28.128  1.00  0.00     0.135 A 
ATOM     81  F   UNL A   1      42.690  24.398  24.901  1.00  0.00    -0.206 F 
ATOM     82  C   UNL A   1      42.299  22.196  25.618  1.00  0.00     0.059 A 
ATOM     83  C   UNL A   1      42.884  21.546  27.884  1.00  0.00     0.059 A 
ATOM     84  F   UNL A   1      43.806  23.132  29.344  1.00  0.00    -0.206 F 
ATOM     85  C   UNL A   1      42.370  21.233  26.626  1.00  0.00     0.060 A 
BRANCH  85  86
ATOM     86  S   UNL A   1      41.827  19.550  26.258  1.00  0.00     0.124 S 
ATOM     87  O   UNL A   1      42.617  19.238  25.074  1.00  0.00    -0.237 OA
ATOM     88  O   UNL A   1      42.194  18.837  27.479  1.00  0.00    -0.237 OA
ATOM     89  O   UNL A   1      40.391  19.703  26.038  1.00  0.00    -0.744 OA
ENDBRANCH  85  86
ENDBRANCH  53  78
BRANCH  65  90
ATOM     90  C   UNL A   1      49.378  27.049  26.043  1.00  0.00     0.058 A 
ATOM     91  C   UNL A   1      49.692  27.150  24.679  1.00  0.00     0.135 A 
ATOM     92  C   UNL A   1      50.355  26.518  26.902  1.00  0.00     0.135 A 
ATOM     93  F   UNL A   1      48.793  27.647  23.814  1.00  0.00    -0.206 F 
ATOM     94  C   UNL A   1      50.915  26.712  24.179  1.00  0.00     0.059 A 
ATOM     95  C   UNL A   1      51.596  26.102  26.429  1.00  0.00     0.059 A 
ATOM     96  F   UNL A   1      50.115  26.411  28.219  1.00  0.00    -0.206 F 
ATOM     97  C   UNL A   1      51.860  26.187  25.062  1.00  0.00     0.060 A 
BRANCH  97  98
ATOM     98  S   UNL A   1      53.448  25.634  24.405  1.00  0.00     0.124 S 
ATOM     99  O   UNL A   1      53.258  25.834  22.971  1.00  0.00    -0.237 OA
ATOM    100  O   UNL A   1      54.389  26.541  25.053  1.00  0.00    -0.237 OA
ATOM    101  O   UNL A   1      53.529  24.242  24.839  1.00  0.00    -0.744 OA
ENDBRANCH  97  98
ENDBRANCH  65  90
ENDBRANCH  39  40
ENDBRANCH  32  34
ENDBRANCH  31  32
ENDBRANCH  30  31
ENDBRANCH  29  30
ENDBRANCH  28  29
ENDBRANCH   1  28
TORSDOF 22
ENDMDL
