MODEL 1
REMARK VINA RESULT:     -10.3      0.000      0.000
REMARK SMILES CC[C@](C)(NC(=O)CNC(=O)c1cccc(Cl)c1)C(=O)OCCOCCOC(=O)c1ccc(-c2c3nc(c(-c4c(F)cc(S(=O)(=O)[O-])cc4F)c4ccc([nH]4)c(-c4c(F)cc(S(=O)(=O)[O-])cc4F)c4nc(c(-c5c(F)cc(S(=O)(=O)[O-])cc5F)c5ccc2[nH]5)C=C4)C=C3)cc1
REMARK SMILES IDX 23 1 22 2 21 3 19 4 20 5 3 6 4 7 2 8 1 9 5 10 6 11 7 13 8 14
REMARK SMILES IDX 9 15 10 16 11 18 12 19 13 20 18 21 14 22 16 23 15 24 17 25
REMARK SMILES IDX 24 26 25 27 26 28 27 29 28 30 29 31 30 32 31 33 95 34 32 35
REMARK SMILES IDX 94 36 33 37 34 38 35 39 88 40 36 41 93 42 87 43 89 44 37 45
REMARK SMILES IDX 92 46 86 47 85 48 38 50 72 51 51 52 71 53 52 54 55 55 70 56
REMARK SMILES IDX 90 57 53 58 54 59 69 61 91 62 56 63 39 64 40 65 49 66 41 67
REMARK SMILES IDX 42 68 48 69 50 70 43 71 44 72 45 73 46 74 47 75 73 76 74 77
REMARK SMILES IDX 83 78 75 79 76 80 82 81 84 82 77 83 78 84 79 85 80 86 81 87
REMARK SMILES IDX 57 88 58 89 67 90 59 91 60 92 66 93 68 94 61 95 62 96 63 97
REMARK SMILES IDX 64 98 65 99
REMARK H PARENT 5 12 9 17 89 49 55 60
REMARK Flexibility Score: inf
ROOT
ATOM      1  C   UNL A   1      37.063  23.057  24.341  1.00  0.00     0.202 C 
ENDROOT
BRANCH   1   2
ATOM      2  C   UNL A   1      35.818  23.091  23.267  1.00  0.00     0.261 C 
BRANCH   2   3
ATOM      3  O   UNL A   1      34.326  22.514  23.504  1.00  0.00    -0.462 OA
BRANCH   3   4
ATOM      4  C   UNL A   1      33.142  21.976  23.899  1.00  0.00     0.331 C 
ATOM      5  O   UNL A   1      32.248  21.950  23.041  1.00  0.00    -0.249 OA
BRANCH   4   6
ATOM      6  C   UNL A   1      32.740  21.335  25.347  1.00  0.00     0.135 C 
ATOM      7  C   UNL A   1      33.773  21.256  26.527  1.00  0.00     0.047 C 
BRANCH   6   8
ATOM      8  C   UNL A   1      32.375  19.818  25.092  1.00  0.00     0.037 C 
ATOM      9  C   UNL A   1      33.520  18.977  24.495  1.00  0.00     0.007 C 
ENDBRANCH   6   8
BRANCH   6  10
ATOM     10  N   UNL A   1      31.576  21.985  25.902  1.00  0.00    -0.339 N 
ATOM     11  C   UNL A   1      31.705  23.121  26.622  1.00  0.00     0.240 C 
ATOM     12  H   UNL A   1      30.683  21.597  25.755  1.00  0.00     0.164 HD
ATOM     13  O   UNL A   1      30.739  23.552  27.252  1.00  0.00    -0.273 OA
BRANCH  11  14
ATOM     14  C   UNL A   1      32.980  23.948  26.398  1.00  0.00     0.216 C 
BRANCH  14  15
ATOM     15  N   UNL A   1      33.329  25.454  26.133  1.00  0.00    -0.343 N 
ATOM     16  C   UNL A   1      32.932  26.739  25.725  1.00  0.00     0.251 C 
ATOM     17  H   UNL A   1      34.284  25.540  26.360  1.00  0.00     0.164 HD
ATOM     18  O   UNL A   1      33.623  27.646  26.213  1.00  0.00    -0.269 OA
BRANCH  16  19
ATOM     19  C   UNL A   1      31.960  27.234  24.679  1.00  0.00     0.041 A 
ATOM     20  C   UNL A   1      32.226  28.089  23.591  1.00  0.00     0.014 A 
ATOM     21  C   UNL A   1      30.691  26.640  24.674  1.00  0.00     0.034 A 
ATOM     22  C   UNL A   1      31.209  28.604  22.768  1.00  0.00     0.002 A 
ATOM     23  C   UNL A   1      29.682  27.095  23.804  1.00  0.00     0.041 A 
ATOM     24  C   UNL A   1      29.917  28.129  22.903  1.00  0.00     0.020 A 
ATOM     25  Cl  UNL A   1      28.114  26.390  23.881  1.00  0.00    -0.084 Cl
ENDBRANCH  16  19
ENDBRANCH  14  15
ENDBRANCH  11  14
ENDBRANCH   6  10
ENDBRANCH   4   6
ENDBRANCH   3   4
ENDBRANCH   2   3
ENDBRANCH   1   2
BRANCH   1  26
ATOM     26  O   UNL A   1      37.460  21.823  24.915  1.00  0.00    -0.374 OA
BRANCH  26  27
ATOM     27  C   UNL A   1      38.502  21.675  25.864  1.00  0.00     0.202 C 
BRANCH  27  28
ATOM     28  C   UNL A   1      39.267  20.347  25.723  1.00  0.00     0.261 C 
BRANCH  28  29
ATOM     29  O   UNL A   1      40.208  20.158  26.784  1.00  0.00    -0.460 OA
BRANCH  29  30
ATOM     30  C   UNL A   1      41.455  19.866  26.355  1.00  0.00     0.338 C 
ATOM     31  O   UNL A   1      41.791  18.876  25.719  1.00  0.00    -0.246 OA
BRANCH  30  32
ATOM     32  C   UNL A   1      42.290  21.071  26.510  1.00  0.00     0.060 A 
ATOM     33  C   UNL A   1      42.524  21.532  27.813  1.00  0.00     0.016 A 
ATOM     34  C   UNL A   1      42.886  21.698  25.414  1.00  0.00     0.016 A 
ATOM     35  C   UNL A   1      43.326  22.646  28.025  1.00  0.00     0.010 A 
ATOM     36  C   UNL A   1      43.652  22.845  25.623  1.00  0.00     0.010 A 
ATOM     37  C   UNL A   1      43.842  23.341  26.925  1.00  0.00    -0.014 A 
BRANCH  37  38
ATOM     38  C   UNL A   1      44.350  24.714  27.133  1.00  0.00     0.031 A 
ATOM     39  C   UNL A   1      43.359  25.767  27.551  1.00  0.00     0.074 A 
ATOM     40  C   UNL A   1      45.653  25.017  27.006  1.00  0.00     0.049 A 
ATOM     41  N   UNL A   1      43.548  27.041  27.762  1.00  0.00    -0.248 NA
ATOM     42  C   UNL A   1      41.971  25.319  27.765  1.00  0.00     0.031 C 
ATOM     43  C   UNL A   1      46.717  24.075  26.667  1.00  0.00     0.029 A 
ATOM     44  N   UNL A   1      46.296  26.222  27.143  1.00  0.00    -0.354 N 
ATOM     45  C   UNL A   1      42.308  27.549  28.127  1.00  0.00     0.074 A 
ATOM     46  C   UNL A   1      41.368  26.450  28.093  1.00  0.00     0.031 C 
ATOM     47  C   UNL A   1      47.882  24.745  26.598  1.00  0.00     0.029 A 
ATOM     48  C   UNL A   1      47.639  26.165  26.853  1.00  0.00     0.049 A 
ATOM     49  H   UNL A   1      45.840  27.047  27.421  1.00  0.00     0.167 HD
ATOM     50  C   UNL A   1      41.982  28.817  28.461  1.00  0.00     0.037 A 
ATOM     51  C   UNL A   1      48.553  27.154  26.770  1.00  0.00     0.037 A 
ATOM     52  C   UNL A   1      42.915  29.910  28.498  1.00  0.00     0.049 A 
ATOM     53  C   UNL A   1      48.137  28.579  27.055  1.00  0.00     0.074 A 
ATOM     54  C   UNL A   1      42.675  31.225  28.857  1.00  0.00     0.029 A 
ATOM     55  N   UNL A   1      44.253  29.825  28.152  1.00  0.00    -0.354 N 
ATOM     56  N   UNL A   1      46.971  29.042  27.439  1.00  0.00    -0.248 NA
ATOM     57  C   UNL A   1      49.165  29.619  26.891  1.00  0.00     0.031 C 
ATOM     58  C   UNL A   1      43.854  31.950  28.665  1.00  0.00     0.029 A 
ATOM     59  C   UNL A   1      44.843  31.074  28.247  1.00  0.00     0.049 A 
ATOM     60  H   UNL A   1      44.715  29.000  27.879  1.00  0.00     0.167 HD
ATOM     61  C   UNL A   1      47.135  30.418  27.584  1.00  0.00     0.074 A 
ATOM     62  C   UNL A   1      48.516  30.710  27.269  1.00  0.00     0.031 C 
ATOM     63  C   UNL A   1      46.222  31.356  27.940  1.00  0.00     0.037 A 
BRANCH  50  64
ATOM     64  C   UNL A   1      40.547  29.110  28.785  1.00  0.00     0.058 A 
ATOM     65  C   UNL A   1      40.090  29.203  30.108  1.00  0.00     0.135 A 
ATOM     66  C   UNL A   1      39.636  29.385  27.752  1.00  0.00     0.135 A 
ATOM     67  F   UNL A   1      40.915  28.923  31.130  1.00  0.00    -0.206 F 
ATOM     68  C   UNL A   1      38.779  29.563  30.398  1.00  0.00     0.059 A 
ATOM     69  C   UNL A   1      38.328  29.773  28.018  1.00  0.00     0.059 A 
ATOM     70  F   UNL A   1      40.023  29.297  26.470  1.00  0.00    -0.206 F 
ATOM     71  C   UNL A   1      37.909  29.857  29.345  1.00  0.00     0.060 A 
BRANCH  71  72
ATOM     72  S   UNL A   1      36.227  30.378  29.740  1.00  0.00     0.124 S 
ATOM     73  O   UNL A   1      36.390  31.824  29.856  1.00  0.00    -0.237 OA
ATOM     74  O   UNL A   1      35.478  29.915  28.577  1.00  0.00    -0.237 OA
ATOM     75  O   UNL A   1      35.939  29.678  30.989  1.00  0.00    -0.744 OA
ENDBRANCH  71  72
ENDBRANCH  50  64
BRANCH  51  76
ATOM     76  C   UNL A   1      49.948  26.856  26.344  1.00  0.00     0.058 A 
ATOM     77  C   UNL A   1      50.314  26.860  24.991  1.00  0.00     0.135 A 
ATOM     78  C   UNL A   1      50.927  26.495  27.284  1.00  0.00     0.135 A 
ATOM     79  F   UNL A   1      49.411  27.183  24.052  1.00  0.00    -0.206 F 
ATOM     80  C   UNL A   1      51.589  26.483  24.579  1.00  0.00     0.059 A 
ATOM     81  C   UNL A   1      52.217  26.145  26.900  1.00  0.00     0.059 A 
ATOM     82  F   UNL A   1      50.631  26.479  28.593  1.00  0.00    -0.206 F 
ATOM     83  C   UNL A   1      52.533  26.123  25.543  1.00  0.00     0.060 A 
BRANCH  83  84
ATOM     84  S   UNL A   1      54.185  25.640  25.000  1.00  0.00     0.124 S 
ATOM     85  O   UNL A   1      55.019  26.230  26.041  1.00  0.00    -0.237 OA
ATOM     86  O   UNL A   1      54.094  24.183  25.004  1.00  0.00    -0.237 OA
ATOM     87  O   UNL A   1      54.296  26.251  23.679  1.00  0.00    -0.744 OA
ENDBRANCH  83  84
ENDBRANCH  51  76
BRANCH  63  88
ATOM     88  C   UNL A   1      46.682  32.788  28.035  1.00  0.00     0.058 A 
ATOM     89  C   UNL A   1      47.343  33.277  29.173  1.00  0.00     0.135 A 
ATOM     90  C   UNL A   1      46.522  33.663  26.947  1.00  0.00     0.135 A 
ATOM     91  F   UNL A   1      47.520  32.486  30.243  1.00  0.00    -0.206 F 
ATOM     92  C   UNL A   1      47.807  34.588  29.238  1.00  0.00     0.059 A 
ATOM     93  C   UNL A   1      47.008  34.968  26.978  1.00  0.00     0.059 A 
ATOM     94  F   UNL A   1      45.911  33.246  25.827  1.00  0.00    -0.206 F 
ATOM     95  C   UNL A   1      47.640  35.424  28.134  1.00  0.00     0.060 A 
BRANCH  95  96
ATOM     96  S   UNL A   1      48.283  37.109  28.220  1.00  0.00     0.124 S 
ATOM     97  O   UNL A   1      47.201  37.803  28.911  1.00  0.00    -0.237 OA
ATOM     98  O   UNL A   1      49.514  36.934  28.985  1.00  0.00    -0.237 OA
ATOM     99  O   UNL A   1      48.469  37.475  26.819  1.00  0.00    -0.744 OA
ENDBRANCH  95  96
ENDBRANCH  63  88
ENDBRANCH  37  38
ENDBRANCH  30  32
ENDBRANCH  29  30
ENDBRANCH  28  29
ENDBRANCH  27  28
ENDBRANCH  26  27
ENDBRANCH   1  26
TORSDOF 22
ENDMDL
MODEL 2
REMARK VINA RESULT:     -10.1      6.426     10.460
REMARK SMILES CC[C@](C)(NC(=O)CNC(=O)c1cccc(Cl)c1)C(=O)OCCOCCOC(=O)c1ccc(-c2c3nc(c(-c4c(F)cc(S(=O)(=O)[O-])cc4F)c4ccc([nH]4)c(-c4c(F)cc(S(=O)(=O)[O-])cc4F)c4nc(c(-c5c(F)cc(S(=O)(=O)[O-])cc5F)c5ccc2[nH]5)C=C4)C=C3)cc1
REMARK SMILES IDX 23 1 22 2 21 3 19 4 20 5 3 6 4 7 2 8 1 9 5 10 6 11 7 13 8 14
REMARK SMILES IDX 9 15 10 16 11 18 12 19 13 20 18 21 14 22 16 23 15 24 17 25
REMARK SMILES IDX 24 26 25 27 26 28 27 29 28 30 29 31 30 32 31 33 95 34 32 35
REMARK SMILES IDX 94 36 33 37 34 38 35 39 88 40 36 41 93 42 87 43 89 44 37 45
REMARK SMILES IDX 92 46 86 47 85 48 38 50 72 51 51 52 71 53 52 54 55 55 70 56
REMARK SMILES IDX 90 57 53 58 54 59 69 61 91 62 56 63 39 64 40 65 49 66 41 67
REMARK SMILES IDX 42 68 48 69 50 70 43 71 44 72 45 73 46 74 47 75 73 76 74 77
REMARK SMILES IDX 83 78 75 79 76 80 82 81 84 82 77 83 78 84 79 85 80 86 81 87
REMARK SMILES IDX 57 88 58 89 67 90 59 91 60 92 66 93 68 94 61 95 62 96 63 97
REMARK SMILES IDX 64 98 65 99
REMARK H PARENT 5 12 9 17 89 49 55 60
REMARK Flexibility Score: inf
ROOT
ATOM      1  C   UNL A   1      34.136  29.548  27.279  1.00  0.00     0.202 C 
ENDROOT
BRANCH   1   2
ATOM      2  C   UNL A   1      34.022  28.450  26.059  1.00  0.00     0.261 C 
BRANCH   2   3
ATOM      3  O   UNL A   1      33.375  26.972  26.152  1.00  0.00    -0.462 OA
BRANCH   3   4
ATOM      4  C   UNL A   1      32.642  25.829  26.223  1.00  0.00     0.331 C 
ATOM      5  O   UNL A   1      31.518  25.940  26.734  1.00  0.00    -0.249 OA
BRANCH   4   6
ATOM      6  C   UNL A   1      33.029  24.330  25.704  1.00  0.00     0.135 C 
ATOM      7  C   UNL A   1      33.525  23.217  26.696  1.00  0.00     0.047 C 
BRANCH   6   8
ATOM      8  C   UNL A   1      34.249  24.488  24.710  1.00  0.00     0.037 C 
ATOM      9  C   UNL A   1      35.628  24.222  25.345  1.00  0.00     0.007 C 
ENDBRANCH   6   8
BRANCH   6  10
ATOM     10  N   UNL A   1      31.937  23.730  24.974  1.00  0.00    -0.339 N 
ATOM     11  C   UNL A   1      31.385  24.371  23.921  1.00  0.00     0.240 C 
ATOM     12  H   UNL A   1      31.592  22.849  25.247  1.00  0.00     0.164 HD
ATOM     13  O   UNL A   1      30.336  23.947  23.435  1.00  0.00    -0.273 OA
BRANCH  11  14
ATOM     14  C   UNL A   1      32.243  25.439  23.226  1.00  0.00     0.216 C 
BRANCH  14  15
ATOM     15  N   UNL A   1      32.206  26.998  23.056  1.00  0.00    -0.343 N 
ATOM     16  C   UNL A   1      31.546  28.224  23.245  1.00  0.00     0.251 C 
ATOM     17  H   UNL A   1      33.048  27.227  22.599  1.00  0.00     0.164 HD
ATOM     18  O   UNL A   1      32.316  29.195  23.292  1.00  0.00    -0.269 OA
BRANCH  16  19
ATOM     19  C   UNL A   1      30.088  28.625  23.220  1.00  0.00     0.041 A 
ATOM     20  C   UNL A   1      28.962  27.786  23.326  1.00  0.00     0.014 A 
ATOM     21  C   UNL A   1      29.817  29.998  23.285  1.00  0.00     0.034 A 
ATOM     22  C   UNL A   1      27.650  28.254  23.140  1.00  0.00     0.002 A 
ATOM     23  C   UNL A   1      28.500  30.481  23.173  1.00  0.00     0.041 A 
ATOM     24  C   UNL A   1      27.422  29.614  23.023  1.00  0.00     0.020 A 
ATOM     25  Cl  UNL A   1      28.215  32.178  23.179  1.00  0.00    -0.084 Cl
ENDBRANCH  16  19
ENDBRANCH  14  15
ENDBRANCH  11  14
ENDBRANCH   6  10
ENDBRANCH   4   6
ENDBRANCH   3   4
ENDBRANCH   2   3
ENDBRANCH   1   2
BRANCH   1  26
ATOM     26  O   UNL A   1      33.412  30.764  27.196  1.00  0.00    -0.374 OA
BRANCH  26  27
ATOM     27  C   UNL A   1      33.663  31.906  27.998  1.00  0.00     0.202 C 
BRANCH  27  28
ATOM     28  C   UNL A   1      32.987  33.182  27.465  1.00  0.00     0.261 C 
BRANCH  28  29
ATOM     29  O   UNL A   1      32.520  34.020  28.526  1.00  0.00    -0.460 OA
BRANCH  29  30
ATOM     30  C   UNL A   1      33.353  35.045  28.811  1.00  0.00     0.338 C 
ATOM     31  O   UNL A   1      33.132  36.235  28.622  1.00  0.00    -0.246 OA
BRANCH  30  32
ATOM     32  C   UNL A   1      34.443  34.532  29.660  1.00  0.00     0.060 A 
ATOM     33  C   UNL A   1      35.743  34.575  29.139  1.00  0.00     0.016 A 
ATOM     34  C   UNL A   1      34.210  34.081  30.960  1.00  0.00     0.016 A 
ATOM     35  C   UNL A   1      36.815  34.131  29.903  1.00  0.00     0.010 A 
ATOM     36  C   UNL A   1      35.280  33.590  31.710  1.00  0.00     0.010 A 
ATOM     37  C   UNL A   1      36.577  33.581  31.168  1.00  0.00    -0.014 A 
BRANCH  37  38
ATOM     38  C   UNL A   1      37.642  32.770  31.796  1.00  0.00     0.031 A 
ATOM     39  C   UNL A   1      38.164  33.221  33.133  1.00  0.00     0.074 A 
ATOM     40  C   UNL A   1      38.103  31.642  31.231  1.00  0.00     0.049 A 
ATOM     41  N   UNL A   1      39.111  32.704  33.868  1.00  0.00    -0.248 NA
ATOM     42  C   UNL A   1      37.526  34.413  33.722  1.00  0.00     0.031 C 
ATOM     43  C   UNL A   1      37.635  31.067  29.971  1.00  0.00     0.029 A 
ATOM     44  N   UNL A   1      39.083  30.779  31.654  1.00  0.00    -0.354 N 
ATOM     45  C   UNL A   1      39.189  33.506  34.999  1.00  0.00     0.074 A 
ATOM     46  C   UNL A   1      38.205  34.555  34.849  1.00  0.00     0.031 C 
ATOM     47  C   UNL A   1      38.349  29.956  29.710  1.00  0.00     0.029 A 
ATOM     48  C   UNL A   1      39.345  29.763  30.765  1.00  0.00     0.049 A 
ATOM     49  H   UNL A   1      39.555  30.879  32.511  1.00  0.00     0.167 HD
ATOM     50  C   UNL A   1      40.006  33.378  36.067  1.00  0.00     0.037 A 
ATOM     51  C   UNL A   1      40.302  28.812  30.788  1.00  0.00     0.037 A 
ATOM     52  C   UNL A   1      40.983  32.335  36.220  1.00  0.00     0.049 A 
ATOM     53  C   UNL A   1      41.266  28.753  31.951  1.00  0.00     0.074 A 
ATOM     54  C   UNL A   1      41.834  32.111  37.288  1.00  0.00     0.029 A 
ATOM     55  N   UNL A   1      41.252  31.354  35.279  1.00  0.00    -0.354 N 
ATOM     56  N   UNL A   1      41.304  29.491  33.035  1.00  0.00    -0.248 NA
ATOM     57  C   UNL A   1      42.321  27.730  31.890  1.00  0.00     0.031 C 
ATOM     58  C   UNL A   1      42.664  31.034  36.964  1.00  0.00     0.029 A 
ATOM     59  C   UNL A   1      42.287  30.548  35.723  1.00  0.00     0.049 A 
ATOM     60  H   UNL A   1      40.778  31.246  34.423  1.00  0.00     0.167 HD
ATOM     61  C   UNL A   1      42.369  29.005  33.791  1.00  0.00     0.074 A 
ATOM     62  C   UNL A   1      42.935  27.898  33.053  1.00  0.00     0.031 C 
ATOM     63  C   UNL A   1      42.840  29.441  34.986  1.00  0.00     0.037 A 
BRANCH  50  64
ATOM     64  C   UNL A   1      39.910  34.410  37.152  1.00  0.00     0.058 A 
ATOM     65  C   UNL A   1      40.558  35.650  37.055  1.00  0.00     0.135 A 
ATOM     66  C   UNL A   1      39.086  34.181  38.266  1.00  0.00     0.135 A 
ATOM     67  F   UNL A   1      41.378  35.906  36.023  1.00  0.00    -0.206 F 
ATOM     68  C   UNL A   1      40.389  36.632  38.024  1.00  0.00     0.059 A 
ATOM     69  C   UNL A   1      38.881  35.158  39.234  1.00  0.00     0.059 A 
ATOM     70  F   UNL A   1      38.455  33.005  38.410  1.00  0.00    -0.206 F 
ATOM     71  C   UNL A   1      39.539  36.380  39.104  1.00  0.00     0.060 A 
BRANCH  71  72
ATOM     72  S   UNL A   1      39.287  37.687  40.323  1.00  0.00     0.124 S 
ATOM     73  O   UNL A   1      38.275  38.507  39.665  1.00  0.00    -0.237 OA
ATOM     74  O   UNL A   1      38.836  36.938  41.491  1.00  0.00    -0.237 OA
ATOM     75  O   UNL A   1      40.607  38.299  40.444  1.00  0.00    -0.744 OA
ENDBRANCH  71  72
ENDBRANCH  50  64
BRANCH  51  76
ATOM     76  C   UNL A   1      40.447  27.863  29.651  1.00  0.00     0.058 A 
ATOM     77  C   UNL A   1      39.630  26.730  29.537  1.00  0.00     0.135 A 
ATOM     78  C   UNL A   1      41.458  28.038  28.691  1.00  0.00     0.135 A 
ATOM     79  F   UNL A   1      38.660  26.509  30.438  1.00  0.00    -0.206 F 
ATOM     80  C   UNL A   1      39.828  25.785  28.535  1.00  0.00     0.059 A 
ATOM     81  C   UNL A   1      41.655  27.125  27.661  1.00  0.00     0.059 A 
ATOM     82  F   UNL A   1      42.266  29.108  28.750  1.00  0.00    -0.206 F 
ATOM     83  C   UNL A   1      40.847  25.991  27.602  1.00  0.00     0.060 A 
BRANCH  83  84
ATOM     84  S   UNL A   1      41.094  24.763  26.302  1.00  0.00     0.124 S 
ATOM     85  O   UNL A   1      42.138  23.928  26.883  1.00  0.00    -0.237 OA
ATOM     86  O   UNL A   1      39.771  24.155  26.201  1.00  0.00    -0.237 OA
ATOM     87  O   UNL A   1      41.495  25.569  25.153  1.00  0.00    -0.744 OA
ENDBRANCH  83  84
ENDBRANCH  51  76
BRANCH  63  88
ATOM     88  C   UNL A   1      44.011  28.711  35.592  1.00  0.00     0.058 A 
ATOM     89  C   UNL A   1      45.336  29.098  35.333  1.00  0.00     0.135 A 
ATOM     90  C   UNL A   1      43.804  27.656  36.498  1.00  0.00     0.135 A 
ATOM     91  F   UNL A   1      45.593  30.096  34.474  1.00  0.00    -0.206 F 
ATOM     92  C   UNL A   1      46.412  28.450  35.932  1.00  0.00     0.059 A 
ATOM     93  C   UNL A   1      44.865  27.016  37.132  1.00  0.00     0.059 A 
ATOM     94  F   UNL A   1      42.558  27.254  36.794  1.00  0.00    -0.206 F 
ATOM     95  C   UNL A   1      46.168  27.414  36.834  1.00  0.00     0.060 A 
BRANCH  95  96
ATOM     96  S   UNL A   1      47.574  26.610  37.632  1.00  0.00     0.124 S 
ATOM     97  O   UNL A   1      48.690  27.109  36.834  1.00  0.00    -0.237 OA
ATOM     98  O   UNL A   1      47.492  27.124  38.996  1.00  0.00    -0.237 OA
ATOM     99  O   UNL A   1      47.283  25.188  37.484  1.00  0.00    -0.744 OA
ENDBRANCH  95  96
ENDBRANCH  63  88
ENDBRANCH  37  38
ENDBRANCH  30  32
ENDBRANCH  29  30
ENDBRANCH  28  29
ENDBRANCH  27  28
ENDBRANCH  26  27
ENDBRANCH   1  26
TORSDOF 22
ENDMDL
MODEL 3
REMARK VINA RESULT:      -9.9      6.247     11.467
REMARK SMILES CC[C@](C)(NC(=O)CNC(=O)c1cccc(Cl)c1)C(=O)OCCOCCOC(=O)c1ccc(-c2c3nc(c(-c4c(F)cc(S(=O)(=O)[O-])cc4F)c4ccc([nH]4)c(-c4c(F)cc(S(=O)(=O)[O-])cc4F)c4nc(c(-c5c(F)cc(S(=O)(=O)[O-])cc5F)c5ccc2[nH]5)C=C4)C=C3)cc1
REMARK SMILES IDX 23 1 22 2 21 3 19 4 20 5 3 6 4 7 2 8 1 9 5 10 6 11 7 13 8 14
REMARK SMILES IDX 9 15 10 16 11 18 12 19 13 20 18 21 14 22 16 23 15 24 17 25
REMARK SMILES IDX 24 26 25 27 26 28 27 29 28 30 29 31 30 32 31 33 95 34 32 35
REMARK SMILES IDX 94 36 33 37 34 38 35 39 88 40 36 41 93 42 87 43 89 44 37 45
REMARK SMILES IDX 92 46 86 47 85 48 38 50 72 51 51 52 71 53 52 54 55 55 70 56
REMARK SMILES IDX 90 57 53 58 54 59 69 61 91 62 56 63 39 64 40 65 49 66 41 67
REMARK SMILES IDX 42 68 48 69 50 70 43 71 44 72 45 73 46 74 47 75 73 76 74 77
REMARK SMILES IDX 83 78 75 79 76 80 82 81 84 82 77 83 78 84 79 85 80 86 81 87
REMARK SMILES IDX 57 88 58 89 67 90 59 91 60 92 66 93 68 94 61 95 62 96 63 97
REMARK SMILES IDX 64 98 65 99
REMARK H PARENT 5 12 9 17 89 49 55 60
REMARK Flexibility Score: inf
ROOT
ATOM      1  C   UNL A   1      33.333  30.083  25.941  1.00  0.00     0.202 C 
ENDROOT
BRANCH   1   2
ATOM      2  C   UNL A   1      33.719  28.510  25.654  1.00  0.00     0.261 C 
BRANCH   2   3
ATOM      3  O   UNL A   1      32.701  27.255  25.647  1.00  0.00    -0.462 OA
BRANCH   3   4
ATOM      4  C   UNL A   1      31.690  26.346  25.657  1.00  0.00     0.331 C 
ATOM      5  O   UNL A   1      30.648  26.705  26.224  1.00  0.00    -0.249 OA
BRANCH   4   6
ATOM      6  C   UNL A   1      31.650  24.851  25.001  1.00  0.00     0.135 C 
ATOM      7  C   UNL A   1      30.655  24.487  23.841  1.00  0.00     0.047 C 
BRANCH   6   8
ATOM      8  C   UNL A   1      31.232  23.853  26.155  1.00  0.00     0.037 C 
ATOM      9  C   UNL A   1      31.355  22.362  25.785  1.00  0.00     0.007 C 
ENDBRANCH   6   8
BRANCH   6  10
ATOM     10  N   UNL A   1      32.954  24.455  24.523  1.00  0.00    -0.339 N 
ATOM     11  C   UNL A   1      33.269  24.574  23.215  1.00  0.00     0.240 C 
ATOM     12  H   UNL A   1      33.618  24.095  25.155  1.00  0.00     0.164 HD
ATOM     13  O   UNL A   1      34.300  24.053  22.790  1.00  0.00    -0.273 OA
BRANCH  11  14
ATOM     14  C   UNL A   1      32.450  25.578  22.389  1.00  0.00     0.216 C 
BRANCH  14  15
ATOM     15  N   UNL A   1      32.390  27.137  22.224  1.00  0.00    -0.343 N 
ATOM     16  C   UNL A   1      31.735  28.357  22.458  1.00  0.00     0.251 C 
ATOM     17  H   UNL A   1      33.196  27.372  21.710  1.00  0.00     0.164 HD
ATOM     18  O   UNL A   1      32.498  29.335  22.453  1.00  0.00    -0.269 OA
BRANCH  16  19
ATOM     19  C   UNL A   1      30.276  28.747  22.534  1.00  0.00     0.041 A 
ATOM     20  C   UNL A   1      29.243  28.087  23.227  1.00  0.00     0.014 A 
ATOM     21  C   UNL A   1      29.936  30.003  22.013  1.00  0.00     0.034 A 
ATOM     22  C   UNL A   1      27.892  28.457  23.104  1.00  0.00     0.002 A 
ATOM     23  C   UNL A   1      28.594  30.421  21.948  1.00  0.00     0.041 A 
ATOM     24  C   UNL A   1      27.563  29.616  22.423  1.00  0.00     0.020 A 
ATOM     25  Cl  UNL A   1      28.210  31.938  21.231  1.00  0.00    -0.084 Cl
ENDBRANCH  16  19
ENDBRANCH  14  15
ENDBRANCH  11  14
ENDBRANCH   6  10
ENDBRANCH   4   6
ENDBRANCH   3   4
ENDBRANCH   2   3
ENDBRANCH   1   2
BRANCH   1  26
ATOM     26  O   UNL A   1      32.158  30.393  26.672  1.00  0.00    -0.374 OA
BRANCH  26  27
ATOM     27  C   UNL A   1      31.662  31.705  26.879  1.00  0.00     0.202 C 
BRANCH  27  28
ATOM     28  C   UNL A   1      32.760  32.717  27.254  1.00  0.00     0.261 C 
BRANCH  28  29
ATOM     29  O   UNL A   1      32.380  33.527  28.370  1.00  0.00    -0.460 OA
BRANCH  29  30
ATOM     30  C   UNL A   1      33.269  34.502  28.658  1.00  0.00     0.338 C 
ATOM     31  O   UNL A   1      33.038  35.703  28.713  1.00  0.00    -0.246 OA
BRANCH  30  32
ATOM     32  C   UNL A   1      34.490  33.870  29.191  1.00  0.00     0.060 A 
ATOM     33  C   UNL A   1      34.328  32.799  30.081  1.00  0.00     0.016 A 
ATOM     34  C   UNL A   1      35.763  34.271  28.781  1.00  0.00     0.016 A 
ATOM     35  C   UNL A   1      35.440  32.147  30.595  1.00  0.00     0.010 A 
ATOM     36  C   UNL A   1      36.881  33.646  29.335  1.00  0.00     0.010 A 
ATOM     37  C   UNL A   1      36.720  32.608  30.270  1.00  0.00    -0.014 A 
BRANCH  37  38
ATOM     38  C   UNL A   1      37.861  32.176  31.106  1.00  0.00     0.031 A 
ATOM     39  C   UNL A   1      38.676  31.008  30.623  1.00  0.00     0.074 A 
ATOM     40  C   UNL A   1      38.199  32.822  32.235  1.00  0.00     0.049 A 
ATOM     41  N   UNL A   1      39.696  30.422  31.188  1.00  0.00    -0.248 NA
ATOM     42  C   UNL A   1      38.290  30.427  29.323  1.00  0.00     0.031 C 
ATOM     43  C   UNL A   1      37.529  34.002  32.775  1.00  0.00     0.029 A 
ATOM     44  N   UNL A   1      39.202  32.560  33.135  1.00  0.00    -0.354 N 
ATOM     45  C   UNL A   1      40.072  29.404  30.321  1.00  0.00     0.074 A 
ATOM     46  C   UNL A   1      39.161  29.439  29.198  1.00  0.00     0.031 C 
ATOM     47  C   UNL A   1      38.125  34.349  33.930  1.00  0.00     0.029 A 
ATOM     48  C   UNL A   1      39.195  33.395  34.227  1.00  0.00     0.049 A 
ATOM     49  H   UNL A   1      39.863  31.843  33.011  1.00  0.00     0.167 HD
ATOM     50  C   UNL A   1      41.086  28.520  30.449  1.00  0.00     0.037 A 
ATOM     51  C   UNL A   1      39.943  33.366  35.349  1.00  0.00     0.037 A 
ATOM     52  C   UNL A   1      41.994  28.485  31.562  1.00  0.00     0.049 A 
ATOM     53  C   UNL A   1      41.007  32.304  35.508  1.00  0.00     0.074 A 
ATOM     54  C   UNL A   1      43.073  27.641  31.759  1.00  0.00     0.029 A 
ATOM     55  N   UNL A   1      41.926  29.314  32.671  1.00  0.00    -0.354 N 
ATOM     56  N   UNL A   1      41.381  31.372  34.664  1.00  0.00    -0.248 NA
ATOM     57  C   UNL A   1      41.750  32.290  36.778  1.00  0.00     0.031 C 
ATOM     58  C   UNL A   1      43.617  27.914  33.016  1.00  0.00     0.029 A 
ATOM     59  C   UNL A   1      42.917  28.971  33.576  1.00  0.00     0.049 A 
ATOM     60  H   UNL A   1      41.271  30.037  32.796  1.00  0.00     0.167 HD
ATOM     61  C   UNL A   1      42.415  30.680  35.292  1.00  0.00     0.074 A 
ATOM     62  C   UNL A   1      42.623  31.313  36.575  1.00  0.00     0.031 C 
ATOM     63  C   UNL A   1      43.124  29.612  34.849  1.00  0.00     0.037 A 
BRANCH  50  64
ATOM     64  C   UNL A   1      41.257  27.487  29.374  1.00  0.00     0.058 A 
ATOM     65  C   UNL A   1      42.352  27.505  28.498  1.00  0.00     0.135 A 
ATOM     66  C   UNL A   1      40.352  26.419  29.277  1.00  0.00     0.135 A 
ATOM     67  F   UNL A   1      43.231  28.520  28.532  1.00  0.00    -0.206 F 
ATOM     68  C   UNL A   1      42.548  26.494  27.564  1.00  0.00     0.059 A 
ATOM     69  C   UNL A   1      40.541  25.383  28.370  1.00  0.00     0.059 A 
ATOM     70  F   UNL A   1      39.282  26.365  30.085  1.00  0.00    -0.206 F 
ATOM     71  C   UNL A   1      41.642  25.431  27.516  1.00  0.00     0.060 A 
BRANCH  71  72
ATOM     72  S   UNL A   1      41.943  24.099  26.337  1.00  0.00     0.124 S 
ATOM     73  O   UNL A   1      42.322  24.848  25.142  1.00  0.00    -0.237 OA
ATOM     74  O   UNL A   1      43.014  23.350  26.982  1.00  0.00    -0.237 OA
ATOM     75  O   UNL A   1      40.656  23.412  26.263  1.00  0.00    -0.744 OA
ENDBRANCH  71  72
ENDBRANCH  50  64
BRANCH  51  76
ATOM     76  C   UNL A   1      39.687  34.335  36.450  1.00  0.00     0.058 A 
ATOM     77  C   UNL A   1      40.304  35.593  36.473  1.00  0.00     0.135 A 
ATOM     78  C   UNL A   1      38.869  33.989  37.538  1.00  0.00     0.135 A 
ATOM     79  F   UNL A   1      41.107  35.965  35.465  1.00  0.00    -0.206 F 
ATOM     80  C   UNL A   1      40.150  36.462  37.550  1.00  0.00     0.059 A 
ATOM     81  C   UNL A   1      38.673  34.852  38.611  1.00  0.00     0.059 A 
ATOM     82  F   UNL A   1      38.250  32.798  37.565  1.00  0.00    -0.206 F 
ATOM     83  C   UNL A   1      39.334  36.079  38.616  1.00  0.00     0.060 A 
BRANCH  83  84
ATOM     84  S   UNL A   1      39.135  37.214  40.006  1.00  0.00     0.124 S 
ATOM     85  O   UNL A   1      38.296  38.251  39.419  1.00  0.00    -0.237 OA
ATOM     86  O   UNL A   1      38.495  36.364  41.005  1.00  0.00    -0.237 OA
ATOM     87  O   UNL A   1      40.506  37.609  40.315  1.00  0.00    -0.744 OA
ENDBRANCH  83  84
ENDBRANCH  51  76
BRANCH  63  88
ATOM     88  C   UNL A   1      44.211  29.067  35.739  1.00  0.00     0.058 A 
ATOM     89  C   UNL A   1      45.509  29.601  35.730  1.00  0.00     0.135 A 
ATOM     90  C   UNL A   1      43.932  28.046  36.663  1.00  0.00     0.135 A 
ATOM     91  F   UNL A   1      45.833  30.577  34.866  1.00  0.00    -0.206 F 
ATOM     92  C   UNL A   1      46.497  29.126  36.587  1.00  0.00     0.059 A 
ATOM     93  C   UNL A   1      44.896  27.577  37.551  1.00  0.00     0.059 A 
ATOM     94  F   UNL A   1      42.703  27.507  36.726  1.00  0.00    -0.206 F 
ATOM     95  C   UNL A   1      46.180  28.118  37.498  1.00  0.00     0.060 A 
BRANCH  95  96
ATOM     96  S   UNL A   1      47.463  27.539  38.631  1.00  0.00     0.124 S 
ATOM     97  O   UNL A   1      46.960  28.019  39.914  1.00  0.00    -0.237 OA
ATOM     98  O   UNL A   1      47.422  26.094  38.434  1.00  0.00    -0.237 OA
ATOM     99  O   UNL A   1      48.670  28.199  38.144  1.00  0.00    -0.744 OA
ENDBRANCH  95  96
ENDBRANCH  63  88
ENDBRANCH  37  38
ENDBRANCH  30  32
ENDBRANCH  29  30
ENDBRANCH  28  29
ENDBRANCH  27  28
ENDBRANCH  26  27
ENDBRANCH   1  26
TORSDOF 22
ENDMDL
