MODEL 1
REMARK VINA RESULT:     -12.6      0.000      0.000
REMARK SMILES C[C@]1(C(=O)OCCOCCOC(=O)c2ccc(-c3c4nc(c(-c5c(F)cc(S(=O)(=O)[O-])cc5F)c5ccc([nH]5)c(-c5c(F)cc(S(=O)(=O)[O-])cc5F)c5nc(c(-c6c(F)cc(S(=O)(=O)[O-])cc6F)c6ccc3[nH]6)C=C5)C=C4)cc2)[NH2+]C2(C(=O)c3ccccc3C2=O)[C@@H]2C(=O)N(c3ccccc3)C(=O)[C@H]21
REMARK SMILES IDX 9 1 8 2 7 3 6 4 5 5 3 6 4 7 2 8 1 9 80 10 104 11 81 12 92 15
REMARK SMILES IDX 102 16 82 17 90 18 93 19 95 20 103 21 83 22 84 23 89 24
REMARK SMILES IDX 91 25 94 26 85 27 88 28 86 29 87 30 96 31 97 32 101 33 98 34
REMARK SMILES IDX 100 35 99 36 10 37 11 38 12 39 13 40 14 41 15 42 79 43 16 44
REMARK SMILES IDX 78 45 17 46 18 47 19 48 72 49 20 50 77 51 71 52 73 53 21 54
REMARK SMILES IDX 76 55 70 56 69 57 22 59 56 60 35 61 55 62 36 63 39 64 54 65
REMARK SMILES IDX 74 66 37 67 38 68 53 70 75 71 40 72 23 73 24 74 33 75 25 76
REMARK SMILES IDX 26 77 32 78 34 79 27 80 28 81 29 82 30 83 31 84 57 85 58 86
REMARK SMILES IDX 67 87 59 88 60 89 66 90 68 91 61 92 62 93 63 94 64 95 65 96
REMARK SMILES IDX 41 97 42 98 51 99 43 100 44 101 50 102 52 103 45 104 46 105
REMARK SMILES IDX 47 106 48 107 49 108
REMARK H PARENT 80 13 80 14 73 58 39 69
REMARK Flexibility Score: inf
ROOT
ATOM      1  C   UNL A   1      41.042  21.710  27.138  1.00  0.00     0.202 C 
ENDROOT
BRANCH   1   2
ATOM      2  O   UNL A   1      39.648  21.550  26.875  1.00  0.00    -0.374 OA
BRANCH   2   3
ATOM      3  C   UNL A   1      39.255  20.598  25.892  1.00  0.00     0.202 C 
BRANCH   3   4
ATOM      4  C   UNL A   1      38.185  21.014  24.881  1.00  0.00     0.261 C 
BRANCH   4   5
ATOM      5  O   UNL A   1      37.812  22.391  25.010  1.00  0.00    -0.459 OA
BRANCH   5   6
ATOM      6  C   UNL A   1      36.748  22.792  24.262  1.00  0.00     0.368 C 
ATOM      7  O   UNL A   1      36.636  22.578  23.060  1.00  0.00    -0.245 OA
BRANCH   6   8
ATOM      8  C   UNL A   1      35.694  23.573  25.104  1.00  0.00     0.205 C 
ATOM      9  C   UNL A   1      36.399  24.082  26.366  1.00  0.00     0.093 C 
ATOM     10  N   UNL A   1      35.063  24.773  24.392  1.00  0.00    -0.313 N 
ATOM     11  C   UNL A   1      34.496  22.705  25.378  1.00  0.00     0.172 C 
ATOM     12  C   UNL A   1      33.606  24.426  24.092  1.00  0.00     0.237 C 
ATOM     13  H   UNL A   1      35.561  24.960  23.521  1.00  0.00     0.348 HD
ATOM     14  H   UNL A   1      35.118  25.606  24.979  1.00  0.00     0.348 HD
ATOM     15  C   UNL A   1      33.658  22.941  24.133  1.00  0.00     0.177 C 
ATOM     16  C   UNL A   1      34.520  21.220  25.419  1.00  0.00     0.244 C 
ATOM     17  C   UNL A   1      32.651  25.116  25.067  1.00  0.00     0.232 C 
ATOM     18  C   UNL A   1      33.186  25.003  22.746  1.00  0.00     0.232 C 
ATOM     19  C   UNL A   1      32.616  21.903  24.311  1.00  0.00     0.245 C 
ATOM     20  N   UNL A   1      33.325  20.820  24.831  1.00  0.00    -0.250 N 
ATOM     21  O   UNL A   1      35.421  20.571  25.922  1.00  0.00    -0.273 OA
ATOM     22  O   UNL A   1      32.661  25.048  26.285  1.00  0.00    -0.286 OA
ATOM     23  C   UNL A   1      31.764  25.998  24.309  1.00  0.00     0.036 A 
ATOM     24  C   UNL A   1      32.094  25.954  22.961  1.00  0.00     0.036 A 
ATOM     25  O   UNL A   1      33.649  24.752  21.645  1.00  0.00    -0.286 OA
ATOM     26  O   UNL A   1      31.460  22.015  23.951  1.00  0.00    -0.273 OA
ATOM     27  C   UNL A   1      30.759  26.822  24.785  1.00  0.00     0.013 A 
ATOM     28  C   UNL A   1      31.443  26.745  22.031  1.00  0.00     0.013 A 
ATOM     29  C   UNL A   1      30.082  27.621  23.858  1.00  0.00     0.001 A 
ATOM     30  C   UNL A   1      30.425  27.588  22.494  1.00  0.00     0.001 A 
BRANCH  20  31
ATOM     31  C   UNL A   1      33.021  19.461  24.617  1.00  0.00     0.052 A 
ATOM     32  C   UNL A   1      32.903  18.584  25.704  1.00  0.00     0.027 A 
ATOM     33  C   UNL A   1      32.994  18.946  23.314  1.00  0.00     0.027 A 
ATOM     34  C   UNL A   1      32.765  17.213  25.497  1.00  0.00     0.002 A 
ATOM     35  C   UNL A   1      32.903  17.567  23.114  1.00  0.00     0.002 A 
ATOM     36  C   UNL A   1      32.784  16.705  24.203  1.00  0.00     0.000 A 
ENDBRANCH  20  31
ENDBRANCH   6   8
ENDBRANCH   5   6
ENDBRANCH   4   5
ENDBRANCH   3   4
ENDBRANCH   2   3
ENDBRANCH   1   2
BRANCH   1  37
ATOM     37  C   UNL A   1      41.729  22.998  26.672  1.00  0.00     0.261 C 
BRANCH  37  38
ATOM     38  O   UNL A   1      40.803  24.046  26.347  1.00  0.00    -0.460 OA
BRANCH  38  39
ATOM     39  C   UNL A   1      41.358  25.248  26.055  1.00  0.00     0.338 C 
ATOM     40  O   UNL A   1      41.871  25.584  25.002  1.00  0.00    -0.246 OA
BRANCH  39  41
ATOM     41  C   UNL A   1      41.083  26.195  27.155  1.00  0.00     0.060 A 
ATOM     42  C   UNL A   1      40.137  25.903  28.136  1.00  0.00     0.016 A 
ATOM     43  C   UNL A   1      41.818  27.385  27.210  1.00  0.00     0.016 A 
ATOM     44  C   UNL A   1      39.923  26.811  29.177  1.00  0.00     0.010 A 
ATOM     45  C   UNL A   1      41.610  28.287  28.255  1.00  0.00     0.010 A 
ATOM     46  C   UNL A   1      40.669  27.999  29.254  1.00  0.00    -0.014 A 
BRANCH  46  47
ATOM     47  C   UNL A   1      40.543  28.889  30.435  1.00  0.00     0.031 A 
ATOM     48  C   UNL A   1      41.425  28.723  31.637  1.00  0.00     0.074 A 
ATOM     49  C   UNL A   1      39.595  29.846  30.418  1.00  0.00     0.049 A 
ATOM     50  N   UNL A   1      41.437  29.412  32.750  1.00  0.00    -0.248 NA
ATOM     51  C   UNL A   1      42.421  27.641  31.587  1.00  0.00     0.031 C 
ATOM     52  C   UNL A   1      38.668  30.088  29.310  1.00  0.00     0.029 A 
ATOM     53  N   UNL A   1      39.251  30.790  31.352  1.00  0.00    -0.354 N 
ATOM     54  C   UNL A   1      42.446  28.861  33.531  1.00  0.00     0.074 A 
ATOM     55  C   UNL A   1      42.992  27.747  32.781  1.00  0.00     0.031 C 
ATOM     56  C   UNL A   1      37.880  31.130  29.617  1.00  0.00     0.029 A 
ATOM     57  C   UNL A   1      38.215  31.602  30.957  1.00  0.00     0.049 A 
ATOM     58  H   UNL A   1      39.703  30.877  32.222  1.00  0.00     0.167 HD
ATOM     59  C   UNL A   1      42.883  29.260  34.750  1.00  0.00     0.037 A 
ATOM     60  C   UNL A   1      37.598  32.609  31.603  1.00  0.00     0.037 A 
ATOM     61  C   UNL A   1      42.319  30.361  35.496  1.00  0.00     0.049 A 
ATOM     62  C   UNL A   1      38.063  32.990  32.980  1.00  0.00     0.074 A 
ATOM     63  C   UNL A   1      42.707  30.851  36.731  1.00  0.00     0.029 A 
ATOM     64  N   UNL A   1      41.243  31.135  35.085  1.00  0.00    -0.354 N 
ATOM     65  N   UNL A   1      39.046  32.486  33.688  1.00  0.00    -0.248 NA
ATOM     66  C   UNL A   1      37.338  34.080  33.646  1.00  0.00     0.031 C 
ATOM     67  C   UNL A   1      41.834  31.884  37.091  1.00  0.00     0.029 A 
ATOM     68  C   UNL A   1      40.936  32.080  36.055  1.00  0.00     0.049 A 
ATOM     69  H   UNL A   1      40.766  31.030  34.230  1.00  0.00     0.167 HD
ATOM     70  C   UNL A   1      39.066  33.206  34.877  1.00  0.00     0.074 A 
ATOM     71  C   UNL A   1      38.017  34.202  34.778  1.00  0.00     0.031 C 
ATOM     72  C   UNL A   1      39.875  33.054  35.956  1.00  0.00     0.037 A 
BRANCH  59  73
ATOM     73  C   UNL A   1      44.030  28.502  35.367  1.00  0.00     0.058 A 
ATOM     74  C   UNL A   1      43.817  27.391  36.200  1.00  0.00     0.135 A 
ATOM     75  C   UNL A   1      45.359  28.850  35.074  1.00  0.00     0.135 A 
ATOM     76  F   UNL A   1      42.569  27.022  36.526  1.00  0.00    -0.206 F 
ATOM     77  C   UNL A   1      44.878  26.666  36.735  1.00  0.00     0.059 A 
ATOM     78  C   UNL A   1      46.435  28.122  35.574  1.00  0.00     0.059 A 
ATOM     79  F   UNL A   1      45.624  29.902  34.282  1.00  0.00    -0.206 F 
ATOM     80  C   UNL A   1      46.184  27.038  36.414  1.00  0.00     0.060 A 
BRANCH  80  81
ATOM     81  S   UNL A   1      47.551  26.079  37.101  1.00  0.00     0.124 S 
ATOM     82  O   UNL A   1      47.595  26.577  38.473  1.00  0.00    -0.237 OA
ATOM     83  O   UNL A   1      47.082  24.707  36.938  1.00  0.00    -0.237 OA
ATOM     84  O   UNL A   1      48.687  26.456  36.267  1.00  0.00    -0.744 OA
ENDBRANCH  80  81
ENDBRANCH  59  73
BRANCH  60  85
ATOM     85  C   UNL A   1      36.484  33.339  30.941  1.00  0.00     0.058 A 
ATOM     86  C   UNL A   1      35.160  33.173  31.371  1.00  0.00     0.135 A 
ATOM     87  C   UNL A   1      36.721  34.231  29.883  1.00  0.00     0.135 A 
ATOM     88  F   UNL A   1      34.881  32.325  32.373  1.00  0.00    -0.206 F 
ATOM     89  C   UNL A   1      34.108  33.858  30.771  1.00  0.00     0.059 A 
ATOM     90  C   UNL A   1      35.690  34.950  29.287  1.00  0.00     0.059 A 
ATOM     91  F   UNL A   1      37.972  34.435  29.442  1.00  0.00    -0.206 F 
ATOM     92  C   UNL A   1      34.385  34.751  29.735  1.00  0.00     0.060 A 
BRANCH  92  93
ATOM     93  S   UNL A   1      33.016  35.674  29.007  1.00  0.00     0.124 S 
ATOM     94  O   UNL A   1      32.446  34.690  28.094  1.00  0.00    -0.237 OA
ATOM     95  O   UNL A   1      32.210  35.998  30.181  1.00  0.00    -0.237 OA
ATOM     96  O   UNL A   1      33.675  36.814  28.375  1.00  0.00    -0.744 OA
ENDBRANCH  92  93
ENDBRANCH  60  85
BRANCH  72  97
ATOM     97  C   UNL A   1      39.655  33.991  37.117  1.00  0.00     0.058 A 
ATOM     98  C   UNL A   1      38.873  33.620  38.223  1.00  0.00     0.135 A 
ATOM     99  C   UNL A   1      40.241  35.268  37.132  1.00  0.00     0.135 A 
ATOM    100  F   UNL A   1      38.285  32.415  38.262  1.00  0.00    -0.206 F 
ATOM    101  C   UNL A   1      38.643  34.497  39.279  1.00  0.00     0.059 A 
ATOM    102  C   UNL A   1      40.053  36.148  38.193  1.00  0.00     0.059 A 
ATOM    103  F   UNL A   1      41.010  35.672  36.107  1.00  0.00    -0.206 F 
ATOM    104  C   UNL A   1      39.235  35.761  39.254  1.00  0.00     0.060 A 
BRANCH 104 105
ATOM    105  S   UNL A   1      38.919  36.888  40.628  1.00  0.00     0.124 S 
ATOM    106  O   UNL A   1      40.275  37.240  41.038  1.00  0.00    -0.237 OA
ATOM    107  O   UNL A   1      38.154  37.952  39.987  1.00  0.00    -0.237 OA
ATOM    108  O   UNL A   1      38.170  36.068  41.576  1.00  0.00    -0.744 OA
ENDBRANCH 104 105
ENDBRANCH  72  97
ENDBRANCH  46  47
ENDBRANCH  39  41
ENDBRANCH  38  39
ENDBRANCH  37  38
ENDBRANCH   1  37
TORSDOF 18
ENDMDL
MODEL 2
REMARK VINA RESULT:     -12.4      0.507      7.744
REMARK SMILES C[C@]1(C(=O)OCCOCCOC(=O)c2ccc(-c3c4nc(c(-c5c(F)cc(S(=O)(=O)[O-])cc5F)c5ccc([nH]5)c(-c5c(F)cc(S(=O)(=O)[O-])cc5F)c5nc(c(-c6c(F)cc(S(=O)(=O)[O-])cc6F)c6ccc3[nH]6)C=C5)C=C4)cc2)[NH2+]C2(C(=O)c3ccccc3C2=O)[C@@H]2C(=O)N(c3ccccc3)C(=O)[C@H]21
REMARK SMILES IDX 9 1 8 2 7 3 6 4 5 5 3 6 4 7 2 8 1 9 80 10 104 11 81 12 92 15
REMARK SMILES IDX 102 16 82 17 90 18 93 19 95 20 103 21 83 22 84 23 89 24
REMARK SMILES IDX 91 25 94 26 85 27 88 28 86 29 87 30 96 31 97 32 101 33 98 34
REMARK SMILES IDX 100 35 99 36 10 37 11 38 12 39 13 40 14 41 15 42 79 43 16 44
REMARK SMILES IDX 78 45 17 46 18 47 19 48 72 49 20 50 77 51 71 52 73 53 21 54
REMARK SMILES IDX 76 55 70 56 69 57 22 59 56 60 35 61 55 62 36 63 39 64 54 65
REMARK SMILES IDX 74 66 37 67 38 68 53 70 75 71 40 72 23 73 24 74 33 75 25 76
REMARK SMILES IDX 26 77 32 78 34 79 27 80 28 81 29 82 30 83 31 84 57 85 58 86
REMARK SMILES IDX 67 87 59 88 60 89 66 90 68 91 61 92 62 93 63 94 64 95 65 96
REMARK SMILES IDX 41 97 42 98 51 99 43 100 44 101 50 102 52 103 45 104 46 105
REMARK SMILES IDX 47 106 48 107 49 108
REMARK H PARENT 80 13 80 14 73 58 39 69
REMARK Flexibility Score: inf
ROOT
ATOM      1  C   UNL A   1      41.012  22.025  27.302  1.00  0.00     0.202 C 
ENDROOT
BRANCH   1   2
ATOM      2  O   UNL A   1      39.653  21.733  26.976  1.00  0.00    -0.374 OA
BRANCH   2   3
ATOM      3  C   UNL A   1      39.391  20.985  25.793  1.00  0.00     0.202 C 
BRANCH   3   4
ATOM      4  C   UNL A   1      38.073  21.241  25.060  1.00  0.00     0.261 C 
BRANCH   4   5
ATOM      5  O   UNL A   1      37.710  22.627  25.053  1.00  0.00    -0.459 OA
BRANCH   5   6
ATOM      6  C   UNL A   1      36.619  22.952  24.305  1.00  0.00     0.368 C 
ATOM      7  O   UNL A   1      36.496  22.676  23.117  1.00  0.00    -0.245 OA
BRANCH   6   8
ATOM      8  C   UNL A   1      35.550  23.732  25.128  1.00  0.00     0.205 C 
ATOM      9  C   UNL A   1      36.229  24.234  26.407  1.00  0.00     0.093 C 
ATOM     10  N   UNL A   1      34.938  24.938  24.407  1.00  0.00    -0.313 N 
ATOM     11  C   UNL A   1      34.344  22.867  25.373  1.00  0.00     0.172 C 
ATOM     12  C   UNL A   1      33.486  24.596  24.076  1.00  0.00     0.237 C 
ATOM     13  H   UNL A   1      35.455  25.127  23.549  1.00  0.00     0.348 HD
ATOM     14  H   UNL A   1      34.983  25.768  24.999  1.00  0.00     0.348 HD
ATOM     15  C   UNL A   1      33.534  23.111  24.111  1.00  0.00     0.177 C 
ATOM     16  C   UNL A   1      34.362  21.382  25.408  1.00  0.00     0.244 C 
ATOM     17  C   UNL A   1      32.513  25.284  25.033  1.00  0.00     0.232 C 
ATOM     18  C   UNL A   1      33.097  25.180  22.723  1.00  0.00     0.232 C 
ATOM     19  C   UNL A   1      32.485  22.075  24.262  1.00  0.00     0.245 C 
ATOM     20  N   UNL A   1      33.180  20.988  24.792  1.00  0.00    -0.250 N 
ATOM     21  O   UNL A   1      35.250  20.727  25.927  1.00  0.00    -0.273 OA
ATOM     22  O   UNL A   1      32.497  25.212  26.250  1.00  0.00    -0.286 OA
ATOM     23  C   UNL A   1      31.645  26.172  24.259  1.00  0.00     0.036 A 
ATOM     24  C   UNL A   1      32.004  26.134  22.919  1.00  0.00     0.036 A 
ATOM     25  O   UNL A   1      33.583  24.932  21.631  1.00  0.00    -0.286 OA
ATOM     26  O   UNL A   1      31.336  22.192  23.878  1.00  0.00    -0.273 OA
ATOM     27  C   UNL A   1      30.633  26.998  24.718  1.00  0.00     0.013 A 
ATOM     28  C   UNL A   1      31.374  26.931  21.978  1.00  0.00     0.013 A 
ATOM     29  C   UNL A   1      29.978  27.802  23.780  1.00  0.00     0.001 A 
ATOM     30  C   UNL A   1      30.350  27.774  22.423  1.00  0.00     0.001 A 
BRANCH  20  31
ATOM     31  C   UNL A   1      32.876  19.631  24.566  1.00  0.00     0.052 A 
ATOM     32  C   UNL A   1      32.891  18.717  25.629  1.00  0.00     0.027 A 
ATOM     33  C   UNL A   1      32.715  19.157  23.257  1.00  0.00     0.027 A 
ATOM     34  C   UNL A   1      32.754  17.351  25.392  1.00  0.00     0.002 A 
ATOM     35  C   UNL A   1      32.626  17.784  23.021  1.00  0.00     0.002 A 
ATOM     36  C   UNL A   1      32.640  16.885  24.086  1.00  0.00     0.000 A 
ENDBRANCH  20  31
ENDBRANCH   6   8
ENDBRANCH   5   6
ENDBRANCH   4   5
ENDBRANCH   3   4
ENDBRANCH   2   3
ENDBRANCH   1   2
BRANCH   1  37
ATOM     37  C   UNL A   1      41.652  23.282  26.703  1.00  0.00     0.261 C 
BRANCH  37  38
ATOM     38  O   UNL A   1      40.706  24.331  26.448  1.00  0.00    -0.460 OA
BRANCH  38  39
ATOM     39  C   UNL A   1      41.239  25.551  26.194  1.00  0.00     0.338 C 
ATOM     40  O   UNL A   1      41.577  25.993  25.110  1.00  0.00    -0.246 OA
BRANCH  39  41
ATOM     41  C   UNL A   1      41.180  26.376  27.418  1.00  0.00     0.060 A 
ATOM     42  C   UNL A   1      42.094  27.406  27.636  1.00  0.00     0.016 A 
ATOM     43  C   UNL A   1      40.164  26.120  28.346  1.00  0.00     0.016 A 
ATOM     44  C   UNL A   1      41.990  28.183  28.793  1.00  0.00     0.010 A 
ATOM     45  C   UNL A   1      40.057  26.902  29.497  1.00  0.00     0.010 A 
ATOM     46  C   UNL A   1      40.962  27.949  29.722  1.00  0.00    -0.014 A 
BRANCH  46  47
ATOM     47  C   UNL A   1      40.768  28.865  30.873  1.00  0.00     0.031 A 
ATOM     48  C   UNL A   1      39.730  29.948  30.845  1.00  0.00     0.074 A 
ATOM     49  C   UNL A   1      41.568  28.722  31.948  1.00  0.00     0.049 A 
ATOM     50  N   UNL A   1      39.440  30.834  31.764  1.00  0.00    -0.248 NA
ATOM     51  C   UNL A   1      38.913  30.054  29.627  1.00  0.00     0.031 C 
ATOM     52  C   UNL A   1      42.624  27.715  32.079  1.00  0.00     0.029 A 
ATOM     53  N   UNL A   1      41.620  29.414  33.131  1.00  0.00    -0.354 N 
ATOM     54  C   UNL A   1      38.400  31.597  31.247  1.00  0.00     0.074 A 
ATOM     55  C   UNL A   1      38.143  31.097  29.911  1.00  0.00     0.031 C 
ATOM     56  C   UNL A   1      43.200  27.838  33.285  1.00  0.00     0.029 A 
ATOM     57  C   UNL A   1      42.587  28.957  33.994  1.00  0.00     0.049 A 
ATOM     58  H   UNL A   1      41.022  30.167  33.341  1.00  0.00     0.167 HD
ATOM     59  C   UNL A   1      37.717  32.605  31.840  1.00  0.00     0.037 A 
ATOM     60  C   UNL A   1      42.946  29.393  35.216  1.00  0.00     0.037 A 
ATOM     61  C   UNL A   1      37.994  33.105  33.167  1.00  0.00     0.049 A 
ATOM     62  C   UNL A   1      42.211  30.554  35.824  1.00  0.00     0.074 A 
ATOM     63  C   UNL A   1      37.344  34.112  33.860  1.00  0.00     0.029 A 
ATOM     64  N   UNL A   1      39.009  32.647  33.997  1.00  0.00    -0.354 N 
ATOM     65  N   UNL A   1      41.202  31.238  35.339  1.00  0.00    -0.248 NA
ATOM     66  C   UNL A   1      42.662  31.001  37.149  1.00  0.00     0.031 C 
ATOM     67  C   UNL A   1      37.997  34.299  35.083  1.00  0.00     0.029 A 
ATOM     68  C   UNL A   1      39.019  33.370  35.181  1.00  0.00     0.049 A 
ATOM     69  H   UNL A   1      39.631  31.917  33.777  1.00  0.00     0.167 HD
ATOM     70  C   UNL A   1      40.888  32.188  36.305  1.00  0.00     0.074 A 
ATOM     71  C   UNL A   1      41.793  31.967  37.415  1.00  0.00     0.031 C 
ATOM     72  C   UNL A   1      39.939  33.158  36.274  1.00  0.00     0.037 A 
BRANCH  59  73
ATOM     73  C   UNL A   1      36.598  33.247  31.062  1.00  0.00     0.058 A 
ATOM     74  C   UNL A   1      35.251  33.046  31.407  1.00  0.00     0.135 A 
ATOM     75  C   UNL A   1      36.873  34.122  29.998  1.00  0.00     0.135 A 
ATOM     76  F   UNL A   1      34.927  32.209  32.405  1.00  0.00    -0.206 F 
ATOM     77  C   UNL A   1      34.219  33.672  30.714  1.00  0.00     0.059 A 
ATOM     78  C   UNL A   1      35.859  34.781  29.309  1.00  0.00     0.059 A 
ATOM     79  F   UNL A   1      38.142  34.353  29.624  1.00  0.00    -0.206 F 
ATOM     80  C   UNL A   1      34.533  34.541  29.668  1.00  0.00     0.060 A 
BRANCH  80  81
ATOM     81  S   UNL A   1      33.186  35.360  28.788  1.00  0.00     0.124 S 
ATOM     82  O   UNL A   1      33.917  36.320  27.966  1.00  0.00    -0.237 OA
ATOM     83  O   UNL A   1      32.564  34.252  28.070  1.00  0.00    -0.237 OA
ATOM     84  O   UNL A   1      32.383  35.943  29.858  1.00  0.00    -0.744 OA
ENDBRANCH  80  81
ENDBRANCH  59  73
BRANCH  60  85
ATOM     85  C   UNL A   1      44.044  28.711  35.951  1.00  0.00     0.058 A 
ATOM     86  C   UNL A   1      43.773  27.650  36.826  1.00  0.00     0.135 A 
ATOM     87  C   UNL A   1      45.386  29.089  35.778  1.00  0.00     0.135 A 
ATOM     88  F   UNL A   1      42.506  27.257  37.033  1.00  0.00    -0.206 F 
ATOM     89  C   UNL A   1      44.789  26.993  37.512  1.00  0.00     0.059 A 
ATOM     90  C   UNL A   1      46.422  28.428  36.428  1.00  0.00     0.059 A 
ATOM     91  F   UNL A   1      45.700  30.090  34.941  1.00  0.00    -0.206 F 
ATOM     92  C   UNL A   1      46.112  27.384  37.299  1.00  0.00     0.060 A 
BRANCH  92  93
ATOM     93  S   UNL A   1      47.423  26.482  38.152  1.00  0.00     0.124 S 
ATOM     94  O   UNL A   1      46.823  26.254  39.461  1.00  0.00    -0.237 OA
ATOM     95  O   UNL A   1      47.579  25.302  37.306  1.00  0.00    -0.237 OA
ATOM     96  O   UNL A   1      48.546  27.415  38.126  1.00  0.00    -0.744 OA
ENDBRANCH  92  93
ENDBRANCH  60  85
BRANCH  72  97
ATOM     97  C   UNL A   1      39.835  34.055  37.481  1.00  0.00     0.058 A 
ATOM     98  C   UNL A   1      40.589  35.234  37.589  1.00  0.00     0.135 A 
ATOM     99  C   UNL A   1      38.962  33.740  38.536  1.00  0.00     0.135 A 
ATOM    100  F   UNL A   1      41.443  35.583  36.614  1.00  0.00    -0.206 F 
ATOM    101  C   UNL A   1      40.517  36.044  38.719  1.00  0.00     0.059 A 
ATOM    102  C   UNL A   1      38.847  34.554  39.660  1.00  0.00     0.059 A 
ATOM    103  F   UNL A   1      38.205  32.632  38.482  1.00  0.00    -0.206 F 
ATOM    104  C   UNL A   1      39.645  35.695  39.751  1.00  0.00     0.060 A 
BRANCH 104 105
ATOM    105  S   UNL A   1      39.570  36.752  41.211  1.00  0.00     0.124 S 
ATOM    106  O   UNL A   1      40.983  36.893  41.546  1.00  0.00    -0.237 OA
ATOM    107  O   UNL A   1      38.918  37.951  40.694  1.00  0.00    -0.237 OA
ATOM    108  O   UNL A   1      38.776  35.972  42.157  1.00  0.00    -0.744 OA
ENDBRANCH 104 105
ENDBRANCH  72  97
ENDBRANCH  46  47
ENDBRANCH  39  41
ENDBRANCH  38  39
ENDBRANCH  37  38
ENDBRANCH   1  37
TORSDOF 18
ENDMDL
MODEL 3
REMARK VINA RESULT:     -12.3      6.117     11.971
REMARK SMILES C[C@]1(C(=O)OCCOCCOC(=O)c2ccc(-c3c4nc(c(-c5c(F)cc(S(=O)(=O)[O-])cc5F)c5ccc([nH]5)c(-c5c(F)cc(S(=O)(=O)[O-])cc5F)c5nc(c(-c6c(F)cc(S(=O)(=O)[O-])cc6F)c6ccc3[nH]6)C=C5)C=C4)cc2)[NH2+]C2(C(=O)c3ccccc3C2=O)[C@@H]2C(=O)N(c3ccccc3)C(=O)[C@H]21
REMARK SMILES IDX 9 1 8 2 7 3 6 4 5 5 3 6 4 7 2 8 1 9 80 10 104 11 81 12 92 15
REMARK SMILES IDX 102 16 82 17 90 18 93 19 95 20 103 21 83 22 84 23 89 24
REMARK SMILES IDX 91 25 94 26 85 27 88 28 86 29 87 30 96 31 97 32 101 33 98 34
REMARK SMILES IDX 100 35 99 36 10 37 11 38 12 39 13 40 14 41 15 42 79 43 16 44
REMARK SMILES IDX 78 45 17 46 18 47 19 48 72 49 20 50 77 51 71 52 73 53 21 54
REMARK SMILES IDX 76 55 70 56 69 57 22 59 56 60 35 61 55 62 36 63 39 64 54 65
REMARK SMILES IDX 74 66 37 67 38 68 53 70 75 71 40 72 23 73 24 74 33 75 25 76
REMARK SMILES IDX 26 77 32 78 34 79 27 80 28 81 29 82 30 83 31 84 57 85 58 86
REMARK SMILES IDX 67 87 59 88 60 89 66 90 68 91 61 92 62 93 63 94 64 95 65 96
REMARK SMILES IDX 41 97 42 98 51 99 43 100 44 101 50 102 52 103 45 104 46 105
REMARK SMILES IDX 47 106 48 107 49 108
REMARK H PARENT 80 13 80 14 73 58 39 69
REMARK Flexibility Score: inf
ROOT
ATOM      1  C   UNL A   1      35.494  33.516  28.456  1.00  0.00     0.202 C 
ENDROOT
BRANCH   1   2
ATOM      2  O   UNL A   1      35.024  32.475  27.600  1.00  0.00    -0.374 OA
BRANCH   2   3
ATOM      3  C   UNL A   1      33.836  31.782  27.973  1.00  0.00     0.202 C 
BRANCH   3   4
ATOM      4  C   UNL A   1      33.740  30.294  27.636  1.00  0.00     0.261 C 
BRANCH   4   5
ATOM      5  O   UNL A   1      32.445  29.924  27.145  1.00  0.00    -0.459 OA
BRANCH   5   6
ATOM      6  C   UNL A   1      32.137  28.600  27.218  1.00  0.00     0.368 C 
ATOM      7  O   UNL A   1      31.268  28.137  27.948  1.00  0.00    -0.245 OA
BRANCH   6   8
ATOM      8  C   UNL A   1      33.030  27.734  26.277  1.00  0.00     0.205 C 
ATOM      9  C   UNL A   1      34.465  28.258  26.395  1.00  0.00     0.093 C 
ATOM     10  N   UNL A   1      33.038  26.237  26.599  1.00  0.00    -0.313 N 
ATOM     11  C   UNL A   1      32.483  27.752  24.876  1.00  0.00     0.172 C 
ATOM     12  C   UNL A   1      32.291  25.514  25.478  1.00  0.00     0.237 C 
ATOM     13  H   UNL A   1      32.571  26.071  27.490  1.00  0.00     0.348 HD
ATOM     14  H   UNL A   1      33.996  25.892  26.669  1.00  0.00     0.348 HD
ATOM     15  C   UNL A   1      31.468  26.623  24.931  1.00  0.00     0.177 C 
ATOM     16  C   UNL A   1      31.653  28.844  24.306  1.00  0.00     0.244 C 
ATOM     17  C   UNL A   1      33.255  24.821  24.514  1.00  0.00     0.232 C 
ATOM     18  C   UNL A   1      31.484  24.350  26.041  1.00  0.00     0.232 C 
ATOM     19  C   UNL A   1      30.780  26.818  23.633  1.00  0.00     0.245 C 
ATOM     20  N   UNL A   1      30.705  28.206  23.514  1.00  0.00    -0.250 N 
ATOM     21  O   UNL A   1      31.859  30.028  24.509  1.00  0.00    -0.273 OA
ATOM     22  O   UNL A   1      34.173  25.331  23.892  1.00  0.00    -0.286 OA
ATOM     23  C   UNL A   1      32.988  23.384  24.538  1.00  0.00     0.036 A 
ATOM     24  C   UNL A   1      31.977  23.106  25.447  1.00  0.00     0.036 A 
ATOM     25  O   UNL A   1      30.574  24.391  26.852  1.00  0.00    -0.286 OA
ATOM     26  O   UNL A   1      30.317  25.922  22.954  1.00  0.00    -0.273 OA
ATOM     27  C   UNL A   1      33.630  22.379  23.834  1.00  0.00     0.013 A 
ATOM     28  C   UNL A   1      31.571  21.807  25.704  1.00  0.00     0.013 A 
ATOM     29  C   UNL A   1      33.226  21.062  24.071  1.00  0.00     0.001 A 
ATOM     30  C   UNL A   1      32.210  20.777  25.003  1.00  0.00     0.001 A 
BRANCH  20  31
ATOM     31  C   UNL A   1      29.679  28.920  22.863  1.00  0.00     0.052 A 
ATOM     32  C   UNL A   1      29.993  29.861  21.872  1.00  0.00     0.027 A 
ATOM     33  C   UNL A   1      28.357  28.812  23.311  1.00  0.00     0.027 A 
ATOM     34  C   UNL A   1      29.004  30.686  21.340  1.00  0.00     0.002 A 
ATOM     35  C   UNL A   1      27.379  29.673  22.809  1.00  0.00     0.002 A 
ATOM     36  C   UNL A   1      27.703  30.603  21.822  1.00  0.00     0.000 A 
ENDBRANCH  20  31
ENDBRANCH   6   8
ENDBRANCH   5   6
ENDBRANCH   4   5
ENDBRANCH   3   4
ENDBRANCH   2   3
ENDBRANCH   1   2
BRANCH   1  37
ATOM     37  C   UNL A   1      35.495  33.272  29.969  1.00  0.00     0.261 C 
BRANCH  37  38
ATOM     38  O   UNL A   1      36.720  32.695  30.447  1.00  0.00    -0.460 OA
BRANCH  38  39
ATOM     39  C   UNL A   1      36.702  31.352  30.631  1.00  0.00     0.338 C 
ATOM     40  O   UNL A   1      35.750  30.670  30.970  1.00  0.00    -0.246 OA
BRANCH  39  41
ATOM     41  C   UNL A   1      37.982  30.777  30.170  1.00  0.00     0.060 A 
ATOM     42  C   UNL A   1      38.224  30.552  28.815  1.00  0.00     0.016 A 
ATOM     43  C   UNL A   1      38.966  30.489  31.123  1.00  0.00     0.016 A 
ATOM     44  C   UNL A   1      39.457  30.033  28.414  1.00  0.00     0.010 A 
ATOM     45  C   UNL A   1      40.201  29.978  30.720  1.00  0.00     0.010 A 
ATOM     46  C   UNL A   1      40.460  29.759  29.360  1.00  0.00    -0.014 A 
BRANCH  46  47
ATOM     47  C   UNL A   1      41.815  29.345  28.919  1.00  0.00     0.031 A 
ATOM     48  C   UNL A   1      42.953  30.322  28.869  1.00  0.00     0.074 A 
ATOM     49  C   UNL A   1      42.002  28.068  28.536  1.00  0.00     0.049 A 
ATOM     50  N   UNL A   1      44.193  30.121  28.501  1.00  0.00    -0.248 NA
ATOM     51  C   UNL A   1      42.663  31.703  29.282  1.00  0.00     0.031 C 
ATOM     52  C   UNL A   1      40.963  27.035  28.526  1.00  0.00     0.029 A 
ATOM     53  N   UNL A   1      43.122  27.417  28.084  1.00  0.00    -0.354 N 
ATOM     54  C   UNL A   1      44.839  31.343  28.647  1.00  0.00     0.074 A 
ATOM     55  C   UNL A   1      43.838  32.292  29.094  1.00  0.00     0.031 C 
ATOM     56  C   UNL A   1      41.501  25.876  28.116  1.00  0.00     0.029 A 
ATOM     57  C   UNL A   1      42.909  26.091  27.794  1.00  0.00     0.049 A 
ATOM     58  H   UNL A   1      43.996  27.858  27.978  1.00  0.00     0.167 HD
ATOM     59  C   UNL A   1      46.146  31.637  28.444  1.00  0.00     0.037 A 
ATOM     60  C   UNL A   1      43.748  25.154  27.314  1.00  0.00     0.037 A 
ATOM     61  C   UNL A   1      47.131  30.686  27.983  1.00  0.00     0.049 A 
ATOM     62  C   UNL A   1      45.179  25.524  27.039  1.00  0.00     0.074 A 
ATOM     63  C   UNL A   1      48.484  30.887  27.765  1.00  0.00     0.029 A 
ATOM     64  N   UNL A   1      46.871  29.362  27.657  1.00  0.00    -0.354 N 
ATOM     65  N   UNL A   1      45.784  26.674  27.223  1.00  0.00    -0.248 NA
ATOM     66  C   UNL A   1      46.042  24.468  26.495  1.00  0.00     0.031 C 
ATOM     67  C   UNL A   1      49.030  29.702  27.258  1.00  0.00     0.029 A 
ATOM     68  C   UNL A   1      48.032  28.743  27.214  1.00  0.00     0.049 A 
ATOM     69  H   UNL A   1      45.992  28.925  27.730  1.00  0.00     0.167 HD
ATOM     70  C   UNL A   1      47.103  26.476  26.829  1.00  0.00     0.074 A 
ATOM     71  C   UNL A   1      47.213  25.087  26.429  1.00  0.00     0.031 C 
ATOM     72  C   UNL A   1      48.128  27.364  26.796  1.00  0.00     0.037 A 
BRANCH  59  73
ATOM     73  C   UNL A   1      46.598  33.048  28.715  1.00  0.00     0.058 A 
ATOM     74  C   UNL A   1      47.084  33.437  29.975  1.00  0.00     0.135 A 
ATOM     75  C   UNL A   1      46.605  34.009  27.690  1.00  0.00     0.135 A 
ATOM     76  F   UNL A   1      47.086  32.567  30.996  1.00  0.00    -0.206 F 
ATOM     77  C   UNL A   1      47.540  34.730  30.213  1.00  0.00     0.059 A 
ATOM     78  C   UNL A   1      47.084  35.300  27.897  1.00  0.00     0.059 A 
ATOM     79  F   UNL A   1      46.154  33.694  26.465  1.00  0.00    -0.206 F 
ATOM     80  C   UNL A   1      47.539  35.655  29.167  1.00  0.00     0.060 A 
BRANCH  80  81
ATOM     81  S   UNL A   1      48.150  37.323  29.484  1.00  0.00     0.124 S 
ATOM     82  O   UNL A   1      47.935  37.443  30.924  1.00  0.00    -0.237 OA
ATOM     83  O   UNL A   1      49.541  37.234  29.054  1.00  0.00    -0.237 OA
ATOM     84  O   UNL A   1      47.291  38.165  28.657  1.00  0.00    -0.744 OA
ENDBRANCH  80  81
ENDBRANCH  59  73
BRANCH  60  85
ATOM     85  C   UNL A   1      43.257  23.769  27.083  1.00  0.00     0.058 A 
ATOM     86  C   UNL A   1      43.013  23.300  25.785  1.00  0.00     0.135 A 
ATOM     87  C   UNL A   1      43.041  22.882  28.150  1.00  0.00     0.135 A 
ATOM     88  F   UNL A   1      43.195  24.112  24.732  1.00  0.00    -0.206 F 
ATOM     89  C   UNL A   1      42.565  22.004  25.551  1.00  0.00     0.059 A 
ATOM     90  C   UNL A   1      42.623  21.573  27.940  1.00  0.00     0.059 A 
ATOM     91  F   UNL A   1      43.272  23.279  29.412  1.00  0.00    -0.206 F 
ATOM     92  C   UNL A   1      42.381  21.145  26.636  1.00  0.00     0.060 A 
BRANCH  92  93
ATOM     93  S   UNL A   1      41.856  19.449  26.310  1.00  0.00     0.124 S 
ATOM     94  O   UNL A   1      40.420  19.616  26.116  1.00  0.00    -0.237 OA
ATOM     95  O   UNL A   1      42.627  19.117  25.115  1.00  0.00    -0.237 OA
ATOM     96  O   UNL A   1      42.251  18.735  27.520  1.00  0.00    -0.744 OA
ENDBRANCH  92  93
ENDBRANCH  60  85
BRANCH  72  97
ATOM     97  C   UNL A   1      49.462  26.855  26.311  1.00  0.00     0.058 A 
ATOM     98  C   UNL A   1      50.340  26.166  27.162  1.00  0.00     0.135 A 
ATOM     99  C   UNL A   1      49.862  27.046  24.977  1.00  0.00     0.135 A 
ATOM    100  F   UNL A   1      50.013  25.959  28.447  1.00  0.00    -0.206 F 
ATOM    101  C   UNL A   1      51.585  25.726  26.723  1.00  0.00     0.059 A 
ATOM    102  C   UNL A   1      51.087  26.583  24.507  1.00  0.00     0.059 A 
ATOM    103  F   UNL A   1      49.057  27.686  24.114  1.00  0.00    -0.206 F 
ATOM    104  C   UNL A   1      51.951  25.942  25.393  1.00  0.00     0.060 A 
BRANCH 104 105
ATOM    105  S   UNL A   1      53.573  25.371  24.843  1.00  0.00     0.124 S 
ATOM    106  O   UNL A   1      53.514  23.952  25.175  1.00  0.00    -0.237 OA
ATOM    107  O   UNL A   1      53.549  25.691  23.419  1.00  0.00    -0.237 OA
ATOM    108  O   UNL A   1      54.503  26.164  25.642  1.00  0.00    -0.744 OA
ENDBRANCH 104 105
ENDBRANCH  72  97
ENDBRANCH  46  47
ENDBRANCH  39  41
ENDBRANCH  38  39
ENDBRANCH  37  38
ENDBRANCH   1  37
TORSDOF 18
ENDMDL
