MODEL 1
REMARK VINA RESULT:     -10.3      0.000      0.000
REMARK SMILES COc1cc(/C=C2/SC(=S)N(c3ccc(C)cc3C)C2=O)ccc1O[C@@H](C)C(=O)OCCOCCOC(=O)c1ccc(-c2c3nc(c(-c4c(F)cc(S(=O)(=O)[O-])cc4F)c4ccc([nH]4)c(-c4c(F)cc(S(=O)(=O)[O-])cc4F)c4nc(c(-c5c(F)cc(S(=O)(=O)[O-])cc5F)c5ccc2[nH]5)C=C4)C=C3)cc1
REMARK SMILES IDX 32 1 31 2 30 3 28 4 29 5 26 6 27 7 25 8 24 9 3 10 4 11 5 12
REMARK SMILES IDX 23 13 22 14 2 15 1 16 6 17 7 18 8 19 20 20 9 21 11 22 21 23
REMARK SMILES IDX 10 24 12 25 13 26 18 27 14 28 17 29 19 30 15 31 16 32 33 33
REMARK SMILES IDX 34 34 35 35 36 36 37 37 38 38 39 39 40 40 104 41 41 42
REMARK SMILES IDX 103 43 42 44 43 45 44 46 97 47 45 48 102 49 96 50 98 51
REMARK SMILES IDX 46 52 101 53 95 54 94 55 47 57 81 58 60 59 80 60 61 61 64 62
REMARK SMILES IDX 79 63 99 64 62 65 63 66 78 68 100 69 65 70 48 71 49 72 58 73
REMARK SMILES IDX 50 74 51 75 57 76 59 77 52 78 53 79 54 80 55 81 56 82 82 83
REMARK SMILES IDX 83 84 92 85 84 86 85 87 91 88 93 89 86 90 87 91 88 92 89 93
REMARK SMILES IDX 90 94 66 95 67 96 76 97 68 98 69 99 75 100 77 101 70 102
REMARK SMILES IDX 71 103 72 104 73 105 74 106
REMARK H PARENT 98 56 64 67
REMARK Flexibility Score: inf
ROOT
ATOM      1  C   UNL A   1      35.686  22.931  25.581  1.00  0.00     0.202 C 
ENDROOT
BRANCH   1   2
ATOM      2  C   UNL A   1      34.293  22.627  26.133  1.00  0.00     0.261 C 
BRANCH   2   3
ATOM      3  O   UNL A   1      33.547  23.842  26.221  1.00  0.00    -0.461 OA
BRANCH   3   4
ATOM      4  C   UNL A   1      32.344  23.763  26.845  1.00  0.00     0.347 C 
ATOM      5  O   UNL A   1      32.094  23.008  27.779  1.00  0.00    -0.248 OA
BRANCH   4   6
ATOM      6  C   UNL A   1      31.395  24.867  26.341  1.00  0.00     0.279 C 
ATOM      7  C   UNL A   1      29.946  24.405  26.210  1.00  0.00     0.066 C 
BRANCH   6   8
ATOM      8  O   UNL A   1      31.720  25.783  25.315  1.00  0.00    -0.475 OA
BRANCH   8   9
ATOM      9  C   UNL A   1      31.974  27.107  25.502  1.00  0.00     0.162 A 
ATOM     10  C   UNL A   1      32.707  27.999  24.717  1.00  0.00     0.161 A 
ATOM     11  C   UNL A   1      33.075  29.259  25.239  1.00  0.00     0.058 A 
ATOM     12  C   UNL A   1      32.662  29.662  26.520  1.00  0.00    -0.020 A 
ATOM     13  C   UNL A   1      31.483  27.562  26.732  1.00  0.00     0.051 A 
ATOM     14  C   UNL A   1      31.790  28.832  27.220  1.00  0.00     0.012 A 
BRANCH  10  15
ATOM     15  O   UNL A   1      33.238  27.631  23.514  1.00  0.00    -0.493 OA
ATOM     16  C   UNL A   1      33.666  28.742  22.727  1.00  0.00     0.278 C 
ENDBRANCH  10  15
BRANCH  12  17
ATOM     17  C   UNL A   1      33.164  30.909  27.127  1.00  0.00     0.029 C 
ATOM     18  C   UNL A   1      34.320  31.068  27.802  1.00  0.00     0.081 C 
ATOM     19  S   UNL A   1      34.856  32.609  28.371  1.00  0.00    -0.054 SA
ATOM     20  C   UNL A   1      35.385  30.053  28.086  1.00  0.00     0.270 C 
ATOM     21  C   UNL A   1      36.499  32.041  28.704  1.00  0.00     0.152 C 
ATOM     22  N   UNL A   1      36.551  30.668  28.535  1.00  0.00    -0.261 N 
ATOM     23  O   UNL A   1      35.224  28.846  27.942  1.00  0.00    -0.268 OA
ATOM     24  S   UNL A   1      37.722  33.115  29.069  1.00  0.00    -0.051 S 
BRANCH  22  25
ATOM     25  C   UNL A   1      37.717  29.858  28.713  1.00  0.00     0.054 A 
ATOM     26  C   UNL A   1      38.528  29.629  27.587  1.00  0.00     0.027 A 
ATOM     27  C   UNL A   1      38.035  29.200  29.915  1.00  0.00    -0.027 A 
ATOM     28  C   UNL A   1      39.631  28.776  27.632  1.00  0.00     0.005 A 
ATOM     29  C   UNL A   1      39.167  28.354  29.951  1.00  0.00     0.009 A 
ATOM     30  C   UNL A   1      37.218  29.295  31.173  1.00  0.00     0.046 C 
ATOM     31  C   UNL A   1      39.957  28.125  28.818  1.00  0.00    -0.051 A 
ATOM     32  C   UNL A   1      41.106  27.163  28.846  1.00  0.00     0.044 C 
ENDBRANCH  22  25
ENDBRANCH  12  17
ENDBRANCH   8   9
ENDBRANCH   6   8
ENDBRANCH   4   6
ENDBRANCH   3   4
ENDBRANCH   2   3
ENDBRANCH   1   2
BRANCH   1  33
ATOM     33  O   UNL A   1      36.718  22.010  25.945  1.00  0.00    -0.374 OA
BRANCH  33  34
ATOM     34  C   UNL A   1      37.266  21.174  24.923  1.00  0.00     0.202 C 
BRANCH  34  35
ATOM     35  C   UNL A   1      38.493  20.322  25.272  1.00  0.00     0.261 C 
BRANCH  35  36
ATOM     36  O   UNL A   1      39.518  21.016  25.997  1.00  0.00    -0.460 OA
BRANCH  36  37
ATOM     37  C   UNL A   1      40.740  20.436  25.951  1.00  0.00     0.338 C 
ATOM     38  O   UNL A   1      40.978  19.240  25.817  1.00  0.00    -0.246 OA
BRANCH  37  39
ATOM     39  C   UNL A   1      41.818  21.444  26.032  1.00  0.00     0.060 A 
ATOM     40  C   UNL A   1      43.117  21.020  26.339  1.00  0.00     0.016 A 
ATOM     41  C   UNL A   1      41.536  22.806  25.941  1.00  0.00     0.016 A 
ATOM     42  C   UNL A   1      44.111  21.954  26.648  1.00  0.00     0.010 A 
ATOM     43  C   UNL A   1      42.520  23.735  26.277  1.00  0.00     0.010 A 
ATOM     44  C   UNL A   1      43.796  23.317  26.677  1.00  0.00    -0.014 A 
BRANCH  44  45
ATOM     45  C   UNL A   1      44.748  24.325  27.196  1.00  0.00     0.031 A 
ATOM     46  C   UNL A   1      44.580  24.861  28.594  1.00  0.00     0.074 A 
ATOM     47  C   UNL A   1      45.685  24.837  26.381  1.00  0.00     0.049 A 
ATOM     48  N   UNL A   1      45.263  25.791  29.210  1.00  0.00    -0.248 NA
ATOM     49  C   UNL A   1      43.485  24.286  29.393  1.00  0.00     0.031 C 
ATOM     50  C   UNL A   1      45.910  24.427  24.995  1.00  0.00     0.029 A 
ATOM     51  N   UNL A   1      46.608  25.828  26.595  1.00  0.00    -0.354 N 
ATOM     52  C   UNL A   1      44.675  25.929  30.464  1.00  0.00     0.074 A 
ATOM     53  C   UNL A   1      43.574  24.988  30.515  1.00  0.00     0.031 C 
ATOM     54  C   UNL A   1      46.901  25.171  24.477  1.00  0.00     0.029 A 
ATOM     55  C   UNL A   1      47.376  26.110  25.492  1.00  0.00     0.049 A 
ATOM     56  H   UNL A   1      46.709  26.294  27.456  1.00  0.00     0.167 HD
ATOM     57  C   UNL A   1      45.018  26.766  31.475  1.00  0.00     0.037 A 
ATOM     58  C   UNL A   1      48.356  27.017  25.324  1.00  0.00     0.037 A 
ATOM     59  C   UNL A   1      46.116  27.699  31.411  1.00  0.00     0.049 A 
ATOM     60  C   UNL A   1      48.762  27.893  26.479  1.00  0.00     0.074 A 
ATOM     61  C   UNL A   1      46.581  28.552  32.400  1.00  0.00     0.029 A 
ATOM     62  N   UNL A   1      46.917  27.907  30.299  1.00  0.00    -0.354 N 
ATOM     63  N   UNL A   1      48.246  27.958  27.683  1.00  0.00    -0.248 NA
ATOM     64  C   UNL A   1      49.895  28.802  26.259  1.00  0.00     0.031 C 
ATOM     65  C   UNL A   1      47.645  29.294  31.874  1.00  0.00     0.029 A 
ATOM     66  C   UNL A   1      47.871  28.872  30.575  1.00  0.00     0.049 A 
ATOM     67  H   UNL A   1      46.822  27.436  29.439  1.00  0.00     0.167 HD
ATOM     68  C   UNL A   1      49.014  28.890  28.374  1.00  0.00     0.074 A 
ATOM     69  C   UNL A   1      50.030  29.357  27.456  1.00  0.00     0.031 C 
ATOM     70  C   UNL A   1      48.889  29.315  29.656  1.00  0.00     0.037 A 
BRANCH  57  71
ATOM     71  C   UNL A   1      44.206  26.717  32.741  1.00  0.00     0.058 A 
ATOM     72  C   UNL A   1      43.015  27.447  32.879  1.00  0.00     0.135 A 
ATOM     73  C   UNL A   1      44.578  25.874  33.803  1.00  0.00     0.135 A 
ATOM     74  F   UNL A   1      42.611  28.271  31.900  1.00  0.00    -0.206 F 
ATOM     75  C   UNL A   1      42.232  27.360  34.027  1.00  0.00     0.059 A 
ATOM     76  C   UNL A   1      43.799  25.753  34.952  1.00  0.00     0.059 A 
ATOM     77  F   UNL A   1      45.699  25.139  33.723  1.00  0.00    -0.206 F 
ATOM     78  C   UNL A   1      42.632  26.510  35.059  1.00  0.00     0.060 A 
BRANCH  78  79
ATOM     79  S   UNL A   1      41.589  26.379  36.527  1.00  0.00     0.124 S 
ATOM     80  O   UNL A   1      40.527  25.496  36.055  1.00  0.00    -0.237 OA
ATOM     81  O   UNL A   1      42.499  25.801  37.511  1.00  0.00    -0.237 OA
ATOM     82  O   UNL A   1      41.189  27.758  36.787  1.00  0.00    -0.744 OA
ENDBRANCH  78  79
ENDBRANCH  57  71
BRANCH  58  83
ATOM     83  C   UNL A   1      49.066  27.103  24.023  1.00  0.00     0.058 A 
ATOM     84  C   UNL A   1      50.369  26.602  23.891  1.00  0.00     0.135 A 
ATOM     85  C   UNL A   1      48.459  27.667  22.893  1.00  0.00     0.135 A 
ATOM     86  F   UNL A   1      50.987  26.054  24.948  1.00  0.00    -0.206 F 
ATOM     87  C   UNL A   1      51.058  26.676  22.687  1.00  0.00     0.059 A 
ATOM     88  C   UNL A   1      49.121  27.736  21.671  1.00  0.00     0.059 A 
ATOM     89  F   UNL A   1      47.204  28.138  22.966  1.00  0.00    -0.206 F 
ATOM     90  C   UNL A   1      50.425  27.248  21.581  1.00  0.00     0.060 A 
BRANCH  90  91
ATOM     91  S   UNL A   1      51.310  27.300  20.009  1.00  0.00     0.124 S 
ATOM     92  O   UNL A   1      52.039  28.558  20.126  1.00  0.00    -0.237 OA
ATOM     93  O   UNL A   1      52.117  26.085  20.069  1.00  0.00    -0.237 OA
ATOM     94  O   UNL A   1      50.236  27.280  19.021  1.00  0.00    -0.744 OA
ENDBRANCH  90  91
ENDBRANCH  58  83
BRANCH  70  95
ATOM     95  C   UNL A   1      49.906  30.302  30.160  1.00  0.00     0.058 A 
ATOM     96  C   UNL A   1      51.112  29.890  30.743  1.00  0.00     0.135 A 
ATOM     97  C   UNL A   1      49.685  31.681  30.011  1.00  0.00     0.135 A 
ATOM     98  F   UNL A   1      51.369  28.583  30.915  1.00  0.00    -0.206 F 
ATOM     99  C   UNL A   1      52.057  30.811  31.185  1.00  0.00     0.059 A 
ATOM    100  C   UNL A   1      50.627  32.619  30.424  1.00  0.00     0.059 A 
ATOM    101  F   UNL A   1      48.551  32.128  29.451  1.00  0.00    -0.206 F 
ATOM    102  C   UNL A   1      51.805  32.175  31.021  1.00  0.00     0.060 A 
BRANCH 102 103
ATOM    103  S   UNL A   1      53.051  33.360  31.571  1.00  0.00     0.124 S 
ATOM    104  O   UNL A   1      54.249  32.856  30.907  1.00  0.00    -0.237 OA
ATOM    105  O   UNL A   1      52.530  34.625  31.062  1.00  0.00    -0.237 OA
ATOM    106  O   UNL A   1      53.033  33.222  33.024  1.00  0.00    -0.744 OA
ENDBRANCH 102 103
ENDBRANCH  70  95
ENDBRANCH  44  45
ENDBRANCH  37  39
ENDBRANCH  36  37
ENDBRANCH  35  36
ENDBRANCH  34  35
ENDBRANCH  33  34
ENDBRANCH   1  33
TORSDOF 22
ENDMDL
MODEL 2
REMARK VINA RESULT:      -9.8      4.816      9.674
REMARK SMILES COc1cc(/C=C2/SC(=S)N(c3ccc(C)cc3C)C2=O)ccc1O[C@@H](C)C(=O)OCCOCCOC(=O)c1ccc(-c2c3nc(c(-c4c(F)cc(S(=O)(=O)[O-])cc4F)c4ccc([nH]4)c(-c4c(F)cc(S(=O)(=O)[O-])cc4F)c4nc(c(-c5c(F)cc(S(=O)(=O)[O-])cc5F)c5ccc2[nH]5)C=C4)C=C3)cc1
REMARK SMILES IDX 32 1 31 2 30 3 28 4 29 5 26 6 27 7 25 8 24 9 3 10 4 11 5 12
REMARK SMILES IDX 23 13 22 14 2 15 1 16 6 17 7 18 8 19 20 20 9 21 11 22 21 23
REMARK SMILES IDX 10 24 12 25 13 26 18 27 14 28 17 29 19 30 15 31 16 32 33 33
REMARK SMILES IDX 34 34 35 35 36 36 37 37 38 38 39 39 40 40 104 41 41 42
REMARK SMILES IDX 103 43 42 44 43 45 44 46 97 47 45 48 102 49 96 50 98 51
REMARK SMILES IDX 46 52 101 53 95 54 94 55 47 57 81 58 60 59 80 60 61 61 64 62
REMARK SMILES IDX 79 63 99 64 62 65 63 66 78 68 100 69 65 70 48 71 49 72 58 73
REMARK SMILES IDX 50 74 51 75 57 76 59 77 52 78 53 79 54 80 55 81 56 82 82 83
REMARK SMILES IDX 83 84 92 85 84 86 85 87 91 88 93 89 86 90 87 91 88 92 89 93
REMARK SMILES IDX 90 94 66 95 67 96 76 97 68 98 69 99 75 100 77 101 70 102
REMARK SMILES IDX 71 103 72 104 73 105 74 106
REMARK H PARENT 98 56 64 67
REMARK Flexibility Score: inf
ROOT
ATOM      1  C   UNL A   1      34.404  34.716  29.190  1.00  0.00     0.202 C 
ENDROOT
BRANCH   1   2
ATOM      2  C   UNL A   1      33.748  34.808  30.568  1.00  0.00     0.261 C 
BRANCH   2   3
ATOM      3  O   UNL A   1      34.747  34.641  31.576  1.00  0.00    -0.461 OA
BRANCH   3   4
ATOM      4  C   UNL A   1      34.645  33.525  32.341  1.00  0.00     0.347 C 
ATOM      5  O   UNL A   1      34.537  32.386  31.900  1.00  0.00    -0.248 OA
BRANCH   4   6
ATOM      6  C   UNL A   1      34.858  33.864  33.829  1.00  0.00     0.279 C 
ATOM      7  C   UNL A   1      34.780  35.359  34.125  1.00  0.00     0.066 C 
BRANCH   6   8
ATOM      8  O   UNL A   1      35.824  33.243  34.653  1.00  0.00    -0.475 OA
BRANCH   8   9
ATOM      9  C   UNL A   1      37.146  33.123  34.354  1.00  0.00     0.162 A 
ATOM     10  C   UNL A   1      37.838  32.069  33.756  1.00  0.00     0.161 A 
ATOM     11  C   UNL A   1      39.250  32.043  33.792  1.00  0.00     0.058 A 
ATOM     12  C   UNL A   1      39.980  33.095  34.369  1.00  0.00    -0.020 A 
ATOM     13  C   UNL A   1      37.887  34.212  34.831  1.00  0.00     0.051 A 
ATOM     14  C   UNL A   1      39.282  34.217  34.807  1.00  0.00     0.012 A 
BRANCH  10  15
ATOM     15  O   UNL A   1      37.195  30.962  33.282  1.00  0.00    -0.493 OA
ATOM     16  C   UNL A   1      37.835  29.741  33.651  1.00  0.00     0.278 C 
ENDBRANCH  10  15
BRANCH  12  17
ATOM     17  C   UNL A   1      41.442  33.004  34.542  1.00  0.00     0.029 C 
ATOM     18  C   UNL A   1      42.383  33.472  33.697  1.00  0.00     0.081 C 
ATOM     19  S   UNL A   1      44.071  33.406  34.063  1.00  0.00    -0.054 SA
ATOM     20  C   UNL A   1      42.199  34.210  32.407  1.00  0.00     0.270 C 
ATOM     21  C   UNL A   1      44.511  34.527  32.765  1.00  0.00     0.152 C 
ATOM     22  N   UNL A   1      43.395  34.788  31.989  1.00  0.00    -0.261 N 
ATOM     23  O   UNL A   1      41.129  34.275  31.812  1.00  0.00    -0.268 OA
ATOM     24  S   UNL A   1      46.050  35.163  32.665  1.00  0.00    -0.051 S 
BRANCH  22  25
ATOM     25  C   UNL A   1      43.367  35.654  30.850  1.00  0.00     0.054 A 
ATOM     26  C   UNL A   1      43.318  35.055  29.578  1.00  0.00     0.027 A 
ATOM     27  C   UNL A   1      43.489  37.053  30.929  1.00  0.00    -0.027 A 
ATOM     28  C   UNL A   1      43.385  35.806  28.405  1.00  0.00     0.005 A 
ATOM     29  C   UNL A   1      43.536  37.803  29.732  1.00  0.00     0.009 A 
ATOM     30  C   UNL A   1      43.624  37.818  32.216  1.00  0.00     0.046 C 
ATOM     31  C   UNL A   1      43.501  37.191  28.473  1.00  0.00    -0.051 A 
ATOM     32  C   UNL A   1      43.634  37.989  27.210  1.00  0.00     0.044 C 
ENDBRANCH  22  25
ENDBRANCH  12  17
ENDBRANCH   8   9
ENDBRANCH   6   8
ENDBRANCH   4   6
ENDBRANCH   3   4
ENDBRANCH   2   3
ENDBRANCH   1   2
BRANCH   1  33
ATOM     33  O   UNL A   1      34.556  33.398  28.655  1.00  0.00    -0.374 OA
BRANCH  33  34
ATOM     34  C   UNL A   1      35.764  33.091  27.956  1.00  0.00     0.202 C 
BRANCH  34  35
ATOM     35  C   UNL A   1      36.545  31.842  28.387  1.00  0.00     0.261 C 
BRANCH  35  36
ATOM     36  O   UNL A   1      35.780  30.882  29.128  1.00  0.00    -0.460 OA
BRANCH  36  37
ATOM     37  C   UNL A   1      36.513  30.018  29.868  1.00  0.00     0.338 C 
ATOM     38  O   UNL A   1      36.100  29.297  30.771  1.00  0.00    -0.246 OA
BRANCH  37  39
ATOM     39  C   UNL A   1      37.922  29.990  29.425  1.00  0.00     0.060 A 
ATOM     40  C   UNL A   1      38.210  29.582  28.115  1.00  0.00     0.016 A 
ATOM     41  C   UNL A   1      38.963  30.229  30.321  1.00  0.00     0.016 A 
ATOM     42  C   UNL A   1      39.528  29.324  27.729  1.00  0.00     0.010 A 
ATOM     43  C   UNL A   1      40.274  29.943  29.943  1.00  0.00     0.010 A 
ATOM     44  C   UNL A   1      40.561  29.446  28.665  1.00  0.00    -0.014 A 
BRANCH  44  45
ATOM     45  C   UNL A   1      41.938  28.987  28.370  1.00  0.00     0.031 A 
ATOM     46  C   UNL A   1      43.061  29.989  28.302  1.00  0.00     0.074 A 
ATOM     47  C   UNL A   1      42.157  27.699  28.056  1.00  0.00     0.049 A 
ATOM     48  N   UNL A   1      44.318  29.802  27.994  1.00  0.00    -0.248 NA
ATOM     49  C   UNL A   1      42.714  31.389  28.598  1.00  0.00     0.031 C 
ATOM     50  C   UNL A   1      41.138  26.651  28.045  1.00  0.00     0.029 A 
ATOM     51  N   UNL A   1      43.305  27.060  27.665  1.00  0.00    -0.354 N 
ATOM     52  C   UNL A   1      44.914  31.059  28.043  1.00  0.00     0.074 A 
ATOM     53  C   UNL A   1      43.875  32.001  28.405  1.00  0.00     0.031 C 
ATOM     54  C   UNL A   1      41.705  25.498  27.654  1.00  0.00     0.029 A 
ATOM     55  C   UNL A   1      43.123  25.729  27.383  1.00  0.00     0.049 A 
ATOM     56  H   UNL A   1      44.176  27.513  27.592  1.00  0.00     0.167 HD
ATOM     57  C   UNL A   1      46.206  31.394  27.804  1.00  0.00     0.037 A 
ATOM     58  C   UNL A   1      44.003  24.801  26.962  1.00  0.00     0.037 A 
ATOM     59  C   UNL A   1      47.232  30.447  27.444  1.00  0.00     0.049 A 
ATOM     60  C   UNL A   1      45.445  25.183  26.762  1.00  0.00     0.074 A 
ATOM     61  C   UNL A   1      48.582  30.677  27.233  1.00  0.00     0.029 A 
ATOM     62  N   UNL A   1      47.023  29.093  27.235  1.00  0.00    -0.354 N 
ATOM     63  N   UNL A   1      46.009  26.361  26.887  1.00  0.00    -0.248 NA
ATOM     64  C   UNL A   1      46.372  24.108  26.387  1.00  0.00     0.031 C 
ATOM     65  C   UNL A   1      49.183  29.465  26.871  1.00  0.00     0.029 A 
ATOM     66  C   UNL A   1      48.216  28.474  26.899  1.00  0.00     0.049 A 
ATOM     67  H   UNL A   1      46.154  28.637  27.315  1.00  0.00     0.167 HD
ATOM     68  C   UNL A   1      47.363  26.161  26.638  1.00  0.00     0.074 A 
ATOM     69  C   UNL A   1      47.533  24.750  26.361  1.00  0.00     0.031 C 
ATOM     70  C   UNL A   1      48.373  27.065  26.643  1.00  0.00     0.037 A 
BRANCH  57  71
ATOM     71  C   UNL A   1      46.595  32.844  27.924  1.00  0.00     0.058 A 
ATOM     72  C   UNL A   1      46.369  33.754  26.878  1.00  0.00     0.135 A 
ATOM     73  C   UNL A   1      47.130  33.350  29.121  1.00  0.00     0.135 A 
ATOM     74  F   UNL A   1      45.864  33.328  25.710  1.00  0.00    -0.206 F 
ATOM     75  C   UNL A   1      46.675  35.106  27.007  1.00  0.00     0.059 A 
ATOM     76  C   UNL A   1      47.422  34.703  29.280  1.00  0.00     0.059 A 
ATOM     77  F   UNL A   1      47.353  32.531  30.161  1.00  0.00    -0.206 F 
ATOM     78  C   UNL A   1      47.202  35.572  28.212  1.00  0.00     0.060 A 
BRANCH  78  79
ATOM     79  S   UNL A   1      47.560  37.334  28.377  1.00  0.00     0.124 S 
ATOM     80  O   UNL A   1      46.872  37.657  29.623  1.00  0.00    -0.237 OA
ATOM     81  O   UNL A   1      49.019  37.355  28.438  1.00  0.00    -0.237 OA
ATOM     82  O   UNL A   1      46.981  37.916  27.171  1.00  0.00    -0.744 OA
ENDBRANCH  78  79
ENDBRANCH  57  71
BRANCH  58  83
ATOM     83  C   UNL A   1      43.556  23.400  26.758  1.00  0.00     0.058 A 
ATOM     84  C   UNL A   1      43.296  22.570  27.858  1.00  0.00     0.135 A 
ATOM     85  C   UNL A   1      43.366  22.871  25.474  1.00  0.00     0.135 A 
ATOM     86  F   UNL A   1      43.466  23.037  29.105  1.00  0.00    -0.206 F 
ATOM     87  C   UNL A   1      42.884  21.254  27.694  1.00  0.00     0.059 A 
ATOM     88  C   UNL A   1      42.935  21.562  25.284  1.00  0.00     0.059 A 
ATOM     89  F   UNL A   1      43.579  23.636  24.392  1.00  0.00    -0.206 F 
ATOM     90  C   UNL A   1      42.708  20.758  26.401  1.00  0.00     0.060 A 
BRANCH  90  91
ATOM     91  S   UNL A   1      42.130  19.060  26.197  1.00  0.00     0.124 S 
ATOM     92  O   UNL A   1      43.050  18.557  25.184  1.00  0.00    -0.237 OA
ATOM     93  O   UNL A   1      42.297  18.514  27.541  1.00  0.00    -0.237 OA
ATOM     94  O   UNL A   1      40.745  19.229  25.767  1.00  0.00    -0.744 OA
ENDBRANCH  90  91
ENDBRANCH  58  83
BRANCH  70  95
ATOM     95  C   UNL A   1      49.764  26.550  26.389  1.00  0.00     0.058 A 
ATOM     96  C   UNL A   1      50.577  26.071  27.426  1.00  0.00     0.135 A 
ATOM     97  C   UNL A   1      50.267  26.494  25.079  1.00  0.00     0.135 A 
ATOM     98  F   UNL A   1      50.145  26.109  28.697  1.00  0.00    -0.206 F 
ATOM     99  C   UNL A   1      51.853  25.575  27.177  1.00  0.00     0.059 A 
ATOM    100  C   UNL A   1      51.531  25.980  24.805  1.00  0.00     0.059 A 
ATOM    101  F   UNL A   1      49.526  26.932  24.050  1.00  0.00    -0.206 F 
ATOM    102  C   UNL A   1      52.322  25.534  25.862  1.00  0.00     0.060 A 
BRANCH 102 103
ATOM    103  S   UNL A   1      53.968  24.861  25.548  1.00  0.00     0.124 S 
ATOM    104  O   UNL A   1      53.667  23.456  25.294  1.00  0.00    -0.237 OA
ATOM    105  O   UNL A   1      54.409  25.633  24.391  1.00  0.00    -0.237 OA
ATOM    106  O   UNL A   1      54.689  25.135  26.787  1.00  0.00    -0.744 OA
ENDBRANCH 102 103
ENDBRANCH  70  95
ENDBRANCH  44  45
ENDBRANCH  37  39
ENDBRANCH  36  37
ENDBRANCH  35  36
ENDBRANCH  34  35
ENDBRANCH  33  34
ENDBRANCH   1  33
TORSDOF 22
ENDMDL
MODEL 3
REMARK VINA RESULT:      -9.7      1.756      2.316
REMARK SMILES COc1cc(/C=C2/SC(=S)N(c3ccc(C)cc3C)C2=O)ccc1O[C@@H](C)C(=O)OCCOCCOC(=O)c1ccc(-c2c3nc(c(-c4c(F)cc(S(=O)(=O)[O-])cc4F)c4ccc([nH]4)c(-c4c(F)cc(S(=O)(=O)[O-])cc4F)c4nc(c(-c5c(F)cc(S(=O)(=O)[O-])cc5F)c5ccc2[nH]5)C=C4)C=C3)cc1
REMARK SMILES IDX 32 1 31 2 30 3 28 4 29 5 26 6 27 7 25 8 24 9 3 10 4 11 5 12
REMARK SMILES IDX 23 13 22 14 2 15 1 16 6 17 7 18 8 19 20 20 9 21 11 22 21 23
REMARK SMILES IDX 10 24 12 25 13 26 18 27 14 28 17 29 19 30 15 31 16 32 33 33
REMARK SMILES IDX 34 34 35 35 36 36 37 37 38 38 39 39 40 40 104 41 41 42
REMARK SMILES IDX 103 43 42 44 43 45 44 46 97 47 45 48 102 49 96 50 98 51
REMARK SMILES IDX 46 52 101 53 95 54 94 55 47 57 81 58 60 59 80 60 61 61 64 62
REMARK SMILES IDX 79 63 99 64 62 65 63 66 78 68 100 69 65 70 48 71 49 72 58 73
REMARK SMILES IDX 50 74 51 75 57 76 59 77 52 78 53 79 54 80 55 81 56 82 82 83
REMARK SMILES IDX 83 84 92 85 84 86 85 87 91 88 93 89 86 90 87 91 88 92 89 93
REMARK SMILES IDX 90 94 66 95 67 96 76 97 68 98 69 99 75 100 77 101 70 102
REMARK SMILES IDX 71 103 72 104 73 105 74 106
REMARK H PARENT 98 56 64 67
REMARK Flexibility Score: inf
ROOT
ATOM      1  C   UNL A   1      35.770  23.621  25.178  1.00  0.00     0.202 C 
ENDROOT
BRANCH   1   2
ATOM      2  C   UNL A   1      34.416  23.094  25.650  1.00  0.00     0.261 C 
BRANCH   2   3
ATOM      3  O   UNL A   1      33.753  24.111  26.406  1.00  0.00    -0.461 OA
BRANCH   3   4
ATOM      4  C   UNL A   1      32.510  23.807  26.857  1.00  0.00     0.347 C 
ATOM      5  O   UNL A   1      32.260  22.916  27.662  1.00  0.00    -0.248 OA
BRANCH   4   6
ATOM      6  C   UNL A   1      31.482  24.840  26.358  1.00  0.00     0.279 C 
ATOM      7  C   UNL A   1      30.068  24.279  26.241  1.00  0.00     0.066 C 
BRANCH   6   8
ATOM      8  O   UNL A   1      31.733  25.774  25.327  1.00  0.00    -0.475 OA
BRANCH   8   9
ATOM      9  C   UNL A   1      31.976  27.099  25.515  1.00  0.00     0.162 A 
ATOM     10  C   UNL A   1      32.680  28.005  24.719  1.00  0.00     0.161 A 
ATOM     11  C   UNL A   1      33.045  29.266  25.239  1.00  0.00     0.058 A 
ATOM     12  C   UNL A   1      32.659  29.656  26.532  1.00  0.00    -0.020 A 
ATOM     13  C   UNL A   1      31.510  27.541  26.760  1.00  0.00     0.051 A 
ATOM     14  C   UNL A   1      31.814  28.813  27.248  1.00  0.00     0.012 A 
BRANCH  10  15
ATOM     15  O   UNL A   1      33.186  27.649  23.501  1.00  0.00    -0.493 OA
ATOM     16  C   UNL A   1      33.020  28.662  22.509  1.00  0.00     0.278 C 
ENDBRANCH  10  15
BRANCH  12  17
ATOM     17  C   UNL A   1      33.160  30.906  27.134  1.00  0.00     0.029 C 
ATOM     18  C   UNL A   1      34.316  31.068  27.808  1.00  0.00     0.081 C 
ATOM     19  S   UNL A   1      34.852  32.611  28.371  1.00  0.00    -0.054 SA
ATOM     20  C   UNL A   1      35.382  30.054  28.095  1.00  0.00     0.270 C 
ATOM     21  C   UNL A   1      36.495  32.045  28.706  1.00  0.00     0.152 C 
ATOM     22  N   UNL A   1      36.548  30.671  28.542  1.00  0.00    -0.261 N 
ATOM     23  O   UNL A   1      35.221  28.847  27.956  1.00  0.00    -0.268 OA
ATOM     24  S   UNL A   1      37.718  33.121  29.066  1.00  0.00    -0.051 S 
BRANCH  22  25
ATOM     25  C   UNL A   1      37.714  29.862  28.722  1.00  0.00     0.054 A 
ATOM     26  C   UNL A   1      38.533  29.641  27.600  1.00  0.00     0.027 A 
ATOM     27  C   UNL A   1      38.026  29.198  29.922  1.00  0.00    -0.027 A 
ATOM     28  C   UNL A   1      39.637  28.790  27.646  1.00  0.00     0.005 A 
ATOM     29  C   UNL A   1      39.159  28.354  29.960  1.00  0.00     0.009 A 
ATOM     30  C   UNL A   1      37.201  29.284  31.175  1.00  0.00     0.046 C 
ATOM     31  C   UNL A   1      39.957  28.133  28.831  1.00  0.00    -0.051 A 
ATOM     32  C   UNL A   1      41.108  27.172  28.861  1.00  0.00     0.044 C 
ENDBRANCH  22  25
ENDBRANCH  12  17
ENDBRANCH   8   9
ENDBRANCH   6   8
ENDBRANCH   4   6
ENDBRANCH   3   4
ENDBRANCH   2   3
ENDBRANCH   1   2
BRANCH   1  33
ATOM     33  O   UNL A   1      36.892  23.291  26.002  1.00  0.00    -0.374 OA
BRANCH  33  34
ATOM     34  C   UNL A   1      37.862  22.378  25.485  1.00  0.00     0.202 C 
BRANCH  34  35
ATOM     35  C   UNL A   1      39.055  22.014  26.380  1.00  0.00     0.261 C 
BRANCH  35  36
ATOM     36  O   UNL A   1      40.262  22.731  26.091  1.00  0.00    -0.460 OA
BRANCH  36  37
ATOM     37  C   UNL A   1      41.355  21.955  25.901  1.00  0.00     0.338 C 
ATOM     38  O   UNL A   1      41.369  20.804  25.477  1.00  0.00    -0.246 OA
BRANCH  37  39
ATOM     39  C   UNL A   1      42.597  22.687  26.225  1.00  0.00     0.060 A 
ATOM     40  C   UNL A   1      43.741  21.954  26.569  1.00  0.00     0.016 A 
ATOM     41  C   UNL A   1      42.608  24.077  26.323  1.00  0.00     0.016 A 
ATOM     42  C   UNL A   1      44.861  22.602  27.098  1.00  0.00     0.010 A 
ATOM     43  C   UNL A   1      43.715  24.718  26.879  1.00  0.00     0.010 A 
ATOM     44  C   UNL A   1      44.827  23.983  27.312  1.00  0.00    -0.014 A 
BRANCH  44  45
ATOM     45  C   UNL A   1      45.898  24.684  28.057  1.00  0.00     0.031 A 
ATOM     46  C   UNL A   1      45.677  25.070  29.497  1.00  0.00     0.074 A 
ATOM     47  C   UNL A   1      47.014  25.068  27.415  1.00  0.00     0.049 A 
ATOM     48  N   UNL A   1      46.459  25.744  30.301  1.00  0.00    -0.248 NA
ATOM     49  C   UNL A   1      44.397  24.663  30.099  1.00  0.00     0.031 C 
ATOM     50  C   UNL A   1      47.315  24.789  26.011  1.00  0.00     0.029 A 
ATOM     51  N   UNL A   1      48.090  25.794  27.854  1.00  0.00    -0.354 N 
ATOM     52  C   UNL A   1      45.764  25.857  31.502  1.00  0.00     0.074 A 
ATOM     53  C   UNL A   1      44.493  25.186  31.314  1.00  0.00     0.031 C 
ATOM     54  C   UNL A   1      48.495  25.349  25.700  1.00  0.00     0.029 A 
ATOM     55  C   UNL A   1      49.029  26.028  26.879  1.00  0.00     0.049 A 
ATOM     56  H   UNL A   1      48.181  26.119  28.779  1.00  0.00     0.167 HD
ATOM     57  C   UNL A   1      46.149  26.467  32.650  1.00  0.00     0.037 A 
ATOM     58  C   UNL A   1      50.190  26.707  26.935  1.00  0.00     0.037 A 
ATOM     59  C   UNL A   1      47.417  27.132  32.824  1.00  0.00     0.049 A 
ATOM     60  C   UNL A   1      50.626  27.324  28.237  1.00  0.00     0.074 A 
ATOM     61  C   UNL A   1      47.926  27.734  33.963  1.00  0.00     0.029 A 
ATOM     62  N   UNL A   1      48.373  27.289  31.832  1.00  0.00    -0.354 N 
ATOM     63  N   UNL A   1      49.992  27.357  29.385  1.00  0.00    -0.248 NA
ATOM     64  C   UNL A   1      51.942  27.977  28.257  1.00  0.00     0.031 C 
ATOM     65  C   UNL A   1      49.178  28.278  33.651  1.00  0.00     0.029 A 
ATOM     66  C   UNL A   1      49.467  27.976  32.331  1.00  0.00     0.049 A 
ATOM     67  H   UNL A   1      48.287  26.959  30.908  1.00  0.00     0.167 HD
ATOM     68  C   UNL A   1      50.848  28.004  30.272  1.00  0.00     0.074 A 
ATOM     69  C   UNL A   1      52.043  28.339  29.529  1.00  0.00     0.031 C 
ATOM     70  C   UNL A   1      50.659  28.288  31.584  1.00  0.00     0.037 A 
BRANCH  57  71
ATOM     71  C   UNL A   1      45.196  26.448  33.815  1.00  0.00     0.058 A 
ATOM     72  C   UNL A   1      44.242  27.461  34.000  1.00  0.00     0.135 A 
ATOM     73  C   UNL A   1      45.184  25.371  34.718  1.00  0.00     0.135 A 
ATOM     74  F   UNL A   1      44.208  28.517  33.173  1.00  0.00    -0.206 F 
ATOM     75  C   UNL A   1      43.322  27.417  35.045  1.00  0.00     0.059 A 
ATOM     76  C   UNL A   1      44.258  25.294  35.756  1.00  0.00     0.059 A 
ATOM     77  F   UNL A   1      46.063  24.365  34.582  1.00  0.00    -0.206 F 
ATOM     78  C   UNL A   1      43.338  26.329  35.918  1.00  0.00     0.060 A 
BRANCH  78  79
ATOM     79  S   UNL A   1      42.116  26.267  37.247  1.00  0.00     0.124 S 
ATOM     80  O   UNL A   1      42.965  26.375  38.430  1.00  0.00    -0.237 OA
ATOM     81  O   UNL A   1      41.280  27.429  36.962  1.00  0.00    -0.237 OA
ATOM     82  O   UNL A   1      41.468  24.974  37.055  1.00  0.00    -0.744 OA
ENDBRANCH  78  79
ENDBRANCH  57  71
BRANCH  58  83
ATOM     83  C   UNL A   1      51.055  26.788  25.732  1.00  0.00     0.058 A 
ATOM     84  C   UNL A   1      50.902  27.838  24.816  1.00  0.00     0.135 A 
ATOM     85  C   UNL A   1      52.054  25.837  25.483  1.00  0.00     0.135 A 
ATOM     86  F   UNL A   1      49.957  28.770  25.016  1.00  0.00    -0.206 F 
ATOM     87  C   UNL A   1      51.694  27.932  23.679  1.00  0.00     0.059 A 
ATOM     88  C   UNL A   1      52.873  25.919  24.362  1.00  0.00     0.059 A 
ATOM     89  F   UNL A   1      52.254  24.828  26.345  1.00  0.00    -0.206 F 
ATOM     90  C   UNL A   1      52.678  26.965  23.459  1.00  0.00     0.060 A 
BRANCH  90  91
ATOM     91  S   UNL A   1      53.732  27.119  22.002  1.00  0.00     0.124 S 
ATOM     92  O   UNL A   1      54.999  26.596  22.502  1.00  0.00    -0.237 OA
ATOM     93  O   UNL A   1      53.036  26.285  21.027  1.00  0.00    -0.237 OA
ATOM     94  O   UNL A   1      53.705  28.551  21.721  1.00  0.00    -0.744 OA
ENDBRANCH  90  91
ENDBRANCH  58  83
BRANCH  70  95
ATOM     95  C   UNL A   1      51.791  28.954  32.317  1.00  0.00     0.058 A 
ATOM     96  C   UNL A   1      52.806  28.216  32.942  1.00  0.00     0.135 A 
ATOM     97  C   UNL A   1      51.881  30.356  32.352  1.00  0.00     0.135 A 
ATOM     98  F   UNL A   1      52.762  26.874  32.943  1.00  0.00    -0.206 F 
ATOM     99  C   UNL A   1      53.861  28.842  33.597  1.00  0.00     0.059 A 
ATOM    100  C   UNL A   1      52.940  31.003  32.981  1.00  0.00     0.059 A 
ATOM    101  F   UNL A   1      50.941  31.109  31.762  1.00  0.00    -0.206 F 
ATOM    102  C   UNL A   1      53.919  30.238  33.612  1.00  0.00     0.060 A 
BRANCH 102 103
ATOM    103  S   UNL A   1      55.309  31.040  34.440  1.00  0.00     0.124 S 
ATOM    104  O   UNL A   1      54.789  31.204  35.794  1.00  0.00    -0.237 OA
ATOM    105  O   UNL A   1      56.377  30.057  34.287  1.00  0.00    -0.237 OA
ATOM    106  O   UNL A   1      55.489  32.274  33.683  1.00  0.00    -0.744 OA
ENDBRANCH 102 103
ENDBRANCH  70  95
ENDBRANCH  44  45
ENDBRANCH  37  39
ENDBRANCH  36  37
ENDBRANCH  35  36
ENDBRANCH  34  35
ENDBRANCH  33  34
ENDBRANCH   1  33
TORSDOF 22
ENDMDL
