MODEL 1
REMARK VINA RESULT:     -12.7      0.000      0.000
REMARK SMILES Cc1ccc(-c2c(C(=O)OCCOCCOC(=O)c3ccc(-c4c5nc(c(-c6c(F)cc(S(=O)(=O)[O-])cc6F)c6ccc([nH]6)c(-c6c(F)cc(S(=O)(=O)[O-])cc6F)c6nc(c(-c7c(F)cc(S(=O)(=O)[O-])cc7F)c7ccc4[nH]7)C=C6)C=C5)cc3)nnn2Cc2c(F)cccc2Cl)cc1
REMARK SMILES IDX 14 1 13 2 12 3 11 4 10 5 8 6 9 7 7 8 6 9 87 10 85 11 86 12
REMARK SMILES IDX 5 13 1 14 2 15 3 16 98 17 4 18 97 19 88 20 89 21 90 22 95 23
REMARK SMILES IDX 91 24 92 25 94 26 96 27 93 28 15 29 16 30 17 31 18 32 19 33
REMARK SMILES IDX 20 34 84 35 21 36 83 37 22 38 23 39 24 40 77 41 25 42 82 43
REMARK SMILES IDX 76 44 78 45 26 46 81 47 75 48 74 49 27 51 61 52 40 53 60 54
REMARK SMILES IDX 41 55 44 56 59 57 79 58 42 59 43 60 58 62 80 63 45 64 28 65
REMARK SMILES IDX 29 66 38 67 30 68 31 69 37 70 39 71 32 72 33 73 34 74 35 75
REMARK SMILES IDX 36 76 62 77 63 78 72 79 64 80 65 81 71 82 73 83 66 84 67 85
REMARK SMILES IDX 68 86 69 87 70 88 46 89 47 90 56 91 48 92 49 93 55 94 57 95
REMARK SMILES IDX 50 96 51 97 52 98 53 99 54 100
REMARK H PARENT 78 50 44 61
REMARK Flexibility Score: inf
ROOT
ATOM      1  C   UNL A   1      33.209  31.177  27.647  1.00  0.00     0.202 C 
ENDROOT
BRANCH   1   2
ATOM      2  O   UNL A   1      32.537  30.933  26.433  1.00  0.00    -0.374 OA
BRANCH   2   3
ATOM      3  C   UNL A   1      32.125  29.589  26.205  1.00  0.00     0.202 C 
BRANCH   3   4
ATOM      4  C   UNL A   1      32.824  29.172  24.952  1.00  0.00     0.261 C 
BRANCH   4   5
ATOM      5  O   UNL A   1      32.673  27.774  24.708  1.00  0.00    -0.458 OA
BRANCH   5   6
ATOM      6  C   UNL A   1      33.271  27.275  23.588  1.00  0.00     0.361 C 
ATOM      7  O   UNL A   1      34.156  27.817  22.957  1.00  0.00    -0.244 OA
BRANCH   6   8
ATOM      8  C   UNL A   1      32.677  26.000  23.247  1.00  0.00     0.198 A 
ATOM      9  C   UNL A   1      33.220  24.732  23.441  1.00  0.00     0.104 A 
ATOM     10  N   UNL A   1      32.109  23.944  23.249  1.00  0.00    -0.239 N 
ATOM     11  N   UNL A   1      31.437  25.892  22.667  1.00  0.00    -0.122 NA
ATOM     12  N   UNL A   1      31.134  24.606  22.599  1.00  0.00    -0.066 NA
BRANCH   9  13
ATOM     13  C   UNL A   1      34.486  24.283  24.020  1.00  0.00     0.002 A 
ATOM     14  C   UNL A   1      38.219  22.889  25.697  1.00  0.00     0.044 C 
ATOM     15  C   UNL A   1      36.944  23.422  25.109  1.00  0.00    -0.051 A 
ATOM     16  C   UNL A   1      36.563  23.045  23.819  1.00  0.00     0.004 A 
ATOM     17  C   UNL A   1      36.068  24.208  25.864  1.00  0.00     0.004 A 
ATOM     18  C   UNL A   1      35.333  23.437  23.296  1.00  0.00     0.011 A 
ATOM     19  C   UNL A   1      34.854  24.651  25.318  1.00  0.00     0.011 A 
ENDBRANCH   9  13
BRANCH  10  20
ATOM     20  C   UNL A   1      31.827  22.614  23.760  1.00  0.00     0.187 C 
BRANCH  20  21
ATOM     21  C   UNL A   1      32.309  22.345  25.168  1.00  0.00     0.028 A 
ATOM     22  C   UNL A   1      33.298  21.363  25.303  1.00  0.00     0.129 A 
ATOM     23  C   UNL A   1      31.858  22.956  26.352  1.00  0.00     0.049 A 
ATOM     24  F   UNL A   1      33.680  20.660  24.225  1.00  0.00    -0.207 F 
ATOM     25  C   UNL A   1      33.901  21.071  26.523  1.00  0.00     0.040 A 
ATOM     26  C   UNL A   1      32.509  22.719  27.572  1.00  0.00     0.021 A 
ATOM     27  Cl  UNL A   1      30.490  24.004  26.436  1.00  0.00    -0.084 Cl
ATOM     28  C   UNL A   1      33.537  21.784  27.657  1.00  0.00     0.005 A 
ENDBRANCH  20  21
ENDBRANCH  10  20
ENDBRANCH   6   8
ENDBRANCH   5   6
ENDBRANCH   4   5
ENDBRANCH   3   4
ENDBRANCH   2   3
ENDBRANCH   1   2
BRANCH   1  29
ATOM     29  C   UNL A   1      34.713  31.432  27.489  1.00  0.00     0.261 C 
BRANCH  29  30
ATOM     30  O   UNL A   1      35.501  30.617  28.390  1.00  0.00    -0.460 OA
BRANCH  30  31
ATOM     31  C   UNL A   1      35.997  29.438  27.904  1.00  0.00     0.338 C 
ATOM     32  O   UNL A   1      35.386  28.712  27.139  1.00  0.00    -0.246 OA
BRANCH  31  33
ATOM     33  C   UNL A   1      37.424  29.257  28.294  1.00  0.00     0.060 A 
ATOM     34  C   UNL A   1      38.482  29.439  27.382  1.00  0.00     0.016 A 
ATOM     35  C   UNL A   1      37.690  28.761  29.565  1.00  0.00     0.016 A 
ATOM     36  C   UNL A   1      39.778  29.002  27.709  1.00  0.00     0.010 A 
ATOM     37  C   UNL A   1      38.922  28.213  29.826  1.00  0.00     0.010 A 
ATOM     38  C   UNL A   1      39.977  28.323  28.906  1.00  0.00    -0.014 A 
BRANCH  38  39
ATOM     39  C   UNL A   1      41.200  27.654  29.350  1.00  0.00     0.031 A 
ATOM     40  C   UNL A   1      41.404  26.271  28.859  1.00  0.00     0.074 A 
ATOM     41  C   UNL A   1      42.224  28.356  29.900  1.00  0.00     0.049 A 
ATOM     42  N   UNL A   1      42.321  25.479  29.284  1.00  0.00    -0.248 NA
ATOM     43  C   UNL A   1      40.570  25.651  27.828  1.00  0.00     0.031 C 
ATOM     44  C   UNL A   1      43.647  28.023  29.948  1.00  0.00     0.029 A 
ATOM     45  N   UNL A   1      42.186  29.573  30.597  1.00  0.00    -0.354 N 
ATOM     46  C   UNL A   1      42.430  24.444  28.380  1.00  0.00     0.074 A 
ATOM     47  C   UNL A   1      41.261  24.544  27.547  1.00  0.00     0.031 C 
ATOM     48  C   UNL A   1      44.252  28.784  30.882  1.00  0.00     0.029 A 
ATOM     49  C   UNL A   1      43.207  29.551  31.548  1.00  0.00     0.049 A 
ATOM     50  H   UNL A   1      41.553  30.311  30.442  1.00  0.00     0.167 HD
ATOM     51  C   UNL A   1      43.589  23.728  28.352  1.00  0.00     0.037 A 
ATOM     52  C   UNL A   1      42.910  29.599  32.874  1.00  0.00     0.037 A 
ATOM     53  C   UNL A   1      44.514  24.244  29.371  1.00  0.00     0.049 A 
ATOM     54  C   UNL A   1      43.433  28.335  33.472  1.00  0.00     0.074 A 
ATOM     55  C   UNL A   1      45.627  25.068  29.303  1.00  0.00     0.029 A 
ATOM     56  N   UNL A   1      44.119  24.245  30.709  1.00  0.00    -0.354 N 
ATOM     57  N   UNL A   1      43.419  27.193  32.832  1.00  0.00    -0.248 NA
ATOM     58  C   UNL A   1      44.242  28.315  34.684  1.00  0.00     0.031 C 
ATOM     59  C   UNL A   1      45.874  25.586  30.606  1.00  0.00     0.029 A 
ATOM     60  C   UNL A   1      44.908  25.087  31.470  1.00  0.00     0.049 A 
ATOM     61  H   UNL A   1      43.373  23.711  31.067  1.00  0.00     0.167 HD
ATOM     62  C   UNL A   1      44.310  26.356  33.438  1.00  0.00     0.074 A 
ATOM     63  C   UNL A   1      44.765  27.081  34.614  1.00  0.00     0.031 C 
ATOM     64  C   UNL A   1      44.731  25.170  32.913  1.00  0.00     0.037 A 
BRANCH  51  65
ATOM     65  C   UNL A   1      43.977  22.762  27.244  1.00  0.00     0.058 A 
ATOM     66  C   UNL A   1      43.207  21.605  26.992  1.00  0.00     0.135 A 
ATOM     67  C   UNL A   1      45.089  22.912  26.386  1.00  0.00     0.135 A 
ATOM     68  F   UNL A   1      42.082  21.349  27.672  1.00  0.00    -0.206 F 
ATOM     69  C   UNL A   1      43.542  20.655  26.023  1.00  0.00     0.059 A 
ATOM     70  C   UNL A   1      45.478  21.948  25.448  1.00  0.00     0.059 A 
ATOM     71  F   UNL A   1      45.812  24.038  26.364  1.00  0.00    -0.206 F 
ATOM     72  C   UNL A   1      44.689  20.826  25.261  1.00  0.00     0.060 A 
BRANCH  72  73
ATOM     73  S   UNL A   1      45.080  19.611  23.988  1.00  0.00     0.124 S 
ATOM     74  O   UNL A   1      44.322  18.443  24.428  1.00  0.00    -0.237 OA
ATOM     75  O   UNL A   1      44.589  20.269  22.782  1.00  0.00    -0.237 OA
ATOM     76  O   UNL A   1      46.531  19.475  24.079  1.00  0.00    -0.744 OA
ENDBRANCH  72  73
ENDBRANCH  51  65
BRANCH  52  77
ATOM     77  C   UNL A   1      41.686  30.406  33.188  1.00  0.00     0.058 A 
ATOM     78  C   UNL A   1      40.486  29.681  33.342  1.00  0.00     0.135 A 
ATOM     79  C   UNL A   1      41.734  31.656  33.820  1.00  0.00     0.135 A 
ATOM     80  F   UNL A   1      40.333  28.533  32.670  1.00  0.00    -0.206 F 
ATOM     81  C   UNL A   1      39.482  30.055  34.240  1.00  0.00     0.059 A 
ATOM     82  C   UNL A   1      40.722  32.074  34.703  1.00  0.00     0.059 A 
ATOM     83  F   UNL A   1      42.824  32.427  33.702  1.00  0.00    -0.206 F 
ATOM     84  C   UNL A   1      39.636  31.234  34.962  1.00  0.00     0.060 A 
BRANCH  84  85
ATOM     85  S   UNL A   1      38.535  31.531  36.381  1.00  0.00     0.124 S 
ATOM     86  O   UNL A   1      39.411  32.238  37.306  1.00  0.00    -0.237 OA
ATOM     87  O   UNL A   1      37.466  32.336  35.793  1.00  0.00    -0.237 OA
ATOM     88  O   UNL A   1      38.136  30.186  36.777  1.00  0.00    -0.744 OA
ENDBRANCH  84  85
ENDBRANCH  52  77
BRANCH  64  89
ATOM     89  C   UNL A   1      45.046  23.978  33.777  1.00  0.00     0.058 A 
ATOM     90  C   UNL A   1      44.114  22.961  34.056  1.00  0.00     0.135 A 
ATOM     91  C   UNL A   1      46.376  23.714  34.186  1.00  0.00     0.135 A 
ATOM     92  F   UNL A   1      42.846  23.013  33.628  1.00  0.00    -0.206 F 
ATOM     93  C   UNL A   1      44.454  21.812  34.753  1.00  0.00     0.059 A 
ATOM     94  C   UNL A   1      46.752  22.533  34.813  1.00  0.00     0.059 A 
ATOM     95  F   UNL A   1      47.376  24.579  33.967  1.00  0.00    -0.206 F 
ATOM     96  C   UNL A   1      45.775  21.604  35.123  1.00  0.00     0.060 A 
BRANCH  96  97
ATOM     97  S   UNL A   1      46.194  20.092  35.988  1.00  0.00     0.124 S 
ATOM     98  O   UNL A   1      45.727  20.401  37.336  1.00  0.00    -0.237 OA
ATOM     99  O   UNL A   1      45.418  19.090  35.264  1.00  0.00    -0.237 OA
ATOM    100  O   UNL A   1      47.641  19.997  35.825  1.00  0.00    -0.744 OA
ENDBRANCH  96  97
ENDBRANCH  64  89
ENDBRANCH  38  39
ENDBRANCH  31  33
ENDBRANCH  30  31
ENDBRANCH  29  30
ENDBRANCH   1  29
TORSDOF 20
ENDMDL
MODEL 2
REMARK VINA RESULT:     -12.7      2.278      3.125
REMARK SMILES Cc1ccc(-c2c(C(=O)OCCOCCOC(=O)c3ccc(-c4c5nc(c(-c6c(F)cc(S(=O)(=O)[O-])cc6F)c6ccc([nH]6)c(-c6c(F)cc(S(=O)(=O)[O-])cc6F)c6nc(c(-c7c(F)cc(S(=O)(=O)[O-])cc7F)c7ccc4[nH]7)C=C6)C=C5)cc3)nnn2Cc2c(F)cccc2Cl)cc1
REMARK SMILES IDX 14 1 13 2 12 3 11 4 10 5 8 6 9 7 7 8 6 9 87 10 85 11 86 12
REMARK SMILES IDX 5 13 1 14 2 15 3 16 98 17 4 18 97 19 88 20 89 21 90 22 95 23
REMARK SMILES IDX 91 24 92 25 94 26 96 27 93 28 15 29 16 30 17 31 18 32 19 33
REMARK SMILES IDX 20 34 84 35 21 36 83 37 22 38 23 39 24 40 77 41 25 42 82 43
REMARK SMILES IDX 76 44 78 45 26 46 81 47 75 48 74 49 27 51 61 52 40 53 60 54
REMARK SMILES IDX 41 55 44 56 59 57 79 58 42 59 43 60 58 62 80 63 45 64 28 65
REMARK SMILES IDX 29 66 38 67 30 68 31 69 37 70 39 71 32 72 33 73 34 74 35 75
REMARK SMILES IDX 36 76 62 77 63 78 72 79 64 80 65 81 71 82 73 83 66 84 67 85
REMARK SMILES IDX 68 86 69 87 70 88 46 89 47 90 56 91 48 92 49 93 55 94 57 95
REMARK SMILES IDX 50 96 51 97 52 98 53 99 54 100
REMARK H PARENT 78 50 44 61
REMARK Flexibility Score: inf
ROOT
ATOM      1  C   UNL A   1      31.999  30.147  25.764  1.00  0.00     0.202 C 
ENDROOT
BRANCH   1   2
ATOM      2  O   UNL A   1      31.427  28.894  26.063  1.00  0.00    -0.374 OA
BRANCH   2   3
ATOM      3  C   UNL A   1      31.943  27.782  25.337  1.00  0.00     0.202 C 
BRANCH   3   4
ATOM      4  C   UNL A   1      32.677  28.377  24.180  1.00  0.00     0.261 C 
BRANCH   4   5
ATOM      5  O   UNL A   1      33.718  27.516  23.721  1.00  0.00    -0.458 OA
BRANCH   5   6
ATOM      6  C   UNL A   1      33.501  26.854  22.547  1.00  0.00     0.361 C 
ATOM      7  O   UNL A   1      33.918  27.190  21.458  1.00  0.00    -0.244 OA
BRANCH   6   8
ATOM      8  C   UNL A   1      32.675  25.691  22.791  1.00  0.00     0.198 A 
ATOM      9  C   UNL A   1      33.048  24.500  23.410  1.00  0.00     0.104 A 
ATOM     10  N   UNL A   1      31.817  23.938  23.651  1.00  0.00    -0.239 N 
ATOM     11  N   UNL A   1      31.353  25.631  22.425  1.00  0.00    -0.122 NA
ATOM     12  N   UNL A   1      30.855  24.499  22.894  1.00  0.00    -0.066 NA
BRANCH   9  13
ATOM     13  C   UNL A   1      34.313  24.048  23.990  1.00  0.00     0.002 A 
ATOM     14  C   UNL A   1      38.037  22.643  25.676  1.00  0.00     0.044 C 
ATOM     15  C   UNL A   1      36.767  23.178  25.081  1.00  0.00    -0.051 A 
ATOM     16  C   UNL A   1      36.337  22.719  23.833  1.00  0.00     0.004 A 
ATOM     17  C   UNL A   1      35.941  24.052  25.795  1.00  0.00     0.004 A 
ATOM     18  C   UNL A   1      35.108  23.118  23.313  1.00  0.00     0.011 A 
ATOM     19  C   UNL A   1      34.730  24.498  25.247  1.00  0.00     0.011 A 
ENDBRANCH   9  13
BRANCH  10  20
ATOM     20  C   UNL A   1      31.430  22.973  24.665  1.00  0.00     0.187 C 
BRANCH  20  21
ATOM     21  C   UNL A   1      32.188  21.665  24.639  1.00  0.00     0.028 A 
ATOM     22  C   UNL A   1      32.864  21.321  25.817  1.00  0.00     0.129 A 
ATOM     23  C   UNL A   1      32.304  20.771  23.559  1.00  0.00     0.049 A 
ATOM     24  F   UNL A   1      32.892  22.192  26.838  1.00  0.00    -0.207 F 
ATOM     25  C   UNL A   1      33.528  20.109  25.971  1.00  0.00     0.040 A 
ATOM     26  C   UNL A   1      32.911  19.518  23.730  1.00  0.00     0.021 A 
ATOM     27  Cl  UNL A   1      31.759  21.117  21.960  1.00  0.00    -0.084 Cl
ATOM     28  C   UNL A   1      33.515  19.181  24.938  1.00  0.00     0.005 A 
ENDBRANCH  20  21
ENDBRANCH  10  20
ENDBRANCH   6   8
ENDBRANCH   5   6
ENDBRANCH   4   5
ENDBRANCH   3   4
ENDBRANCH   2   3
ENDBRANCH   1   2
BRANCH   1  29
ATOM     29  C   UNL A   1      32.272  31.019  26.996  1.00  0.00     0.261 C 
BRANCH  29  30
ATOM     30  O   UNL A   1      33.397  30.534  27.767  1.00  0.00    -0.460 OA
BRANCH  30  31
ATOM     31  C   UNL A   1      34.569  31.236  27.686  1.00  0.00     0.338 C 
ATOM     32  O   UNL A   1      34.633  32.408  27.360  1.00  0.00    -0.246 OA
BRANCH  31  33
ATOM     33  C   UNL A   1      35.711  30.433  28.208  1.00  0.00     0.060 A 
ATOM     34  C   UNL A   1      35.686  29.826  29.478  1.00  0.00     0.016 A 
ATOM     35  C   UNL A   1      36.880  30.407  27.457  1.00  0.00     0.016 A 
ATOM     36  C   UNL A   1      36.869  29.312  30.039  1.00  0.00     0.010 A 
ATOM     37  C   UNL A   1      38.056  30.029  28.060  1.00  0.00     0.010 A 
ATOM     38  C   UNL A   1      38.067  29.482  29.352  1.00  0.00    -0.014 A 
BRANCH  38  39
ATOM     39  C   UNL A   1      39.413  29.168  29.834  1.00  0.00     0.031 A 
ATOM     40  C   UNL A   1      39.999  27.896  29.351  1.00  0.00     0.074 A 
ATOM     41  C   UNL A   1      40.190  30.118  30.414  1.00  0.00     0.049 A 
ATOM     42  N   UNL A   1      41.083  27.380  29.804  1.00  0.00    -0.248 NA
ATOM     43  C   UNL A   1      39.396  27.080  28.296  1.00  0.00     0.031 C 
ATOM     44  C   UNL A   1      41.648  30.184  30.505  1.00  0.00     0.029 A 
ATOM     45  N   UNL A   1      39.802  31.274  31.107  1.00  0.00    -0.354 N 
ATOM     46  C   UNL A   1      41.496  26.420  28.905  1.00  0.00     0.074 A 
ATOM     47  C   UNL A   1      40.369  26.204  28.038  1.00  0.00     0.031 C 
ATOM     48  C   UNL A   1      41.996  31.074  31.456  1.00  0.00     0.029 A 
ATOM     49  C   UNL A   1      40.762  31.523  32.089  1.00  0.00     0.049 A 
ATOM     50  H   UNL A   1      38.998  31.813  30.933  1.00  0.00     0.167 HD
ATOM     51  C   UNL A   1      42.806  26.045  28.913  1.00  0.00     0.037 A 
ATOM     52  C   UNL A   1      40.425  31.479  33.406  1.00  0.00     0.037 A 
ATOM     53  C   UNL A   1      43.526  26.786  29.959  1.00  0.00     0.049 A 
ATOM     54  C   UNL A   1      41.253  30.401  34.020  1.00  0.00     0.074 A 
ATOM     55  C   UNL A   1      44.374  27.882  29.924  1.00  0.00     0.029 A 
ATOM     56  N   UNL A   1      43.107  26.670  31.285  1.00  0.00    -0.354 N 
ATOM     57  N   UNL A   1      41.569  29.302  33.382  1.00  0.00    -0.248 NA
ATOM     58  C   UNL A   1      42.001  30.593  35.257  1.00  0.00     0.031 C 
ATOM     59  C   UNL A   1      44.434  28.439  31.234  1.00  0.00     0.029 A 
ATOM     60  C   UNL A   1      43.614  27.690  32.068  1.00  0.00     0.049 A 
ATOM     61  H   UNL A   1      42.523  25.952  31.621  1.00  0.00     0.167 HD
ATOM     62  C   UNL A   1      42.636  28.734  34.015  1.00  0.00     0.074 A 
ATOM     63  C   UNL A   1      42.842  29.548  35.204  1.00  0.00     0.031 C 
ATOM     64  C   UNL A   1      43.379  27.712  33.506  1.00  0.00     0.037 A 
BRANCH  51  65
ATOM     65  C   UNL A   1      43.475  25.229  27.819  1.00  0.00     0.058 A 
ATOM     66  C   UNL A   1      43.228  23.844  27.698  1.00  0.00     0.135 A 
ATOM     67  C   UNL A   1      44.366  25.742  26.850  1.00  0.00     0.135 A 
ATOM     68  F   UNL A   1      42.355  23.214  28.496  1.00  0.00    -0.206 F 
ATOM     69  C   UNL A   1      43.851  23.032  26.746  1.00  0.00     0.059 A 
ATOM     70  C   UNL A   1      45.046  24.942  25.924  1.00  0.00     0.059 A 
ATOM     71  F   UNL A   1      44.563  27.058  26.705  1.00  0.00    -0.206 F 
ATOM     72  C   UNL A   1      44.772  23.586  25.868  1.00  0.00     0.060 A 
BRANCH  72  73
ATOM     73  S   UNL A   1      45.532  22.530  24.621  1.00  0.00     0.124 S 
ATOM     74  O   UNL A   1      44.371  21.935  23.966  1.00  0.00    -0.237 OA
ATOM     75  O   UNL A   1      46.285  23.495  23.827  1.00  0.00    -0.237 OA
ATOM     76  O   UNL A   1      46.342  21.601  25.407  1.00  0.00    -0.744 OA
ENDBRANCH  72  73
ENDBRANCH  51  65
BRANCH  52  77
ATOM     77  C   UNL A   1      39.018  31.921  33.681  1.00  0.00     0.058 A 
ATOM     78  C   UNL A   1      38.773  33.307  33.589  1.00  0.00     0.135 A 
ATOM     79  C   UNL A   1      37.905  31.087  33.505  1.00  0.00     0.135 A 
ATOM     80  F   UNL A   1      39.770  34.160  33.858  1.00  0.00    -0.206 F 
ATOM     81  C   UNL A   1      37.561  33.835  33.134  1.00  0.00     0.059 A 
ATOM     82  C   UNL A   1      36.664  31.595  33.081  1.00  0.00     0.059 A 
ATOM     83  F   UNL A   1      38.040  29.757  33.607  1.00  0.00    -0.206 F 
ATOM     84  C   UNL A   1      36.523  32.961  32.828  1.00  0.00     0.060 A 
BRANCH  84  85
ATOM     85  S   UNL A   1      35.097  33.602  31.895  1.00  0.00     0.124 S 
ATOM     86  O   UNL A   1      35.548  33.469  30.516  1.00  0.00    -0.237 OA
ATOM     87  O   UNL A   1      34.021  32.695  32.292  1.00  0.00    -0.237 OA
ATOM     88  O   UNL A   1      34.959  34.964  32.397  1.00  0.00    -0.744 OA
ENDBRANCH  84  85
ENDBRANCH  52  77
BRANCH  64  89
ATOM     89  C   UNL A   1      43.980  26.644  34.379  1.00  0.00     0.058 A 
ATOM     90  C   UNL A   1      43.221  25.625  34.983  1.00  0.00     0.135 A 
ATOM     91  C   UNL A   1      45.385  26.491  34.470  1.00  0.00     0.135 A 
ATOM     92  F   UNL A   1      41.886  25.568  34.881  1.00  0.00    -0.206 F 
ATOM     93  C   UNL A   1      43.803  24.581  35.687  1.00  0.00     0.059 A 
ATOM     94  C   UNL A   1      45.988  25.410  35.099  1.00  0.00     0.059 A 
ATOM     95  F   UNL A   1      46.237  27.371  33.922  1.00  0.00    -0.206 F 
ATOM     96  C   UNL A   1      45.186  24.479  35.735  1.00  0.00     0.060 A 
BRANCH  96  97
ATOM     97  S   UNL A   1      45.913  23.099  36.618  1.00  0.00     0.124 S 
ATOM     98  O   UNL A   1      45.222  21.973  35.997  1.00  0.00    -0.237 OA
ATOM     99  O   UNL A   1      47.330  23.229  36.292  1.00  0.00    -0.237 OA
ATOM    100  O   UNL A   1      45.567  23.366  38.009  1.00  0.00    -0.744 OA
ENDBRANCH  96  97
ENDBRANCH  64  89
ENDBRANCH  38  39
ENDBRANCH  31  33
ENDBRANCH  30  31
ENDBRANCH  29  30
ENDBRANCH   1  29
TORSDOF 20
ENDMDL
MODEL 3
REMARK VINA RESULT:     -12.4      4.647     10.774
REMARK SMILES Cc1ccc(-c2c(C(=O)OCCOCCOC(=O)c3ccc(-c4c5nc(c(-c6c(F)cc(S(=O)(=O)[O-])cc6F)c6ccc([nH]6)c(-c6c(F)cc(S(=O)(=O)[O-])cc6F)c6nc(c(-c7c(F)cc(S(=O)(=O)[O-])cc7F)c7ccc4[nH]7)C=C6)C=C5)cc3)nnn2Cc2c(F)cccc2Cl)cc1
REMARK SMILES IDX 14 1 13 2 12 3 11 4 10 5 8 6 9 7 7 8 6 9 87 10 85 11 86 12
REMARK SMILES IDX 5 13 1 14 2 15 3 16 98 17 4 18 97 19 88 20 89 21 90 22 95 23
REMARK SMILES IDX 91 24 92 25 94 26 96 27 93 28 15 29 16 30 17 31 18 32 19 33
REMARK SMILES IDX 20 34 84 35 21 36 83 37 22 38 23 39 24 40 77 41 25 42 82 43
REMARK SMILES IDX 76 44 78 45 26 46 81 47 75 48 74 49 27 51 61 52 40 53 60 54
REMARK SMILES IDX 41 55 44 56 59 57 79 58 42 59 43 60 58 62 80 63 45 64 28 65
REMARK SMILES IDX 29 66 38 67 30 68 31 69 37 70 39 71 32 72 33 73 34 74 35 75
REMARK SMILES IDX 36 76 62 77 63 78 72 79 64 80 65 81 71 82 73 83 66 84 67 85
REMARK SMILES IDX 68 86 69 87 70 88 46 89 47 90 56 91 48 92 49 93 55 94 57 95
REMARK SMILES IDX 50 96 51 97 52 98 53 99 54 100
REMARK H PARENT 78 50 44 61
REMARK Flexibility Score: inf
ROOT
ATOM      1  C   UNL A   1      36.710  21.405  24.724  1.00  0.00     0.202 C 
ENDROOT
BRANCH   1   2
ATOM      2  O   UNL A   1      35.760  20.450  25.139  1.00  0.00    -0.374 OA
BRANCH   2   3
ATOM      3  C   UNL A   1      34.446  20.942  25.386  1.00  0.00     0.202 C 
BRANCH   3   4
ATOM      4  C   UNL A   1      34.535  21.655  26.696  1.00  0.00     0.261 C 
BRANCH   4   5
ATOM      5  O   UNL A   1      33.964  22.960  26.621  1.00  0.00    -0.458 OA
BRANCH   5   6
ATOM      6  C   UNL A   1      32.634  23.070  26.906  1.00  0.00     0.361 C 
ATOM      7  O   UNL A   1      32.116  22.819  27.975  1.00  0.00    -0.244 OA
BRANCH   6   8
ATOM      8  C   UNL A   1      31.919  23.515  25.729  1.00  0.00     0.198 A 
ATOM      9  C   UNL A   1      31.789  24.819  25.258  1.00  0.00     0.104 A 
ATOM     10  N   UNL A   1      31.320  24.590  23.986  1.00  0.00    -0.239 N 
ATOM     11  N   UNL A   1      31.259  22.650  24.891  1.00  0.00    -0.122 NA
ATOM     12  N   UNL A   1      30.821  23.346  23.856  1.00  0.00    -0.066 NA
BRANCH   9  13
ATOM     13  C   UNL A   1      32.296  26.099  25.755  1.00  0.00     0.002 A 
ATOM     14  C   UNL A   1      33.857  29.845  27.242  1.00  0.00     0.044 C 
ATOM     15  C   UNL A   1      33.290  28.571  26.687  1.00  0.00    -0.051 A 
ATOM     16  C   UNL A   1      34.126  27.669  26.024  1.00  0.00     0.004 A 
ATOM     17  C   UNL A   1      31.957  28.211  26.910  1.00  0.00     0.004 A 
ATOM     18  C   UNL A   1      33.644  26.433  25.599  1.00  0.00     0.011 A 
ATOM     19  C   UNL A   1      31.458  26.991  26.433  1.00  0.00     0.011 A 
ENDBRANCH   9  13
BRANCH  10  20
ATOM     20  C   UNL A   1      31.427  25.424  22.803  1.00  0.00     0.187 C 
BRANCH  20  21
ATOM     21  C   UNL A   1      30.999  26.864  22.984  1.00  0.00     0.028 A 
ATOM     22  C   UNL A   1      31.986  27.832  22.762  1.00  0.00     0.129 A 
ATOM     23  C   UNL A   1      29.730  27.331  23.370  1.00  0.00     0.049 A 
ATOM     24  F   UNL A   1      33.247  27.443  22.513  1.00  0.00    -0.207 F 
ATOM     25  C   UNL A   1      31.718  29.197  22.804  1.00  0.00     0.040 A 
ATOM     26  C   UNL A   1      29.434  28.702  23.344  1.00  0.00     0.021 A 
ATOM     27  Cl  UNL A   1      28.454  26.310  23.922  1.00  0.00    -0.084 Cl
ATOM     28  C   UNL A   1      30.424  29.636  23.053  1.00  0.00     0.005 A 
ENDBRANCH  20  21
ENDBRANCH  10  20
ENDBRANCH   6   8
ENDBRANCH   5   6
ENDBRANCH   4   5
ENDBRANCH   3   4
ENDBRANCH   2   3
ENDBRANCH   1   2
BRANCH   1  29
ATOM     29  C   UNL A   1      38.001  21.402  25.552  1.00  0.00     0.261 C 
BRANCH  29  30
ATOM     30  O   UNL A   1      38.558  22.731  25.697  1.00  0.00    -0.460 OA
BRANCH  30  31
ATOM     31  C   UNL A   1      39.403  22.951  26.750  1.00  0.00     0.338 C 
ATOM     32  O   UNL A   1      40.051  22.072  27.292  1.00  0.00    -0.246 OA
BRANCH  31  33
ATOM     33  C   UNL A   1      39.549  24.409  27.024  1.00  0.00     0.060 A 
ATOM     34  C   UNL A   1      40.281  25.263  26.177  1.00  0.00     0.016 A 
ATOM     35  C   UNL A   1      39.053  24.894  28.228  1.00  0.00     0.016 A 
ATOM     36  C   UNL A   1      40.619  26.560  26.604  1.00  0.00     0.010 A 
ATOM     37  C   UNL A   1      39.500  26.107  28.696  1.00  0.00     0.010 A 
ATOM     38  C   UNL A   1      40.286  26.950  27.897  1.00  0.00    -0.014 A 
BRANCH  38  39
ATOM     39  C   UNL A   1      40.686  28.182  28.578  1.00  0.00     0.031 A 
ATOM     40  C   UNL A   1      39.659  29.247  28.660  1.00  0.00     0.074 A 
ATOM     41  C   UNL A   1      41.797  28.223  29.358  1.00  0.00     0.049 A 
ATOM     42  N   UNL A   1      39.888  30.445  29.059  1.00  0.00    -0.248 NA
ATOM     43  C   UNL A   1      38.258  29.046  28.285  1.00  0.00     0.031 C 
ATOM     44  C   UNL A   1      42.105  29.119  30.473  1.00  0.00     0.029 A 
ATOM     45  N   UNL A   1      42.958  27.441  29.283  1.00  0.00    -0.354 N 
ATOM     46  C   UNL A   1      38.672  31.033  29.334  1.00  0.00     0.074 A 
ATOM     47  C   UNL A   1      37.689  30.160  28.748  1.00  0.00     0.031 C 
ATOM     48  C   UNL A   1      43.428  29.071  30.730  1.00  0.00     0.029 A 
ATOM     49  C   UNL A   1      44.030  28.228  29.705  1.00  0.00     0.049 A 
ATOM     50  H   UNL A   1      43.008  26.504  28.987  1.00  0.00     0.167 HD
ATOM     51  C   UNL A   1      38.646  32.109  30.169  1.00  0.00     0.037 A 
ATOM     52  C   UNL A   1      45.037  28.534  28.844  1.00  0.00     0.037 A 
ATOM     53  C   UNL A   1      40.013  32.432  30.603  1.00  0.00     0.049 A 
ATOM     54  C   UNL A   1      45.049  30.021  28.717  1.00  0.00     0.074 A 
ATOM     55  C   UNL A   1      40.712  32.190  31.775  1.00  0.00     0.029 A 
ATOM     56  N   UNL A   1      40.976  32.740  29.641  1.00  0.00    -0.354 N 
ATOM     57  N   UNL A   1      43.955  30.740  28.738  1.00  0.00    -0.248 NA
ATOM     58  C   UNL A   1      46.269  30.811  28.836  1.00  0.00     0.031 C 
ATOM     59  C   UNL A   1      42.102  32.325  31.499  1.00  0.00     0.029 A 
ATOM     60  C   UNL A   1      42.256  32.641  30.155  1.00  0.00     0.049 A 
ATOM     61  H   UNL A   1      40.770  32.997  28.713  1.00  0.00     0.167 HD
ATOM     62  C   UNL A   1      44.300  32.030  29.021  1.00  0.00     0.074 A 
ATOM     63  C   UNL A   1      45.755  32.036  29.029  1.00  0.00     0.031 C 
ATOM     64  C   UNL A   1      43.412  33.010  29.349  1.00  0.00     0.037 A 
BRANCH  51  65
ATOM     65  C   UNL A   1      37.385  32.684  30.792  1.00  0.00     0.058 A 
ATOM     66  C   UNL A   1      36.445  33.385  30.005  1.00  0.00     0.135 A 
ATOM     67  C   UNL A   1      37.032  32.582  32.157  1.00  0.00     0.135 A 
ATOM     68  F   UNL A   1      36.596  33.513  28.680  1.00  0.00    -0.206 F 
ATOM     69  C   UNL A   1      35.294  33.979  30.530  1.00  0.00     0.059 A 
ATOM     70  C   UNL A   1      35.916  33.216  32.717  1.00  0.00     0.059 A 
ATOM     71  F   UNL A   1      37.712  31.797  33.001  1.00  0.00    -0.206 F 
ATOM     72  C   UNL A   1      35.041  33.903  31.892  1.00  0.00     0.060 A 
BRANCH  72  73
ATOM     73  S   UNL A   1      33.530  34.641  32.542  1.00  0.00     0.124 S 
ATOM     74  O   UNL A   1      32.847  35.074  31.326  1.00  0.00    -0.237 OA
ATOM     75  O   UNL A   1      32.924  33.515  33.245  1.00  0.00    -0.237 OA
ATOM     76  O   UNL A   1      34.016  35.721  33.396  1.00  0.00    -0.744 OA
ENDBRANCH  72  73
ENDBRANCH  51  65
BRANCH  52  77
ATOM     77  C   UNL A   1      45.319  27.456  27.841  1.00  0.00     0.058 A 
ATOM     78  C   UNL A   1      44.936  27.728  26.511  1.00  0.00     0.135 A 
ATOM     79  C   UNL A   1      46.336  26.505  28.004  1.00  0.00     0.135 A 
ATOM     80  F   UNL A   1      43.894  28.541  26.292  1.00  0.00    -0.206 F 
ATOM     81  C   UNL A   1      45.652  27.265  25.404  1.00  0.00     0.059 A 
ATOM     82  C   UNL A   1      47.052  25.995  26.906  1.00  0.00     0.059 A 
ATOM     83  F   UNL A   1      46.744  26.162  29.235  1.00  0.00    -0.206 F 
ATOM     84  C   UNL A   1      46.750  26.437  25.615  1.00  0.00     0.060 A 
BRANCH  84  85
ATOM     85  S   UNL A   1      47.892  26.142  24.229  1.00  0.00     0.124 S 
ATOM     86  O   UNL A   1      47.553  27.224  23.315  1.00  0.00    -0.237 OA
ATOM     87  O   UNL A   1      49.204  26.249  24.867  1.00  0.00    -0.237 OA
ATOM     88  O   UNL A   1      47.538  24.797  23.790  1.00  0.00    -0.744 OA
ENDBRANCH  84  85
ENDBRANCH  52  77
BRANCH  64  89
ATOM     89  C   UNL A   1      43.611  34.444  28.938  1.00  0.00     0.058 A 
ATOM     90  C   UNL A   1      43.563  34.875  27.599  1.00  0.00     0.135 A 
ATOM     91  C   UNL A   1      43.651  35.475  29.908  1.00  0.00     0.135 A 
ATOM     92  F   UNL A   1      43.404  34.024  26.576  1.00  0.00    -0.206 F 
ATOM     93  C   UNL A   1      43.630  36.214  27.246  1.00  0.00     0.059 A 
ATOM     94  C   UNL A   1      43.636  36.823  29.577  1.00  0.00     0.059 A 
ATOM     95  F   UNL A   1      43.676  35.218  31.224  1.00  0.00    -0.206 F 
ATOM     96  C   UNL A   1      43.660  37.181  28.241  1.00  0.00     0.060 A 
BRANCH  96  97
ATOM     97  S   UNL A   1      43.706  38.906  27.758  1.00  0.00     0.124 S 
ATOM     98  O   UNL A   1      42.432  39.036  27.057  1.00  0.00    -0.237 OA
ATOM     99  O   UNL A   1      43.793  39.590  29.045  1.00  0.00    -0.237 OA
ATOM    100  O   UNL A   1      44.900  38.994  26.925  1.00  0.00    -0.744 OA
ENDBRANCH  96  97
ENDBRANCH  64  89
ENDBRANCH  38  39
ENDBRANCH  31  33
ENDBRANCH  30  31
ENDBRANCH  29  30
ENDBRANCH   1  29
TORSDOF 20
ENDMDL
