MODEL 1
REMARK VINA RESULT:     -10.4      0.000      0.000
REMARK SMILES C#CC[N@H+](CC(=O)OCCOCCOC(=O)c1ccc(-c2c3nc(c(-c4c(F)cc(S(=O)(=O)[O-])cc4F)c4ccc([nH]4)c(-c4c(F)cc(S(=O)(=O)[O-])cc4F)c4nc(c(-c5c(F)cc(S(=O)(=O)[O-])cc5F)c5ccc2[nH]5)C=C4)C=C3)cc1)[C@H]1CC[C@@H](c2ccccc2)CC1
REMARK SMILES IDX 11 1 10 2 9 3 8 4 6 5 7 6 5 7 4 8 3 10 2 11 1 12 83 13 94 14
REMARK SMILES IDX 84 15 93 16 85 17 86 18 87 19 88 20 92 21 89 22 91 23 90 24
REMARK SMILES IDX 12 25 13 26 14 27 15 28 16 29 17 30 18 31 82 32 19 33 81 34
REMARK SMILES IDX 20 35 21 36 22 37 75 38 23 39 80 40 74 41 76 42 24 43 79 44
REMARK SMILES IDX 73 45 72 46 25 48 59 49 38 50 58 51 39 52 42 53 57 54 77 55
REMARK SMILES IDX 40 56 41 57 56 59 78 60 43 61 26 62 27 63 36 64 28 65 29 66
REMARK SMILES IDX 35 67 37 68 30 69 31 70 32 71 33 72 34 73 60 74 61 75 70 76
REMARK SMILES IDX 62 77 63 78 69 79 71 80 64 81 65 82 66 83 67 84 68 85 44 86
REMARK SMILES IDX 45 87 54 88 46 89 47 90 53 91 55 92 48 93 49 94 50 95 51 96
REMARK SMILES IDX 52 97
REMARK H PARENT 4 9 76 47 42 58
REMARK Flexibility Score: inf
ROOT
ATOM      1  O   UNL A   1      38.585  22.129  25.881  1.00  0.00    -0.374 OA
ENDROOT
BRANCH   1   2
ATOM      2  C   UNL A   1      37.624  21.237  25.312  1.00  0.00     0.202 C 
BRANCH   2   3
ATOM      3  C   UNL A   1      36.149  21.609  25.523  1.00  0.00     0.261 C 
BRANCH   3   4
ATOM      4  O   UNL A   1      35.792  22.807  24.811  1.00  0.00    -0.459 OA
BRANCH   4   5
ATOM      5  C   UNL A   1      34.688  23.477  25.243  1.00  0.00     0.361 C 
ATOM      6  O   UNL A   1      34.648  24.686  25.458  1.00  0.00    -0.245 OA
BRANCH   5   7
ATOM      7  C   UNL A   1      33.421  22.605  25.315  1.00  0.00     0.387 C 
BRANCH   7   8
ATOM      8  N   UNL A   1      32.422  22.856  24.250  1.00  0.00    -0.313 N 
ATOM      9  H   UNL A   1      32.733  23.690  23.751  1.00  0.00     0.349 HD
BRANCH   8  10
ATOM     10  C   UNL A   1      32.429  21.712  23.315  1.00  0.00     0.354 C 
BRANCH  10  11
ATOM     11  C   UNL A   1      32.547  20.305  23.876  1.00  0.00    -0.047 C 
ATOM     12  C   UNL A   1      32.647  19.097  24.358  1.00  0.00     0.010 C 
ENDBRANCH  10  11
ENDBRANCH   8  10
BRANCH   8  13
ATOM     13  C   UNL A   1      31.099  23.417  24.627  1.00  0.00     0.185 C 
ATOM     14  C   UNL A   1      30.959  24.040  26.028  1.00  0.00     0.066 C 
ATOM     15  C   UNL A   1      30.619  24.355  23.486  1.00  0.00     0.066 C 
ATOM     16  C   UNL A   1      29.910  25.147  26.127  1.00  0.00     0.014 C 
ATOM     17  C   UNL A   1      30.211  25.816  23.769  1.00  0.00     0.014 C 
ATOM     18  C   UNL A   1      30.277  26.333  25.220  1.00  0.00     0.019 C 
BRANCH  18  19
ATOM     19  C   UNL A   1      31.532  27.133  25.607  1.00  0.00    -0.045 A 
ATOM     20  C   UNL A   1      31.736  27.651  26.899  1.00  0.00     0.004 A 
ATOM     21  C   UNL A   1      32.500  27.463  24.639  1.00  0.00     0.004 A 
ATOM     22  C   UNL A   1      32.899  28.350  27.243  1.00  0.00     0.000 A 
ATOM     23  C   UNL A   1      33.659  28.178  24.974  1.00  0.00     0.000 A 
ATOM     24  C   UNL A   1      33.868  28.605  26.282  1.00  0.00     0.000 A 
ENDBRANCH  18  19
ENDBRANCH   8  13
ENDBRANCH   7   8
ENDBRANCH   5   7
ENDBRANCH   4   5
ENDBRANCH   3   4
ENDBRANCH   2   3
ENDBRANCH   1   2
BRANCH   1  25
ATOM     25  C   UNL A   1      39.830  21.568  26.295  1.00  0.00     0.202 C 
BRANCH  25  26
ATOM     26  C   UNL A   1      40.923  22.557  26.696  1.00  0.00     0.261 C 
BRANCH  26  27
ATOM     27  O   UNL A   1      40.491  23.913  26.612  1.00  0.00    -0.460 OA
BRANCH  27  28
ATOM     28  C   UNL A   1      41.485  24.822  26.575  1.00  0.00     0.338 C 
ATOM     29  O   UNL A   1      42.436  24.864  25.805  1.00  0.00    -0.246 OA
BRANCH  28  30
ATOM     30  C   UNL A   1      41.178  25.840  27.584  1.00  0.00     0.060 A 
ATOM     31  C   UNL A   1      42.070  26.906  27.746  1.00  0.00     0.016 A 
ATOM     32  C   UNL A   1      40.043  25.724  28.386  1.00  0.00     0.016 A 
ATOM     33  C   UNL A   1      41.839  27.854  28.738  1.00  0.00     0.010 A 
ATOM     34  C   UNL A   1      39.799  26.691  29.364  1.00  0.00     0.010 A 
ATOM     35  C   UNL A   1      40.708  27.747  29.562  1.00  0.00    -0.014 A 
BRANCH  35  36
ATOM     36  C   UNL A   1      40.534  28.700  30.684  1.00  0.00     0.031 A 
ATOM     37  C   UNL A   1      41.402  28.573  31.904  1.00  0.00     0.074 A 
ATOM     38  C   UNL A   1      39.630  29.694  30.590  1.00  0.00     0.049 A 
ATOM     39  N   UNL A   1      41.421  29.309  32.985  1.00  0.00    -0.248 NA
ATOM     40  C   UNL A   1      42.379  27.473  31.907  1.00  0.00     0.031 C 
ATOM     41  C   UNL A   1      38.750  29.926  29.444  1.00  0.00     0.029 A 
ATOM     42  N   UNL A   1      39.305  30.695  31.470  1.00  0.00    -0.354 N 
ATOM     43  C   UNL A   1      42.408  28.762  33.798  1.00  0.00     0.074 A 
ATOM     44  C   UNL A   1      42.941  27.613  33.100  1.00  0.00     0.031 C 
ATOM     45  C   UNL A   1      37.985  31.003  29.692  1.00  0.00     0.029 A 
ATOM     46  C   UNL A   1      38.297  31.517  31.024  1.00  0.00     0.049 A 
ATOM     47  H   UNL A   1      39.750  30.812  32.341  1.00  0.00     0.167 HD
ATOM     48  C   UNL A   1      42.836  29.189  35.010  1.00  0.00     0.037 A 
ATOM     49  C   UNL A   1      37.688  32.556  31.627  1.00  0.00     0.037 A 
ATOM     50  C   UNL A   1      42.297  30.334  35.695  1.00  0.00     0.049 A 
ATOM     51  C   UNL A   1      38.143  32.977  33.000  1.00  0.00     0.074 A 
ATOM     52  C   UNL A   1      42.676  30.860  36.918  1.00  0.00     0.029 A 
ATOM     53  N   UNL A   1      41.258  31.124  35.225  1.00  0.00    -0.354 N 
ATOM     54  N   UNL A   1      39.101  32.472  33.741  1.00  0.00    -0.248 NA
ATOM     55  C   UNL A   1      37.439  34.109  33.618  1.00  0.00     0.031 C 
ATOM     56  C   UNL A   1      41.834  31.939  37.208  1.00  0.00     0.029 A 
ATOM     57  C   UNL A   1      40.965  32.118  36.143  1.00  0.00     0.049 A 
ATOM     58  H   UNL A   1      40.798  30.997  34.363  1.00  0.00     0.167 HD
ATOM     59  C   UNL A   1      39.131  33.239  34.900  1.00  0.00     0.074 A 
ATOM     60  C   UNL A   1      38.103  34.249  34.758  1.00  0.00     0.031 C 
ATOM     61  C   UNL A   1      39.940  33.120  35.982  1.00  0.00     0.037 A 
BRANCH  48  62
ATOM     62  C   UNL A   1      43.925  28.399  35.682  1.00  0.00     0.058 A 
ATOM     63  C   UNL A   1      45.281  28.736  35.534  1.00  0.00     0.135 A 
ATOM     64  C   UNL A   1      43.607  27.313  36.512  1.00  0.00     0.135 A 
ATOM     65  F   UNL A   1      45.641  29.756  34.740  1.00  0.00    -0.206 F 
ATOM     66  C   UNL A   1      46.283  28.008  36.167  1.00  0.00     0.059 A 
ATOM     67  C   UNL A   1      44.592  26.586  37.175  1.00  0.00     0.059 A 
ATOM     68  F   UNL A   1      42.328  26.946  36.686  1.00  0.00    -0.206 F 
ATOM     69  C   UNL A   1      45.929  26.933  36.986  1.00  0.00     0.060 A 
BRANCH  69  70
ATOM     70  S   UNL A   1      47.242  26.001  37.802  1.00  0.00     0.124 S 
ATOM     71  O   UNL A   1      47.662  25.097  36.736  1.00  0.00    -0.237 OA
ATOM     72  O   UNL A   1      48.194  27.047  38.157  1.00  0.00    -0.237 OA
ATOM     73  O   UNL A   1      46.561  25.369  38.927  1.00  0.00    -0.744 OA
ENDBRANCH  69  70
ENDBRANCH  48  62
BRANCH  49  74
ATOM     74  C   UNL A   1      36.576  33.265  30.939  1.00  0.00     0.058 A 
ATOM     75  C   UNL A   1      36.818  34.124  29.857  1.00  0.00     0.135 A 
ATOM     76  C   UNL A   1      35.243  33.087  31.345  1.00  0.00     0.135 A 
ATOM     77  F   UNL A   1      38.075  34.335  29.438  1.00  0.00    -0.206 F 
ATOM     78  C   UNL A   1      35.783  34.790  29.208  1.00  0.00     0.059 A 
ATOM     79  C   UNL A   1      34.189  33.721  30.696  1.00  0.00     0.059 A 
ATOM     80  F   UNL A   1      34.956  32.267  32.367  1.00  0.00    -0.206 F 
ATOM     81  C   UNL A   1      34.469  34.579  29.633  1.00  0.00     0.060 A 
BRANCH  81  82
ATOM     82  S   UNL A   1      33.128  35.405  28.751  1.00  0.00     0.124 S 
ATOM     83  O   UNL A   1      33.857  36.390  27.962  1.00  0.00    -0.237 OA
ATOM     84  O   UNL A   1      32.529  34.303  28.003  1.00  0.00    -0.237 OA
ATOM     85  O   UNL A   1      32.301  35.942  29.827  1.00  0.00    -0.744 OA
ENDBRANCH  81  82
ENDBRANCH  49  74
BRANCH  61  86
ATOM     86  C   UNL A   1      39.771  34.124  37.091  1.00  0.00     0.058 A 
ATOM     87  C   UNL A   1      39.008  33.839  38.232  1.00  0.00     0.135 A 
ATOM     88  C   UNL A   1      40.442  35.357  37.039  1.00  0.00     0.135 A 
ATOM     89  F   UNL A   1      38.341  32.678  38.329  1.00  0.00    -0.206 F 
ATOM     90  C   UNL A   1      38.902  34.749  39.279  1.00  0.00     0.059 A 
ATOM     91  C   UNL A   1      40.371  36.270  38.086  1.00  0.00     0.059 A 
ATOM     92  F   UNL A   1      41.193  35.674  35.972  1.00  0.00    -0.206 F 
ATOM     93  C   UNL A   1      39.591  35.961  39.199  1.00  0.00     0.060 A 
BRANCH  93  94
ATOM     94  S   UNL A   1      39.485  37.112  40.586  1.00  0.00     0.124 S 
ATOM     95  O   UNL A   1      39.011  38.324  39.927  1.00  0.00    -0.237 OA
ATOM     96  O   UNL A   1      38.526  36.452  41.467  1.00  0.00    -0.237 OA
ATOM     97  O   UNL A   1      40.854  37.165  41.090  1.00  0.00    -0.744 OA
ENDBRANCH  93  94
ENDBRANCH  61  86
ENDBRANCH  35  36
ENDBRANCH  28  30
ENDBRANCH  27  28
ENDBRANCH  26  27
ENDBRANCH  25  26
ENDBRANCH   1  25
TORSDOF 22
ENDMDL
MODEL 2
REMARK VINA RESULT:     -10.2      6.126      8.360
REMARK SMILES C#CC[N@H+](CC(=O)OCCOCCOC(=O)c1ccc(-c2c3nc(c(-c4c(F)cc(S(=O)(=O)[O-])cc4F)c4ccc([nH]4)c(-c4c(F)cc(S(=O)(=O)[O-])cc4F)c4nc(c(-c5c(F)cc(S(=O)(=O)[O-])cc5F)c5ccc2[nH]5)C=C4)C=C3)cc1)[C@H]1CC[C@@H](c2ccccc2)CC1
REMARK SMILES IDX 11 1 10 2 9 3 8 4 6 5 7 6 5 7 4 8 3 10 2 11 1 12 83 13 94 14
REMARK SMILES IDX 84 15 93 16 85 17 86 18 87 19 88 20 92 21 89 22 91 23 90 24
REMARK SMILES IDX 12 25 13 26 14 27 15 28 16 29 17 30 18 31 82 32 19 33 81 34
REMARK SMILES IDX 20 35 21 36 22 37 75 38 23 39 80 40 74 41 76 42 24 43 79 44
REMARK SMILES IDX 73 45 72 46 25 48 59 49 38 50 58 51 39 52 42 53 57 54 77 55
REMARK SMILES IDX 40 56 41 57 56 59 78 60 43 61 26 62 27 63 36 64 28 65 29 66
REMARK SMILES IDX 35 67 37 68 30 69 31 70 32 71 33 72 34 73 60 74 61 75 70 76
REMARK SMILES IDX 62 77 63 78 69 79 71 80 64 81 65 82 66 83 67 84 68 85 44 86
REMARK SMILES IDX 45 87 54 88 46 89 47 90 53 91 55 92 48 93 49 94 50 95 51 96
REMARK SMILES IDX 52 97
REMARK H PARENT 4 9 76 47 42 58
REMARK Flexibility Score: inf
ROOT
ATOM      1  O   UNL A   1      38.248  22.369  25.838  1.00  0.00    -0.374 OA
ENDROOT
BRANCH   1   2
ATOM      2  C   UNL A   1      37.387  21.588  25.005  1.00  0.00     0.202 C 
BRANCH   2   3
ATOM      3  C   UNL A   1      35.942  22.088  24.871  1.00  0.00     0.261 C 
BRANCH   3   4
ATOM      4  O   UNL A   1      35.729  22.786  23.632  1.00  0.00    -0.459 OA
BRANCH   4   5
ATOM      5  C   UNL A   1      34.462  23.211  23.372  1.00  0.00     0.361 C 
ATOM      6  O   UNL A   1      34.007  23.391  22.244  1.00  0.00    -0.245 OA
BRANCH   5   7
ATOM      7  C   UNL A   1      33.575  23.324  24.624  1.00  0.00     0.387 C 
BRANCH   7   8
ATOM      8  N   UNL A   1      32.327  22.525  24.587  1.00  0.00    -0.313 N 
ATOM      9  H   UNL A   1      32.152  22.305  23.606  1.00  0.00     0.349 HD
BRANCH   8  10
ATOM     10  C   UNL A   1      32.549  21.265  25.325  1.00  0.00     0.354 C 
BRANCH  10  11
ATOM     11  C   UNL A   1      32.635  19.963  24.545  1.00  0.00    -0.047 C 
ATOM     12  C   UNL A   1      32.709  18.846  23.876  1.00  0.00     0.010 C 
ENDBRANCH  10  11
ENDBRANCH   8  10
BRANCH   8  13
ATOM     13  C   UNL A   1      31.028  23.215  24.796  1.00  0.00     0.185 C 
ATOM     14  C   UNL A   1      30.816  23.954  26.132  1.00  0.00     0.066 C 
ATOM     15  C   UNL A   1      30.732  24.097  23.553  1.00  0.00     0.066 C 
ATOM     16  C   UNL A   1      29.859  25.143  26.052  1.00  0.00     0.014 C 
ATOM     17  C   UNL A   1      30.425  25.602  23.693  1.00  0.00     0.014 C 
ATOM     18  C   UNL A   1      30.405  26.223  25.104  1.00  0.00     0.019 C 
BRANCH  18  19
ATOM     19  C   UNL A   1      31.684  26.951  25.553  1.00  0.00    -0.045 A 
ATOM     20  C   UNL A   1      32.854  26.984  24.773  1.00  0.00     0.004 A 
ATOM     21  C   UNL A   1      31.763  27.544  26.827  1.00  0.00     0.004 A 
ATOM     22  C   UNL A   1      33.999  27.678  25.181  1.00  0.00     0.000 A 
ATOM     23  C   UNL A   1      32.914  28.225  27.249  1.00  0.00     0.000 A 
ATOM     24  C   UNL A   1      34.026  28.310  26.417  1.00  0.00     0.000 A 
ENDBRANCH  18  19
ENDBRANCH   8  13
ENDBRANCH   7   8
ENDBRANCH   5   7
ENDBRANCH   4   5
ENDBRANCH   3   4
ENDBRANCH   2   3
ENDBRANCH   1   2
BRANCH   1  25
ATOM     25  C   UNL A   1      39.387  21.713  26.393  1.00  0.00     0.202 C 
BRANCH  25  26
ATOM     26  C   UNL A   1      39.677  20.302  25.882  1.00  0.00     0.261 C 
BRANCH  26  27
ATOM     27  O   UNL A   1      40.654  19.626  26.670  1.00  0.00    -0.460 OA
BRANCH  27  28
ATOM     28  C   UNL A   1      41.890  19.592  26.132  1.00  0.00     0.338 C 
ATOM     29  O   UNL A   1      42.411  18.678  25.506  1.00  0.00    -0.246 OA
BRANCH  28  30
ATOM     30  C   UNL A   1      42.490  20.912  26.346  1.00  0.00     0.060 A 
ATOM     31  C   UNL A   1      42.626  21.376  27.658  1.00  0.00     0.016 A 
ATOM     32  C   UNL A   1      42.879  21.698  25.261  1.00  0.00     0.016 A 
ATOM     33  C   UNL A   1      43.134  22.650  27.891  1.00  0.00     0.010 A 
ATOM     34  C   UNL A   1      43.412  22.967  25.498  1.00  0.00     0.010 A 
ATOM     35  C   UNL A   1      43.519  23.460  26.812  1.00  0.00    -0.014 A 
BRANCH  35  36
ATOM     36  C   UNL A   1      43.955  24.854  27.069  1.00  0.00     0.031 A 
ATOM     37  C   UNL A   1      45.395  25.228  26.857  1.00  0.00     0.074 A 
ATOM     38  C   UNL A   1      43.056  25.781  27.450  1.00  0.00     0.049 A 
ATOM     39  N   UNL A   1      45.977  26.390  27.010  1.00  0.00    -0.248 NA
ATOM     40  C   UNL A   1      46.299  24.155  26.415  1.00  0.00     0.031 C 
ATOM     41  C   UNL A   1      41.630  25.535  27.664  1.00  0.00     0.029 A 
ATOM     42  N   UNL A   1      43.210  27.117  27.723  1.00  0.00    -0.354 N 
ATOM     43  C   UNL A   1      47.314  26.188  26.685  1.00  0.00     0.074 A 
ATOM     44  C   UNL A   1      47.463  24.786  26.360  1.00  0.00     0.031 C 
ATOM     45  C   UNL A   1      41.039  26.684  28.033  1.00  0.00     0.029 A 
ATOM     46  C   UNL A   1      42.048  27.738  28.113  1.00  0.00     0.049 A 
ATOM     47  H   UNL A   1      44.072  27.587  27.647  1.00  0.00     0.167 HD
ATOM     48  C   UNL A   1      48.320  27.094  26.650  1.00  0.00     0.037 A 
ATOM     49  C   UNL A   1      41.825  29.008  28.504  1.00  0.00     0.037 A 
ATOM     50  C   UNL A   1      48.160  28.487  26.976  1.00  0.00     0.049 A 
ATOM     51  C   UNL A   1      42.973  29.984  28.511  1.00  0.00     0.074 A 
ATOM     52  C   UNL A   1      49.113  29.490  26.952  1.00  0.00     0.029 A 
ATOM     53  N   UNL A   1      46.974  29.072  27.395  1.00  0.00    -0.354 N 
ATOM     54  N   UNL A   1      44.224  29.787  28.167  1.00  0.00    -0.248 NA
ATOM     55  C   UNL A   1      42.680  31.354  28.956  1.00  0.00     0.031 C 
ATOM     56  C   UNL A   1      48.515  30.671  27.402  1.00  0.00     0.029 A 
ATOM     57  C   UNL A   1      47.176  30.417  27.658  1.00  0.00     0.049 A 
ATOM     58  H   UNL A   1      46.115  28.601  27.490  1.00  0.00     0.167 HD
ATOM     59  C   UNL A   1      44.862  31.013  28.330  1.00  0.00     0.074 A 
ATOM     60  C   UNL A   1      43.857  31.947  28.793  1.00  0.00     0.031 C 
ATOM     61  C   UNL A   1      46.161  31.335  28.112  1.00  0.00     0.037 A 
BRANCH  48  62
ATOM     62  C   UNL A   1      49.688  26.601  26.268  1.00  0.00     0.058 A 
ATOM     63  C   UNL A   1      50.185  26.740  24.961  1.00  0.00     0.135 A 
ATOM     64  C   UNL A   1      50.527  26.013  27.228  1.00  0.00     0.135 A 
ATOM     65  F   UNL A   1      49.420  27.280  24.000  1.00  0.00    -0.206 F 
ATOM     66  C   UNL A   1      51.456  26.291  24.616  1.00  0.00     0.059 A 
ATOM     67  C   UNL A   1      51.812  25.581  26.910  1.00  0.00     0.059 A 
ATOM     68  F   UNL A   1      50.101  25.854  28.490  1.00  0.00    -0.206 F 
ATOM     69  C   UNL A   1      52.263  25.711  25.598  1.00  0.00     0.060 A 
BRANCH  69  70
ATOM     70  S   UNL A   1      53.910  25.137  25.134  1.00  0.00     0.124 S 
ATOM     71  O   UNL A   1      53.688  23.701  24.993  1.00  0.00    -0.237 OA
ATOM     72  O   UNL A   1      54.157  25.865  23.894  1.00  0.00    -0.237 OA
ATOM     73  O   UNL A   1      54.740  25.535  26.267  1.00  0.00    -0.744 OA
ENDBRANCH  69  70
ENDBRANCH  48  62
BRANCH  49  74
ATOM     74  C   UNL A   1      40.462  29.427  28.927  1.00  0.00     0.058 A 
ATOM     75  C   UNL A   1      40.141  29.605  30.280  1.00  0.00     0.135 A 
ATOM     76  C   UNL A   1      39.453  29.668  27.979  1.00  0.00     0.135 A 
ATOM     77  F   UNL A   1      41.067  29.378  31.224  1.00  0.00    -0.206 F 
ATOM     78  C   UNL A   1      38.868  29.998  30.683  1.00  0.00     0.059 A 
ATOM     79  C   UNL A   1      38.181  30.086  28.354  1.00  0.00     0.059 A 
ATOM     80  F   UNL A   1      39.711  29.523  26.671  1.00  0.00    -0.206 F 
ATOM     81  C   UNL A   1      37.894  30.239  29.711  1.00  0.00     0.060 A 
BRANCH  81  82
ATOM     82  S   UNL A   1      36.261  30.799  30.238  1.00  0.00     0.124 S 
ATOM     83  O   UNL A   1      36.084  30.059  31.482  1.00  0.00    -0.237 OA
ATOM     84  O   UNL A   1      36.460  32.239  30.374  1.00  0.00    -0.237 OA
ATOM     85  O   UNL A   1      35.396  30.397  29.134  1.00  0.00    -0.744 OA
ENDBRANCH  81  82
ENDBRANCH  49  74
BRANCH  61  86
ATOM     86  C   UNL A   1      46.571  32.764  28.341  1.00  0.00     0.058 A 
ATOM     87  C   UNL A   1      47.108  33.190  29.564  1.00  0.00     0.135 A 
ATOM     88  C   UNL A   1      46.489  33.701  27.297  1.00  0.00     0.135 A 
ATOM     89  F   UNL A   1      47.201  32.337  30.596  1.00  0.00    -0.206 F 
ATOM     90  C   UNL A   1      47.538  34.500  29.750  1.00  0.00     0.059 A 
ATOM     91  C   UNL A   1      46.938  35.008  27.453  1.00  0.00     0.059 A 
ATOM     92  F   UNL A   1      45.992  33.341  26.103  1.00  0.00    -0.206 F 
ATOM     93  C   UNL A   1      47.453  35.401  28.688  1.00  0.00     0.060 A 
BRANCH  93  94
ATOM     94  S   UNL A   1      48.060  37.085  28.928  1.00  0.00     0.124 S 
ATOM     95  O   UNL A   1      49.227  37.104  28.052  1.00  0.00    -0.237 OA
ATOM     96  O   UNL A   1      46.924  37.891  28.490  1.00  0.00    -0.237 OA
ATOM     97  O   UNL A   1      48.347  37.142  30.358  1.00  0.00    -0.744 OA
ENDBRANCH  93  94
ENDBRANCH  61  86
ENDBRANCH  35  36
ENDBRANCH  28  30
ENDBRANCH  27  28
ENDBRANCH  26  27
ENDBRANCH  25  26
ENDBRANCH   1  25
TORSDOF 22
ENDMDL
MODEL 3
REMARK VINA RESULT:     -10.2      0.990      8.288
REMARK SMILES C#CC[N@H+](CC(=O)OCCOCCOC(=O)c1ccc(-c2c3nc(c(-c4c(F)cc(S(=O)(=O)[O-])cc4F)c4ccc([nH]4)c(-c4c(F)cc(S(=O)(=O)[O-])cc4F)c4nc(c(-c5c(F)cc(S(=O)(=O)[O-])cc5F)c5ccc2[nH]5)C=C4)C=C3)cc1)[C@H]1CC[C@@H](c2ccccc2)CC1
REMARK SMILES IDX 11 1 10 2 9 3 8 4 6 5 7 6 5 7 4 8 3 10 2 11 1 12 83 13 94 14
REMARK SMILES IDX 84 15 93 16 85 17 86 18 87 19 88 20 92 21 89 22 91 23 90 24
REMARK SMILES IDX 12 25 13 26 14 27 15 28 16 29 17 30 18 31 82 32 19 33 81 34
REMARK SMILES IDX 20 35 21 36 22 37 75 38 23 39 80 40 74 41 76 42 24 43 79 44
REMARK SMILES IDX 73 45 72 46 25 48 59 49 38 50 58 51 39 52 42 53 57 54 77 55
REMARK SMILES IDX 40 56 41 57 56 59 78 60 43 61 26 62 27 63 36 64 28 65 29 66
REMARK SMILES IDX 35 67 37 68 30 69 31 70 32 71 33 72 34 73 60 74 61 75 70 76
REMARK SMILES IDX 62 77 63 78 69 79 71 80 64 81 65 82 66 83 67 84 68 85 44 86
REMARK SMILES IDX 45 87 54 88 46 89 47 90 53 91 55 92 48 93 49 94 50 95 51 96
REMARK SMILES IDX 52 97
REMARK H PARENT 4 9 76 47 42 58
REMARK Flexibility Score: inf
ROOT
ATOM      1  O   UNL A   1      39.287  21.639  26.593  1.00  0.00    -0.374 OA
ENDROOT
BRANCH   1   2
ATOM      2  C   UNL A   1      38.558  21.360  25.394  1.00  0.00     0.202 C 
BRANCH   2   3
ATOM      3  C   UNL A   1      37.165  21.995  25.289  1.00  0.00     0.261 C 
BRANCH   3   4
ATOM      4  O   UNL A   1      36.131  21.098  25.730  1.00  0.00    -0.459 OA
BRANCH   4   5
ATOM      5  C   UNL A   1      34.957  21.120  25.041  1.00  0.00     0.361 C 
ATOM      6  O   UNL A   1      34.248  20.136  24.843  1.00  0.00    -0.245 OA
BRANCH   5   7
ATOM      7  C   UNL A   1      34.504  22.533  24.630  1.00  0.00     0.387 C 
BRANCH   7   8
ATOM      8  N   UNL A   1      33.792  23.296  25.682  1.00  0.00    -0.313 N 
ATOM      9  H   UNL A   1      33.978  22.818  26.565  1.00  0.00     0.349 HD
BRANCH   8  10
ATOM     10  C   UNL A   1      34.363  24.657  25.750  1.00  0.00     0.354 C 
BRANCH  10  11
ATOM     11  C   UNL A   1      34.141  25.606  24.583  1.00  0.00    -0.047 C 
ATOM     12  C   UNL A   1      33.949  26.420  23.583  1.00  0.00     0.010 C 
ENDBRANCH  10  11
ENDBRANCH   8  10
BRANCH   8  13
ATOM     13  C   UNL A   1      32.314  23.174  25.780  1.00  0.00     0.185 C 
ATOM     14  C   UNL A   1      31.595  24.020  26.847  1.00  0.00     0.066 C 
ATOM     15  C   UNL A   1      31.711  23.335  24.358  1.00  0.00     0.066 C 
ATOM     16  C   UNL A   1      30.156  24.393  26.495  1.00  0.00     0.014 C 
ATOM     17  C   UNL A   1      30.613  24.379  24.068  1.00  0.00     0.014 C 
ATOM     18  C   UNL A   1      30.109  25.262  25.227  1.00  0.00     0.019 C 
BRANCH  18  19
ATOM     19  C   UNL A   1      30.720  26.669  25.334  1.00  0.00    -0.045 A 
ATOM     20  C   UNL A   1      31.351  27.138  26.501  1.00  0.00     0.004 A 
ATOM     21  C   UNL A   1      30.586  27.592  24.280  1.00  0.00     0.004 A 
ATOM     22  C   UNL A   1      31.931  28.410  26.571  1.00  0.00     0.000 A 
ATOM     23  C   UNL A   1      31.149  28.874  24.351  1.00  0.00     0.000 A 
ATOM     24  C   UNL A   1      31.840  29.277  25.490  1.00  0.00     0.000 A 
ENDBRANCH  18  19
ENDBRANCH   8  13
ENDBRANCH   7   8
ENDBRANCH   5   7
ENDBRANCH   4   5
ENDBRANCH   3   4
ENDBRANCH   2   3
ENDBRANCH   1   2
BRANCH   1  25
ATOM     25  C   UNL A   1      40.691  21.858  26.465  1.00  0.00     0.202 C 
BRANCH  25  26
ATOM     26  C   UNL A   1      41.282  22.991  27.304  1.00  0.00     0.261 C 
BRANCH  26  27
ATOM     27  O   UNL A   1      41.310  24.232  26.603  1.00  0.00    -0.460 OA
BRANCH  27  28
ATOM     28  C   UNL A   1      40.170  24.947  26.675  1.00  0.00     0.338 C 
ATOM     29  O   UNL A   1      39.176  24.850  25.966  1.00  0.00    -0.246 OA
BRANCH  28  30
ATOM     30  C   UNL A   1      40.283  25.826  27.843  1.00  0.00     0.060 A 
ATOM     31  C   UNL A   1      39.274  25.778  28.811  1.00  0.00     0.016 A 
ATOM     32  C   UNL A   1      41.352  26.714  27.961  1.00  0.00     0.016 A 
ATOM     33  C   UNL A   1      39.320  26.644  29.899  1.00  0.00     0.010 A 
ATOM     34  C   UNL A   1      41.409  27.565  29.068  1.00  0.00     0.010 A 
ATOM     35  C   UNL A   1      40.382  27.552  30.029  1.00  0.00    -0.014 A 
BRANCH  35  36
ATOM     36  C   UNL A   1      40.361  28.542  31.132  1.00  0.00     0.031 A 
ATOM     37  C   UNL A   1      39.396  29.693  31.074  1.00  0.00     0.074 A 
ATOM     38  C   UNL A   1      41.174  28.386  32.194  1.00  0.00     0.049 A 
ATOM     39  N   UNL A   1      39.207  30.657  31.937  1.00  0.00    -0.248 NA
ATOM     40  C   UNL A   1      38.528  29.768  29.888  1.00  0.00     0.031 C 
ATOM     41  C   UNL A   1      42.133  27.294  32.367  1.00  0.00     0.029 A 
ATOM     42  N   UNL A   1      41.321  29.143  33.329  1.00  0.00    -0.354 N 
ATOM     43  C   UNL A   1      38.202  31.454  31.400  1.00  0.00     0.074 A 
ATOM     44  C   UNL A   1      37.846  30.880  30.121  1.00  0.00     0.031 C 
ATOM     45  C   UNL A   1      42.769  27.453  33.541  1.00  0.00     0.029 A 
ATOM     46  C   UNL A   1      42.285  28.672  34.187  1.00  0.00     0.049 A 
ATOM     47  H   UNL A   1      40.786  29.950  33.510  1.00  0.00     0.167 HD
ATOM     48  C   UNL A   1      37.624  32.557  31.933  1.00  0.00     0.037 A 
ATOM     49  C   UNL A   1      42.737  29.173  35.353  1.00  0.00     0.037 A 
ATOM     50  C   UNL A   1      37.987  33.119  33.207  1.00  0.00     0.049 A 
ATOM     51  C   UNL A   1      42.116  30.433  35.898  1.00  0.00     0.074 A 
ATOM     52  C   UNL A   1      37.447  34.223  33.845  1.00  0.00     0.029 A 
ATOM     53  N   UNL A   1      38.988  32.631  34.034  1.00  0.00    -0.354 N 
ATOM     54  N   UNL A   1      41.143  31.156  35.396  1.00  0.00    -0.248 NA
ATOM     55  C   UNL A   1      42.651  30.944  37.168  1.00  0.00     0.031 C 
ATOM     56  C   UNL A   1      38.154  34.429  35.034  1.00  0.00     0.029 A 
ATOM     57  C   UNL A   1      39.101  33.424  35.163  1.00  0.00     0.049 A 
ATOM     58  H   UNL A   1      39.538  31.835  33.845  1.00  0.00     0.167 HD
ATOM     59  C   UNL A   1      40.932  32.192  36.299  1.00  0.00     0.074 A 
ATOM     60  C   UNL A   1      41.872  31.997  37.383  1.00  0.00     0.031 C 
ATOM     61  C   UNL A   1      40.039  33.210  36.238  1.00  0.00     0.037 A 
BRANCH  48  62
ATOM     62  C   UNL A   1      36.554  33.240  31.128  1.00  0.00     0.058 A 
ATOM     63  C   UNL A   1      36.861  34.011  29.994  1.00  0.00     0.135 A 
ATOM     64  C   UNL A   1      35.201  33.094  31.473  1.00  0.00     0.135 A 
ATOM     65  F   UNL A   1      38.138  34.197  29.629  1.00  0.00    -0.206 F 
ATOM     66  C   UNL A   1      35.865  34.632  29.247  1.00  0.00     0.059 A 
ATOM     67  C   UNL A   1      34.187  33.686  30.724  1.00  0.00     0.059 A 
ATOM     68  F   UNL A   1      34.852  32.371  32.548  1.00  0.00    -0.206 F 
ATOM     69  C   UNL A   1      34.530  34.465  29.620  1.00  0.00     0.060 A 
BRANCH  69  70
ATOM     70  S   UNL A   1      33.250  35.275  28.639  1.00  0.00     0.124 S 
ATOM     71  O   UNL A   1      32.497  35.982  29.670  1.00  0.00    -0.237 OA
ATOM     72  O   UNL A   1      34.032  36.116  27.738  1.00  0.00    -0.237 OA
ATOM     73  O   UNL A   1      32.552  34.162  28.004  1.00  0.00    -0.744 OA
ENDBRANCH  69  70
ENDBRANCH  48  62
BRANCH  49  74
ATOM     74  C   UNL A   1      43.838  28.486  36.079  1.00  0.00     0.058 A 
ATOM     75  C   UNL A   1      45.176  28.864  35.899  1.00  0.00     0.135 A 
ATOM     76  C   UNL A   1      43.570  27.442  36.980  1.00  0.00     0.135 A 
ATOM     77  F   UNL A   1      45.486  29.849  35.043  1.00  0.00    -0.206 F 
ATOM     78  C   UNL A   1      46.212  28.226  36.576  1.00  0.00     0.059 A 
ATOM     79  C   UNL A   1      44.584  26.806  37.687  1.00  0.00     0.059 A 
ATOM     80  F   UNL A   1      42.305  27.049  37.196  1.00  0.00    -0.206 F 
ATOM     81  C   UNL A   1      45.904  27.199  37.472  1.00  0.00     0.060 A 
BRANCH  81  82
ATOM     82  S   UNL A   1      47.249  26.413  38.386  1.00  0.00     0.124 S 
ATOM     83  O   UNL A   1      48.089  25.916  37.303  1.00  0.00    -0.237 OA
ATOM     84  O   UNL A   1      47.790  27.530  39.155  1.00  0.00    -0.237 OA
ATOM     85  O   UNL A   1      46.565  25.393  39.176  1.00  0.00    -0.744 OA
ENDBRANCH  81  82
ENDBRANCH  49  74
BRANCH  61  86
ATOM     86  C   UNL A   1      40.009  34.180  37.388  1.00  0.00     0.058 A 
ATOM     87  C   UNL A   1      40.799  35.338  37.396  1.00  0.00     0.135 A 
ATOM     88  C   UNL A   1      39.123  33.980  38.460  1.00  0.00     0.135 A 
ATOM     89  F   UNL A   1      41.667  35.572  36.399  1.00  0.00    -0.206 F 
ATOM     90  C   UNL A   1      40.725  36.259  38.436  1.00  0.00     0.059 A 
ATOM     91  C   UNL A   1      39.013  34.902  39.496  1.00  0.00     0.059 A 
ATOM     92  F   UNL A   1      38.337  32.893  38.494  1.00  0.00    -0.206 F 
ATOM     93  C   UNL A   1      39.826  36.035  39.480  1.00  0.00     0.060 A 
BRANCH  93  94
ATOM     94  S   UNL A   1      39.703  37.263  40.798  1.00  0.00     0.124 S 
ATOM     95  O   UNL A   1      38.902  36.552  41.789  1.00  0.00    -0.237 OA
ATOM     96  O   UNL A   1      41.103  37.480  41.152  1.00  0.00    -0.237 OA
ATOM     97  O   UNL A   1      39.044  38.393  40.150  1.00  0.00    -0.744 OA
ENDBRANCH  93  94
ENDBRANCH  61  86
ENDBRANCH  35  36
ENDBRANCH  28  30
ENDBRANCH  27  28
ENDBRANCH  26  27
ENDBRANCH  25  26
ENDBRANCH   1  25
TORSDOF 22
ENDMDL
