MODEL 1
REMARK VINA RESULT:     -10.9      0.000      0.000
REMARK SMILES [NH3+]Cc1ccc(C(=O)N2[C@@H](C(=O)OCCOCCOC(=O)c3ccc(-c4c5nc(c(-c6c(F)cc(S(=O)(=O)[O-])cc6F)c6ccc([nH]6)c(-c6c(F)cc(S(=O)(=O)[O-])cc6F)c6nc(c(-c7c(F)cc(S(=O)(=O)[O-])cc7F)c7ccc4[nH]7)C=C6)C=C5)cc3)C[C@H]3CCCC[C@@H]32)o1
REMARK SMILES IDX 15 1 14 2 13 3 11 4 12 5 10 6 9 7 94 8 88 9 89 10 93 11
REMARK SMILES IDX 90 12 92 13 91 14 7 15 8 16 6 17 3 18 4 19 95 20 5 21 2 22
REMARK SMILES IDX 1 23 16 27 17 28 18 29 19 30 20 31 21 32 22 33 23 34 87 35
REMARK SMILES IDX 24 36 86 37 25 38 26 39 27 40 80 41 28 42 85 43 79 44 81 45
REMARK SMILES IDX 29 46 84 47 78 48 77 49 30 51 64 52 43 53 63 54 44 55 47 56
REMARK SMILES IDX 62 57 82 58 45 59 46 60 61 62 83 63 48 64 31 65 32 66 41 67
REMARK SMILES IDX 33 68 34 69 40 70 42 71 35 72 36 73 37 74 38 75 39 76 65 77
REMARK SMILES IDX 66 78 75 79 67 80 68 81 74 82 76 83 69 84 70 85 71 86 72 87
REMARK SMILES IDX 73 88 49 89 50 90 59 91 51 92 52 93 58 94 60 95 53 96 54 97
REMARK SMILES IDX 55 98 56 99 57 100
REMARK H PARENT 1 24 1 25 1 26 81 50 47 61
REMARK Flexibility Score: inf
ROOT
ATOM      1  C   UNL A   1      32.257  26.950  26.120  1.00  0.00     0.202 C 
ENDROOT
BRANCH   1   2
ATOM      2  C   UNL A   1      31.547  25.596  26.150  1.00  0.00     0.261 C 
BRANCH   2   3
ATOM      3  O   UNL A   1      32.301  24.573  25.482  1.00  0.00    -0.462 OA
BRANCH   3   4
ATOM      4  C   UNL A   1      31.984  23.304  25.872  1.00  0.00     0.328 C 
ATOM      5  O   UNL A   1      31.628  22.996  27.002  1.00  0.00    -0.250 OA
BRANCH   4   6
ATOM      6  C   UNL A   1      32.207  22.305  24.712  1.00  0.00     0.196 C 
ATOM      7  N   UNL A   1      33.264  21.329  25.033  1.00  0.00    -0.319 N 
ATOM      8  C   UNL A   1      34.532  21.975  24.837  1.00  0.00     0.089 C 
ATOM      9  C   UNL A   1      32.805  23.106  23.543  1.00  0.00     0.043 C 
ATOM     10  C   UNL A   1      34.272  22.647  23.487  1.00  0.00     0.014 C 
ATOM     11  C   UNL A   1      35.809  21.157  24.758  1.00  0.00     0.025 C 
ATOM     12  C   UNL A   1      35.337  23.693  23.224  1.00  0.00     0.006 C 
ATOM     13  C   UNL A   1      36.968  22.118  24.447  1.00  0.00     0.002 C 
ATOM     14  C   UNL A   1      36.712  23.008  23.218  1.00  0.00     0.000 C 
BRANCH   7  15
ATOM     15  C   UNL A   1      33.089  20.203  25.807  1.00  0.00     0.290 C 
ATOM     16  O   UNL A   1      33.235  20.230  27.028  1.00  0.00    -0.265 OA
BRANCH  15  17
ATOM     17  C   UNL A   1      32.931  18.976  25.039  1.00  0.00     0.192 A 
ATOM     18  C   UNL A   1      32.962  16.778  24.784  1.00  0.00     0.159 A 
ATOM     19  C   UNL A   1      32.930  17.312  23.515  1.00  0.00     0.052 A 
ATOM     20  O   UNL A   1      32.923  17.778  25.713  1.00  0.00    -0.450 OA
ATOM     21  C   UNL A   1      32.913  18.718  23.677  1.00  0.00     0.057 A 
BRANCH  18  22
ATOM     22  C   UNL A   1      33.070  15.386  25.295  1.00  0.00     0.335 C 
BRANCH  22  23
ATOM     23  N   UNL A   1      31.756  14.825  25.587  1.00  0.00    -0.351 N 
ATOM     24  H   UNL A   1      31.093  15.123  24.871  1.00  0.00     0.344 HD
ATOM     25  H   UNL A   1      31.441  15.153  26.500  1.00  0.00     0.344 HD
ATOM     26  H   UNL A   1      31.814  13.806  25.593  1.00  0.00     0.344 HD
ENDBRANCH  22  23
ENDBRANCH  18  22
ENDBRANCH  15  17
ENDBRANCH   7  15
ENDBRANCH   4   6
ENDBRANCH   3   4
ENDBRANCH   2   3
ENDBRANCH   1   2
BRANCH   1  27
ATOM     27  O   UNL A   1      31.799  27.960  27.013  1.00  0.00    -0.374 OA
BRANCH  27  28
ATOM     28  C   UNL A   1      31.694  29.300  26.535  1.00  0.00     0.202 C 
BRANCH  28  29
ATOM     29  C   UNL A   1      32.671  30.344  27.092  1.00  0.00     0.261 C 
BRANCH  29  30
ATOM     30  O   UNL A   1      33.886  29.762  27.598  1.00  0.00    -0.460 OA
BRANCH  30  31
ATOM     31  C   UNL A   1      34.733  30.642  28.185  1.00  0.00     0.338 C 
ATOM     32  O   UNL A   1      34.445  31.722  28.691  1.00  0.00    -0.246 OA
BRANCH  31  33
ATOM     33  C   UNL A   1      36.071  30.043  28.317  1.00  0.00     0.060 A 
ATOM     34  C   UNL A   1      36.437  29.522  29.566  1.00  0.00     0.016 A 
ATOM     35  C   UNL A   1      36.977  30.050  27.255  1.00  0.00     0.016 A 
ATOM     36  C   UNL A   1      37.724  29.026  29.766  1.00  0.00     0.010 A 
ATOM     37  C   UNL A   1      38.272  29.570  27.463  1.00  0.00     0.010 A 
ATOM     38  C   UNL A   1      38.658  29.078  28.725  1.00  0.00    -0.014 A 
BRANCH  38  39
ATOM     39  C   UNL A   1      40.077  28.739  28.985  1.00  0.00     0.031 A 
ATOM     40  C   UNL A   1      40.976  29.781  29.586  1.00  0.00     0.074 A 
ATOM     41  C   UNL A   1      40.552  27.514  28.696  1.00  0.00     0.049 A 
ATOM     42  N   UNL A   1      42.260  29.729  29.828  1.00  0.00    -0.248 NA
ATOM     43  C   UNL A   1      40.341  31.054  29.964  1.00  0.00     0.031 C 
ATOM     44  C   UNL A   1      39.759  26.406  28.169  1.00  0.00     0.029 A 
ATOM     45  N   UNL A   1      41.821  27.005  28.799  1.00  0.00    -0.354 N 
ATOM     46  C   UNL A   1      42.589  30.958  30.385  1.00  0.00     0.074 A 
ATOM     47  C   UNL A   1      41.375  31.747  30.417  1.00  0.00     0.031 C 
ATOM     48  C   UNL A   1      40.564  25.345  27.986  1.00  0.00     0.029 A 
ATOM     49  C   UNL A   1      41.933  25.714  28.343  1.00  0.00     0.049 A 
ATOM     50  H   UNL A   1      42.579  27.516  29.165  1.00  0.00     0.167 HD
ATOM     51  C   UNL A   1      43.792  31.386  30.836  1.00  0.00     0.037 A 
ATOM     52  C   UNL A   1      43.021  24.931  28.206  1.00  0.00     0.037 A 
ATOM     53  C   UNL A   1      44.997  30.601  30.785  1.00  0.00     0.049 A 
ATOM     54  C   UNL A   1      44.371  25.472  28.597  1.00  0.00     0.074 A 
ATOM     55  C   UNL A   1      46.266  30.938  31.221  1.00  0.00     0.029 A 
ATOM     56  N   UNL A   1      45.085  29.324  30.248  1.00  0.00    -0.354 N 
ATOM     57  N   UNL A   1      44.670  26.632  29.133  1.00  0.00    -0.248 NA
ATOM     58  C   UNL A   1      45.532  24.604  28.352  1.00  0.00     0.031 C 
ATOM     59  C   UNL A   1      47.131  29.885  30.902  1.00  0.00     0.029 A 
ATOM     60  C   UNL A   1      46.392  28.872  30.309  1.00  0.00     0.049 A 
ATOM     61  H   UNL A   1      44.328  28.814  29.879  1.00  0.00     0.167 HD
ATOM     62  C   UNL A   1      46.050  26.627  29.306  1.00  0.00     0.074 A 
ATOM     63  C   UNL A   1      46.526  25.345  28.826  1.00  0.00     0.031 C 
ATOM     64  C   UNL A   1      46.851  27.595  29.818  1.00  0.00     0.037 A 
BRANCH  51  65
ATOM     65  C   UNL A   1      43.861  32.784  31.387  1.00  0.00     0.058 A 
ATOM     66  C   UNL A   1      44.171  33.884  30.572  1.00  0.00     0.135 A 
ATOM     67  C   UNL A   1      43.626  33.024  32.751  1.00  0.00     0.135 A 
ATOM     68  F   UNL A   1      44.420  33.709  29.265  1.00  0.00    -0.206 F 
ATOM     69  C   UNL A   1      44.291  35.167  31.098  1.00  0.00     0.059 A 
ATOM     70  C   UNL A   1      43.714  34.303  33.293  1.00  0.00     0.059 A 
ATOM     71  F   UNL A   1      43.325  32.008  33.575  1.00  0.00    -0.206 F 
ATOM     72  C   UNL A   1      44.070  35.365  32.462  1.00  0.00     0.060 A 
BRANCH  72  73
ATOM     73  S   UNL A   1      44.267  37.027  33.138  1.00  0.00     0.124 S 
ATOM     74  O   UNL A   1      45.627  36.964  33.666  1.00  0.00    -0.237 OA
ATOM     75  O   UNL A   1      44.083  37.869  31.961  1.00  0.00    -0.237 OA
ATOM     76  O   UNL A   1      43.209  37.113  34.140  1.00  0.00    -0.744 OA
ENDBRANCH  72  73
ENDBRANCH  51  65
BRANCH  52  77
ATOM     77  C   UNL A   1      42.878  23.557  27.657  1.00  0.00     0.058 A 
ATOM     78  C   UNL A   1      42.598  22.473  28.500  1.00  0.00     0.135 A 
ATOM     79  C   UNL A   1      42.992  23.305  26.281  1.00  0.00     0.135 A 
ATOM     80  F   UNL A   1      42.493  22.662  29.825  1.00  0.00    -0.206 F 
ATOM     81  C   UNL A   1      42.431  21.186  28.000  1.00  0.00     0.059 A 
ATOM     82  C   UNL A   1      42.808  22.031  25.754  1.00  0.00     0.059 A 
ATOM     83  F   UNL A   1      43.253  24.311  25.432  1.00  0.00    -0.206 F 
ATOM     84  C   UNL A   1      42.530  20.975  26.623  1.00  0.00     0.060 A 
BRANCH  84  85
ATOM     85  S   UNL A   1      42.235  19.315  25.976  1.00  0.00     0.124 S 
ATOM     86  O   UNL A   1      42.701  18.484  27.079  1.00  0.00    -0.237 OA
ATOM     87  O   UNL A   1      40.794  19.329  25.747  1.00  0.00    -0.237 OA
ATOM     88  O   UNL A   1      43.053  19.278  24.767  1.00  0.00    -0.744 OA
ENDBRANCH  84  85
ENDBRANCH  52  77
BRANCH  64  89
ATOM     89  C   UNL A   1      48.325  27.309  29.899  1.00  0.00     0.058 A 
ATOM     90  C   UNL A   1      49.202  27.700  28.876  1.00  0.00     0.135 A 
ATOM     91  C   UNL A   1      48.875  26.709  31.043  1.00  0.00     0.135 A 
ATOM     92  F   UNL A   1      48.726  28.269  27.758  1.00  0.00    -0.206 F 
ATOM     93  C   UNL A   1      50.575  27.502  28.984  1.00  0.00     0.059 A 
ATOM     94  C   UNL A   1      50.246  26.522  31.182  1.00  0.00     0.059 A 
ATOM     95  F   UNL A   1      48.078  26.321  32.052  1.00  0.00    -0.206 F 
ATOM     96  C   UNL A   1      51.089  26.918  30.144  1.00  0.00     0.060 A 
BRANCH  96  97
ATOM     97  S   UNL A   1      52.878  26.724  30.295  1.00  0.00     0.124 S 
ATOM     98  O   UNL A   1      53.281  28.051  30.749  1.00  0.00    -0.237 OA
ATOM     99  O   UNL A   1      52.993  25.655  31.282  1.00  0.00    -0.237 OA
ATOM    100  O   UNL A   1      53.298  26.368  28.943  1.00  0.00    -0.744 OA
ENDBRANCH  96  97
ENDBRANCH  64  89
ENDBRANCH  38  39
ENDBRANCH  31  33
ENDBRANCH  30  31
ENDBRANCH  29  30
ENDBRANCH  28  29
ENDBRANCH  27  28
ENDBRANCH   1  27
TORSDOF 21
ENDMDL
MODEL 2
REMARK VINA RESULT:     -10.7      4.818     10.388
REMARK SMILES [NH3+]Cc1ccc(C(=O)N2[C@@H](C(=O)OCCOCCOC(=O)c3ccc(-c4c5nc(c(-c6c(F)cc(S(=O)(=O)[O-])cc6F)c6ccc([nH]6)c(-c6c(F)cc(S(=O)(=O)[O-])cc6F)c6nc(c(-c7c(F)cc(S(=O)(=O)[O-])cc7F)c7ccc4[nH]7)C=C6)C=C5)cc3)C[C@H]3CCCC[C@@H]32)o1
REMARK SMILES IDX 15 1 14 2 13 3 11 4 12 5 10 6 9 7 94 8 88 9 89 10 93 11
REMARK SMILES IDX 90 12 92 13 91 14 7 15 8 16 6 17 3 18 4 19 95 20 5 21 2 22
REMARK SMILES IDX 1 23 16 27 17 28 18 29 19 30 20 31 21 32 22 33 23 34 87 35
REMARK SMILES IDX 24 36 86 37 25 38 26 39 27 40 80 41 28 42 85 43 79 44 81 45
REMARK SMILES IDX 29 46 84 47 78 48 77 49 30 51 64 52 43 53 63 54 44 55 47 56
REMARK SMILES IDX 62 57 82 58 45 59 46 60 61 62 83 63 48 64 31 65 32 66 41 67
REMARK SMILES IDX 33 68 34 69 40 70 42 71 35 72 36 73 37 74 38 75 39 76 65 77
REMARK SMILES IDX 66 78 75 79 67 80 68 81 74 82 76 83 69 84 70 85 71 86 72 87
REMARK SMILES IDX 73 88 49 89 50 90 59 91 51 92 52 93 58 94 60 95 53 96 54 97
REMARK SMILES IDX 55 98 56 99 57 100
REMARK H PARENT 1 24 1 25 1 26 81 50 47 61
REMARK Flexibility Score: inf
ROOT
ATOM      1  C   UNL A   1      36.932  21.934  24.799  1.00  0.00     0.202 C 
ENDROOT
BRANCH   1   2
ATOM      2  C   UNL A   1      35.690  22.682  24.312  1.00  0.00     0.261 C 
BRANCH   2   3
ATOM      3  O   UNL A   1      35.100  23.485  25.345  1.00  0.00    -0.462 OA
BRANCH   3   4
ATOM      4  C   UNL A   1      34.346  24.523  24.881  1.00  0.00     0.328 C 
ATOM      5  O   UNL A   1      34.368  24.933  23.728  1.00  0.00    -0.250 OA
BRANCH   4   6
ATOM      6  C   UNL A   1      33.518  25.151  26.028  1.00  0.00     0.196 C 
ATOM      7  N   UNL A   1      32.079  24.883  25.866  1.00  0.00    -0.319 N 
ATOM      8  C   UNL A   1      31.570  25.795  24.880  1.00  0.00     0.089 C 
ATOM      9  C   UNL A   1      33.616  26.677  25.863  1.00  0.00     0.043 C 
ATOM     10  C   UNL A   1      32.221  27.091  25.370  1.00  0.00     0.014 C 
ATOM     11  C   UNL A   1      30.073  26.006  24.726  1.00  0.00     0.025 C 
ATOM     12  C   UNL A   1      32.131  28.148  24.287  1.00  0.00     0.006 C 
ATOM     13  C   UNL A   1      29.857  27.104  23.671  1.00  0.00     0.002 C 
ATOM     14  C   UNL A   1      30.650  28.391  23.956  1.00  0.00     0.000 C 
BRANCH   7  15
ATOM     15  C   UNL A   1      31.450  23.709  26.220  1.00  0.00     0.290 C 
ATOM     16  O   UNL A   1      30.844  23.597  27.284  1.00  0.00    -0.265 OA
BRANCH  15  17
ATOM     17  C   UNL A   1      31.746  22.589  25.338  1.00  0.00     0.192 A 
ATOM     18  C   UNL A   1      32.626  20.614  24.866  1.00  0.00     0.159 A 
ATOM     19  C   UNL A   1      32.316  21.197  23.657  1.00  0.00     0.052 A 
ATOM     20  O   UNL A   1      32.247  21.434  25.890  1.00  0.00    -0.450 OA
ATOM     21  C   UNL A   1      31.757  22.462  23.958  1.00  0.00     0.057 A 
BRANCH  18  22
ATOM     22  C   UNL A   1      33.300  19.341  25.235  1.00  0.00     0.335 C 
BRANCH  22  23
ATOM     23  N   UNL A   1      32.832  18.847  26.525  1.00  0.00    -0.351 N 
ATOM     24  H   UNL A   1      31.950  18.349  26.397  1.00  0.00     0.344 HD
ATOM     25  H   UNL A   1      32.689  19.632  27.159  1.00  0.00     0.344 HD
ATOM     26  H   UNL A   1      33.526  18.212  26.919  1.00  0.00     0.344 HD
ENDBRANCH  22  23
ENDBRANCH  18  22
ENDBRANCH  15  17
ENDBRANCH   7  15
ENDBRANCH   4   6
ENDBRANCH   3   4
ENDBRANCH   2   3
ENDBRANCH   1   2
BRANCH   1  27
ATOM     27  O   UNL A   1      38.053  22.709  25.212  1.00  0.00    -0.374 OA
BRANCH  27  28
ATOM     28  C   UNL A   1      38.790  22.288  26.358  1.00  0.00     0.202 C 
BRANCH  28  29
ATOM     29  C   UNL A   1      40.323  22.305  26.278  1.00  0.00     0.261 C 
BRANCH  29  30
ATOM     30  O   UNL A   1      40.930  23.126  27.292  1.00  0.00    -0.460 OA
BRANCH  30  31
ATOM     31  C   UNL A   1      41.525  24.252  26.828  1.00  0.00     0.338 C 
ATOM     32  O   UNL A   1      42.122  24.389  25.765  1.00  0.00    -0.246 OA
BRANCH  31  33
ATOM     33  C   UNL A   1      41.199  25.391  27.701  1.00  0.00     0.060 A 
ATOM     34  C   UNL A   1      42.118  26.446  27.777  1.00  0.00     0.016 A 
ATOM     35  C   UNL A   1      40.044  25.395  28.485  1.00  0.00     0.016 A 
ATOM     36  C   UNL A   1      41.899  27.503  28.657  1.00  0.00     0.010 A 
ATOM     37  C   UNL A   1      39.835  26.447  29.381  1.00  0.00     0.010 A 
ATOM     38  C   UNL A   1      40.772  27.493  29.488  1.00  0.00    -0.014 A 
BRANCH  38  39
ATOM     39  C   UNL A   1      40.633  28.505  30.561  1.00  0.00     0.031 A 
ATOM     40  C   UNL A   1      41.520  28.411  31.769  1.00  0.00     0.074 A 
ATOM     41  C   UNL A   1      39.732  29.498  30.452  1.00  0.00     0.049 A 
ATOM     42  N   UNL A   1      41.520  29.139  32.856  1.00  0.00    -0.248 NA
ATOM     43  C   UNL A   1      42.543  27.354  31.749  1.00  0.00     0.031 C 
ATOM     44  C   UNL A   1      38.863  29.725  29.300  1.00  0.00     0.029 A 
ATOM     45  N   UNL A   1      39.398  30.496  31.331  1.00  0.00    -0.354 N 
ATOM     46  C   UNL A   1      42.541  28.630  33.650  1.00  0.00     0.074 A 
ATOM     47  C   UNL A   1      43.117  27.511  32.933  1.00  0.00     0.031 C 
ATOM     48  C   UNL A   1      38.085  30.793  29.547  1.00  0.00     0.029 A 
ATOM     49  C   UNL A   1      38.374  31.297  30.888  1.00  0.00     0.049 A 
ATOM     50  H   UNL A   1      39.849  30.626  32.197  1.00  0.00     0.167 HD
ATOM     51  C   UNL A   1      42.962  29.061  34.863  1.00  0.00     0.037 A 
ATOM     52  C   UNL A   1      37.726  32.303  31.508  1.00  0.00     0.037 A 
ATOM     53  C   UNL A   1      42.371  30.163  35.575  1.00  0.00     0.049 A 
ATOM     54  C   UNL A   1      38.128  32.686  32.907  1.00  0.00     0.074 A 
ATOM     55  C   UNL A   1      42.728  30.685  36.806  1.00  0.00     0.029 A 
ATOM     56  N   UNL A   1      41.287  30.904  35.126  1.00  0.00    -0.354 N 
ATOM     57  N   UNL A   1      39.100  32.205  33.646  1.00  0.00    -0.248 NA
ATOM     58  C   UNL A   1      37.337  33.737  33.564  1.00  0.00     0.031 C 
ATOM     59  C   UNL A   1      41.826  31.708  37.123  1.00  0.00     0.029 A 
ATOM     60  C   UNL A   1      40.937  31.854  36.069  1.00  0.00     0.049 A 
ATOM     61  H   UNL A   1      40.833  30.772  34.262  1.00  0.00     0.167 HD
ATOM     62  C   UNL A   1      39.050  32.907  34.846  1.00  0.00     0.074 A 
ATOM     63  C   UNL A   1      37.957  33.851  34.732  1.00  0.00     0.031 C 
ATOM     64  C   UNL A   1      39.839  32.782  35.942  1.00  0.00     0.037 A 
BRANCH  51  65
ATOM     65  C   UNL A   1      44.094  28.306  35.504  1.00  0.00     0.058 A 
ATOM     66  C   UNL A   1      43.865  27.193  36.328  1.00  0.00     0.135 A 
ATOM     67  C   UNL A   1      45.423  28.710  35.301  1.00  0.00     0.135 A 
ATOM     68  F   UNL A   1      42.612  26.775  36.568  1.00  0.00    -0.206 F 
ATOM     69  C   UNL A   1      44.911  26.534  36.966  1.00  0.00     0.059 A 
ATOM     70  C   UNL A   1      46.487  28.049  35.909  1.00  0.00     0.059 A 
ATOM     71  F   UNL A   1      45.699  29.767  34.522  1.00  0.00    -0.206 F 
ATOM     72  C   UNL A   1      46.219  26.976  36.758  1.00  0.00     0.060 A 
BRANCH  72  73
ATOM     73  S   UNL A   1      47.564  26.137  37.622  1.00  0.00     0.124 S 
ATOM     74  O   UNL A   1      47.595  26.869  38.885  1.00  0.00    -0.237 OA
ATOM     75  O   UNL A   1      47.079  24.763  37.698  1.00  0.00    -0.237 OA
ATOM     76  O   UNL A   1      48.713  26.347  36.747  1.00  0.00    -0.744 OA
ENDBRANCH  72  73
ENDBRANCH  51  65
BRANCH  52  77
ATOM     77  C   UNL A   1      36.618  33.009  30.811  1.00  0.00     0.058 A 
ATOM     78  C   UNL A   1      35.281  32.738  31.131  1.00  0.00     0.135 A 
ATOM     79  C   UNL A   1      36.875  33.983  29.834  1.00  0.00     0.135 A 
ATOM     80  F   UNL A   1      34.986  31.805  32.050  1.00  0.00    -0.206 F 
ATOM     81  C   UNL A   1      34.233  33.411  30.511  1.00  0.00     0.059 A 
ATOM     82  C   UNL A   1      35.845  34.685  29.214  1.00  0.00     0.059 A 
ATOM     83  F   UNL A   1      38.139  34.283  29.496  1.00  0.00    -0.206 F 
ATOM     84  C   UNL A   1      34.526  34.390  29.559  1.00  0.00     0.060 A 
BRANCH  84  85
ATOM     85  S   UNL A   1      33.162  35.312  28.816  1.00  0.00     0.124 S 
ATOM     86  O   UNL A   1      33.874  36.366  28.104  1.00  0.00    -0.237 OA
ATOM     87  O   UNL A   1      32.524  34.296  27.986  1.00  0.00    -0.237 OA
ATOM     88  O   UNL A   1      32.383  35.745  29.972  1.00  0.00    -0.744 OA
ENDBRANCH  84  85
ENDBRANCH  52  77
BRANCH  64  89
ATOM     89  C   UNL A   1      39.561  33.692  37.107  1.00  0.00     0.058 A 
ATOM     90  C   UNL A   1      38.647  33.337  38.111  1.00  0.00     0.135 A 
ATOM     91  C   UNL A   1      40.273  34.893  37.261  1.00  0.00     0.135 A 
ATOM     92  F   UNL A   1      37.935  32.204  38.006  1.00  0.00    -0.206 F 
ATOM     93  C   UNL A   1      38.445  34.144  39.226  1.00  0.00     0.059 A 
ATOM     94  C   UNL A   1      40.103  35.703  38.379  1.00  0.00     0.059 A 
ATOM     95  F   UNL A   1      41.163  35.275  36.332  1.00  0.00    -0.206 F 
ATOM     96  C   UNL A   1      39.183  35.322  39.355  1.00  0.00     0.060 A 
BRANCH  96  97
ATOM     97  S   UNL A   1      38.954  36.328  40.837  1.00  0.00     0.124 S 
ATOM     98  O   UNL A   1      40.293  36.307  41.417  1.00  0.00    -0.237 OA
ATOM     99  O   UNL A   1      38.524  37.607  40.282  1.00  0.00    -0.237 OA
ATOM    100  O   UNL A   1      37.933  35.602  41.587  1.00  0.00    -0.744 OA
ENDBRANCH  96  97
ENDBRANCH  64  89
ENDBRANCH  38  39
ENDBRANCH  31  33
ENDBRANCH  30  31
ENDBRANCH  29  30
ENDBRANCH  28  29
ENDBRANCH  27  28
ENDBRANCH   1  27
TORSDOF 21
ENDMDL
MODEL 3
REMARK VINA RESULT:     -10.6      3.129      4.762
REMARK SMILES [NH3+]Cc1ccc(C(=O)N2[C@@H](C(=O)OCCOCCOC(=O)c3ccc(-c4c5nc(c(-c6c(F)cc(S(=O)(=O)[O-])cc6F)c6ccc([nH]6)c(-c6c(F)cc(S(=O)(=O)[O-])cc6F)c6nc(c(-c7c(F)cc(S(=O)(=O)[O-])cc7F)c7ccc4[nH]7)C=C6)C=C5)cc3)C[C@H]3CCCC[C@@H]32)o1
REMARK SMILES IDX 15 1 14 2 13 3 11 4 12 5 10 6 9 7 94 8 88 9 89 10 93 11
REMARK SMILES IDX 90 12 92 13 91 14 7 15 8 16 6 17 3 18 4 19 95 20 5 21 2 22
REMARK SMILES IDX 1 23 16 27 17 28 18 29 19 30 20 31 21 32 22 33 23 34 87 35
REMARK SMILES IDX 24 36 86 37 25 38 26 39 27 40 80 41 28 42 85 43 79 44 81 45
REMARK SMILES IDX 29 46 84 47 78 48 77 49 30 51 64 52 43 53 63 54 44 55 47 56
REMARK SMILES IDX 62 57 82 58 45 59 46 60 61 62 83 63 48 64 31 65 32 66 41 67
REMARK SMILES IDX 33 68 34 69 40 70 42 71 35 72 36 73 37 74 38 75 39 76 65 77
REMARK SMILES IDX 66 78 75 79 67 80 68 81 74 82 76 83 69 84 70 85 71 86 72 87
REMARK SMILES IDX 73 88 49 89 50 90 59 91 51 92 52 93 58 94 60 95 53 96 54 97
REMARK SMILES IDX 55 98 56 99 57 100
REMARK H PARENT 1 24 1 25 1 26 81 50 47 61
REMARK Flexibility Score: inf
ROOT
ATOM      1  C   UNL A   1      34.118  28.971  26.948  1.00  0.00     0.202 C 
ENDROOT
BRANCH   1   2
ATOM      2  C   UNL A   1      33.743  28.502  25.541  1.00  0.00     0.261 C 
BRANCH   2   3
ATOM      3  O   UNL A   1      32.563  27.684  25.538  1.00  0.00    -0.462 OA
BRANCH   3   4
ATOM      4  C   UNL A   1      32.813  26.346  25.637  1.00  0.00     0.328 C 
ATOM      5  O   UNL A   1      32.251  25.593  26.421  1.00  0.00    -0.250 OA
BRANCH   4   6
ATOM      6  C   UNL A   1      33.952  25.931  24.675  1.00  0.00     0.196 C 
ATOM      7  N   UNL A   1      33.440  25.156  23.532  1.00  0.00    -0.319 N 
ATOM      8  C   UNL A   1      33.211  23.811  23.981  1.00  0.00     0.089 C 
ATOM      9  C   UNL A   1      34.826  24.917  25.431  1.00  0.00     0.043 C 
ATOM     10  C   UNL A   1      34.511  23.573  24.753  1.00  0.00     0.014 C 
ATOM     11  C   UNL A   1      33.004  22.688  22.979  1.00  0.00     0.025 C 
ATOM     12  C   UNL A   1      34.366  22.347  25.632  1.00  0.00     0.006 C 
ATOM     13  C   UNL A   1      32.886  21.371  23.762  1.00  0.00     0.002 C 
ATOM     14  C   UNL A   1      34.049  21.135  24.742  1.00  0.00     0.000 C 
BRANCH   7  15
ATOM     15  C   UNL A   1      32.855  25.698  22.409  1.00  0.00     0.290 C 
ATOM     16  O   UNL A   1      33.463  25.791  21.344  1.00  0.00    -0.265 OA
BRANCH  15  17
ATOM     17  C   UNL A   1      31.563  26.323  22.657  1.00  0.00     0.192 A 
ATOM     18  C   UNL A   1      30.202  28.057  22.853  1.00  0.00     0.159 A 
ATOM     19  C   UNL A   1      29.541  26.984  23.409  1.00  0.00     0.052 A 
ATOM     20  O   UNL A   1      31.411  27.656  22.360  1.00  0.00    -0.450 OA
ATOM     21  C   UNL A   1      30.411  25.875  23.286  1.00  0.00     0.057 A 
BRANCH  18  22
ATOM     22  C   UNL A   1      29.873  29.502  22.740  1.00  0.00     0.335 C 
BRANCH  22  23
ATOM     23  N   UNL A   1      30.606  30.129  21.645  1.00  0.00    -0.351 N 
ATOM     24  H   UNL A   1      30.534  31.144  21.726  1.00  0.00     0.344 HD
ATOM     25  H   UNL A   1      30.209  29.831  20.755  1.00  0.00     0.344 HD
ATOM     26  H   UNL A   1      31.587  29.854  21.691  1.00  0.00     0.344 HD
ENDBRANCH  22  23
ENDBRANCH  18  22
ENDBRANCH  15  17
ENDBRANCH   7  15
ENDBRANCH   4   6
ENDBRANCH   3   4
ENDBRANCH   2   3
ENDBRANCH   1   2
BRANCH   1  27
ATOM     27  O   UNL A   1      33.665  30.256  27.361  1.00  0.00    -0.374 OA
BRANCH  27  28
ATOM     28  C   UNL A   1      34.626  31.296  27.534  1.00  0.00     0.202 C 
BRANCH  28  29
ATOM     29  C   UNL A   1      34.892  31.805  28.957  1.00  0.00     0.261 C 
BRANCH  29  30
ATOM     30  O   UNL A   1      35.812  30.976  29.687  1.00  0.00    -0.460 OA
BRANCH  30  31
ATOM     31  C   UNL A   1      36.905  31.623  30.161  1.00  0.00     0.338 C 
ATOM     32  O   UNL A   1      36.923  32.589  30.918  1.00  0.00    -0.246 OA
BRANCH  31  33
ATOM     33  C   UNL A   1      38.125  30.886  29.796  1.00  0.00     0.060 A 
ATOM     34  C   UNL A   1      39.094  30.686  30.789  1.00  0.00     0.016 A 
ATOM     35  C   UNL A   1      38.348  30.456  28.487  1.00  0.00     0.016 A 
ATOM     36  C   UNL A   1      40.305  30.074  30.471  1.00  0.00     0.010 A 
ATOM     37  C   UNL A   1      39.570  29.860  28.166  1.00  0.00     0.010 A 
ATOM     38  C   UNL A   1      40.562  29.688  29.150  1.00  0.00    -0.014 A 
BRANCH  38  39
ATOM     39  C   UNL A   1      41.915  29.221  28.765  1.00  0.00     0.031 A 
ATOM     40  C   UNL A   1      43.045  30.210  28.736  1.00  0.00     0.074 A 
ATOM     41  C   UNL A   1      42.130  27.931  28.454  1.00  0.00     0.049 A 
ATOM     42  N   UNL A   1      44.285  30.041  28.359  1.00  0.00    -0.248 NA
ATOM     43  C   UNL A   1      42.733  31.574  29.192  1.00  0.00     0.031 C 
ATOM     44  C   UNL A   1      41.125  26.872  28.508  1.00  0.00     0.029 A 
ATOM     45  N   UNL A   1      43.268  27.298  28.023  1.00  0.00    -0.354 N 
ATOM     46  C   UNL A   1      44.904  31.273  28.531  1.00  0.00     0.074 A 
ATOM     47  C   UNL A   1      43.893  32.189  29.017  1.00  0.00     0.031 C 
ATOM     48  C   UNL A   1      41.691  25.717  28.115  1.00  0.00     0.029 A 
ATOM     49  C   UNL A   1      43.082  25.966  27.744  1.00  0.00     0.049 A 
ATOM     50  H   UNL A   1      44.135  27.754  27.924  1.00  0.00     0.167 HD
ATOM     51  C   UNL A   1      46.198  31.607  28.310  1.00  0.00     0.037 A 
ATOM     52  C   UNL A   1      43.932  25.060  27.222  1.00  0.00     0.037 A 
ATOM     53  C   UNL A   1      47.191  30.694  27.811  1.00  0.00     0.049 A 
ATOM     54  C   UNL A   1      45.333  25.483  26.866  1.00  0.00     0.074 A 
ATOM     55  C   UNL A   1      48.531  30.929  27.559  1.00  0.00     0.029 A 
ATOM     56  N   UNL A   1      46.947  29.370  27.469  1.00  0.00    -0.354 N 
ATOM     57  N   UNL A   1      45.911  26.648  27.043  1.00  0.00    -0.248 NA
ATOM     58  C   UNL A   1      46.192  24.475  26.228  1.00  0.00     0.031 C 
ATOM     59  C   UNL A   1      49.085  29.763  27.018  1.00  0.00     0.029 A 
ATOM     60  C   UNL A   1      48.100  28.786  26.976  1.00  0.00     0.049 A 
ATOM     61  H   UNL A   1      46.080  28.914  27.565  1.00  0.00     0.167 HD
ATOM     62  C   UNL A   1      47.206  26.508  26.555  1.00  0.00     0.074 A 
ATOM     63  C   UNL A   1      47.330  25.144  26.084  1.00  0.00     0.031 C 
ATOM     64  C   UNL A   1      48.204  27.427  26.503  1.00  0.00     0.037 A 
BRANCH  51  65
ATOM     65  C   UNL A   1      46.593  33.033  28.576  1.00  0.00     0.058 A 
ATOM     66  C   UNL A   1      47.026  33.456  29.842  1.00  0.00     0.135 A 
ATOM     67  C   UNL A   1      46.524  33.993  27.553  1.00  0.00     0.135 A 
ATOM     68  F   UNL A   1      47.096  32.582  30.860  1.00  0.00    -0.206 F 
ATOM     69  C   UNL A   1      47.335  34.788  30.098  1.00  0.00     0.059 A 
ATOM     70  C   UNL A   1      46.852  35.327  27.780  1.00  0.00     0.059 A 
ATOM     71  F   UNL A   1      46.115  33.644  26.323  1.00  0.00    -0.206 F 
ATOM     72  C   UNL A   1      47.235  35.719  29.062  1.00  0.00     0.060 A 
BRANCH  72  73
ATOM     73  S   UNL A   1      47.600  37.451  29.417  1.00  0.00     0.124 S 
ATOM     74  O   UNL A   1      48.505  37.327  30.556  1.00  0.00    -0.237 OA
ATOM     75  O   UNL A   1      48.207  37.906  28.171  1.00  0.00    -0.237 OA
ATOM     76  O   UNL A   1      46.289  38.019  29.718  1.00  0.00    -0.744 OA
ENDBRANCH  72  73
ENDBRANCH  51  65
BRANCH  52  77
ATOM     77  C   UNL A   1      43.475  23.664  26.991  1.00  0.00     0.058 A 
ATOM     78  C   UNL A   1      43.354  22.762  28.056  1.00  0.00     0.135 A 
ATOM     79  C   UNL A   1      43.124  23.215  25.708  1.00  0.00     0.135 A 
ATOM     80  F   UNL A   1      43.691  23.142  29.299  1.00  0.00    -0.206 F 
ATOM     81  C   UNL A   1      42.898  21.462  27.862  1.00  0.00     0.059 A 
ATOM     82  C   UNL A   1      42.645  21.927  25.491  1.00  0.00     0.059 A 
ATOM     83  F   UNL A   1      43.216  24.043  24.656  1.00  0.00    -0.206 F 
ATOM     84  C   UNL A   1      42.538  21.056  26.575  1.00  0.00     0.060 A 
BRANCH  84  85
ATOM     85  S   UNL A   1      41.874  19.392  26.345  1.00  0.00     0.124 S 
ATOM     86  O   UNL A   1      40.438  19.647  26.344  1.00  0.00    -0.237 OA
ATOM     87  O   UNL A   1      42.457  19.005  25.066  1.00  0.00    -0.237 OA
ATOM     88  O   UNL A   1      42.385  18.666  27.504  1.00  0.00    -0.744 OA
ENDBRANCH  84  85
ENDBRANCH  52  77
BRANCH  64  89
ATOM     89  C   UNL A   1      49.523  26.990  25.928  1.00  0.00     0.058 A 
ATOM     90  C   UNL A   1      49.835  27.197  24.576  1.00  0.00     0.135 A 
ATOM     91  C   UNL A   1      50.513  26.431  26.753  1.00  0.00     0.135 A 
ATOM     92  F   UNL A   1      48.920  27.718  23.743  1.00  0.00    -0.206 F 
ATOM     93  C   UNL A   1      51.082  26.861  24.060  1.00  0.00     0.059 A 
ATOM     94  C   UNL A   1      51.774  26.109  26.263  1.00  0.00     0.059 A 
ATOM     95  F   UNL A   1      50.265  26.219  28.055  1.00  0.00    -0.206 F 
ATOM     96  C   UNL A   1      52.048  26.324  24.913  1.00  0.00     0.060 A 
BRANCH  96  97
ATOM     97  S   UNL A   1      53.683  25.950  24.243  1.00  0.00     0.124 S 
ATOM     98  O   UNL A   1      54.467  27.078  24.732  1.00  0.00    -0.237 OA
ATOM     99  O   UNL A   1      53.982  24.658  24.853  1.00  0.00    -0.237 OA
ATOM    100  O   UNL A   1      53.460  25.918  22.800  1.00  0.00    -0.744 OA
ENDBRANCH  96  97
ENDBRANCH  64  89
ENDBRANCH  38  39
ENDBRANCH  31  33
ENDBRANCH  30  31
ENDBRANCH  29  30
ENDBRANCH  28  29
ENDBRANCH  27  28
ENDBRANCH   1  27
TORSDOF 21
ENDMDL
