MODEL 1
REMARK VINA RESULT:     -13.3      0.000      0.000
REMARK SMILES Cc1ccccc1[C@H]1[NH2+][C@@H](C(=O)OCCOCCOC(=O)c2ccc(-c3c4nc(c(-c5c(F)cc(S(=O)(=O)[O-])cc5F)c5ccc([nH]5)c(-c5c(F)cc(S(=O)(=O)[O-])cc5F)c5nc(c(-c6c(F)cc(S(=O)(=O)[O-])cc6F)c6ccc3[nH]6)C=C5)C=C4)cc2)CC2=c3ccccc3=N[C@@H]21
REMARK SMILES IDX 17 1 16 2 15 3 14 4 13 5 11 6 12 7 10 8 8 9 9 10 97 11 89 14
REMARK SMILES IDX 96 15 88 16 90 17 95 18 91 19 94 20 92 21 93 22 7 23 1 24
REMARK SMILES IDX 2 25 3 26 4 27 6 28 5 29 18 30 19 31 20 32 21 33 22 34 23 35
REMARK SMILES IDX 87 36 24 37 86 38 25 39 26 40 27 41 80 42 28 43 85 44 79 45
REMARK SMILES IDX 81 46 29 47 84 48 78 49 77 50 30 52 64 53 43 54 63 55 44 56
REMARK SMILES IDX 47 57 62 58 82 59 45 60 46 61 61 63 83 64 48 65 31 66 32 67
REMARK SMILES IDX 41 68 33 69 34 70 40 71 42 72 35 73 36 74 37 75 38 76 39 77
REMARK SMILES IDX 65 78 66 79 75 80 67 81 68 82 74 83 76 84 69 85 70 86 71 87
REMARK SMILES IDX 72 88 73 89 49 90 50 91 59 92 51 93 52 94 58 95 60 96 53 97
REMARK SMILES IDX 54 98 55 99 56 100 57 101
REMARK H PARENT 9 12 9 13 81 51 47 62
REMARK Flexibility Score: inf
ROOT
ATOM      1  C   UNL A   1      41.097  23.256  27.613  1.00  0.00     0.202 C 
ENDROOT
BRANCH   1   2
ATOM      2  O   UNL A   1      40.039  24.139  27.999  1.00  0.00    -0.374 OA
BRANCH   2   3
ATOM      3  C   UNL A   1      39.183  24.776  26.996  1.00  0.00     0.202 C 
BRANCH   3   4
ATOM      4  C   UNL A   1      37.844  24.226  26.478  1.00  0.00     0.261 C 
BRANCH   4   5
ATOM      5  O   UNL A   1      37.901  23.444  25.278  1.00  0.00    -0.459 OA
BRANCH   5   6
ATOM      6  C   UNL A   1      37.802  22.099  25.278  1.00  0.00     0.365 C 
ATOM      7  O   UNL A   1      38.766  21.419  25.628  1.00  0.00    -0.245 OA
BRANCH   6   8
ATOM      8  C   UNL A   1      36.549  21.461  24.646  1.00  0.00     0.298 C 
ATOM      9  C   UNL A   1      34.372  22.689  23.920  1.00  0.00     0.243 C 
ATOM     10  N   UNL A   1      35.809  22.414  23.822  1.00  0.00    -0.326 N 
ATOM     11  C   UNL A   1      33.499  21.616  24.789  1.00  0.00     0.196 C 
ATOM     12  H   UNL A   1      36.266  23.313  23.973  1.00  0.00     0.347 HD
ATOM     13  H   UNL A   1      35.838  21.932  22.923  1.00  0.00     0.347 HD
ATOM     14  C   UNL A   1      34.411  20.474  25.196  1.00  0.00    -0.024 C 
ATOM     15  N   UNL A   1      32.443  20.904  23.984  1.00  0.00    -0.270 NA
ATOM     16  C   UNL A   1      35.730  20.809  25.767  1.00  0.00     0.111 C 
ATOM     17  C   UNL A   1      34.078  19.324  24.622  1.00  0.00     0.002 A 
ATOM     18  C   UNL A   1      32.823  19.661  23.950  1.00  0.00     0.066 A 
ATOM     19  C   UNL A   1      34.799  18.123  24.336  1.00  0.00     0.010 A 
ATOM     20  C   UNL A   1      32.169  18.532  23.242  1.00  0.00     0.028 A 
ATOM     21  C   UNL A   1      34.244  17.234  23.497  1.00  0.00     0.001 A 
ATOM     22  C   UNL A   1      32.885  17.416  23.008  1.00  0.00     0.002 A 
BRANCH   9  23
ATOM     23  C   UNL A   1      33.995  24.298  23.681  1.00  0.00     0.015 A 
ATOM     24  C   UNL A   1      33.801  26.677  25.926  1.00  0.00     0.045 C 
ATOM     25  C   UNL A   1      33.898  26.004  24.529  1.00  0.00    -0.042 A 
ATOM     26  C   UNL A   1      33.170  27.414  23.566  1.00  0.00     0.004 A 
ATOM     27  C   UNL A   1      32.560  27.193  21.931  1.00  0.00     0.000 A 
ATOM     28  C   UNL A   1      33.185  24.158  22.052  1.00  0.00     0.010 A 
ATOM     29  C   UNL A   1      32.484  25.580  21.217  1.00  0.00     0.001 A 
ENDBRANCH   9  23
ENDBRANCH   6   8
ENDBRANCH   5   6
ENDBRANCH   4   5
ENDBRANCH   3   4
ENDBRANCH   2   3
ENDBRANCH   1   2
BRANCH   1  30
ATOM     30  C   UNL A   1      42.349  23.563  26.604  1.00  0.00     0.261 C 
BRANCH  30  31
ATOM     31  O   UNL A   1      43.188  24.977  26.333  1.00  0.00    -0.460 OA
BRANCH  31  32
ATOM     32  C   UNL A   1      43.860  26.343  27.022  1.00  0.00     0.338 C 
ATOM     33  O   UNL A   1      45.057  25.925  27.074  1.00  0.00    -0.246 OA
BRANCH  32  34
ATOM     34  C   UNL A   1      42.849  28.165  27.487  1.00  0.00     0.060 A 
ATOM     35  C   UNL A   1      43.319  29.510  28.002  1.00  0.00     0.016 A 
ATOM     36  C   UNL A   1      41.364  28.436  27.484  1.00  0.00     0.016 A 
ATOM     37  C   UNL A   1      42.623  30.363  28.886  1.00  0.00     0.010 A 
ATOM     38  C   UNL A   1      40.679  29.152  28.437  1.00  0.00     0.010 A 
ATOM     39  C   UNL A   1      41.365  29.993  29.265  1.00  0.00    -0.014 A 
BRANCH  39  40
ATOM     40  C   UNL A   1      40.733  30.273  30.535  1.00  0.00     0.031 A 
ATOM     41  C   UNL A   1      39.940  31.505  30.672  1.00  0.00     0.074 A 
ATOM     42  C   UNL A   1      40.736  29.271  31.449  1.00  0.00     0.049 A 
ATOM     43  N   UNL A   1      39.586  31.974  31.809  1.00  0.00    -0.248 NA
ATOM     44  C   UNL A   1      39.527  32.377  29.564  1.00  0.00     0.031 C 
ATOM     45  C   UNL A   1      39.906  29.055  32.633  1.00  0.00     0.029 A 
ATOM     46  N   UNL A   1      41.633  28.218  31.522  1.00  0.00    -0.354 N 
ATOM     47  C   UNL A   1      38.633  32.934  31.570  1.00  0.00     0.074 A 
ATOM     48  C   UNL A   1      38.790  33.294  30.194  1.00  0.00     0.031 C 
ATOM     49  C   UNL A   1      40.504  28.145  33.432  1.00  0.00     0.029 A 
ATOM     50  C   UNL A   1      41.793  27.810  32.834  1.00  0.00     0.049 A 
ATOM     51  H   UNL A   1      42.091  27.816  30.750  1.00  0.00     0.167 HD
ATOM     52  C   UNL A   1      37.705  33.156  32.536  1.00  0.00     0.037 A 
ATOM     53  C   UNL A   1      43.017  28.004  33.403  1.00  0.00     0.037 A 
ATOM     54  C   UNL A   1      38.088  32.433  33.753  1.00  0.00     0.049 A 
ATOM     55  C   UNL A   1      42.914  29.118  34.414  1.00  0.00     0.074 A 
ATOM     56  C   UNL A   1      37.594  31.324  34.412  1.00  0.00     0.029 A 
ATOM     57  N   UNL A   1      39.372  32.641  34.258  1.00  0.00    -0.354 N 
ATOM     58  N   UNL A   1      42.023  30.077  34.334  1.00  0.00    -0.248 NA
ATOM     59  C   UNL A   1      43.638  29.128  35.679  1.00  0.00     0.031 C 
ATOM     60  C   UNL A   1      38.637  30.824  35.259  1.00  0.00     0.029 A 
ATOM     61  C   UNL A   1      39.751  31.645  35.133  1.00  0.00     0.049 A 
ATOM     62  H   UNL A   1      39.941  33.408  34.018  1.00  0.00     0.167 HD
ATOM     63  C   UNL A   1      41.966  30.745  35.524  1.00  0.00     0.074 A 
ATOM     64  C   UNL A   1      43.006  30.123  36.326  1.00  0.00     0.031 C 
ATOM     65  C   UNL A   1      41.055  31.729  35.794  1.00  0.00     0.037 A 
BRANCH  52  66
ATOM     66  C   UNL A   1      36.391  33.879  32.336  1.00  0.00     0.058 A 
ATOM     67  C   UNL A   1      35.916  34.748  33.339  1.00  0.00     0.135 A 
ATOM     68  C   UNL A   1      35.517  33.722  31.233  1.00  0.00     0.135 A 
ATOM     69  F   UNL A   1      36.616  34.945  34.465  1.00  0.00    -0.206 F 
ATOM     70  C   UNL A   1      34.702  35.435  33.238  1.00  0.00     0.059 A 
ATOM     71  C   UNL A   1      34.326  34.440  31.085  1.00  0.00     0.059 A 
ATOM     72  F   UNL A   1      35.732  32.817  30.270  1.00  0.00    -0.206 F 
ATOM     73  C   UNL A   1      33.922  35.293  32.096  1.00  0.00     0.060 A 
BRANCH  73  74
ATOM     74  S   UNL A   1      32.385  36.222  31.957  1.00  0.00     0.124 S 
ATOM     75  O   UNL A   1      32.294  36.442  30.517  1.00  0.00    -0.237 OA
ATOM     76  O   UNL A   1      31.412  35.294  32.524  1.00  0.00    -0.237 OA
ATOM     77  O   UNL A   1      32.637  37.420  32.755  1.00  0.00    -0.744 OA
ENDBRANCH  73  74
ENDBRANCH  52  66
BRANCH  53  78
ATOM     78  C   UNL A   1      44.155  27.571  32.526  1.00  0.00     0.058 A 
ATOM     79  C   UNL A   1      44.874  28.611  31.903  1.00  0.00     0.135 A 
ATOM     80  C   UNL A   1      44.784  26.318  32.524  1.00  0.00     0.135 A 
ATOM     81  F   UNL A   1      44.346  29.842  31.918  1.00  0.00    -0.206 F 
ATOM     82  C   UNL A   1      46.146  28.449  31.350  1.00  0.00     0.059 A 
ATOM     83  C   UNL A   1      46.070  26.126  31.969  1.00  0.00     0.059 A 
ATOM     84  F   UNL A   1      44.211  25.278  33.143  1.00  0.00    -0.206 F 
ATOM     85  C   UNL A   1      46.743  27.199  31.379  1.00  0.00     0.060 A 
BRANCH  85  86
ATOM     86  S   UNL A   1      48.421  27.032  30.693  1.00  0.00     0.124 S 
ATOM     87  O   UNL A   1      48.141  26.645  29.315  1.00  0.00    -0.237 OA
ATOM     88  O   UNL A   1      48.979  28.368  30.856  1.00  0.00    -0.237 OA
ATOM     89  O   UNL A   1      49.018  26.001  31.537  1.00  0.00    -0.744 OA
ENDBRANCH  85  86
ENDBRANCH  53  78
BRANCH  65  90
ATOM     90  C   UNL A   1      41.350  32.917  36.696  1.00  0.00     0.058 A 
ATOM     91  C   UNL A   1      42.336  33.884  36.433  1.00  0.00     0.135 A 
ATOM     92  C   UNL A   1      40.483  33.235  37.776  1.00  0.00     0.135 A 
ATOM     93  F   UNL A   1      43.165  33.802  35.386  1.00  0.00    -0.206 F 
ATOM     94  C   UNL A   1      42.493  35.028  37.208  1.00  0.00     0.059 A 
ATOM     95  C   UNL A   1      40.559  34.420  38.497  1.00  0.00     0.059 A 
ATOM     96  F   UNL A   1      39.496  32.417  38.167  1.00  0.00    -0.206 F 
ATOM     97  C   UNL A   1      41.592  35.295  38.229  1.00  0.00     0.060 A 
BRANCH  97  98
ATOM     98  S   UNL A   1      41.796  36.797  39.185  1.00  0.00     0.124 S 
ATOM     99  O   UNL A   1      40.508  37.448  38.968  1.00  0.00    -0.237 OA
ATOM    100  O   UNL A   1      42.025  36.280  40.531  1.00  0.00    -0.237 OA
ATOM    101  O   UNL A   1      42.945  37.446  38.564  1.00  0.00    -0.744 OA
ENDBRANCH  97  98
ENDBRANCH  65  90
ENDBRANCH  39  40
ENDBRANCH  32  34
ENDBRANCH  31  32
ENDBRANCH  30  31
ENDBRANCH   1  30
TORSDOF 18
ENDMDL
MODEL 2
REMARK VINA RESULT:     -12.4      6.168     11.699
REMARK SMILES Cc1ccccc1[C@H]1[NH2+][C@@H](C(=O)OCCOCCOC(=O)c2ccc(-c3c4nc(c(-c5c(F)cc(S(=O)(=O)[O-])cc5F)c5ccc([nH]5)c(-c5c(F)cc(S(=O)(=O)[O-])cc5F)c5nc(c(-c6c(F)cc(S(=O)(=O)[O-])cc6F)c6ccc3[nH]6)C=C5)C=C4)cc2)CC2=c3ccccc3=N[C@@H]21
REMARK SMILES IDX 17 1 16 2 15 3 14 4 13 5 11 6 12 7 10 8 8 9 9 10 97 11 89 14
REMARK SMILES IDX 96 15 88 16 90 17 95 18 91 19 94 20 92 21 93 22 7 23 1 24
REMARK SMILES IDX 2 25 3 26 4 27 6 28 5 29 18 30 19 31 20 32 21 33 22 34 23 35
REMARK SMILES IDX 87 36 24 37 86 38 25 39 26 40 27 41 80 42 28 43 85 44 79 45
REMARK SMILES IDX 81 46 29 47 84 48 78 49 77 50 30 52 64 53 43 54 63 55 44 56
REMARK SMILES IDX 47 57 62 58 82 59 45 60 46 61 61 63 83 64 48 65 31 66 32 67
REMARK SMILES IDX 41 68 33 69 34 70 40 71 42 72 35 73 36 74 37 75 38 76 39 77
REMARK SMILES IDX 65 78 66 79 75 80 67 81 68 82 74 83 76 84 69 85 70 86 71 87
REMARK SMILES IDX 72 88 73 89 49 90 50 91 59 92 51 93 52 94 58 95 60 96 53 97
REMARK SMILES IDX 54 98 55 99 56 100 57 101
REMARK H PARENT 9 12 9 13 81 51 47 62
REMARK Flexibility Score: inf
ROOT
ATOM      1  C   UNL A   1      36.903  31.077  30.500  1.00  0.00     0.202 C 
ENDROOT
BRANCH   1   2
ATOM      2  O   UNL A   1      35.824  31.696  29.794  1.00  0.00    -0.374 OA
BRANCH   2   3
ATOM      3  C   UNL A   1      35.618  31.453  28.365  1.00  0.00     0.202 C 
BRANCH   3   4
ATOM      4  C   UNL A   1      34.285  31.596  27.611  1.00  0.00     0.261 C 
BRANCH   4   5
ATOM      5  O   UNL A   1      33.344  30.528  27.777  1.00  0.00    -0.459 OA
BRANCH   5   6
ATOM      6  C   UNL A   1      33.321  29.445  26.973  1.00  0.00     0.365 C 
ATOM      7  O   UNL A   1      34.353  28.801  26.790  1.00  0.00    -0.245 OA
BRANCH   6   8
ATOM      8  C   UNL A   1      32.044  29.175  26.152  1.00  0.00     0.298 C 
ATOM      9  C   UNL A   1      31.241  26.877  25.228  1.00  0.00     0.243 C 
ATOM     10  N   UNL A   1      31.570  27.803  26.317  1.00  0.00    -0.326 N 
ATOM     11  C   UNL A   1      31.090  27.548  23.746  1.00  0.00     0.196 C 
ATOM     12  H   UNL A   1      32.292  27.331  26.862  1.00  0.00     0.347 HD
ATOM     13  H   UNL A   1      30.636  27.980  26.688  1.00  0.00     0.347 HD
ATOM     14  C   UNL A   1      31.207  29.054  23.887  1.00  0.00    -0.024 C 
ATOM     15  N   UNL A   1      29.714  27.394  23.151  1.00  0.00    -0.270 NA
ATOM     16  C   UNL A   1      32.314  29.590  24.701  1.00  0.00     0.111 C 
ATOM     17  C   UNL A   1      30.075  29.685  23.595  1.00  0.00     0.002 A 
ATOM     18  C   UNL A   1      29.233  28.600  23.089  1.00  0.00     0.066 A 
ATOM     19  C   UNL A   1      29.542  30.963  23.951  1.00  0.00     0.010 A 
ATOM     20  C   UNL A   1      27.885  29.017  22.628  1.00  0.00     0.028 A 
ATOM     21  C   UNL A   1      28.243  31.197  23.711  1.00  0.00     0.001 A 
ATOM     22  C   UNL A   1      27.433  30.236  22.977  1.00  0.00     0.002 A 
BRANCH   9  23
ATOM     23  C   UNL A   1      31.682  25.300  25.552  1.00  0.00     0.015 A 
ATOM     24  C   UNL A   1      29.894  22.964  26.995  1.00  0.00     0.045 C 
ATOM     25  C   UNL A   1      31.042  23.614  26.175  1.00  0.00    -0.042 A 
ATOM     26  C   UNL A   1      32.280  22.256  26.432  1.00  0.00     0.004 A 
ATOM     27  C   UNL A   1      33.996  22.508  26.141  1.00  0.00     0.000 A 
ATOM     28  C   UNL A   1      33.493  25.486  25.442  1.00  0.00     0.010 A 
ATOM     29  C   UNL A   1      34.607  24.114  25.740  1.00  0.00     0.001 A 
ENDBRANCH   9  23
ENDBRANCH   6   8
ENDBRANCH   5   6
ENDBRANCH   4   5
ENDBRANCH   3   4
ENDBRANCH   2   3
ENDBRANCH   1   2
BRANCH   1  30
ATOM     30  C   UNL A   1      36.952  29.577  31.154  1.00  0.00     0.261 C 
BRANCH  30  31
ATOM     31  O   UNL A   1      37.889  28.260  30.749  1.00  0.00    -0.460 OA
BRANCH  31  32
ATOM     32  C   UNL A   1      39.168  27.699  29.831  1.00  0.00     0.338 C 
ATOM     33  O   UNL A   1      38.964  26.459  30.012  1.00  0.00    -0.246 OA
BRANCH  32  34
ATOM     34  C   UNL A   1      40.538  28.879  28.695  1.00  0.00     0.060 A 
ATOM     35  C   UNL A   1      41.170  28.706  27.329  1.00  0.00     0.016 A 
ATOM     36  C   UNL A   1      41.255  30.139  29.114  1.00  0.00     0.016 A 
ATOM     37  C   UNL A   1      42.475  29.090  26.952  1.00  0.00     0.010 A 
ATOM     38  C   UNL A   1      42.574  30.431  28.860  1.00  0.00     0.010 A 
ATOM     39  C   UNL A   1      43.232  29.755  27.873  1.00  0.00    -0.014 A 
BRANCH  39  40
ATOM     40  C   UNL A   1      44.670  29.692  28.010  1.00  0.00     0.031 A 
ATOM     41  C   UNL A   1      45.485  30.742  27.378  1.00  0.00     0.074 A 
ATOM     42  C   UNL A   1      45.157  28.789  28.896  1.00  0.00     0.049 A 
ATOM     43  N   UNL A   1      46.747  30.623  27.204  1.00  0.00    -0.248 NA
ATOM     44  C   UNL A   1      44.966  31.993  26.808  1.00  0.00     0.031 C 
ATOM     45  C   UNL A   1      46.459  28.703  29.556  1.00  0.00     0.029 A 
ATOM     46  N   UNL A   1      44.531  27.632  29.330  1.00  0.00    -0.354 N 
ATOM     47  C   UNL A   1      47.228  31.866  26.873  1.00  0.00     0.074 A 
ATOM     48  C   UNL A   1      46.088  32.612  26.434  1.00  0.00     0.031 C 
ATOM     49  C   UNL A   1      46.623  27.457  30.049  1.00  0.00     0.029 A 
ATOM     50  C   UNL A   1      45.468  26.664  29.642  1.00  0.00     0.049 A 
ATOM     51  H   UNL A   1      43.557  27.515  29.405  1.00  0.00     0.167 HD
ATOM     52  C   UNL A   1      48.513  32.154  27.202  1.00  0.00     0.037 A 
ATOM     53  C   UNL A   1      45.496  25.547  28.860  1.00  0.00     0.037 A 
ATOM     54  C   UNL A   1      49.182  30.933  27.663  1.00  0.00     0.049 A 
ATOM     55  C   UNL A   1      46.735  25.584  28.000  1.00  0.00     0.074 A 
ATOM     56  C   UNL A   1      49.629  30.483  28.890  1.00  0.00     0.029 A 
ATOM     57  N   UNL A   1      49.134  29.811  26.835  1.00  0.00    -0.354 N 
ATOM     58  N   UNL A   1      47.324  26.700  27.643  1.00  0.00    -0.248 NA
ATOM     59  C   UNL A   1      47.517  24.402  27.660  1.00  0.00     0.031 C 
ATOM     60  C   UNL A   1      49.767  29.059  28.804  1.00  0.00     0.029 A 
ATOM     61  C   UNL A   1      49.431  28.651  27.519  1.00  0.00     0.049 A 
ATOM     62  H   UNL A   1      48.914  29.843  25.876  1.00  0.00     0.167 HD
ATOM     63  C   UNL A   1      48.565  26.420  27.147  1.00  0.00     0.074 A 
ATOM     64  C   UNL A   1      48.631  24.968  27.164  1.00  0.00     0.031 C 
ATOM     65  C   UNL A   1      49.472  27.381  26.792  1.00  0.00     0.037 A 
BRANCH  52  66
ATOM     66  C   UNL A   1      49.109  33.544  27.263  1.00  0.00     0.058 A 
ATOM     67  C   UNL A   1      50.063  33.933  26.302  1.00  0.00     0.135 A 
ATOM     68  C   UNL A   1      48.850  34.516  28.260  1.00  0.00     0.135 A 
ATOM     69  F   UNL A   1      50.446  33.090  25.333  1.00  0.00    -0.206 F 
ATOM     70  C   UNL A   1      50.675  35.191  26.303  1.00  0.00     0.059 A 
ATOM     71  C   UNL A   1      49.407  35.798  28.249  1.00  0.00     0.059 A 
ATOM     72  F   UNL A   1      48.096  34.256  29.335  1.00  0.00    -0.206 F 
ATOM     73  C   UNL A   1      50.325  36.127  27.269  1.00  0.00     0.060 A 
BRANCH  73  74
ATOM     74  S   UNL A   1      51.083  37.761  27.229  1.00  0.00     0.124 S 
ATOM     75  O   UNL A   1      51.530  37.921  28.609  1.00  0.00    -0.237 OA
ATOM     76  O   UNL A   1      52.135  37.588  26.232  1.00  0.00    -0.237 OA
ATOM     77  O   UNL A   1      49.985  38.637  26.825  1.00  0.00    -0.744 OA
ENDBRANCH  73  74
ENDBRANCH  52  66
BRANCH  53  78
ATOM     78  C   UNL A   1      44.136  24.966  28.604  1.00  0.00     0.058 A 
ATOM     79  C   UNL A   1      43.638  25.136  27.297  1.00  0.00     0.135 A 
ATOM     80  C   UNL A   1      43.472  24.008  29.382  1.00  0.00     0.135 A 
ATOM     81  F   UNL A   1      44.263  26.001  26.488  1.00  0.00    -0.206 F 
ATOM     82  C   UNL A   1      42.583  24.388  26.767  1.00  0.00     0.059 A 
ATOM     83  C   UNL A   1      42.402  23.239  28.872  1.00  0.00     0.059 A 
ATOM     84  F   UNL A   1      43.907  23.728  30.618  1.00  0.00    -0.206 F 
ATOM     85  C   UNL A   1      41.960  23.439  27.562  1.00  0.00     0.060 A 
BRANCH  85  86
ATOM     86  S   UNL A   1      40.621  22.448  26.827  1.00  0.00     0.124 S 
ATOM     87  O   UNL A   1      39.578  23.450  26.642  1.00  0.00    -0.237 OA
ATOM     88  O   UNL A   1      41.219  21.947  25.597  1.00  0.00    -0.237 OA
ATOM     89  O   UNL A   1      40.363  21.439  27.849  1.00  0.00    -0.744 OA
ENDBRANCH  85  86
ENDBRANCH  53  78
BRANCH  65  90
ATOM     90  C   UNL A   1      50.470  27.212  25.658  1.00  0.00     0.058 A 
ATOM     91  C   UNL A   1      50.130  27.232  24.294  1.00  0.00     0.135 A 
ATOM     92  C   UNL A   1      51.867  27.230  25.919  1.00  0.00     0.135 A 
ATOM     93  F   UNL A   1      48.865  27.330  23.869  1.00  0.00    -0.206 F 
ATOM     94  C   UNL A   1      51.081  27.205  23.281  1.00  0.00     0.059 A 
ATOM     95  C   UNL A   1      52.832  27.307  24.923  1.00  0.00     0.059 A 
ATOM     96  F   UNL A   1      52.364  27.202  27.164  1.00  0.00    -0.206 F 
ATOM     97  C   UNL A   1      52.430  27.256  23.603  1.00  0.00     0.060 A 
BRANCH  97  98
ATOM     98  S   UNL A   1      53.632  27.261  22.275  1.00  0.00     0.124 S 
ATOM     99  O   UNL A   1      53.694  28.683  21.953  1.00  0.00    -0.237 OA
ATOM    100  O   UNL A   1      54.816  26.707  22.926  1.00  0.00    -0.237 OA
ATOM    101  O   UNL A   1      53.025  26.409  21.259  1.00  0.00    -0.744 OA
ENDBRANCH  97  98
ENDBRANCH  65  90
ENDBRANCH  39  40
ENDBRANCH  32  34
ENDBRANCH  31  32
ENDBRANCH  30  31
ENDBRANCH   1  30
TORSDOF 18
ENDMDL
MODEL 3
REMARK VINA RESULT:     -12.4      6.863     15.109
REMARK SMILES Cc1ccccc1[C@H]1[NH2+][C@@H](C(=O)OCCOCCOC(=O)c2ccc(-c3c4nc(c(-c5c(F)cc(S(=O)(=O)[O-])cc5F)c5ccc([nH]5)c(-c5c(F)cc(S(=O)(=O)[O-])cc5F)c5nc(c(-c6c(F)cc(S(=O)(=O)[O-])cc6F)c6ccc3[nH]6)C=C5)C=C4)cc2)CC2=c3ccccc3=N[C@@H]21
REMARK SMILES IDX 17 1 16 2 15 3 14 4 13 5 11 6 12 7 10 8 8 9 9 10 97 11 89 14
REMARK SMILES IDX 96 15 88 16 90 17 95 18 91 19 94 20 92 21 93 22 7 23 1 24
REMARK SMILES IDX 2 25 3 26 4 27 6 28 5 29 18 30 19 31 20 32 21 33 22 34 23 35
REMARK SMILES IDX 87 36 24 37 86 38 25 39 26 40 27 41 80 42 28 43 85 44 79 45
REMARK SMILES IDX 81 46 29 47 84 48 78 49 77 50 30 52 64 53 43 54 63 55 44 56
REMARK SMILES IDX 47 57 62 58 82 59 45 60 46 61 61 63 83 64 48 65 31 66 32 67
REMARK SMILES IDX 41 68 33 69 34 70 40 71 42 72 35 73 36 74 37 75 38 76 39 77
REMARK SMILES IDX 65 78 66 79 75 80 67 81 68 82 74 83 76 84 69 85 70 86 71 87
REMARK SMILES IDX 72 88 73 89 49 90 50 91 59 92 51 93 52 94 58 95 60 96 53 97
REMARK SMILES IDX 54 98 55 99 56 100 57 101
REMARK H PARENT 9 12 9 13 81 51 47 62
REMARK Flexibility Score: inf
ROOT
ATOM      1  C   UNL A   1      40.884  34.997  29.699  1.00  0.00     0.202 C 
ENDROOT
BRANCH   1   2
ATOM      2  O   UNL A   1      41.998  35.552  28.994  1.00  0.00    -0.374 OA
BRANCH   2   3
ATOM      3  C   UNL A   1      42.015  35.602  27.530  1.00  0.00     0.202 C 
BRANCH   3   4
ATOM      4  C   UNL A   1      42.580  36.750  26.677  1.00  0.00     0.261 C 
BRANCH   4   5
ATOM      5  O   UNL A   1      42.686  38.027  27.321  1.00  0.00    -0.459 OA
BRANCH   5   6
ATOM      6  C   UNL A   1      42.031  39.121  26.881  1.00  0.00     0.365 C 
ATOM      7  O   UNL A   1      41.156  39.003  26.025  1.00  0.00    -0.245 OA
BRANCH   6   8
ATOM      8  C   UNL A   1      42.547  40.505  27.324  1.00  0.00     0.298 C 
ATOM      9  C   UNL A   1      43.786  42.253  25.845  1.00  0.00     0.243 C 
ATOM     10  N   UNL A   1      42.618  41.443  26.207  1.00  0.00    -0.326 N 
ATOM     11  C   UNL A   1      44.967  42.340  26.971  1.00  0.00     0.196 C 
ATOM     12  H   UNL A   1      42.407  40.890  25.376  1.00  0.00     0.347 HD
ATOM     13  H   UNL A   1      41.993  42.174  26.548  1.00  0.00     0.347 HD
ATOM     14  C   UNL A   1      44.487  41.633  28.225  1.00  0.00    -0.024 C 
ATOM     15  N   UNL A   1      45.218  43.738  27.476  1.00  0.00    -0.270 NA
ATOM     16  C   UNL A   1      43.868  40.302  28.076  1.00  0.00     0.111 C 
ATOM     17  C   UNL A   1      44.319  42.463  29.248  1.00  0.00     0.002 A 
ATOM     18  C   UNL A   1      44.854  43.719  28.723  1.00  0.00     0.066 A 
ATOM     19  C   UNL A   1      43.533  42.406  30.441  1.00  0.00     0.010 A 
ATOM     20  C   UNL A   1      44.844  44.852  29.682  1.00  0.00     0.028 A 
ATOM     21  C   UNL A   1      43.374  43.534  31.150  1.00  0.00     0.001 A 
ATOM     22  C   UNL A   1      44.099  44.746  30.799  1.00  0.00     0.002 A 
BRANCH   9  23
ATOM     23  C   UNL A   1      43.988  42.414  24.196  1.00  0.00     0.015 A 
ATOM     24  C   UNL A   1      46.650  43.438  22.582  1.00  0.00     0.045 C 
ATOM     25  C   UNL A   1      45.262  42.783  22.824  1.00  0.00    -0.042 A 
ATOM     26  C   UNL A   1      44.640  42.960  21.085  1.00  0.00     0.004 A 
ATOM     27  C   UNL A   1      42.929  42.819  20.701  1.00  0.00     0.000 A 
ATOM     28  C   UNL A   1      42.233  42.452  23.700  1.00  0.00     0.010 A 
ATOM     29  C   UNL A   1      41.735  42.658  21.991  1.00  0.00     0.001 A 
ENDBRANCH   9  23
ENDBRANCH   6   8
ENDBRANCH   5   6
ENDBRANCH   4   5
ENDBRANCH   3   4
ENDBRANCH   2   3
ENDBRANCH   1   2
BRANCH   1  30
ATOM     30  C   UNL A   1      39.405  34.615  29.110  1.00  0.00     0.261 C 
BRANCH  30  31
ATOM     31  O   UNL A   1      38.377  33.369  29.516  1.00  0.00    -0.460 OA
BRANCH  31  32
ATOM     32  C   UNL A   1      37.384  32.151  28.947  1.00  0.00     0.338 C 
ATOM     33  O   UNL A   1      36.399  32.884  28.626  1.00  0.00    -0.246 OA
BRANCH  32  34
ATOM     34  C   UNL A   1      37.867  30.076  28.798  1.00  0.00     0.060 A 
ATOM     35  C   UNL A   1      37.795  28.922  29.776  1.00  0.00     0.016 A 
ATOM     36  C   UNL A   1      38.507  29.348  27.641  1.00  0.00     0.016 A 
ATOM     37  C   UNL A   1      38.696  27.839  29.866  1.00  0.00     0.010 A 
ATOM     38  C   UNL A   1      39.491  28.393  27.743  1.00  0.00     0.010 A 
ATOM     39  C   UNL A   1      39.694  27.764  28.938  1.00  0.00    -0.014 A 
BRANCH  39  40
ATOM     40  C   UNL A   1      41.018  27.219  29.140  1.00  0.00     0.031 A 
ATOM     41  C   UNL A   1      41.272  25.823  28.753  1.00  0.00     0.074 A 
ATOM     42  C   UNL A   1      41.993  28.100  29.474  1.00  0.00     0.049 A 
ATOM     43  N   UNL A   1      42.304  25.176  29.145  1.00  0.00    -0.248 NA
ATOM     44  C   UNL A   1      40.367  24.984  27.955  1.00  0.00     0.031 C 
ATOM     45  C   UNL A   1      43.449  27.993  29.387  1.00  0.00     0.029 A 
ATOM     46  N   UNL A   1      41.824  29.331  30.088  1.00  0.00    -0.354 N 
ATOM     47  C   UNL A   1      42.382  24.038  28.380  1.00  0.00     0.074 A 
ATOM     48  C   UNL A   1      41.073  23.858  27.829  1.00  0.00     0.031 C 
ATOM     49  C   UNL A   1      44.008  28.943  30.167  1.00  0.00     0.029 A 
ATOM     50  C   UNL A   1      42.930  29.639  30.860  1.00  0.00     0.049 A 
ATOM     51  H   UNL A   1      41.031  29.904  29.990  1.00  0.00     0.167 HD
ATOM     52  C   UNL A   1      43.612  23.504  28.166  1.00  0.00     0.037 A 
ATOM     53  C   UNL A   1      42.750  29.701  32.211  1.00  0.00     0.037 A 
ATOM     54  C   UNL A   1      44.591  24.181  29.021  1.00  0.00     0.049 A 
ATOM     55  C   UNL A   1      43.416  28.506  32.846  1.00  0.00     0.074 A 
ATOM     56  C   UNL A   1      45.626  25.067  28.789  1.00  0.00     0.029 A 
ATOM     57  N   UNL A   1      44.325  24.249  30.389  1.00  0.00    -0.354 N 
ATOM     58  N   UNL A   1      43.594  27.369  32.218  1.00  0.00    -0.248 NA
ATOM     59  C   UNL A   1      44.110  28.556  34.126  1.00  0.00     0.031 C 
ATOM     60  C   UNL A   1      45.916  25.727  30.028  1.00  0.00     0.029 A 
ATOM     61  C   UNL A   1      45.078  25.221  31.014  1.00  0.00     0.049 A 
ATOM     62  H   UNL A   1      43.677  23.672  30.854  1.00  0.00     0.167 HD
ATOM     63  C   UNL A   1      44.481  26.598  32.915  1.00  0.00     0.074 A 
ATOM     64  C   UNL A   1      44.761  27.379  34.109  1.00  0.00     0.031 C 
ATOM     65  C   UNL A   1      44.959  25.399  32.463  1.00  0.00     0.037 A 
BRANCH  52  66
ATOM     66  C   UNL A   1      43.952  22.502  27.084  1.00  0.00     0.058 A 
ATOM     67  C   UNL A   1      43.273  21.267  27.043  1.00  0.00     0.135 A 
ATOM     68  C   UNL A   1      44.966  22.647  26.106  1.00  0.00     0.135 A 
ATOM     69  F   UNL A   1      42.328  20.972  27.946  1.00  0.00    -0.206 F 
ATOM     70  C   UNL A   1      43.545  20.281  26.089  1.00  0.00     0.059 A 
ATOM     71  C   UNL A   1      45.217  21.699  25.110  1.00  0.00     0.059 A 
ATOM     72  F   UNL A   1      45.813  23.683  26.101  1.00  0.00    -0.206 F 
ATOM     73  C   UNL A   1      44.504  20.514  25.111  1.00  0.00     0.060 A 
BRANCH  73  74
ATOM     74  S   UNL A   1      44.809  19.256  23.857  1.00  0.00     0.124 S 
ATOM     75  O   UNL A   1      43.850  18.221  24.227  1.00  0.00    -0.237 OA
ATOM     76  O   UNL A   1      44.525  19.978  22.621  1.00  0.00    -0.237 OA
ATOM     77  O   UNL A   1      46.213  18.905  24.061  1.00  0.00    -0.744 OA
ENDBRANCH  73  74
ENDBRANCH  52  66
BRANCH  53  78
ATOM     78  C   UNL A   1      41.534  30.482  32.614  1.00  0.00     0.058 A 
ATOM     79  C   UNL A   1      40.550  29.756  33.316  1.00  0.00     0.135 A 
ATOM     80  C   UNL A   1      41.414  31.877  32.677  1.00  0.00     0.135 A 
ATOM     81  F   UNL A   1      40.641  28.421  33.333  1.00  0.00    -0.206 F 
ATOM     82  C   UNL A   1      39.536  30.355  34.068  1.00  0.00     0.059 A 
ATOM     83  C   UNL A   1      40.398  32.508  33.429  1.00  0.00     0.059 A 
ATOM     84  F   UNL A   1      42.334  32.657  32.094  1.00  0.00    -0.206 F 
ATOM     85  C   UNL A   1      39.458  31.738  34.120  1.00  0.00     0.060 A 
BRANCH  85  86
ATOM     86  S   UNL A   1      38.156  32.487  35.147  1.00  0.00     0.124 S 
ATOM     87  O   UNL A   1      38.911  33.473  35.911  1.00  0.00    -0.237 OA
ATOM     88  O   UNL A   1      37.237  33.042  34.163  1.00  0.00    -0.237 OA
ATOM     89  O   UNL A   1      37.643  31.349  35.904  1.00  0.00    -0.744 OA
ENDBRANCH  85  86
ENDBRANCH  53  78
BRANCH  65  90
ATOM     90  C   UNL A   1      45.316  24.241  33.380  1.00  0.00     0.058 A 
ATOM     91  C   UNL A   1      46.599  24.020  33.913  1.00  0.00     0.135 A 
ATOM     92  C   UNL A   1      44.298  23.416  33.929  1.00  0.00     0.135 A 
ATOM     93  F   UNL A   1      47.652  24.781  33.594  1.00  0.00    -0.206 F 
ATOM     94  C   UNL A   1      46.863  23.029  34.852  1.00  0.00     0.059 A 
ATOM     95  C   UNL A   1      44.523  22.491  34.941  1.00  0.00     0.059 A 
ATOM     96  F   UNL A   1      43.022  23.488  33.525  1.00  0.00    -0.206 F 
ATOM     97  C   UNL A   1      45.818  22.278  35.371  1.00  0.00     0.060 A 
BRANCH  97  98
ATOM     98  S   UNL A   1      46.183  21.035  36.609  1.00  0.00     0.124 S 
ATOM     99  O   UNL A   1      47.635  20.937  36.492  1.00  0.00    -0.237 OA
ATOM    100  O   UNL A   1      45.687  21.660  37.831  1.00  0.00    -0.237 OA
ATOM    101  O   UNL A   1      45.432  19.870  36.157  1.00  0.00    -0.744 OA
ENDBRANCH  97  98
ENDBRANCH  65  90
ENDBRANCH  39  40
ENDBRANCH  32  34
ENDBRANCH  31  32
ENDBRANCH  30  31
ENDBRANCH   1  30
TORSDOF 18
ENDMDL
