MODEL 1
REMARK VINA RESULT:     -11.4      0.000      0.000
REMARK SMILES Cc1ccnc(C(=O)c2[nH]c3ccc(OC(F)(F)F)cc3c2CC(=O)OCCOCCOC(=O)c2ccc(-c3c4nc(c(-c5c(F)cc(S(=O)(=O)[O-])cc5F)c5ccc([nH]5)c(-c5c(F)cc(S(=O)(=O)[O-])cc5F)c5nc(c(-c6c(F)cc(S(=O)(=O)[O-])cc6F)c6ccc3[nH]6)C=C5)C=C4)cc2)c1
REMARK SMILES IDX 29 1 28 2 27 3 26 4 24 5 25 6 23 7 22 8 9 9 10 10 11 11
REMARK SMILES IDX 21 13 12 14 20 15 13 16 14 17 7 18 8 19 6 20 1 21 2 22 3 23
REMARK SMILES IDX 101 24 4 25 5 26 15 27 16 28 17 29 18 30 19 31 30 32 31 33
REMARK SMILES IDX 32 34 33 35 34 36 35 37 36 38 100 39 37 40 99 41 38 42 39 43
REMARK SMILES IDX 40 44 93 45 41 46 98 47 92 48 94 49 42 50 97 51 91 52 90 53
REMARK SMILES IDX 43 55 77 56 56 57 76 58 57 59 60 60 75 61 95 62 58 63 59 64
REMARK SMILES IDX 74 66 96 67 61 68 44 69 45 70 54 71 46 72 47 73 53 74 55 75
REMARK SMILES IDX 48 76 49 77 50 78 51 79 52 80 78 81 79 82 88 83 80 84 81 85
REMARK SMILES IDX 87 86 89 87 82 88 83 89 84 90 85 91 86 92 62 93 63 94 72 95
REMARK SMILES IDX 64 96 65 97 71 98 73 99 66 100 67 101 68 102 69 103 70 104
REMARK H PARENT 10 12 94 54 60 65
REMARK Flexibility Score: inf
ROOT
ATOM      1  O   UNL A   1      38.825  20.563  26.144  1.00  0.00    -0.374 OA
ENDROOT
BRANCH   1   2
ATOM      2  C   UNL A   1      38.002  20.803  25.004  1.00  0.00     0.202 C 
BRANCH   2   3
ATOM      3  C   UNL A   1      36.862  21.822  25.129  1.00  0.00     0.261 C 
BRANCH   3   4
ATOM      4  O   UNL A   1      36.320  22.244  23.858  1.00  0.00    -0.463 OA
BRANCH   4   5
ATOM      5  C   UNL A   1      35.483  23.317  23.913  1.00  0.00     0.310 C 
ATOM      6  O   UNL A   1      34.904  23.786  22.934  1.00  0.00    -0.252 OA
BRANCH   5   7
ATOM      7  C   UNL A   1      35.367  23.986  25.265  1.00  0.00     0.161 C 
BRANCH   7   8
ATOM      8  C   UNL A   1      34.004  24.180  25.880  1.00  0.00     0.000 A 
ATOM      9  C   UNL A   1      33.171  23.204  26.437  1.00  0.00     0.093 A 
ATOM     10  N   UNL A   1      32.046  23.864  26.891  1.00  0.00    -0.352 N 
ATOM     11  C   UNL A   1      31.990  25.135  26.367  1.00  0.00     0.046 A 
ATOM     12  H   UNL A   1      31.378  23.480  27.504  1.00  0.00     0.167 HD
ATOM     13  C   UNL A   1      33.215  25.370  25.754  1.00  0.00     0.008 A 
ATOM     14  C   UNL A   1      30.961  26.085  26.377  1.00  0.00     0.030 A 
ATOM     15  C   UNL A   1      33.415  26.606  25.103  1.00  0.00     0.057 A 
ATOM     16  C   UNL A   1      31.168  27.285  25.675  1.00  0.00     0.049 A 
ATOM     17  C   UNL A   1      32.374  27.540  25.026  1.00  0.00     0.130 A 
BRANCH   9  18
ATOM     18  C   UNL A   1      33.436  21.772  26.533  1.00  0.00     0.227 C 
ATOM     19  O   UNL A   1      34.136  21.304  27.430  1.00  0.00    -0.285 OA
BRANCH  18  20
ATOM     20  C   UNL A   1      32.937  20.808  25.502  1.00  0.00     0.113 A 
ATOM     21  C   UNL A   1      31.898  20.698  21.863  1.00  0.00     0.044 C 
ATOM     22  C   UNL A   1      32.274  20.290  23.255  1.00  0.00    -0.047 A 
ATOM     23  C   UNL A   1      32.492  18.941  23.552  1.00  0.00     0.023 A 
ATOM     24  C   UNL A   1      32.510  21.246  24.251  1.00  0.00     0.036 A 
ATOM     25  C   UNL A   1      32.894  18.597  24.831  1.00  0.00     0.112 A 
ATOM     26  N   UNL A   1      33.107  19.495  25.811  1.00  0.00    -0.253 NA
ENDBRANCH  18  20
ENDBRANCH   9  18
BRANCH  17  27
ATOM     27  O   UNL A   1      32.679  28.641  24.275  1.00  0.00    -0.406 OA
BRANCH  27  28
ATOM     28  C   UNL A   1      32.037  28.787  23.023  1.00  0.00     0.573 C 
ATOM     29  F   UNL A   1      30.904  29.519  23.131  1.00  0.00    -0.132 F 
ATOM     30  F   UNL A   1      32.856  29.365  22.121  1.00  0.00    -0.132 F 
ATOM     31  F   UNL A   1      31.693  27.563  22.564  1.00  0.00    -0.132 F 
ENDBRANCH  27  28
ENDBRANCH  17  27
ENDBRANCH   7   8
ENDBRANCH   5   7
ENDBRANCH   4   5
ENDBRANCH   3   4
ENDBRANCH   2   3
ENDBRANCH   1   2
BRANCH   1  32
ATOM     32  C   UNL A   1      40.108  21.184  26.153  1.00  0.00     0.202 C 
BRANCH  32  33
ATOM     33  C   UNL A   1      40.388  22.212  27.258  1.00  0.00     0.261 C 
BRANCH  33  34
ATOM     34  O   UNL A   1      39.991  23.548  26.915  1.00  0.00    -0.460 OA
BRANCH  34  35
ATOM     35  C   UNL A   1      41.016  24.425  26.797  1.00  0.00     0.338 C 
ATOM     36  O   UNL A   1      41.919  24.409  25.972  1.00  0.00    -0.246 OA
BRANCH  35  37
ATOM     37  C   UNL A   1      40.814  25.544  27.729  1.00  0.00     0.060 A 
ATOM     38  C   UNL A   1      41.801  26.536  27.779  1.00  0.00     0.016 A 
ATOM     39  C   UNL A   1      39.695  25.605  28.562  1.00  0.00     0.016 A 
ATOM     40  C   UNL A   1      41.680  27.591  28.678  1.00  0.00     0.010 A 
ATOM     41  C   UNL A   1      39.582  26.657  29.473  1.00  0.00     0.010 A 
ATOM     42  C   UNL A   1      40.582  27.643  29.547  1.00  0.00    -0.014 A 
BRANCH  42  43
ATOM     43  C   UNL A   1      40.526  28.685  30.596  1.00  0.00     0.031 A 
ATOM     44  C   UNL A   1      41.468  28.596  31.764  1.00  0.00     0.074 A 
ATOM     45  C   UNL A   1      39.646  29.697  30.492  1.00  0.00     0.049 A 
ATOM     46  N   UNL A   1      41.555  29.365  32.816  1.00  0.00    -0.248 NA
ATOM     47  C   UNL A   1      42.440  27.491  31.743  1.00  0.00     0.031 C 
ATOM     48  C   UNL A   1      38.715  29.892  29.381  1.00  0.00     0.029 A 
ATOM     49  N   UNL A   1      39.383  30.745  31.337  1.00  0.00    -0.354 N 
ATOM     50  C   UNL A   1      42.580  28.834  33.589  1.00  0.00     0.074 A 
ATOM     51  C   UNL A   1      43.073  27.664  32.896  1.00  0.00     0.031 C 
ATOM     52  C   UNL A   1      37.975  30.988  29.617  1.00  0.00     0.029 A 
ATOM     53  C   UNL A   1      38.353  31.550  30.911  1.00  0.00     0.049 A 
ATOM     54  H   UNL A   1      39.885  30.906  32.169  1.00  0.00     0.167 HD
ATOM     55  C   UNL A   1      43.064  29.288  34.770  1.00  0.00     0.037 A 
ATOM     56  C   UNL A   1      37.765  32.601  31.517  1.00  0.00     0.037 A 
ATOM     57  C   UNL A   1      42.560  30.459  35.441  1.00  0.00     0.049 A 
ATOM     58  C   UNL A   1      38.276  33.040  32.865  1.00  0.00     0.074 A 
ATOM     59  C   UNL A   1      43.003  31.030  36.621  1.00  0.00     0.029 A 
ATOM     60  N   UNL A   1      41.493  31.228  35.000  1.00  0.00    -0.354 N 
ATOM     61  N   UNL A   1      39.276  32.556  33.565  1.00  0.00    -0.248 NA
ATOM     62  C   UNL A   1      37.578  34.161  33.508  1.00  0.00     0.031 C 
ATOM     63  C   UNL A   1      42.165  32.106  36.925  1.00  0.00     0.029 A 
ATOM     64  C   UNL A   1      41.236  32.243  35.905  1.00  0.00     0.049 A 
ATOM     65  H   UNL A   1      40.992  31.074  34.166  1.00  0.00     0.167 HD
ATOM     66  C   UNL A   1      39.339  33.327  34.721  1.00  0.00     0.074 A 
ATOM     67  C   UNL A   1      38.290  34.321  34.615  1.00  0.00     0.031 C 
ATOM     68  C   UNL A   1      40.184  33.222  35.778  1.00  0.00     0.037 A 
BRANCH  55  69
ATOM     69  C   UNL A   1      44.168  28.509  35.428  1.00  0.00     0.058 A 
ATOM     70  C   UNL A   1      43.910  27.497  36.364  1.00  0.00     0.135 A 
ATOM     71  C   UNL A   1      45.507  28.740  35.068  1.00  0.00     0.135 A 
ATOM     72  F   UNL A   1      42.652  27.246  36.760  1.00  0.00    -0.206 F 
ATOM     73  C   UNL A   1      44.939  26.748  36.929  1.00  0.00     0.059 A 
ATOM     74  C   UNL A   1      46.550  27.986  35.600  1.00  0.00     0.059 A 
ATOM     75  F   UNL A   1      45.812  29.701  34.183  1.00  0.00    -0.206 F 
ATOM     76  C   UNL A   1      46.255  26.997  36.536  1.00  0.00     0.060 A 
BRANCH  76  77
ATOM     77  S   UNL A   1      47.574  25.995  37.255  1.00  0.00     0.124 S 
ATOM     78  O   UNL A   1      47.056  24.644  37.058  1.00  0.00    -0.237 OA
ATOM     79  O   UNL A   1      48.724  26.358  36.433  1.00  0.00    -0.237 OA
ATOM     80  O   UNL A   1      47.631  26.448  38.641  1.00  0.00    -0.744 OA
ENDBRANCH  76  77
ENDBRANCH  55  69
BRANCH  56  81
ATOM     81  C   UNL A   1      36.616  33.294  30.871  1.00  0.00     0.058 A 
ATOM     82  C   UNL A   1      36.811  34.168  29.792  1.00  0.00     0.135 A 
ATOM     83  C   UNL A   1      35.302  33.109  31.330  1.00  0.00     0.135 A 
ATOM     84  F   UNL A   1      38.049  34.388  29.322  1.00  0.00    -0.206 F 
ATOM     85  C   UNL A   1      35.750  34.849  29.203  1.00  0.00     0.059 A 
ATOM     86  C   UNL A   1      34.221  33.755  30.739  1.00  0.00     0.059 A 
ATOM     87  F   UNL A   1      35.058  32.276  32.353  1.00  0.00    -0.206 F 
ATOM     88  C   UNL A   1      34.457  34.636  29.685  1.00  0.00     0.060 A 
BRANCH  88  89
ATOM     89  S   UNL A   1      33.084  35.503  28.894  1.00  0.00     0.124 S 
ATOM     90  O   UNL A   1      32.443  34.422  28.153  1.00  0.00    -0.237 OA
ATOM     91  O   UNL A   1      32.345  36.017  30.043  1.00  0.00    -0.237 OA
ATOM     92  O   UNL A   1      33.751  36.516  28.083  1.00  0.00    -0.744 OA
ENDBRANCH  88  89
ENDBRANCH  56  81
BRANCH  68  93
ATOM     93  C   UNL A   1      40.018  34.215  36.896  1.00  0.00     0.058 A 
ATOM     94  C   UNL A   1      40.614  35.484  36.845  1.00  0.00     0.135 A 
ATOM     95  C   UNL A   1      39.204  33.914  38.000  1.00  0.00     0.135 A 
ATOM     96  F   UNL A   1      41.408  35.818  35.815  1.00  0.00    -0.206 F 
ATOM     97  C   UNL A   1      40.425  36.416  37.861  1.00  0.00     0.059 A 
ATOM     98  C   UNL A   1      38.975  34.842  39.011  1.00  0.00     0.059 A 
ATOM     99  F   UNL A   1      38.601  32.718  38.093  1.00  0.00    -0.206 F 
ATOM    100  C   UNL A   1      39.599  36.087  38.938  1.00  0.00     0.060 A 
BRANCH 100 101
ATOM    101  S   UNL A   1      39.328  37.322  40.224  1.00  0.00     0.124 S 
ATOM    102  O   UNL A   1      38.439  38.261  39.547  1.00  0.00    -0.237 OA
ATOM    103  O   UNL A   1      38.722  36.533  41.292  1.00  0.00    -0.237 OA
ATOM    104  O   UNL A   1      40.670  37.822  40.507  1.00  0.00    -0.744 OA
ENDBRANCH 100 101
ENDBRANCH  68  93
ENDBRANCH  42  43
ENDBRANCH  35  37
ENDBRANCH  34  35
ENDBRANCH  33  34
ENDBRANCH  32  33
ENDBRANCH   1  32
TORSDOF 22
ENDMDL
MODEL 2
REMARK VINA RESULT:     -11.2      2.399      4.181
REMARK SMILES Cc1ccnc(C(=O)c2[nH]c3ccc(OC(F)(F)F)cc3c2CC(=O)OCCOCCOC(=O)c2ccc(-c3c4nc(c(-c5c(F)cc(S(=O)(=O)[O-])cc5F)c5ccc([nH]5)c(-c5c(F)cc(S(=O)(=O)[O-])cc5F)c5nc(c(-c6c(F)cc(S(=O)(=O)[O-])cc6F)c6ccc3[nH]6)C=C5)C=C4)cc2)c1
REMARK SMILES IDX 29 1 28 2 27 3 26 4 24 5 25 6 23 7 22 8 9 9 10 10 11 11
REMARK SMILES IDX 21 13 12 14 20 15 13 16 14 17 7 18 8 19 6 20 1 21 2 22 3 23
REMARK SMILES IDX 101 24 4 25 5 26 15 27 16 28 17 29 18 30 19 31 30 32 31 33
REMARK SMILES IDX 32 34 33 35 34 36 35 37 36 38 100 39 37 40 99 41 38 42 39 43
REMARK SMILES IDX 40 44 93 45 41 46 98 47 92 48 94 49 42 50 97 51 91 52 90 53
REMARK SMILES IDX 43 55 77 56 56 57 76 58 57 59 60 60 75 61 95 62 58 63 59 64
REMARK SMILES IDX 74 66 96 67 61 68 44 69 45 70 54 71 46 72 47 73 53 74 55 75
REMARK SMILES IDX 48 76 49 77 50 78 51 79 52 80 78 81 79 82 88 83 80 84 81 85
REMARK SMILES IDX 87 86 89 87 82 88 83 89 84 90 85 91 86 92 62 93 63 94 72 95
REMARK SMILES IDX 64 96 65 97 71 98 73 99 66 100 67 101 68 102 69 103 70 104
REMARK H PARENT 10 12 94 54 60 65
REMARK Flexibility Score: inf
ROOT
ATOM      1  O   UNL A   1      37.515  21.844  25.465  1.00  0.00    -0.374 OA
ENDROOT
BRANCH   1   2
ATOM      2  C   UNL A   1      36.924  23.143  25.502  1.00  0.00     0.202 C 
BRANCH   2   3
ATOM      3  C   UNL A   1      35.650  23.341  26.334  1.00  0.00     0.261 C 
BRANCH   3   4
ATOM      4  O   UNL A   1      34.579  22.440  25.978  1.00  0.00    -0.463 OA
BRANCH   4   5
ATOM      5  C   UNL A   1      33.464  22.530  26.754  1.00  0.00     0.310 C 
ATOM      6  O   UNL A   1      33.479  22.503  27.983  1.00  0.00    -0.252 OA
BRANCH   5   7
ATOM      7  C   UNL A   1      32.150  22.574  26.004  1.00  0.00     0.161 C 
BRANCH   7   8
ATOM      8  C   UNL A   1      32.116  22.195  24.546  1.00  0.00     0.000 A 
ATOM      9  C   UNL A   1      31.659  22.967  23.472  1.00  0.00     0.093 A 
ATOM     10  N   UNL A   1      31.851  22.207  22.335  1.00  0.00    -0.352 N 
ATOM     11  C   UNL A   1      32.101  20.896  22.670  1.00  0.00     0.046 A 
ATOM     12  H   UNL A   1      31.813  22.554  21.415  1.00  0.00     0.167 HD
ATOM     13  C   UNL A   1      32.301  20.864  24.045  1.00  0.00     0.008 A 
ATOM     14  C   UNL A   1      32.157  19.743  21.877  1.00  0.00     0.030 A 
ATOM     15  C   UNL A   1      32.550  19.620  24.660  1.00  0.00     0.057 A 
ATOM     16  C   UNL A   1      32.354  18.511  22.523  1.00  0.00     0.049 A 
ATOM     17  C   UNL A   1      32.530  18.441  23.903  1.00  0.00     0.130 A 
BRANCH   9  18
ATOM     18  C   UNL A   1      31.099  24.314  23.533  1.00  0.00     0.227 C 
ATOM     19  O   UNL A   1      29.888  24.505  23.631  1.00  0.00    -0.285 OA
BRANCH  18  20
ATOM     20  C   UNL A   1      31.961  25.531  23.401  1.00  0.00     0.113 A 
ATOM     21  C   UNL A   1      33.759  28.086  25.539  1.00  0.00     0.044 C 
ATOM     22  C   UNL A   1      33.285  27.283  24.366  1.00  0.00    -0.047 A 
ATOM     23  C   UNL A   1      33.899  27.441  23.120  1.00  0.00     0.023 A 
ATOM     24  C   UNL A   1      32.298  26.300  24.511  1.00  0.00     0.036 A 
ATOM     25  C   UNL A   1      33.482  26.646  22.066  1.00  0.00     0.112 A 
ATOM     26  N   UNL A   1      32.522  25.708  22.176  1.00  0.00    -0.253 NA
ENDBRANCH  18  20
ENDBRANCH   9  18
BRANCH  17  27
ATOM     27  O   UNL A   1      32.681  17.306  24.650  1.00  0.00    -0.406 OA
BRANCH  27  28
ATOM     28  C   UNL A   1      33.899  16.596  24.537  1.00  0.00     0.573 C 
ATOM     29  F   UNL A   1      34.008  15.648  25.496  1.00  0.00    -0.132 F 
ATOM     30  F   UNL A   1      34.016  16.019  23.324  1.00  0.00    -0.132 F 
ATOM     31  F   UNL A   1      34.925  17.463  24.698  1.00  0.00    -0.132 F 
ENDBRANCH  27  28
ENDBRANCH  17  27
ENDBRANCH   7   8
ENDBRANCH   5   7
ENDBRANCH   4   5
ENDBRANCH   3   4
ENDBRANCH   2   3
ENDBRANCH   1   2
BRANCH   1  32
ATOM     32  C   UNL A   1      38.907  21.763  25.755  1.00  0.00     0.202 C 
BRANCH  32  33
ATOM     33  C   UNL A   1      39.449  22.658  26.879  1.00  0.00     0.261 C 
BRANCH  33  34
ATOM     34  O   UNL A   1      39.816  23.974  26.439  1.00  0.00    -0.460 OA
BRANCH  34  35
ATOM     35  C   UNL A   1      41.015  24.405  26.899  1.00  0.00     0.338 C 
ATOM     36  O   UNL A   1      42.126  24.049  26.532  1.00  0.00    -0.246 OA
BRANCH  35  37
ATOM     37  C   UNL A   1      40.809  25.525  27.830  1.00  0.00     0.060 A 
ATOM     38  C   UNL A   1      41.833  26.473  27.945  1.00  0.00     0.016 A 
ATOM     39  C   UNL A   1      39.649  25.627  28.600  1.00  0.00     0.016 A 
ATOM     40  C   UNL A   1      41.707  27.525  28.846  1.00  0.00     0.010 A 
ATOM     41  C   UNL A   1      39.530  26.676  29.515  1.00  0.00     0.010 A 
ATOM     42  C   UNL A   1      40.566  27.618  29.654  1.00  0.00    -0.014 A 
BRANCH  42  43
ATOM     43  C   UNL A   1      40.496  28.653  30.709  1.00  0.00     0.031 A 
ATOM     44  C   UNL A   1      41.412  28.548  31.895  1.00  0.00     0.074 A 
ATOM     45  C   UNL A   1      39.626  29.672  30.594  1.00  0.00     0.049 A 
ATOM     46  N   UNL A   1      41.483  29.309  32.955  1.00  0.00    -0.248 NA
ATOM     47  C   UNL A   1      42.376  27.435  31.887  1.00  0.00     0.031 C 
ATOM     48  C   UNL A   1      38.720  29.882  29.465  1.00  0.00     0.029 A 
ATOM     49  N   UNL A   1      39.354  30.716  31.440  1.00  0.00    -0.354 N 
ATOM     50  C   UNL A   1      42.488  28.765  33.745  1.00  0.00     0.074 A 
ATOM     51  C   UNL A   1      42.987  27.596  33.054  1.00  0.00     0.031 C 
ATOM     52  C   UNL A   1      37.985  30.983  29.693  1.00  0.00     0.029 A 
ATOM     53  C   UNL A   1      38.339  31.532  30.999  1.00  0.00     0.049 A 
ATOM     54  H   UNL A   1      39.839  30.868  32.284  1.00  0.00     0.167 HD
ATOM     55  C   UNL A   1      42.950  29.207  34.939  1.00  0.00     0.037 A 
ATOM     56  C   UNL A   1      37.747  32.584  31.599  1.00  0.00     0.037 A 
ATOM     57  C   UNL A   1      42.442  30.377  35.608  1.00  0.00     0.049 A 
ATOM     58  C   UNL A   1      38.233  33.010  32.960  1.00  0.00     0.074 A 
ATOM     59  C   UNL A   1      42.865  30.936  36.800  1.00  0.00     0.029 A 
ATOM     60  N   UNL A   1      41.390  31.157  35.150  1.00  0.00    -0.354 N 
ATOM     61  N   UNL A   1      39.214  32.513  33.678  1.00  0.00    -0.248 NA
ATOM     62  C   UNL A   1      37.531  34.132  33.597  1.00  0.00     0.031 C 
ATOM     63  C   UNL A   1      42.028  32.017  37.095  1.00  0.00     0.029 A 
ATOM     64  C   UNL A   1      41.122  32.168  36.057  1.00  0.00     0.049 A 
ATOM     65  H   UNL A   1      40.906  31.013  34.305  1.00  0.00     0.167 HD
ATOM     66  C   UNL A   1      39.259  33.276  34.841  1.00  0.00     0.074 A 
ATOM     67  C   UNL A   1      38.220  34.279  34.720  1.00  0.00     0.031 C 
ATOM     68  C   UNL A   1      40.081  33.157  35.914  1.00  0.00     0.037 A 
BRANCH  55  69
ATOM     69  C   UNL A   1      44.035  28.415  35.614  1.00  0.00     0.058 A 
ATOM     70  C   UNL A   1      43.749  27.379  36.516  1.00  0.00     0.135 A 
ATOM     71  C   UNL A   1      45.385  28.658  35.306  1.00  0.00     0.135 A 
ATOM     72  F   UNL A   1      42.479  27.115  36.863  1.00  0.00    -0.206 F 
ATOM     73  C   UNL A   1      44.761  26.619  37.097  1.00  0.00     0.059 A 
ATOM     74  C   UNL A   1      46.411  27.894  35.854  1.00  0.00     0.059 A 
ATOM     75  F   UNL A   1      45.716  29.642  34.455  1.00  0.00    -0.206 F 
ATOM     76  C   UNL A   1      46.089  26.881  36.755  1.00  0.00     0.060 A 
BRANCH  76  77
ATOM     77  S   UNL A   1      47.386  25.864  37.493  1.00  0.00     0.124 S 
ATOM     78  O   UNL A   1      46.955  24.522  37.117  1.00  0.00    -0.237 OA
ATOM     79  O   UNL A   1      48.585  26.356  36.822  1.00  0.00    -0.237 OA
ATOM     80  O   UNL A   1      47.296  26.176  38.916  1.00  0.00    -0.744 OA
ENDBRANCH  76  77
ENDBRANCH  55  69
BRANCH  56  81
ATOM     81  C   UNL A   1      36.618  33.291  30.935  1.00  0.00     0.058 A 
ATOM     82  C   UNL A   1      35.303  33.157  31.403  1.00  0.00     0.135 A 
ATOM     83  C   UNL A   1      36.828  34.105  29.810  1.00  0.00     0.135 A 
ATOM     84  F   UNL A   1      35.045  32.382  32.469  1.00  0.00    -0.206 F 
ATOM     85  C   UNL A   1      34.234  33.784  30.770  1.00  0.00     0.059 A 
ATOM     86  C   UNL A   1      35.781  34.766  29.177  1.00  0.00     0.059 A 
ATOM     87  F   UNL A   1      38.068  34.276  29.326  1.00  0.00    -0.206 F 
ATOM     88  C   UNL A   1      34.485  34.588  29.656  1.00  0.00     0.060 A 
BRANCH  88  89
ATOM     89  S   UNL A   1      33.094  35.420  28.859  1.00  0.00     0.124 S 
ATOM     90  O   UNL A   1      32.499  34.330  28.094  1.00  0.00    -0.237 OA
ATOM     91  O   UNL A   1      32.323  35.893  30.004  1.00  0.00    -0.237 OA
ATOM     92  O   UNL A   1      33.737  36.467  28.070  1.00  0.00    -0.744 OA
ENDBRANCH  88  89
ENDBRANCH  56  81
BRANCH  68  93
ATOM     93  C   UNL A   1      39.900  34.143  37.035  1.00  0.00     0.058 A 
ATOM     94  C   UNL A   1      40.462  35.428  36.981  1.00  0.00     0.135 A 
ATOM     95  C   UNL A   1      39.104  33.819  38.147  1.00  0.00     0.135 A 
ATOM     96  F   UNL A   1      41.237  35.784  35.945  1.00  0.00    -0.206 F 
ATOM     97  C   UNL A   1      40.258  36.353  38.000  1.00  0.00     0.059 A 
ATOM     98  C   UNL A   1      38.861  34.739  39.161  1.00  0.00     0.059 A 
ATOM     99  F   UNL A   1      38.534  32.608  38.243  1.00  0.00    -0.206 F 
ATOM    100  C   UNL A   1      39.451  36.000  39.085  1.00  0.00     0.060 A 
BRANCH 100 101
ATOM    101  S   UNL A   1      39.159  37.226  40.376  1.00  0.00     0.124 S 
ATOM    102  O   UNL A   1      38.672  38.361  39.598  1.00  0.00    -0.237 OA
ATOM    103  O   UNL A   1      38.169  36.563  41.218  1.00  0.00    -0.237 OA
ATOM    104  O   UNL A   1      40.475  37.401  40.984  1.00  0.00    -0.744 OA
ENDBRANCH 100 101
ENDBRANCH  68  93
ENDBRANCH  42  43
ENDBRANCH  35  37
ENDBRANCH  34  35
ENDBRANCH  33  34
ENDBRANCH  32  33
ENDBRANCH   1  32
TORSDOF 22
ENDMDL
MODEL 3
REMARK VINA RESULT:     -11.2      6.253     11.465
REMARK SMILES Cc1ccnc(C(=O)c2[nH]c3ccc(OC(F)(F)F)cc3c2CC(=O)OCCOCCOC(=O)c2ccc(-c3c4nc(c(-c5c(F)cc(S(=O)(=O)[O-])cc5F)c5ccc([nH]5)c(-c5c(F)cc(S(=O)(=O)[O-])cc5F)c5nc(c(-c6c(F)cc(S(=O)(=O)[O-])cc6F)c6ccc3[nH]6)C=C5)C=C4)cc2)c1
REMARK SMILES IDX 29 1 28 2 27 3 26 4 24 5 25 6 23 7 22 8 9 9 10 10 11 11
REMARK SMILES IDX 21 13 12 14 20 15 13 16 14 17 7 18 8 19 6 20 1 21 2 22 3 23
REMARK SMILES IDX 101 24 4 25 5 26 15 27 16 28 17 29 18 30 19 31 30 32 31 33
REMARK SMILES IDX 32 34 33 35 34 36 35 37 36 38 100 39 37 40 99 41 38 42 39 43
REMARK SMILES IDX 40 44 93 45 41 46 98 47 92 48 94 49 42 50 97 51 91 52 90 53
REMARK SMILES IDX 43 55 77 56 56 57 76 58 57 59 60 60 75 61 95 62 58 63 59 64
REMARK SMILES IDX 74 66 96 67 61 68 44 69 45 70 54 71 46 72 47 73 53 74 55 75
REMARK SMILES IDX 48 76 49 77 50 78 51 79 52 80 78 81 79 82 88 83 80 84 81 85
REMARK SMILES IDX 87 86 89 87 82 88 83 89 84 90 85 91 86 92 62 93 63 94 72 95
REMARK SMILES IDX 64 96 65 97 71 98 73 99 66 100 67 101 68 102 69 103 70 104
REMARK H PARENT 10 12 94 54 60 65
REMARK Flexibility Score: inf
ROOT
ATOM      1  O   UNL A   1      34.834  32.106  27.508  1.00  0.00    -0.374 OA
ENDROOT
BRANCH   1   2
ATOM      2  C   UNL A   1      33.981  30.969  27.633  1.00  0.00     0.202 C 
BRANCH   2   3
ATOM      3  C   UNL A   1      34.322  29.710  26.827  1.00  0.00     0.261 C 
BRANCH   3   4
ATOM      4  O   UNL A   1      33.349  29.391  25.808  1.00  0.00    -0.463 OA
BRANCH   4   5
ATOM      5  C   UNL A   1      33.503  28.173  25.220  1.00  0.00     0.310 C 
ATOM      6  O   UNL A   1      33.995  28.007  24.105  1.00  0.00    -0.252 OA
BRANCH   5   7
ATOM      7  C   UNL A   1      32.935  27.001  25.989  1.00  0.00     0.161 C 
BRANCH   7   8
ATOM      8  C   UNL A   1      31.569  26.473  25.633  1.00  0.00     0.000 A 
ATOM      9  C   UNL A   1      31.082  25.173  25.809  1.00  0.00     0.093 A 
ATOM     10  N   UNL A   1      29.776  25.180  25.358  1.00  0.00    -0.352 N 
ATOM     11  C   UNL A   1      29.529  26.316  24.623  1.00  0.00     0.046 A 
ATOM     12  H   UNL A   1      29.116  24.472  25.536  1.00  0.00     0.167 HD
ATOM     13  C   UNL A   1      30.622  27.156  24.801  1.00  0.00     0.008 A 
ATOM     14  C   UNL A   1      28.440  26.663  23.813  1.00  0.00     0.030 A 
ATOM     15  C   UNL A   1      30.637  28.393  24.124  1.00  0.00     0.057 A 
ATOM     16  C   UNL A   1      28.506  27.878  23.109  1.00  0.00     0.049 A 
ATOM     17  C   UNL A   1      29.601  28.730  23.243  1.00  0.00     0.130 A 
BRANCH   9  18
ATOM     18  C   UNL A   1      31.802  24.033  26.369  1.00  0.00     0.227 C 
ATOM     19  O   UNL A   1      31.631  23.670  27.532  1.00  0.00    -0.285 OA
BRANCH  18  20
ATOM     20  C   UNL A   1      32.842  23.296  25.583  1.00  0.00     0.113 A 
ATOM     21  C   UNL A   1      36.544  23.415  24.801  1.00  0.00     0.044 C 
ATOM     22  C   UNL A   1      35.117  22.967  24.899  1.00  0.00    -0.047 A 
ATOM     23  C   UNL A   1      34.769  21.662  24.535  1.00  0.00     0.023 A 
ATOM     24  C   UNL A   1      34.132  23.800  25.443  1.00  0.00     0.036 A 
ATOM     25  C   UNL A   1      33.455  21.255  24.689  1.00  0.00     0.112 A 
ATOM     26  N   UNL A   1      32.486  22.044  25.190  1.00  0.00    -0.253 NA
ENDBRANCH  18  20
ENDBRANCH   9  18
BRANCH  17  27
ATOM     27  O   UNL A   1      29.804  29.907  22.580  1.00  0.00    -0.406 OA
BRANCH  27  28
ATOM     28  C   UNL A   1      28.947  30.993  22.879  1.00  0.00     0.573 C 
ATOM     29  F   UNL A   1      29.298  32.103  22.190  1.00  0.00    -0.132 F 
ATOM     30  F   UNL A   1      27.662  30.687  22.608  1.00  0.00    -0.132 F 
ATOM     31  F   UNL A   1      29.050  31.279  24.197  1.00  0.00    -0.132 F 
ENDBRANCH  27  28
ENDBRANCH  17  27
ENDBRANCH   7   8
ENDBRANCH   5   7
ENDBRANCH   4   5
ENDBRANCH   3   4
ENDBRANCH   2   3
ENDBRANCH   1   2
BRANCH   1  32
ATOM     32  C   UNL A   1      35.196  32.774  28.714  1.00  0.00     0.202 C 
BRANCH  32  33
ATOM     33  C   UNL A   1      34.939  32.035  30.035  1.00  0.00     0.261 C 
BRANCH  33  34
ATOM     34  O   UNL A   1      35.989  31.126  30.399  1.00  0.00    -0.460 OA
BRANCH  34  35
ATOM     35  C   UNL A   1      37.078  31.718  30.946  1.00  0.00     0.338 C 
ATOM     36  O   UNL A   1      37.102  32.569  31.824  1.00  0.00    -0.246 OA
BRANCH  35  37
ATOM     37  C   UNL A   1      38.295  31.063  30.444  1.00  0.00     0.060 A 
ATOM     38  C   UNL A   1      39.267  30.690  31.380  1.00  0.00     0.016 A 
ATOM     39  C   UNL A   1      38.496  30.850  29.079  1.00  0.00     0.016 A 
ATOM     40  C   UNL A   1      40.457  30.111  30.951  1.00  0.00     0.010 A 
ATOM     41  C   UNL A   1      39.698  30.281  28.650  1.00  0.00     0.010 A 
ATOM     42  C   UNL A   1      40.689  29.927  29.582  1.00  0.00    -0.014 A 
BRANCH  42  43
ATOM     43  C   UNL A   1      42.009  29.443  29.119  1.00  0.00     0.031 A 
ATOM     44  C   UNL A   1      43.156  30.411  29.045  1.00  0.00     0.074 A 
ATOM     45  C   UNL A   1      42.171  28.152  28.780  1.00  0.00     0.049 A 
ATOM     46  N   UNL A   1      44.376  30.217  28.621  1.00  0.00    -0.248 NA
ATOM     47  C   UNL A   1      42.891  31.783  29.510  1.00  0.00     0.031 C 
ATOM     48  C   UNL A   1      41.130  27.126  28.852  1.00  0.00     0.029 A 
ATOM     49  N   UNL A   1      43.267  27.484  28.298  1.00  0.00    -0.354 N 
ATOM     50  C   UNL A   1      45.023  31.440  28.755  1.00  0.00     0.074 A 
ATOM     51  C   UNL A   1      44.054  32.377  29.281  1.00  0.00     0.031 C 
ATOM     52  C   UNL A   1      41.635  25.959  28.419  1.00  0.00     0.029 A 
ATOM     53  C   UNL A   1      43.021  26.163  28.004  1.00  0.00     0.049 A 
ATOM     54  H   UNL A   1      44.147  27.909  28.174  1.00  0.00     0.167 HD
ATOM     55  C   UNL A   1      46.310  31.745  28.466  1.00  0.00     0.037 A 
ATOM     56  C   UNL A   1      43.819  25.236  27.437  1.00  0.00     0.037 A 
ATOM     57  C   UNL A   1      47.259  30.795  27.946  1.00  0.00     0.049 A 
ATOM     58  C   UNL A   1      45.224  25.624  27.058  1.00  0.00     0.074 A 
ATOM     59  C   UNL A   1      48.597  30.988  27.656  1.00  0.00     0.029 A 
ATOM     60  N   UNL A   1      46.965  29.476  27.627  1.00  0.00    -0.354 N 
ATOM     61  N   UNL A   1      45.838  26.773  27.230  1.00  0.00    -0.248 NA
ATOM     62  C   UNL A   1      46.045  24.597  26.402  1.00  0.00     0.031 C 
ATOM     63  C   UNL A   1      49.097  29.806  27.102  1.00  0.00     0.029 A 
ATOM     64  C   UNL A   1      48.087  28.856  27.102  1.00  0.00     0.049 A 
ATOM     65  H   UNL A   1      46.089  29.046  27.754  1.00  0.00     0.167 HD
ATOM     66  C   UNL A   1      47.121  26.598  26.723  1.00  0.00     0.074 A 
ATOM     67  C   UNL A   1      47.201  25.228  26.257  1.00  0.00     0.031 C 
ATOM     68  C   UNL A   1      48.142  27.490  26.644  1.00  0.00     0.037 A 
BRANCH  55  69
ATOM     69  C   UNL A   1      46.763  33.164  28.672  1.00  0.00     0.058 A 
ATOM     70  C   UNL A   1      46.669  34.131  27.660  1.00  0.00     0.135 A 
ATOM     71  C   UNL A   1      47.243  33.577  29.927  1.00  0.00     0.135 A 
ATOM     72  F   UNL A   1      46.236  33.789  26.435  1.00  0.00    -0.206 F 
ATOM     73  C   UNL A   1      47.045  35.453  27.878  1.00  0.00     0.059 A 
ATOM     74  C   UNL A   1      47.600  34.899  30.176  1.00  0.00     0.059 A 
ATOM     75  F   UNL A   1      47.361  32.693  30.929  1.00  0.00    -0.206 F 
ATOM     76  C   UNL A   1      47.504  35.829  29.142  1.00  0.00     0.060 A 
BRANCH  76  77
ATOM     77  S   UNL A   1      47.957  37.555  29.417  1.00  0.00     0.124 S 
ATOM     78  O   UNL A   1      47.861  38.102  28.067  1.00  0.00    -0.237 OA
ATOM     79  O   UNL A   1      46.932  37.999  30.355  1.00  0.00    -0.237 OA
ATOM     80  O   UNL A   1      49.308  37.470  29.963  1.00  0.00    -0.744 OA
ENDBRANCH  76  77
ENDBRANCH  55  69
BRANCH  56  81
ATOM     81  C   UNL A   1      43.306  23.864  27.170  1.00  0.00     0.058 A 
ATOM     82  C   UNL A   1      43.219  22.911  28.195  1.00  0.00     0.135 A 
ATOM     83  C   UNL A   1      42.905  23.474  25.882  1.00  0.00     0.135 A 
ATOM     84  F   UNL A   1      43.600  23.230  29.442  1.00  0.00    -0.206 F 
ATOM     85  C   UNL A   1      42.775  21.615  27.952  1.00  0.00     0.059 A 
ATOM     86  C   UNL A   1      42.429  22.193  25.619  1.00  0.00     0.059 A 
ATOM     87  F   UNL A   1      42.958  24.350  24.867  1.00  0.00    -0.206 F 
ATOM     88  C   UNL A   1      42.382  21.266  26.658  1.00  0.00     0.060 A 
BRANCH  88  89
ATOM     89  S   UNL A   1      41.780  19.589  26.359  1.00  0.00     0.124 S 
ATOM     90  O   UNL A   1      42.516  19.225  25.153  1.00  0.00    -0.237 OA
ATOM     91  O   UNL A   1      42.175  18.899  27.583  1.00  0.00    -0.237 OA
ATOM     92  O   UNL A   1      40.342  19.775  26.189  1.00  0.00    -0.744 OA
ENDBRANCH  88  89
ENDBRANCH  56  81
BRANCH  68  93
ATOM     93  C   UNL A   1      49.435  27.008  26.047  1.00  0.00     0.058 A 
ATOM     94  C   UNL A   1      49.709  27.149  24.678  1.00  0.00     0.135 A 
ATOM     95  C   UNL A   1      50.435  26.455  26.864  1.00  0.00     0.135 A 
ATOM     96  F   UNL A   1      48.784  27.664  23.852  1.00  0.00    -0.206 F 
ATOM     97  C   UNL A   1      50.923  26.741  24.134  1.00  0.00     0.059 A 
ATOM     98  C   UNL A   1      51.668  26.070  26.347  1.00  0.00     0.059 A 
ATOM     99  F   UNL A   1      50.229  26.308  28.182  1.00  0.00    -0.206 F 
ATOM    100  C   UNL A   1      51.899  26.207  24.979  1.00  0.00     0.060 A 
BRANCH 100 101
ATOM    101  S   UNL A   1      53.484  25.724  24.267  1.00  0.00     0.124 S 
ATOM    102  O   UNL A   1      53.237  25.917  22.841  1.00  0.00    -0.237 OA
ATOM    103  O   UNL A   1      54.406  26.673  24.884  1.00  0.00    -0.237 OA
ATOM    104  O   UNL A   1      53.643  24.337  24.694  1.00  0.00    -0.744 OA
ENDBRANCH 100 101
ENDBRANCH  68  93
ENDBRANCH  42  43
ENDBRANCH  35  37
ENDBRANCH  34  35
ENDBRANCH  33  34
ENDBRANCH  32  33
ENDBRANCH   1  32
TORSDOF 22
ENDMDL
