MODEL 1
REMARK VINA RESULT:     -10.2      0.000      0.000
REMARK SMILES CC(C)C[C@H](CNC(=O)[C@H]1CCO[C@@H]1C)C(=O)OCCOCCOC(=O)c1ccc(-c2c3nc(c(-c4c(F)cc(S(=O)(=O)[O-])cc4F)c4ccc([nH]4)c(-c4c(F)cc(S(=O)(=O)[O-])cc4F)c4nc(c(-c5c(F)cc(S(=O)(=O)[O-])cc5F)c5ccc2[nH]5)C=C4)C=C3)cc1
REMARK SMILES IDX 21 1 20 2 19 3 18 4 16 5 17 6 5 7 4 8 2 9 1 10 3 11 6 12
REMARK SMILES IDX 7 13 8 14 9 16 10 17 11 18 14 19 12 20 13 21 15 22 22 23
REMARK SMILES IDX 23 24 24 25 25 26 26 27 27 28 28 29 92 30 29 31 91 32 30 33
REMARK SMILES IDX 31 34 32 35 85 36 33 37 90 38 84 39 86 40 34 41 89 42 83 43
REMARK SMILES IDX 82 44 35 46 69 47 48 48 68 49 49 50 52 51 67 52 87 53 50 54
REMARK SMILES IDX 51 55 66 57 88 58 53 59 36 60 37 61 46 62 38 63 39 64 45 65
REMARK SMILES IDX 47 66 40 67 41 68 42 69 43 70 44 71 70 72 71 73 80 74 72 75
REMARK SMILES IDX 73 76 79 77 81 78 74 79 75 80 76 81 77 82 78 83 54 84 55 85
REMARK SMILES IDX 64 86 56 87 57 88 63 89 65 90 58 91 59 92 60 93 61 94 62 95
REMARK H PARENT 7 15 86 45 52 56
REMARK Flexibility Score: inf
ROOT
ATOM      1  O   UNL A   1      39.041  22.378  26.340  1.00  0.00    -0.374 OA
ENDROOT
BRANCH   1   2
ATOM      2  C   UNL A   1      37.979  21.876  25.530  1.00  0.00     0.202 C 
BRANCH   2   3
ATOM      3  C   UNL A   1      36.940  22.896  25.061  1.00  0.00     0.261 C 
BRANCH   3   4
ATOM      4  O   UNL A   1      35.892  22.278  24.291  1.00  0.00    -0.463 OA
BRANCH   4   5
ATOM      5  C   UNL A   1      34.855  21.770  25.008  1.00  0.00     0.310 C 
ATOM      6  O   UNL A   1      34.933  21.338  26.152  1.00  0.00    -0.252 OA
BRANCH   5   7
ATOM      7  C   UNL A   1      33.548  21.766  24.243  1.00  0.00     0.118 C 
BRANCH   7   8
ATOM      8  C   UNL A   1      32.887  23.153  24.224  1.00  0.00     0.020 C 
BRANCH   8   9
ATOM      9  C   UNL A   1      33.091  24.064  22.998  1.00  0.00    -0.017 C 
ATOM     10  C   UNL A   1      33.253  23.308  21.678  1.00  0.00     0.007 C 
ATOM     11  C   UNL A   1      31.875  24.994  22.871  1.00  0.00     0.007 C 
ENDBRANCH   8   9
ENDBRANCH   7   8
BRANCH   7  12
ATOM     12  C   UNL A   1      32.595  20.584  24.471  1.00  0.00     0.131 C 
BRANCH  12  13
ATOM     13  N   UNL A   1      32.457  19.643  23.379  1.00  0.00    -0.355 N 
ATOM     14  C   UNL A   1      32.574  18.286  23.353  1.00  0.00     0.225 C 
ATOM     15  H   UNL A   1      32.244  20.054  22.508  1.00  0.00     0.163 HD
ATOM     16  O   UNL A   1      32.163  17.697  22.352  1.00  0.00    -0.275 OA
BRANCH  14  17
ATOM     17  C   UNL A   1      33.199  17.538  24.518  1.00  0.00     0.109 C 
ATOM     18  C   UNL A   1      32.515  16.208  24.772  1.00  0.00     0.044 C 
ATOM     19  C   UNL A   1      34.623  17.091  24.187  1.00  0.00     0.127 C 
ATOM     20  C   UNL A   1      33.609  15.399  25.428  1.00  0.00     0.161 C 
ATOM     21  O   UNL A   1      34.847  15.840  24.866  1.00  0.00    -0.378 OA
ATOM     22  C   UNL A   1      35.675  18.076  24.664  1.00  0.00     0.039 C 
ENDBRANCH  14  17
ENDBRANCH  12  13
ENDBRANCH   7  12
ENDBRANCH   5   7
ENDBRANCH   4   5
ENDBRANCH   3   4
ENDBRANCH   2   3
ENDBRANCH   1   2
BRANCH   1  23
ATOM     23  C   UNL A   1      40.228  21.596  26.444  1.00  0.00     0.202 C 
BRANCH  23  24
ATOM     24  C   UNL A   1      41.567  22.344  26.419  1.00  0.00     0.261 C 
BRANCH  24  25
ATOM     25  O   UNL A   1      41.412  23.771  26.316  1.00  0.00    -0.460 OA
BRANCH  25  26
ATOM     26  C   UNL A   1      42.335  24.476  27.015  1.00  0.00     0.338 C 
ATOM     27  O   UNL A   1      43.552  24.328  26.973  1.00  0.00    -0.246 OA
BRANCH  26  28
ATOM     28  C   UNL A   1      41.723  25.599  27.747  1.00  0.00     0.060 A 
ATOM     29  C   UNL A   1      42.516  26.739  27.933  1.00  0.00     0.016 A 
ATOM     30  C   UNL A   1      40.470  25.501  28.358  1.00  0.00     0.016 A 
ATOM     31  C   UNL A   1      42.100  27.745  28.800  1.00  0.00     0.010 A 
ATOM     32  C   UNL A   1      40.057  26.513  29.236  1.00  0.00     0.010 A 
ATOM     33  C   UNL A   1      40.896  27.610  29.503  1.00  0.00    -0.014 A 
BRANCH  33  34
ATOM     34  C   UNL A   1      40.636  28.526  30.642  1.00  0.00     0.031 A 
ATOM     35  C   UNL A   1      41.512  28.433  31.866  1.00  0.00     0.074 A 
ATOM     36  C   UNL A   1      39.701  29.489  30.554  1.00  0.00     0.049 A 
ATOM     37  N   UNL A   1      41.528  29.187  32.935  1.00  0.00    -0.248 NA
ATOM     38  C   UNL A   1      42.506  27.348  31.882  1.00  0.00     0.031 C 
ATOM     39  C   UNL A   1      38.817  29.703  29.410  1.00  0.00     0.029 A 
ATOM     40  N   UNL A   1      39.351  30.476  31.440  1.00  0.00    -0.354 N 
ATOM     41  C   UNL A   1      42.526  28.667  33.751  1.00  0.00     0.074 A 
ATOM     42  C   UNL A   1      43.075  27.515  33.067  1.00  0.00     0.031 C 
ATOM     43  C   UNL A   1      38.029  30.764  29.660  1.00  0.00     0.029 A 
ATOM     44  C   UNL A   1      38.342  31.291  30.988  1.00  0.00     0.049 A 
ATOM     45  H   UNL A   1      39.782  30.588  32.318  1.00  0.00     0.167 HD
ATOM     46  C   UNL A   1      42.957  29.113  34.956  1.00  0.00     0.037 A 
ATOM     47  C   UNL A   1      37.740  32.343  31.579  1.00  0.00     0.037 A 
ATOM     48  C   UNL A   1      42.415  30.262  35.632  1.00  0.00     0.049 A 
ATOM     49  C   UNL A   1      38.204  32.792  32.939  1.00  0.00     0.074 A 
ATOM     50  C   UNL A   1      42.800  30.811  36.844  1.00  0.00     0.029 A 
ATOM     51  N   UNL A   1      41.365  31.036  35.160  1.00  0.00    -0.354 N 
ATOM     52  N   UNL A   1      39.174  32.313  33.682  1.00  0.00    -0.248 NA
ATOM     53  C   UNL A   1      37.497  33.933  33.538  1.00  0.00     0.031 C 
ATOM     54  C   UNL A   1      41.956  31.891  37.124  1.00  0.00     0.029 A 
ATOM     55  C   UNL A   1      41.073  32.043  36.066  1.00  0.00     0.049 A 
ATOM     56  H   UNL A   1      40.896  30.891  34.307  1.00  0.00     0.167 HD
ATOM     57  C   UNL A   1      39.214  33.113  34.820  1.00  0.00     0.074 A 
ATOM     58  C   UNL A   1      38.175  34.111  34.665  1.00  0.00     0.031 C 
ATOM     59  C   UNL A   1      40.040  33.034  35.894  1.00  0.00     0.037 A 
BRANCH  46  60
ATOM     60  C   UNL A   1      44.050  28.334  35.632  1.00  0.00     0.058 A 
ATOM     61  C   UNL A   1      43.771  27.298  36.539  1.00  0.00     0.135 A 
ATOM     62  C   UNL A   1      45.398  28.614  35.354  1.00  0.00     0.135 A 
ATOM     63  F   UNL A   1      42.500  26.999  36.853  1.00  0.00    -0.206 F 
ATOM     64  C   UNL A   1      44.790  26.592  37.172  1.00  0.00     0.059 A 
ATOM     65  C   UNL A   1      46.432  27.904  35.957  1.00  0.00     0.059 A 
ATOM     66  F   UNL A   1      45.721  29.594  34.495  1.00  0.00    -0.206 F 
ATOM     67  C   UNL A   1      46.117  26.906  36.878  1.00  0.00     0.060 A 
BRANCH  67  68
ATOM     68  S   UNL A   1      47.430  25.989  37.713  1.00  0.00     0.124 S 
ATOM     69  O   UNL A   1      48.398  27.047  37.982  1.00  0.00    -0.237 OA
ATOM     70  O   UNL A   1      46.742  25.448  38.881  1.00  0.00    -0.237 OA
ATOM     71  O   UNL A   1      47.840  25.002  36.719  1.00  0.00    -0.744 OA
ENDBRANCH  67  68
ENDBRANCH  46  60
BRANCH  47  72
ATOM     72  C   UNL A   1      36.638  33.055  30.880  1.00  0.00     0.058 A 
ATOM     73  C   UNL A   1      35.303  32.891  31.277  1.00  0.00     0.135 A 
ATOM     74  C   UNL A   1      36.899  33.913  29.801  1.00  0.00     0.135 A 
ATOM     75  F   UNL A   1      35.003  32.072  32.297  1.00  0.00    -0.206 F 
ATOM     76  C   UNL A   1      34.263  33.545  30.624  1.00  0.00     0.059 A 
ATOM     77  C   UNL A   1      35.878  34.595  29.146  1.00  0.00     0.059 A 
ATOM     78  F   UNL A   1      38.160  34.109  29.388  1.00  0.00    -0.206 F 
ATOM     79  C   UNL A   1      34.562  34.397  29.560  1.00  0.00     0.060 A 
BRANCH  79  80
ATOM     80  S   UNL A   1      33.211  35.282  28.751  1.00  0.00     0.124 S 
ATOM     81  O   UNL A   1      32.491  35.829  29.896  1.00  0.00    -0.237 OA
ATOM     82  O   UNL A   1      33.928  36.250  27.927  1.00  0.00    -0.237 OA
ATOM     83  O   UNL A   1      32.518  34.233  28.010  1.00  0.00    -0.744 OA
ENDBRANCH  79  80
ENDBRANCH  47  72
BRANCH  59  84
ATOM     84  C   UNL A   1      39.881  34.075  36.966  1.00  0.00     0.058 A 
ATOM     85  C   UNL A   1      40.497  35.333  36.874  1.00  0.00     0.135 A 
ATOM     86  C   UNL A   1      39.072  33.822  38.086  1.00  0.00     0.135 A 
ATOM     87  F   UNL A   1      41.283  35.625  35.826  1.00  0.00    -0.206 F 
ATOM     88  C   UNL A   1      40.342  36.292  37.870  1.00  0.00     0.059 A 
ATOM     89  C   UNL A   1      38.883  34.776  39.081  1.00  0.00     0.059 A 
ATOM     90  F   UNL A   1      38.450  32.640  38.218  1.00  0.00    -0.206 F 
ATOM     91  C   UNL A   1      39.536  36.003  38.972  1.00  0.00     0.060 A 
BRANCH  91  92
ATOM     92  S   UNL A   1      39.328  37.259  40.252  1.00  0.00     0.124 S 
ATOM     93  O   UNL A   1      38.604  36.516  41.278  1.00  0.00    -0.237 OA
ATOM     94  O   UNL A   1      40.707  37.609  40.579  1.00  0.00    -0.237 OA
ATOM     95  O   UNL A   1      38.566  38.307  39.578  1.00  0.00    -0.744 OA
ENDBRANCH  91  92
ENDBRANCH  59  84
ENDBRANCH  33  34
ENDBRANCH  26  28
ENDBRANCH  25  26
ENDBRANCH  24  25
ENDBRANCH  23  24
ENDBRANCH   1  23
TORSDOF 22
ENDMDL
MODEL 2
REMARK VINA RESULT:      -9.8      1.739      8.941
REMARK SMILES CC(C)C[C@H](CNC(=O)[C@H]1CCO[C@@H]1C)C(=O)OCCOCCOC(=O)c1ccc(-c2c3nc(c(-c4c(F)cc(S(=O)(=O)[O-])cc4F)c4ccc([nH]4)c(-c4c(F)cc(S(=O)(=O)[O-])cc4F)c4nc(c(-c5c(F)cc(S(=O)(=O)[O-])cc5F)c5ccc2[nH]5)C=C4)C=C3)cc1
REMARK SMILES IDX 21 1 20 2 19 3 18 4 16 5 17 6 5 7 4 8 2 9 1 10 3 11 6 12
REMARK SMILES IDX 7 13 8 14 9 16 10 17 11 18 14 19 12 20 13 21 15 22 22 23
REMARK SMILES IDX 23 24 24 25 25 26 26 27 27 28 28 29 92 30 29 31 91 32 30 33
REMARK SMILES IDX 31 34 32 35 85 36 33 37 90 38 84 39 86 40 34 41 89 42 83 43
REMARK SMILES IDX 82 44 35 46 69 47 48 48 68 49 49 50 52 51 67 52 87 53 50 54
REMARK SMILES IDX 51 55 66 57 88 58 53 59 36 60 37 61 46 62 38 63 39 64 45 65
REMARK SMILES IDX 47 66 40 67 41 68 42 69 43 70 44 71 70 72 71 73 80 74 72 75
REMARK SMILES IDX 73 76 79 77 81 78 74 79 75 80 76 81 77 82 78 83 54 84 55 85
REMARK SMILES IDX 64 86 56 87 57 88 63 89 65 90 58 91 59 92 60 93 61 94 62 95
REMARK H PARENT 7 15 86 45 52 56
REMARK Flexibility Score: inf
ROOT
ATOM      1  O   UNL A   1      38.496  22.103  25.310  1.00  0.00    -0.374 OA
ENDROOT
BRANCH   1   2
ATOM      2  C   UNL A   1      37.110  22.094  25.645  1.00  0.00     0.202 C 
BRANCH   2   3
ATOM      3  C   UNL A   1      36.449  23.460  25.842  1.00  0.00     0.261 C 
BRANCH   3   4
ATOM      4  O   UNL A   1      35.197  23.354  26.546  1.00  0.00    -0.463 OA
BRANCH   4   5
ATOM      5  C   UNL A   1      34.094  23.721  25.844  1.00  0.00     0.310 C 
ATOM      6  O   UNL A   1      34.082  24.524  24.917  1.00  0.00    -0.252 OA
BRANCH   5   7
ATOM      7  C   UNL A   1      32.827  23.047  26.329  1.00  0.00     0.118 C 
BRANCH   7   8
ATOM      8  C   UNL A   1      32.769  21.567  25.918  1.00  0.00     0.020 C 
BRANCH   8   9
ATOM      9  C   UNL A   1      33.438  21.128  24.602  1.00  0.00    -0.017 C 
ATOM     10  C   UNL A   1      33.884  19.664  24.585  1.00  0.00     0.007 C 
ATOM     11  C   UNL A   1      32.442  21.337  23.453  1.00  0.00     0.007 C 
ENDBRANCH   8   9
ENDBRANCH   7   8
BRANCH   7  12
ATOM     12  C   UNL A   1      31.509  23.823  26.188  1.00  0.00     0.131 C 
BRANCH  12  13
ATOM     13  N   UNL A   1      31.449  25.119  26.831  1.00  0.00    -0.355 N 
ATOM     14  C   UNL A   1      31.220  26.358  26.315  1.00  0.00     0.225 C 
ATOM     15  H   UNL A   1      31.600  25.100  27.805  1.00  0.00     0.163 HD
ATOM     16  O   UNL A   1      30.971  27.268  27.106  1.00  0.00    -0.275 OA
BRANCH  14  17
ATOM     17  C   UNL A   1      31.283  26.600  24.817  1.00  0.00     0.109 C 
ATOM     18  C   UNL A   1      29.900  26.702  24.199  1.00  0.00     0.044 C 
ATOM     19  C   UNL A   1      31.860  27.981  24.503  1.00  0.00     0.127 C 
ATOM     20  C   UNL A   1      30.152  27.553  22.976  1.00  0.00     0.161 C 
ATOM     21  O   UNL A   1      31.211  28.454  23.307  1.00  0.00    -0.378 OA
ATOM     22  C   UNL A   1      33.355  27.948  24.242  1.00  0.00     0.039 C 
ENDBRANCH  14  17
ENDBRANCH  12  13
ENDBRANCH   7  12
ENDBRANCH   5   7
ENDBRANCH   4   5
ENDBRANCH   3   4
ENDBRANCH   2   3
ENDBRANCH   1   2
BRANCH   1  23
ATOM     23  C   UNL A   1      39.402  21.452  26.198  1.00  0.00     0.202 C 
BRANCH  23  24
ATOM     24  C   UNL A   1      40.642  22.239  26.638  1.00  0.00     0.261 C 
BRANCH  24  25
ATOM     25  O   UNL A   1      40.504  23.659  26.450  1.00  0.00    -0.460 OA
BRANCH  25  26
ATOM     26  C   UNL A   1      41.584  24.374  26.847  1.00  0.00     0.338 C 
ATOM     27  O   UNL A   1      42.748  24.190  26.504  1.00  0.00    -0.246 OA
BRANCH  26  28
ATOM     28  C   UNL A   1      41.196  25.550  27.645  1.00  0.00     0.060 A 
ATOM     29  C   UNL A   1      42.100  26.620  27.675  1.00  0.00     0.016 A 
ATOM     30  C   UNL A   1      40.056  25.563  28.454  1.00  0.00     0.016 A 
ATOM     31  C   UNL A   1      41.916  27.664  28.577  1.00  0.00     0.010 A 
ATOM     32  C   UNL A   1      39.878  26.613  29.366  1.00  0.00     0.010 A 
ATOM     33  C   UNL A   1      40.837  27.637  29.469  1.00  0.00    -0.014 A 
BRANCH  33  34
ATOM     34  C   UNL A   1      40.844  28.580  30.615  1.00  0.00     0.031 A 
ATOM     35  C   UNL A   1      39.810  29.676  30.663  1.00  0.00     0.074 A 
ATOM     36  C   UNL A   1      41.694  28.410  31.644  1.00  0.00     0.049 A 
ATOM     37  N   UNL A   1      39.570  30.551  31.606  1.00  0.00    -0.248 NA
ATOM     38  C   UNL A   1      38.923  29.795  29.494  1.00  0.00     0.031 C 
ATOM     39  C   UNL A   1      42.715  27.367  31.731  1.00  0.00     0.029 A 
ATOM     40  N   UNL A   1      41.822  29.106  32.820  1.00  0.00    -0.354 N 
ATOM     41  C   UNL A   1      38.511  31.326  31.144  1.00  0.00     0.074 A 
ATOM     42  C   UNL A   1      38.173  30.836  29.825  1.00  0.00     0.031 C 
ATOM     43  C   UNL A   1      43.361  27.486  32.904  1.00  0.00     0.029 A 
ATOM     44  C   UNL A   1      42.811  28.622  33.642  1.00  0.00     0.049 A 
ATOM     45  H   UNL A   1      41.257  29.878  33.052  1.00  0.00     0.167 HD
ATOM     46  C   UNL A   1      37.870  32.346  31.765  1.00  0.00     0.037 A 
ATOM     47  C   UNL A   1      43.225  29.050  34.852  1.00  0.00     0.037 A 
ATOM     48  C   UNL A   1      38.204  32.827  33.080  1.00  0.00     0.049 A 
ATOM     49  C   UNL A   1      42.526  30.215  35.503  1.00  0.00     0.074 A 
ATOM     50  C   UNL A   1      37.597  33.837  33.807  1.00  0.00     0.029 A 
ATOM     51  N   UNL A   1      39.239  32.339  33.863  1.00  0.00    -0.354 N 
ATOM     52  N   UNL A   1      41.503  30.913  35.070  1.00  0.00    -0.248 NA
ATOM     53  C   UNL A   1      43.034  30.644  36.814  1.00  0.00     0.031 C 
ATOM     54  C   UNL A   1      38.293  33.987  35.012  1.00  0.00     0.029 A 
ATOM     55  C   UNL A   1      39.305  33.041  35.055  1.00  0.00     0.049 A 
ATOM     56  H   UNL A   1      39.840  31.602  33.608  1.00  0.00     0.167 HD
ATOM     57  C   UNL A   1      41.226  31.843  36.068  1.00  0.00     0.074 A 
ATOM     58  C   UNL A   1      42.185  31.614  37.129  1.00  0.00     0.031 C 
ATOM     59  C   UNL A   1      40.261  32.796  36.106  1.00  0.00     0.037 A 
BRANCH  46  60
ATOM     60  C   UNL A   1      36.762  33.027  31.012  1.00  0.00     0.058 A 
ATOM     61  C   UNL A   1      37.021  33.938  29.975  1.00  0.00     0.135 A 
ATOM     62  C   UNL A   1      35.420  32.751  31.320  1.00  0.00     0.135 A 
ATOM     63  F   UNL A   1      38.286  34.251  29.649  1.00  0.00    -0.206 F 
ATOM     64  C   UNL A   1      35.989  34.575  29.293  1.00  0.00     0.059 A 
ATOM     65  C   UNL A   1      34.372  33.359  30.635  1.00  0.00     0.059 A 
ATOM     66  F   UNL A   1      35.116  31.888  32.303  1.00  0.00    -0.206 F 
ATOM     67  C   UNL A   1      34.667  34.282  29.634  1.00  0.00     0.060 A 
BRANCH  67  68
ATOM     68  S   UNL A   1      33.337  35.124  28.749  1.00  0.00     0.124 S 
ATOM     69  O   UNL A   1      32.778  34.033  27.957  1.00  0.00    -0.237 OA
ATOM     70  O   UNL A   1      32.496  35.614  29.836  1.00  0.00    -0.237 OA
ATOM     71  O   UNL A   1      34.036  36.157  27.989  1.00  0.00    -0.744 OA
ENDBRANCH  67  68
ENDBRANCH  46  60
BRANCH  47  72
ATOM     72  C   UNL A   1      44.350  28.361  35.536  1.00  0.00     0.058 A 
ATOM     73  C   UNL A   1      44.116  27.328  36.456  1.00  0.00     0.135 A 
ATOM     74  C   UNL A   1      45.682  28.723  35.284  1.00  0.00     0.135 A 
ATOM     75  F   UNL A   1      42.858  26.955  36.738  1.00  0.00    -0.206 F 
ATOM     76  C   UNL A   1      45.161  26.684  37.110  1.00  0.00     0.059 A 
ATOM     77  C   UNL A   1      46.745  28.079  35.909  1.00  0.00     0.059 A 
ATOM     78  F   UNL A   1      45.959  29.700  34.407  1.00  0.00    -0.206 F 
ATOM     79  C   UNL A   1      46.474  27.066  36.828  1.00  0.00     0.060 A 
BRANCH  79  80
ATOM     80  S   UNL A   1      47.827  26.189  37.641  1.00  0.00     0.124 S 
ATOM     81  O   UNL A   1      48.113  25.132  36.678  1.00  0.00    -0.237 OA
ATOM     82  O   UNL A   1      48.840  27.233  37.763  1.00  0.00    -0.237 OA
ATOM     83  O   UNL A   1      47.234  25.753  38.901  1.00  0.00    -0.744 OA
ENDBRANCH  79  80
ENDBRANCH  47  72
BRANCH  59  84
ATOM     84  C   UNL A   1      40.168  33.636  37.349  1.00  0.00     0.058 A 
ATOM     85  C   UNL A   1      40.952  34.786  37.526  1.00  0.00     0.135 A 
ATOM     86  C   UNL A   1      39.255  33.302  38.363  1.00  0.00     0.135 A 
ATOM     87  F   UNL A   1      41.843  35.148  36.589  1.00  0.00    -0.206 F 
ATOM     88  C   UNL A   1      40.858  35.560  38.678  1.00  0.00     0.059 A 
ATOM     89  C   UNL A   1      39.126  34.076  39.513  1.00  0.00     0.059 A 
ATOM     90  F   UNL A   1      38.471  32.220  38.239  1.00  0.00    -0.206 F 
ATOM     91  C   UNL A   1      39.943  35.194  39.668  1.00  0.00     0.060 A 
BRANCH  91  92
ATOM     92  S   UNL A   1      39.816  36.212  41.155  1.00  0.00     0.124 S 
ATOM     93  O   UNL A   1      40.381  37.476  40.694  1.00  0.00    -0.237 OA
ATOM     94  O   UNL A   1      38.380  36.217  41.413  1.00  0.00    -0.237 OA
ATOM     95  O   UNL A   1      40.620  35.485  42.133  1.00  0.00    -0.744 OA
ENDBRANCH  91  92
ENDBRANCH  59  84
ENDBRANCH  33  34
ENDBRANCH  26  28
ENDBRANCH  25  26
ENDBRANCH  24  25
ENDBRANCH  23  24
ENDBRANCH   1  23
TORSDOF 22
ENDMDL
MODEL 3
REMARK VINA RESULT:      -9.6      1.494      3.335
REMARK SMILES CC(C)C[C@H](CNC(=O)[C@H]1CCO[C@@H]1C)C(=O)OCCOCCOC(=O)c1ccc(-c2c3nc(c(-c4c(F)cc(S(=O)(=O)[O-])cc4F)c4ccc([nH]4)c(-c4c(F)cc(S(=O)(=O)[O-])cc4F)c4nc(c(-c5c(F)cc(S(=O)(=O)[O-])cc5F)c5ccc2[nH]5)C=C4)C=C3)cc1
REMARK SMILES IDX 21 1 20 2 19 3 18 4 16 5 17 6 5 7 4 8 2 9 1 10 3 11 6 12
REMARK SMILES IDX 7 13 8 14 9 16 10 17 11 18 14 19 12 20 13 21 15 22 22 23
REMARK SMILES IDX 23 24 24 25 25 26 26 27 27 28 28 29 92 30 29 31 91 32 30 33
REMARK SMILES IDX 31 34 32 35 85 36 33 37 90 38 84 39 86 40 34 41 89 42 83 43
REMARK SMILES IDX 82 44 35 46 69 47 48 48 68 49 49 50 52 51 67 52 87 53 50 54
REMARK SMILES IDX 51 55 66 57 88 58 53 59 36 60 37 61 46 62 38 63 39 64 45 65
REMARK SMILES IDX 47 66 40 67 41 68 42 69 43 70 44 71 70 72 71 73 80 74 72 75
REMARK SMILES IDX 73 76 79 77 81 78 74 79 75 80 76 81 77 82 78 83 54 84 55 85
REMARK SMILES IDX 64 86 56 87 57 88 63 89 65 90 58 91 59 92 60 93 61 94 62 95
REMARK H PARENT 7 15 86 45 52 56
REMARK Flexibility Score: inf
ROOT
ATOM      1  O   UNL A   1      39.075  21.905  25.525  1.00  0.00    -0.374 OA
ENDROOT
BRANCH   1   2
ATOM      2  C   UNL A   1      37.706  22.207  25.794  1.00  0.00     0.202 C 
BRANCH   2   3
ATOM      3  C   UNL A   1      36.667  21.308  25.122  1.00  0.00     0.261 C 
BRANCH   3   4
ATOM      4  O   UNL A   1      35.469  21.189  25.913  1.00  0.00    -0.463 OA
BRANCH   4   5
ATOM      5  C   UNL A   1      34.830  22.354  26.192  1.00  0.00     0.310 C 
ATOM      6  O   UNL A   1      34.829  22.916  27.282  1.00  0.00    -0.252 OA
BRANCH   5   7
ATOM      7  C   UNL A   1      34.073  22.918  25.007  1.00  0.00     0.118 C 
BRANCH   7   8
ATOM      8  C   UNL A   1      33.665  21.821  24.010  1.00  0.00     0.020 C 
BRANCH   8   9
ATOM      9  C   UNL A   1      32.346  21.057  24.234  1.00  0.00    -0.017 C 
ATOM     10  C   UNL A   1      32.532  19.598  24.656  1.00  0.00     0.007 C 
ATOM     11  C   UNL A   1      31.546  21.774  25.331  1.00  0.00     0.007 C 
ENDBRANCH   8   9
ENDBRANCH   7   8
BRANCH   7  12
ATOM     12  C   UNL A   1      34.599  24.217  24.380  1.00  0.00     0.131 C 
BRANCH  12  13
ATOM     13  N   UNL A   1      34.574  25.397  25.219  1.00  0.00    -0.355 N 
ATOM     14  C   UNL A   1      33.601  26.331  25.413  1.00  0.00     0.225 C 
ATOM     15  H   UNL A   1      35.399  25.549  25.736  1.00  0.00     0.163 HD
ATOM     16  O   UNL A   1      33.729  27.098  26.368  1.00  0.00    -0.275 OA
BRANCH  14  17
ATOM     17  C   UNL A   1      32.412  26.419  24.472  1.00  0.00     0.109 C 
ATOM     18  C   UNL A   1      32.767  25.982  23.063  1.00  0.00     0.044 C 
ATOM     19  C   UNL A   1      31.335  25.399  24.845  1.00  0.00     0.127 C 
ATOM     20  C   UNL A   1      31.435  25.518  22.521  1.00  0.00     0.161 C 
ATOM     21  O   UNL A   1      30.702  24.977  23.622  1.00  0.00    -0.378 OA
ATOM     22  C   UNL A   1      30.263  25.980  25.750  1.00  0.00     0.039 C 
ENDBRANCH  14  17
ENDBRANCH  12  13
ENDBRANCH   7  12
ENDBRANCH   5   7
ENDBRANCH   4   5
ENDBRANCH   3   4
ENDBRANCH   2   3
ENDBRANCH   1   2
BRANCH   1  23
ATOM     23  C   UNL A   1      39.864  21.380  26.589  1.00  0.00     0.202 C 
BRANCH  23  24
ATOM     24  C   UNL A   1      40.976  22.276  27.148  1.00  0.00     0.261 C 
BRANCH  24  25
ATOM     25  O   UNL A   1      40.851  23.649  26.736  1.00  0.00    -0.460 OA
BRANCH  25  26
ATOM     26  C   UNL A   1      41.828  24.458  27.216  1.00  0.00     0.338 C 
ATOM     27  O   UNL A   1      43.031  24.357  26.998  1.00  0.00    -0.246 OA
BRANCH  26  28
ATOM     28  C   UNL A   1      41.272  25.621  27.929  1.00  0.00     0.060 A 
ATOM     29  C   UNL A   1      42.126  26.714  28.121  1.00  0.00     0.016 A 
ATOM     30  C   UNL A   1      40.005  25.601  28.519  1.00  0.00     0.016 A 
ATOM     31  C   UNL A   1      41.756  27.749  28.974  1.00  0.00     0.010 A 
ATOM     32  C   UNL A   1      39.638  26.642  29.383  1.00  0.00     0.010 A 
ATOM     33  C   UNL A   1      40.535  27.690  29.657  1.00  0.00    -0.014 A 
BRANCH  33  34
ATOM     34  C   UNL A   1      40.311  28.629  30.785  1.00  0.00     0.031 A 
ATOM     35  C   UNL A   1      41.191  28.525  32.004  1.00  0.00     0.074 A 
ATOM     36  C   UNL A   1      39.404  29.619  30.689  1.00  0.00     0.049 A 
ATOM     37  N   UNL A   1      41.237  29.293  33.063  1.00  0.00    -0.248 NA
ATOM     38  C   UNL A   1      42.151  27.410  32.030  1.00  0.00     0.031 C 
ATOM     39  C   UNL A   1      38.520  29.845  29.548  1.00  0.00     0.029 A 
ATOM     40  N   UNL A   1      39.091  30.628  31.565  1.00  0.00    -0.354 N 
ATOM     41  C   UNL A   1      42.224  28.753  33.880  1.00  0.00     0.074 A 
ATOM     42  C   UNL A   1      42.733  27.577  33.209  1.00  0.00     0.031 C 
ATOM     43  C   UNL A   1      37.767  30.933  29.789  1.00  0.00     0.029 A 
ATOM     44  C   UNL A   1      38.104  31.468  31.107  1.00  0.00     0.049 A 
ATOM     45  H   UNL A   1      39.531  30.739  32.438  1.00  0.00     0.167 HD
ATOM     46  C   UNL A   1      42.676  29.202  35.077  1.00  0.00     0.037 A 
ATOM     47  C   UNL A   1      37.538  32.545  31.687  1.00  0.00     0.037 A 
ATOM     48  C   UNL A   1      42.174  30.376  35.741  1.00  0.00     0.049 A 
ATOM     49  C   UNL A   1      38.025  32.998  33.039  1.00  0.00     0.074 A 
ATOM     50  C   UNL A   1      42.583  30.929  36.942  1.00  0.00     0.029 A 
ATOM     51  N   UNL A   1      41.145  31.176  35.264  1.00  0.00    -0.354 N 
ATOM     52  N   UNL A   1      38.985  32.500  33.782  1.00  0.00    -0.248 NA
ATOM     53  C   UNL A   1      37.357  34.168  33.626  1.00  0.00     0.031 C 
ATOM     54  C   UNL A   1      41.774  32.038  37.212  1.00  0.00     0.029 A 
ATOM     55  C   UNL A   1      40.890  32.203  36.158  1.00  0.00     0.049 A 
ATOM     56  H   UNL A   1      40.666  31.034  34.416  1.00  0.00     0.167 HD
ATOM     57  C   UNL A   1      39.056  33.313  34.909  1.00  0.00     0.074 A 
ATOM     58  C   UNL A   1      38.047  34.340  34.747  1.00  0.00     0.031 C 
ATOM     59  C   UNL A   1      39.886  33.223  35.979  1.00  0.00     0.037 A 
BRANCH  46  60
ATOM     60  C   UNL A   1      43.749  28.399  35.757  1.00  0.00     0.058 A 
ATOM     61  C   UNL A   1      43.444  27.371  36.663  1.00  0.00     0.135 A 
ATOM     62  C   UNL A   1      45.104  28.649  35.483  1.00  0.00     0.135 A 
ATOM     63  F   UNL A   1      42.166  27.099  36.973  1.00  0.00    -0.206 F 
ATOM     64  C   UNL A   1      44.445  26.641  37.299  1.00  0.00     0.059 A 
ATOM     65  C   UNL A   1      46.120  27.917  36.090  1.00  0.00     0.059 A 
ATOM     66  F   UNL A   1      45.452  29.621  34.625  1.00  0.00    -0.206 F 
ATOM     67  C   UNL A   1      45.780  26.926  37.009  1.00  0.00     0.060 A 
BRANCH  67  68
ATOM     68  S   UNL A   1      47.069  25.980  37.849  1.00  0.00     0.124 S 
ATOM     69  O   UNL A   1      47.366  26.842  38.989  1.00  0.00    -0.237 OA
ATOM     70  O   UNL A   1      46.388  24.728  38.163  1.00  0.00    -0.237 OA
ATOM     71  O   UNL A   1      48.125  25.881  36.846  1.00  0.00    -0.744 OA
ENDBRANCH  67  68
ENDBRANCH  46  60
BRANCH  47  72
ATOM     72  C   UNL A   1      36.454  33.281  30.986  1.00  0.00     0.058 A 
ATOM     73  C   UNL A   1      36.729  34.084  29.869  1.00  0.00     0.135 A 
ATOM     74  C   UNL A   1      35.123  33.197  31.419  1.00  0.00     0.135 A 
ATOM     75  F   UNL A   1      37.990  34.205  29.425  1.00  0.00    -0.206 F 
ATOM     76  C   UNL A   1      35.724  34.786  29.211  1.00  0.00     0.059 A 
ATOM     77  C   UNL A   1      34.097  33.871  30.763  1.00  0.00     0.059 A 
ATOM     78  F   UNL A   1      34.806  32.435  32.478  1.00  0.00    -0.206 F 
ATOM     79  C   UNL A   1      34.410  34.671  29.665  1.00  0.00     0.060 A 
BRANCH  79  80
ATOM     80  S   UNL A   1      33.104  35.543  28.774  1.00  0.00     0.124 S 
ATOM     81  O   UNL A   1      32.288  36.052  29.871  1.00  0.00    -0.237 OA
ATOM     82  O   UNL A   1      33.858  36.542  28.023  1.00  0.00    -0.237 OA
ATOM     83  O   UNL A   1      32.491  34.494  27.964  1.00  0.00    -0.744 OA
ENDBRANCH  79  80
ENDBRANCH  47  72
BRANCH  59  84
ATOM     84  C   UNL A   1      39.766  34.283  37.038  1.00  0.00     0.058 A 
ATOM     85  C   UNL A   1      38.952  34.111  38.168  1.00  0.00     0.135 A 
ATOM     86  C   UNL A   1      40.505  35.474  36.936  1.00  0.00     0.135 A 
ATOM     87  F   UNL A   1      38.223  32.994  38.312  1.00  0.00    -0.206 F 
ATOM     88  C   UNL A   1      38.849  35.097  39.145  1.00  0.00     0.059 A 
ATOM     89  C   UNL A   1      40.436  36.461  37.914  1.00  0.00     0.059 A 
ATOM     90  F   UNL A   1      41.309  35.683  35.882  1.00  0.00    -0.206 F 
ATOM     91  C   UNL A   1      39.593  36.270  39.007  1.00  0.00     0.060 A 
BRANCH  91  92
ATOM     92  S   UNL A   1      39.464  37.537  40.287  1.00  0.00     0.124 S 
ATOM     93  O   UNL A   1      38.924  36.771  41.405  1.00  0.00    -0.237 OA
ATOM     94  O   UNL A   1      40.847  37.981  40.433  1.00  0.00    -0.237 OA
ATOM     95  O   UNL A   1      38.557  38.520  39.701  1.00  0.00    -0.744 OA
ENDBRANCH  91  92
ENDBRANCH  59  84
ENDBRANCH  33  34
ENDBRANCH  26  28
ENDBRANCH  25  26
ENDBRANCH  24  25
ENDBRANCH  23  24
ENDBRANCH   1  23
TORSDOF 22
ENDMDL
