MODEL 1
REMARK VINA RESULT:     -10.8      0.000      0.000
REMARK SMILES COc1ccc(/C=C2\SC(=S)N=C2OCCOCCOC(=O)c2ccc(-c3c4nc(c(-c5c(F)cc(S(=O)(=O)[O-])cc5F)c5ccc([nH]5)c(-c5c(F)cc(S(=O)(=O)[O-])cc5F)c5nc(c(-c6c(F)cc(S(=O)(=O)[O-])cc6F)c6ccc3[nH]6)C=C5)C=C4)cc2)c(C(=O)[O-])c1OC
REMARK SMILES IDX 18 1 17 2 16 3 15 4 14 5 13 6 7 7 8 8 9 9 10 10 12 11 11 12
REMARK SMILES IDX 6 13 3 14 4 15 93 16 5 17 89 18 2 19 1 20 94 21 95 22 90 23
REMARK SMILES IDX 91 24 92 25 19 26 20 27 21 28 22 29 23 30 24 31 88 32 25 33
REMARK SMILES IDX 87 34 26 35 27 36 28 37 81 38 29 39 86 40 80 41 82 42 30 43
REMARK SMILES IDX 85 44 79 45 78 46 31 48 65 49 44 50 64 51 45 52 48 53 63 54
REMARK SMILES IDX 83 55 46 56 47 57 62 59 84 60 49 61 32 62 33 63 42 64 34 65
REMARK SMILES IDX 35 66 41 67 43 68 36 69 37 70 38 71 39 72 40 73 66 74 67 75
REMARK SMILES IDX 76 76 68 77 69 78 75 79 77 80 70 81 71 82 72 83 73 84 74 85
REMARK SMILES IDX 50 86 51 87 60 88 52 89 53 90 59 91 61 92 54 93 55 94 56 95
REMARK SMILES IDX 57 96 58 97
REMARK H PARENT 82 47 48 58
REMARK Flexibility Score: inf
ROOT
ATOM      1  C   UNL A   1      34.598  32.666  28.789  1.00  0.00     0.202 C 
ENDROOT
BRANCH   1   2
ATOM      2  O   UNL A   1      34.631  31.801  27.648  1.00  0.00    -0.374 OA
BRANCH   2   3
ATOM      3  C   UNL A   1      33.399  31.150  27.325  1.00  0.00     0.202 C 
BRANCH   3   4
ATOM      4  C   UNL A   1      33.303  29.644  27.604  1.00  0.00     0.260 C 
BRANCH   4   5
ATOM      5  O   UNL A   1      32.199  28.994  26.949  1.00  0.00    -0.474 OA
BRANCH   5   6
ATOM      6  C   UNL A   1      32.124  28.473  25.719  1.00  0.00     0.229 C 
ATOM      7  C   UNL A   1      33.407  26.283  25.970  1.00  0.00     0.030 C 
ATOM      8  C   UNL A   1      32.718  27.187  25.253  1.00  0.00     0.077 C 
ATOM      9  S   UNL A   1      32.255  27.043  23.584  1.00  0.00    -0.053 SA
ATOM     10  C   UNL A   1      31.270  28.509  23.684  1.00  0.00     0.168 C 
ATOM     11  N   UNL A   1      31.395  29.154  24.883  1.00  0.00    -0.194 NA
ATOM     12  S   UNL A   1      30.242  28.970  22.447  1.00  0.00    -0.050 S 
BRANCH   7  13
ATOM     13  C   UNL A   1      33.927  24.909  25.743  1.00  0.00    -0.011 A 
ATOM     14  C   UNL A   1      34.983  22.335  25.223  1.00  0.00     0.161 A 
ATOM     15  C   UNL A   1      35.742  23.475  24.965  1.00  0.00     0.051 A 
ATOM     16  C   UNL A   1      33.673  22.450  25.708  1.00  0.00     0.170 A 
ATOM     17  C   UNL A   1      35.218  24.741  25.221  1.00  0.00     0.013 A 
ATOM     18  C   UNL A   1      33.118  23.740  25.903  1.00  0.00     0.050 A 
BRANCH  14  19
ATOM     19  O   UNL A   1      35.590  21.114  25.102  1.00  0.00    -0.493 OA
ATOM     20  C   UNL A   1      36.999  21.232  24.898  1.00  0.00     0.278 C 
ENDBRANCH  14  19
BRANCH  16  21
ATOM     21  O   UNL A   1      32.921  21.380  26.134  1.00  0.00    -0.492 OA
ATOM     22  C   UNL A   1      32.478  20.457  25.147  1.00  0.00     0.278 C 
ENDBRANCH  16  21
BRANCH  18  23
ATOM     23  C   UNL A   1      31.660  23.850  26.245  1.00  0.00     0.076 C 
ATOM     24  O   UNL A   1      31.166  23.876  27.358  1.00  0.00    -0.545 OA
ATOM     25  O   UNL A   1      30.875  24.035  25.164  1.00  0.00    -0.545 OA
ENDBRANCH  18  23
ENDBRANCH   7  13
ENDBRANCH   5   6
ENDBRANCH   4   5
ENDBRANCH   3   4
ENDBRANCH   2   3
ENDBRANCH   1   2
BRANCH   1  26
ATOM     26  C   UNL A   1      35.475  32.240  29.970  1.00  0.00     0.261 C 
BRANCH  26  27
ATOM     27  O   UNL A   1      35.927  30.890  29.819  1.00  0.00    -0.460 OA
BRANCH  27  28
ATOM     28  C   UNL A   1      36.664  30.429  30.860  1.00  0.00     0.338 C 
ATOM     29  O   UNL A   1      36.255  30.043  31.937  1.00  0.00    -0.246 OA
BRANCH  28  30
ATOM     30  C   UNL A   1      38.060  30.260  30.409  1.00  0.00     0.060 A 
ATOM     31  C   UNL A   1      38.284  30.144  29.030  1.00  0.00     0.016 A 
ATOM     32  C   UNL A   1      39.126  30.220  31.311  1.00  0.00     0.016 A 
ATOM     33  C   UNL A   1      39.573  29.932  28.552  1.00  0.00     0.010 A 
ATOM     34  C   UNL A   1      40.417  30.001  30.830  1.00  0.00     0.010 A 
ATOM     35  C   UNL A   1      40.637  29.815  29.454  1.00  0.00    -0.014 A 
BRANCH  35  36
ATOM     36  C   UNL A   1      41.949  29.321  28.981  1.00  0.00     0.031 A 
ATOM     37  C   UNL A   1      43.094  30.292  28.910  1.00  0.00     0.074 A 
ATOM     38  C   UNL A   1      42.116  28.032  28.638  1.00  0.00     0.049 A 
ATOM     39  N   UNL A   1      44.312  30.108  28.477  1.00  0.00    -0.248 NA
ATOM     40  C   UNL A   1      42.824  31.659  29.387  1.00  0.00     0.031 C 
ATOM     41  C   UNL A   1      41.084  26.998  28.707  1.00  0.00     0.029 A 
ATOM     42  N   UNL A   1      43.218  27.377  28.156  1.00  0.00    -0.354 N 
ATOM     43  C   UNL A   1      44.952  31.335  28.621  1.00  0.00     0.074 A 
ATOM     44  C   UNL A   1      43.976  32.265  29.142  1.00  0.00     0.031 C 
ATOM     45  C   UNL A   1      41.603  25.835  28.275  1.00  0.00     0.029 A 
ATOM     46  C   UNL A   1      42.989  26.054  27.865  1.00  0.00     0.049 A 
ATOM     47  H   UNL A   1      44.092  27.812  28.028  1.00  0.00     0.167 HD
ATOM     48  C   UNL A   1      46.241  31.651  28.352  1.00  0.00     0.037 A 
ATOM     49  C   UNL A   1      43.801  25.133  27.311  1.00  0.00     0.037 A 
ATOM     50  C   UNL A   1      47.199  30.714  27.827  1.00  0.00     0.049 A 
ATOM     51  C   UNL A   1      45.210  25.529  26.944  1.00  0.00     0.074 A 
ATOM     52  C   UNL A   1      48.533  30.923  27.527  1.00  0.00     0.029 A 
ATOM     53  N   UNL A   1      46.921  29.390  27.515  1.00  0.00    -0.354 N 
ATOM     54  N   UNL A   1      45.810  26.685  27.101  1.00  0.00    -0.248 NA
ATOM     55  C   UNL A   1      46.049  24.495  26.326  1.00  0.00     0.031 C 
ATOM     56  C   UNL A   1      49.047  29.743  26.980  1.00  0.00     0.029 A 
ATOM     57  C   UNL A   1      48.052  28.777  26.999  1.00  0.00     0.049 A 
ATOM     58  H   UNL A   1      46.049  28.951  27.642  1.00  0.00     0.167 HD
ATOM     59  C   UNL A   1      47.110  26.508  26.636  1.00  0.00     0.074 A 
ATOM     60  C   UNL A   1      47.207  25.130  26.198  1.00  0.00     0.031 C 
ATOM     61  C   UNL A   1      48.130  27.400  26.579  1.00  0.00     0.037 A 
BRANCH  48  62
ATOM     62  C   UNL A   1      46.674  33.072  28.596  1.00  0.00     0.058 A 
ATOM     63  C   UNL A   1      46.591  34.055  27.595  1.00  0.00     0.135 A 
ATOM     64  C   UNL A   1      47.170  33.460  29.851  1.00  0.00     0.135 A 
ATOM     65  F   UNL A   1      46.144  33.737  26.369  1.00  0.00    -0.206 F 
ATOM     66  C   UNL A   1      47.016  35.361  27.819  1.00  0.00     0.059 A 
ATOM     67  C   UNL A   1      47.570  34.769  30.108  1.00  0.00     0.059 A 
ATOM     68  F   UNL A   1      47.275  32.563  30.844  1.00  0.00    -0.206 F 
ATOM     69  C   UNL A   1      47.505  35.708  29.080  1.00  0.00     0.060 A 
BRANCH  69  70
ATOM     70  S   UNL A   1      48.059  37.404  29.351  1.00  0.00     0.124 S 
ATOM     71  O   UNL A   1      48.381  37.826  27.991  1.00  0.00    -0.237 OA
ATOM     72  O   UNL A   1      46.880  38.026  29.944  1.00  0.00    -0.237 OA
ATOM     73  O   UNL A   1      49.201  37.250  30.246  1.00  0.00    -0.744 OA
ENDBRANCH  69  70
ENDBRANCH  48  62
BRANCH  49  74
ATOM     74  C   UNL A   1      43.309  23.750  27.072  1.00  0.00     0.058 A 
ATOM     75  C   UNL A   1      42.959  23.321  25.784  1.00  0.00     0.135 A 
ATOM     76  C   UNL A   1      43.182  22.828  28.124  1.00  0.00     0.135 A 
ATOM     77  F   UNL A   1      43.054  24.165  24.747  1.00  0.00    -0.206 F 
ATOM     78  C   UNL A   1      42.488  22.032  25.547  1.00  0.00     0.059 A 
ATOM     79  C   UNL A   1      42.741  21.526  27.908  1.00  0.00     0.059 A 
ATOM     80  F   UNL A   1      43.513  23.185  29.375  1.00  0.00    -0.206 F 
ATOM     81  C   UNL A   1      42.387  21.141  26.616  1.00  0.00     0.060 A 
BRANCH  81  82
ATOM     82  S   UNL A   1      41.820  19.459  26.286  1.00  0.00     0.124 S 
ATOM     83  O   UNL A   1      42.259  18.760  27.488  1.00  0.00    -0.237 OA
ATOM     84  O   UNL A   1      40.380  19.646  26.145  1.00  0.00    -0.237 OA
ATOM     85  O   UNL A   1      42.522  19.104  25.056  1.00  0.00    -0.744 OA
ENDBRANCH  81  82
ENDBRANCH  49  74
BRANCH  61  86
ATOM     86  C   UNL A   1      49.457  26.905  26.067  1.00  0.00     0.058 A 
ATOM     87  C   UNL A   1      49.843  27.063  24.727  1.00  0.00     0.135 A 
ATOM     88  C   UNL A   1      50.379  26.312  26.947  1.00  0.00     0.135 A 
ATOM     89  F   UNL A   1      49.000  27.617  23.840  1.00  0.00    -0.206 F 
ATOM     90  C   UNL A   1      51.084  26.627  24.271  1.00  0.00     0.059 A 
ATOM     91  C   UNL A   1      51.637  25.900  26.522  1.00  0.00     0.059 A 
ATOM     92  F   UNL A   1      50.066  26.148  28.243  1.00  0.00    -0.206 F 
ATOM     93  C   UNL A   1      51.975  26.050  25.178  1.00  0.00     0.060 A 
BRANCH  93  94
ATOM     94  S   UNL A   1      53.595  25.522  24.581  1.00  0.00     0.124 S 
ATOM     95  O   UNL A   1      53.523  24.078  24.775  1.00  0.00    -0.237 OA
ATOM     96  O   UNL A   1      53.579  25.978  23.194  1.00  0.00    -0.237 OA
ATOM     97  O   UNL A   1      54.527  26.228  25.455  1.00  0.00    -0.744 OA
ENDBRANCH  93  94
ENDBRANCH  61  86
ENDBRANCH  35  36
ENDBRANCH  28  30
ENDBRANCH  27  28
ENDBRANCH  26  27
ENDBRANCH   1  26
TORSDOF 20
ENDMDL
MODEL 2
REMARK VINA RESULT:     -10.4      3.051      4.157
REMARK SMILES COc1ccc(/C=C2\SC(=S)N=C2OCCOCCOC(=O)c2ccc(-c3c4nc(c(-c5c(F)cc(S(=O)(=O)[O-])cc5F)c5ccc([nH]5)c(-c5c(F)cc(S(=O)(=O)[O-])cc5F)c5nc(c(-c6c(F)cc(S(=O)(=O)[O-])cc6F)c6ccc3[nH]6)C=C5)C=C4)cc2)c(C(=O)[O-])c1OC
REMARK SMILES IDX 18 1 17 2 16 3 15 4 14 5 13 6 7 7 8 8 9 9 10 10 12 11 11 12
REMARK SMILES IDX 6 13 3 14 4 15 93 16 5 17 89 18 2 19 1 20 94 21 95 22 90 23
REMARK SMILES IDX 91 24 92 25 19 26 20 27 21 28 22 29 23 30 24 31 88 32 25 33
REMARK SMILES IDX 87 34 26 35 27 36 28 37 81 38 29 39 86 40 80 41 82 42 30 43
REMARK SMILES IDX 85 44 79 45 78 46 31 48 65 49 44 50 64 51 45 52 48 53 63 54
REMARK SMILES IDX 83 55 46 56 47 57 62 59 84 60 49 61 32 62 33 63 42 64 34 65
REMARK SMILES IDX 35 66 41 67 43 68 36 69 37 70 38 71 39 72 40 73 66 74 67 75
REMARK SMILES IDX 76 76 68 77 69 78 75 79 77 80 70 81 71 82 72 83 73 84 74 85
REMARK SMILES IDX 50 86 51 87 60 88 52 89 53 90 59 91 61 92 54 93 55 94 56 95
REMARK SMILES IDX 57 96 58 97
REMARK H PARENT 82 47 48 58
REMARK Flexibility Score: inf
ROOT
ATOM      1  C   UNL A   1      33.081  27.559  25.489  1.00  0.00     0.202 C 
ENDROOT
BRANCH   1   2
ATOM      2  O   UNL A   1      34.103  27.756  24.505  1.00  0.00    -0.374 OA
BRANCH   2   3
ATOM      3  C   UNL A   1      33.785  28.667  23.450  1.00  0.00     0.202 C 
BRANCH   3   4
ATOM      4  C   UNL A   1      34.021  28.190  22.011  1.00  0.00     0.260 C 
BRANCH   4   5
ATOM      5  O   UNL A   1      33.423  26.917  21.707  1.00  0.00    -0.474 OA
BRANCH   5   6
ATOM      6  C   UNL A   1      32.355  26.326  22.252  1.00  0.00     0.229 C 
ATOM      7  C   UNL A   1      33.231  23.990  22.784  1.00  0.00     0.030 C 
ATOM      8  C   UNL A   1      32.264  24.922  22.749  1.00  0.00     0.077 C 
ATOM      9  S   UNL A   1      30.649  24.756  23.368  1.00  0.00    -0.053 SA
ATOM     10  C   UNL A   1      30.311  26.467  23.075  1.00  0.00     0.168 C 
ATOM     11  N   UNL A   1      31.324  27.104  22.411  1.00  0.00    -0.194 NA
ATOM     12  S   UNL A   1      28.922  27.207  23.645  1.00  0.00    -0.050 S 
BRANCH   7  13
ATOM     13  C   UNL A   1      33.386  22.631  23.367  1.00  0.00    -0.011 A 
ATOM     14  C   UNL A   1      33.566  20.029  24.465  1.00  0.00     0.161 A 
ATOM     15  C   UNL A   1      32.566  20.340  23.547  1.00  0.00     0.051 A 
ATOM     16  C   UNL A   1      34.474  21.011  24.885  1.00  0.00     0.170 A 
ATOM     17  C   UNL A   1      32.479  21.623  23.009  1.00  0.00     0.013 A 
ATOM     18  C   UNL A   1      34.341  22.333  24.388  1.00  0.00     0.050 A 
BRANCH  14  19
ATOM     19  O   UNL A   1      33.707  18.722  24.850  1.00  0.00    -0.493 OA
ATOM     20  C   UNL A   1      33.220  17.816  23.860  1.00  0.00     0.278 C 
ENDBRANCH  14  19
BRANCH  16  21
ATOM     21  O   UNL A   1      35.578  20.747  25.662  1.00  0.00    -0.492 OA
ATOM     22  C   UNL A   1      36.742  20.265  25.004  1.00  0.00     0.278 C 
ENDBRANCH  16  21
BRANCH  18  23
ATOM     23  C   UNL A   1      35.200  23.412  24.983  1.00  0.00     0.076 C 
ATOM     24  O   UNL A   1      36.289  23.788  24.586  1.00  0.00    -0.545 OA
ATOM     25  O   UNL A   1      34.603  24.062  26.003  1.00  0.00    -0.545 OA
ENDBRANCH  18  23
ENDBRANCH   7  13
ENDBRANCH   5   6
ENDBRANCH   4   5
ENDBRANCH   3   4
ENDBRANCH   2   3
ENDBRANCH   1   2
BRANCH   1  26
ATOM     26  C   UNL A   1      33.034  28.595  26.615  1.00  0.00     0.261 C 
BRANCH  26  27
ATOM     27  O   UNL A   1      34.250  28.593  27.370  1.00  0.00    -0.460 OA
BRANCH  27  28
ATOM     28  C   UNL A   1      34.704  29.829  27.698  1.00  0.00     0.338 C 
ATOM     29  O   UNL A   1      34.053  30.849  27.798  1.00  0.00    -0.246 OA
BRANCH  28  30
ATOM     30  C   UNL A   1      36.110  29.712  28.134  1.00  0.00     0.060 A 
ATOM     31  C   UNL A   1      37.105  29.905  27.167  1.00  0.00     0.016 A 
ATOM     32  C   UNL A   1      36.449  29.426  29.459  1.00  0.00     0.016 A 
ATOM     33  C   UNL A   1      38.445  29.757  27.510  1.00  0.00     0.010 A 
ATOM     34  C   UNL A   1      37.792  29.271  29.800  1.00  0.00     0.010 A 
ATOM     35  C   UNL A   1      38.790  29.395  28.817  1.00  0.00    -0.014 A 
BRANCH  35  36
ATOM     36  C   UNL A   1      40.175  28.970  29.120  1.00  0.00     0.031 A 
ATOM     37  C   UNL A   1      41.091  29.953  29.794  1.00  0.00     0.074 A 
ATOM     38  C   UNL A   1      40.597  27.732  28.814  1.00  0.00     0.049 A 
ATOM     39  N   UNL A   1      42.354  29.830  30.105  1.00  0.00    -0.248 NA
ATOM     40  C   UNL A   1      40.504  31.252  30.159  1.00  0.00     0.031 C 
ATOM     41  C   UNL A   1      39.779  26.688  28.197  1.00  0.00     0.029 A 
ATOM     42  N   UNL A   1      41.825  27.146  28.976  1.00  0.00    -0.354 N 
ATOM     43  C   UNL A   1      42.715  31.037  30.695  1.00  0.00     0.074 A 
ATOM     44  C   UNL A   1      41.549  31.892  30.660  1.00  0.00     0.031 C 
ATOM     45  C   UNL A   1      40.533  25.588  28.027  1.00  0.00     0.029 A 
ATOM     46  C   UNL A   1      41.892  25.864  28.488  1.00  0.00     0.049 A 
ATOM     47  H   UNL A   1      42.587  27.600  29.402  1.00  0.00     0.167 HD
ATOM     48  C   UNL A   1      43.908  31.393  31.227  1.00  0.00     0.037 A 
ATOM     49  C   UNL A   1      42.939  25.021  28.404  1.00  0.00     0.037 A 
ATOM     50  C   UNL A   1      45.061  30.532  31.248  1.00  0.00     0.049 A 
ATOM     51  C   UNL A   1      44.281  25.468  28.929  1.00  0.00     0.074 A 
ATOM     52  C   UNL A   1      46.316  30.785  31.769  1.00  0.00     0.029 A 
ATOM     53  N   UNL A   1      45.100  29.251  30.714  1.00  0.00    -0.354 N 
ATOM     54  N   UNL A   1      44.607  26.603  29.502  1.00  0.00    -0.248 NA
ATOM     55  C   UNL A   1      45.394  24.520  28.798  1.00  0.00     0.031 C 
ATOM     56  C   UNL A   1      47.131  29.681  31.500  1.00  0.00     0.029 A 
ATOM     57  C   UNL A   1      46.367  28.711  30.868  1.00  0.00     0.049 A 
ATOM     58  H   UNL A   1      44.340  28.793  30.288  1.00  0.00     0.167 HD
ATOM     59  C   UNL A   1      45.954  26.492  29.832  1.00  0.00     0.074 A 
ATOM     60  C   UNL A   1      46.378  25.175  29.401  1.00  0.00     0.031 C 
ATOM     61  C   UNL A   1      46.766  27.393  30.440  1.00  0.00     0.037 A 
BRANCH  48  62
ATOM     62  C   UNL A   1      44.028  32.780  31.800  1.00  0.00     0.058 A 
ATOM     63  C   UNL A   1      44.440  33.873  31.019  1.00  0.00     0.135 A 
ATOM     64  C   UNL A   1      43.718  33.022  33.149  1.00  0.00     0.135 A 
ATOM     65  F   UNL A   1      44.768  33.697  29.729  1.00  0.00    -0.206 F 
ATOM     66  C   UNL A   1      44.571  35.147  31.561  1.00  0.00     0.059 A 
ATOM     67  C   UNL A   1      43.812  34.296  33.704  1.00  0.00     0.059 A 
ATOM     68  F   UNL A   1      43.324  32.015  33.943  1.00  0.00    -0.206 F 
ATOM     69  C   UNL A   1      44.256  35.349  32.906  1.00  0.00     0.060 A 
BRANCH  69  70
ATOM     70  S   UNL A   1      44.441  37.006  33.595  1.00  0.00     0.124 S 
ATOM     71  O   UNL A   1      44.831  36.709  34.970  1.00  0.00    -0.237 OA
ATOM     72  O   UNL A   1      45.484  37.579  32.751  1.00  0.00    -0.237 OA
ATOM     73  O   UNL A   1      43.115  37.593  33.434  1.00  0.00    -0.744 OA
ENDBRANCH  69  70
ENDBRANCH  48  62
BRANCH  49  74
ATOM     74  C   UNL A   1      42.765  23.671  27.804  1.00  0.00     0.058 A 
ATOM     75  C   UNL A   1      42.491  22.554  28.607  1.00  0.00     0.135 A 
ATOM     76  C   UNL A   1      42.864  23.469  26.418  1.00  0.00     0.135 A 
ATOM     77  F   UNL A   1      42.396  22.692  29.938  1.00  0.00    -0.206 F 
ATOM     78  C   UNL A   1      42.335  21.283  28.061  1.00  0.00     0.059 A 
ATOM     79  C   UNL A   1      42.683  22.213  25.845  1.00  0.00     0.059 A 
ATOM     80  F   UNL A   1      43.114  24.506  25.603  1.00  0.00    -0.206 F 
ATOM     81  C   UNL A   1      42.429  21.125  26.677  1.00  0.00     0.060 A 
BRANCH  81  82
ATOM     82  S   UNL A   1      42.176  19.478  25.979  1.00  0.00     0.124 S 
ATOM     83  O   UNL A   1      40.727  19.444  25.826  1.00  0.00    -0.237 OA
ATOM     84  O   UNL A   1      42.949  19.551  24.744  1.00  0.00    -0.237 OA
ATOM     85  O   UNL A   1      42.725  18.593  27.002  1.00  0.00    -0.744 OA
ENDBRANCH  81  82
ENDBRANCH  49  74
BRANCH  61  86
ATOM     86  C   UNL A   1      48.184  26.972  30.720  1.00  0.00     0.058 A 
ATOM     87  C   UNL A   1      49.242  27.306  29.859  1.00  0.00     0.135 A 
ATOM     88  C   UNL A   1      48.495  26.270  31.897  1.00  0.00     0.135 A 
ATOM     89  F   UNL A   1      49.002  27.970  28.717  1.00  0.00    -0.206 F 
ATOM     90  C   UNL A   1      50.553  26.936  30.142  1.00  0.00     0.059 A 
ATOM     91  C   UNL A   1      49.803  25.919  32.216  1.00  0.00     0.059 A 
ATOM     92  F   UNL A   1      47.524  25.936  32.761  1.00  0.00    -0.206 F 
ATOM     93  C   UNL A   1      50.824  26.246  31.325  1.00  0.00     0.060 A 
BRANCH  93  94
ATOM     94  S   UNL A   1      52.534  25.803  31.697  1.00  0.00     0.124 S 
ATOM     95  O   UNL A   1      53.148  25.867  30.376  1.00  0.00    -0.237 OA
ATOM     96  O   UNL A   1      52.930  26.852  32.634  1.00  0.00    -0.237 OA
ATOM     97  O   UNL A   1      52.422  24.467  32.274  1.00  0.00    -0.744 OA
ENDBRANCH  93  94
ENDBRANCH  61  86
ENDBRANCH  35  36
ENDBRANCH  28  30
ENDBRANCH  27  28
ENDBRANCH  26  27
ENDBRANCH   1  26
TORSDOF 20
ENDMDL
MODEL 3
REMARK VINA RESULT:     -10.2      0.716      8.151
REMARK SMILES COc1ccc(/C=C2\SC(=S)N=C2OCCOCCOC(=O)c2ccc(-c3c4nc(c(-c5c(F)cc(S(=O)(=O)[O-])cc5F)c5ccc([nH]5)c(-c5c(F)cc(S(=O)(=O)[O-])cc5F)c5nc(c(-c6c(F)cc(S(=O)(=O)[O-])cc6F)c6ccc3[nH]6)C=C5)C=C4)cc2)c(C(=O)[O-])c1OC
REMARK SMILES IDX 18 1 17 2 16 3 15 4 14 5 13 6 7 7 8 8 9 9 10 10 12 11 11 12
REMARK SMILES IDX 6 13 3 14 4 15 93 16 5 17 89 18 2 19 1 20 94 21 95 22 90 23
REMARK SMILES IDX 91 24 92 25 19 26 20 27 21 28 22 29 23 30 24 31 88 32 25 33
REMARK SMILES IDX 87 34 26 35 27 36 28 37 81 38 29 39 86 40 80 41 82 42 30 43
REMARK SMILES IDX 85 44 79 45 78 46 31 48 65 49 44 50 64 51 45 52 48 53 63 54
REMARK SMILES IDX 83 55 46 56 47 57 62 59 84 60 49 61 32 62 33 63 42 64 34 65
REMARK SMILES IDX 35 66 41 67 43 68 36 69 37 70 38 71 39 72 40 73 66 74 67 75
REMARK SMILES IDX 76 76 68 77 69 78 75 79 77 80 70 81 71 82 72 83 73 84 74 85
REMARK SMILES IDX 50 86 51 87 60 88 52 89 53 90 59 91 61 92 54 93 55 94 56 95
REMARK SMILES IDX 57 96 58 97
REMARK H PARENT 82 47 48 58
REMARK Flexibility Score: inf
ROOT
ATOM      1  C   UNL A   1      34.110  32.525  28.281  1.00  0.00     0.202 C 
ENDROOT
BRANCH   1   2
ATOM      2  O   UNL A   1      34.361  31.484  27.329  1.00  0.00    -0.374 OA
BRANCH   2   3
ATOM      3  C   UNL A   1      33.410  30.415  27.312  1.00  0.00     0.202 C 
BRANCH   3   4
ATOM      4  C   UNL A   1      33.959  28.986  27.207  1.00  0.00     0.260 C 
BRANCH   4   5
ATOM      5  O   UNL A   1      32.977  28.004  26.831  1.00  0.00    -0.474 OA
BRANCH   5   6
ATOM      6  C   UNL A   1      32.756  27.431  25.642  1.00  0.00     0.229 C 
ATOM      7  C   UNL A   1      34.054  25.244  25.838  1.00  0.00     0.030 C 
ATOM      8  C   UNL A   1      33.288  26.121  25.167  1.00  0.00     0.077 C 
ATOM      9  S   UNL A   1      32.630  25.908  23.573  1.00  0.00    -0.053 SA
ATOM     10  C   UNL A   1      31.668  27.384  23.723  1.00  0.00     0.168 C 
ATOM     11  N   UNL A   1      31.935  28.081  24.869  1.00  0.00    -0.194 NA
ATOM     12  S   UNL A   1      30.501  27.799  22.597  1.00  0.00    -0.050 S 
BRANCH   7  13
ATOM     13  C   UNL A   1      34.541  23.857  25.612  1.00  0.00    -0.011 A 
ATOM     14  C   UNL A   1      35.522  21.256  25.086  1.00  0.00     0.161 A 
ATOM     15  C   UNL A   1      36.253  22.377  24.701  1.00  0.00     0.051 A 
ATOM     16  C   UNL A   1      34.273  21.402  25.706  1.00  0.00     0.170 A 
ATOM     17  C   UNL A   1      35.766  23.657  24.960  1.00  0.00     0.013 A 
ATOM     18  C   UNL A   1      33.749  22.704  25.906  1.00  0.00     0.050 A 
BRANCH  14  19
ATOM     19  O   UNL A   1      36.107  20.025  24.950  1.00  0.00    -0.493 OA
ATOM     20  C   UNL A   1      37.515  20.121  24.734  1.00  0.00     0.278 C 
ENDBRANCH  14  19
BRANCH  16  21
ATOM     21  O   UNL A   1      33.567  20.356  26.254  1.00  0.00    -0.492 OA
ATOM     22  C   UNL A   1      32.726  19.608  25.386  1.00  0.00     0.278 C 
ENDBRANCH  16  21
BRANCH  18  23
ATOM     23  C   UNL A   1      32.337  22.839  26.400  1.00  0.00     0.076 C 
ATOM     24  O   UNL A   1      31.974  23.028  27.547  1.00  0.00    -0.545 OA
ATOM     25  O   UNL A   1      31.426  22.843  25.405  1.00  0.00    -0.545 OA
ENDBRANCH  18  23
ENDBRANCH   7  13
ENDBRANCH   5   6
ENDBRANCH   4   5
ENDBRANCH   3   4
ENDBRANCH   2   3
ENDBRANCH   1   2
BRANCH   1  26
ATOM     26  C   UNL A   1      35.031  32.542  29.504  1.00  0.00     0.261 C 
BRANCH  26  27
ATOM     27  O   UNL A   1      35.837  31.361  29.561  1.00  0.00    -0.460 OA
BRANCH  27  28
ATOM     28  C   UNL A   1      36.725  31.341  30.587  1.00  0.00     0.338 C 
ATOM     29  O   UNL A   1      36.508  31.601  31.753  1.00  0.00    -0.246 OA
BRANCH  28  30
ATOM     30  C   UNL A   1      37.985  30.737  30.106  1.00  0.00     0.060 A 
ATOM     31  C   UNL A   1      38.970  30.451  31.060  1.00  0.00     0.016 A 
ATOM     32  C   UNL A   1      38.195  30.452  28.754  1.00  0.00     0.016 A 
ATOM     33  C   UNL A   1      40.195  29.929  30.657  1.00  0.00     0.010 A 
ATOM     34  C   UNL A   1      39.426  29.935  28.352  1.00  0.00     0.010 A 
ATOM     35  C   UNL A   1      40.443  29.711  29.297  1.00  0.00    -0.014 A 
BRANCH  35  36
ATOM     36  C   UNL A   1      41.820  29.422  28.839  1.00  0.00     0.031 A 
ATOM     37  C   UNL A   1      42.152  28.016  28.422  1.00  0.00     0.074 A 
ATOM     38  C   UNL A   1      42.745  30.394  28.783  1.00  0.00     0.049 A 
ATOM     39  N   UNL A   1      43.295  27.512  28.041  1.00  0.00    -0.248 NA
ATOM     40  C   UNL A   1      41.043  27.047  28.443  1.00  0.00     0.031 C 
ATOM     41  C   UNL A   1      42.519  31.798  29.126  1.00  0.00     0.029 A 
ATOM     42  N   UNL A   1      44.066  30.344  28.423  1.00  0.00    -0.354 N 
ATOM     43  C   UNL A   1      43.048  26.167  27.787  1.00  0.00     0.074 A 
ATOM     44  C   UNL A   1      41.656  25.926  28.095  1.00  0.00     0.031 C 
ATOM     45  C   UNL A   1      43.668  32.477  28.964  1.00  0.00     0.029 A 
ATOM     46  C   UNL A   1      44.716  31.548  28.544  1.00  0.00     0.049 A 
ATOM     47  H   UNL A   1      44.509  29.524  28.107  1.00  0.00     0.167 HD
ATOM     48  C   UNL A   1      43.903  25.224  27.326  1.00  0.00     0.037 A 
ATOM     49  C   UNL A   1      46.014  31.857  28.358  1.00  0.00     0.037 A 
ATOM     50  C   UNL A   1      45.288  25.480  27.030  1.00  0.00     0.049 A 
ATOM     51  C   UNL A   1      46.967  30.772  27.923  1.00  0.00     0.074 A 
ATOM     52  C   UNL A   1      46.243  24.602  26.549  1.00  0.00     0.029 A 
ATOM     53  N   UNL A   1      45.919  26.705  27.196  1.00  0.00    -0.354 N 
ATOM     54  N   UNL A   1      46.719  29.509  27.666  1.00  0.00    -0.248 NA
ATOM     55  C   UNL A   1      48.374  31.155  27.751  1.00  0.00     0.031 C 
ATOM     56  C   UNL A   1      47.463  25.281  26.480  1.00  0.00     0.029 A 
ATOM     57  C   UNL A   1      47.257  26.600  26.854  1.00  0.00     0.049 A 
ATOM     58  H   UNL A   1      45.480  27.528  27.511  1.00  0.00     0.167 HD
ATOM     59  C   UNL A   1      47.932  28.955  27.267  1.00  0.00     0.074 A 
ATOM     60  C   UNL A   1      48.909  30.024  27.311  1.00  0.00     0.031 C 
ATOM     61  C   UNL A   1      48.212  27.680  26.895  1.00  0.00     0.037 A 
BRANCH  48  62
ATOM     62  C   UNL A   1      43.368  23.829  27.144  1.00  0.00     0.058 A 
ATOM     63  C   UNL A   1      43.045  23.317  25.876  1.00  0.00     0.135 A 
ATOM     64  C   UNL A   1      43.183  22.987  28.253  1.00  0.00     0.135 A 
ATOM     65  F   UNL A   1      43.182  24.083  24.782  1.00  0.00    -0.206 F 
ATOM     66  C   UNL A   1      42.528  22.035  25.718  1.00  0.00     0.059 A 
ATOM     67  C   UNL A   1      42.698  21.689  28.115  1.00  0.00     0.059 A 
ATOM     68  F   UNL A   1      43.471  23.424  29.489  1.00  0.00    -0.206 F 
ATOM     69  C   UNL A   1      42.357  21.228  26.845  1.00  0.00     0.060 A 
BRANCH  69  70
ATOM     70  S   UNL A   1      41.678  19.572  26.623  1.00  0.00     0.124 S 
ATOM     71  O   UNL A   1      42.385  18.824  27.658  1.00  0.00    -0.237 OA
ATOM     72  O   UNL A   1      40.253  19.786  26.857  1.00  0.00    -0.237 OA
ATOM     73  O   UNL A   1      42.040  19.236  25.249  1.00  0.00    -0.744 OA
ENDBRANCH  69  70
ENDBRANCH  48  62
BRANCH  49  74
ATOM     74  C   UNL A   1      46.489  33.249  28.577  1.00  0.00     0.058 A 
ATOM     75  C   UNL A   1      46.454  34.195  27.542  1.00  0.00     0.135 A 
ATOM     76  C   UNL A   1      46.985  33.665  29.824  1.00  0.00     0.135 A 
ATOM     77  F   UNL A   1      45.999  33.846  26.330  1.00  0.00    -0.206 F 
ATOM     78  C   UNL A   1      46.904  35.499  27.729  1.00  0.00     0.059 A 
ATOM     79  C   UNL A   1      47.413  34.970  30.044  1.00  0.00     0.059 A 
ATOM     80  F   UNL A   1      47.031  32.802  30.851  1.00  0.00    -0.206 F 
ATOM     81  C   UNL A   1      47.378  35.877  28.987  1.00  0.00     0.060 A 
BRANCH  81  82
ATOM     82  S   UNL A   1      47.914  37.585  29.228  1.00  0.00     0.124 S 
ATOM     83  O   UNL A   1      47.429  38.220  28.008  1.00  0.00    -0.237 OA
ATOM     84  O   UNL A   1      47.220  37.950  30.459  1.00  0.00    -0.237 OA
ATOM     85  O   UNL A   1      49.364  37.468  29.346  1.00  0.00    -0.744 OA
ENDBRANCH  81  82
ENDBRANCH  49  74
BRANCH  61  86
ATOM     86  C   UNL A   1      49.622  27.378  26.460  1.00  0.00     0.058 A 
ATOM     87  C   UNL A   1      50.624  27.028  27.377  1.00  0.00     0.135 A 
ATOM     88  C   UNL A   1      49.957  27.386  25.095  1.00  0.00     0.135 A 
ATOM     89  F   UNL A   1      50.361  27.010  28.694  1.00  0.00    -0.206 F 
ATOM     90  C   UNL A   1      51.916  26.723  26.960  1.00  0.00     0.059 A 
ATOM     91  C   UNL A   1      51.233  27.051  24.653  1.00  0.00     0.059 A 
ATOM     92  F   UNL A   1      49.033  27.701  24.173  1.00  0.00    -0.206 F 
ATOM     93  C   UNL A   1      52.209  26.734  25.595  1.00  0.00     0.060 A 
BRANCH  93  94
ATOM     94  S   UNL A   1      53.881  26.301  25.066  1.00  0.00     0.124 S 
ATOM     95  O   UNL A   1      54.598  26.292  26.336  1.00  0.00    -0.237 OA
ATOM     96  O   UNL A   1      53.680  24.997  24.440  1.00  0.00    -0.237 OA
ATOM     97  O   UNL A   1      54.238  27.380  24.150  1.00  0.00    -0.744 OA
ENDBRANCH  93  94
ENDBRANCH  61  86
ENDBRANCH  35  36
ENDBRANCH  28  30
ENDBRANCH  27  28
ENDBRANCH  26  27
ENDBRANCH   1  26
TORSDOF 20
ENDMDL
