MODEL 1
REMARK VINA RESULT:     -12.0      0.000      0.000
REMARK SMILES CCC[NH+]1CCN(c2cc(C(=O)OCCOCCOC(=O)c3ccc(-c4c5nc(c(-c6c(F)cc(S(=O)(=O)[O-])cc6F)c6ccc([nH]6)c(-c6c(F)cc(S(=O)(=O)[O-])cc6F)c6nc(c(-c7c(F)cc(S(=O)(=O)[O-])cc7F)c7ccc4[nH]7)C=C6)C=C5)cc3)c3cc(NC(=O)c4ccc(F)cc4)ccc3n2)CC1
REMARK SMILES IDX 16 1 15 2 14 3 13 4 11 5 12 6 10 7 8 8 9 9 104 10 103 11
REMARK SMILES IDX 88 12 102 13 89 14 101 15 90 16 7 17 4 18 5 19 106 20 6 22
REMARK SMILES IDX 105 23 3 24 2 25 1 26 91 27 92 28 93 30 94 31 95 32 100 33
REMARK SMILES IDX 96 34 99 35 97 36 98 37 17 38 18 39 19 40 20 41 21 42 22 43
REMARK SMILES IDX 23 44 87 45 24 46 86 47 25 48 26 49 27 50 80 51 28 52 85 53
REMARK SMILES IDX 79 54 81 55 29 56 84 57 78 58 77 59 30 61 64 62 43 63 63 64
REMARK SMILES IDX 44 65 47 66 62 67 82 68 45 69 46 70 61 72 83 73 48 74 31 75
REMARK SMILES IDX 32 76 41 77 33 78 34 79 40 80 42 81 35 82 36 83 37 84 38 85
REMARK SMILES IDX 39 86 65 87 66 88 75 89 67 90 68 91 74 92 76 93 69 94 70 95
REMARK SMILES IDX 71 96 72 97 73 98 49 99 50 100 59 101 51 102 52 103 58 104
REMARK SMILES IDX 60 105 53 106 54 107 55 108 56 109 57 110
REMARK H PARENT 4 21 91 29 81 60 47 71
REMARK Flexibility Score: inf
ROOT
ATOM      1  O   UNL A   1      39.247  21.653  26.014  1.00  0.00    -0.374 OA
ENDROOT
BRANCH   1   2
ATOM      2  C   UNL A   1      37.983  21.624  25.346  1.00  0.00     0.202 C 
BRANCH   2   3
ATOM      3  C   UNL A   1      37.246  22.960  25.274  1.00  0.00     0.261 C 
BRANCH   3   4
ATOM      4  O   UNL A   1      36.158  22.885  24.333  1.00  0.00    -0.460 OA
BRANCH   4   5
ATOM      5  C   UNL A   1      35.114  23.668  24.673  1.00  0.00     0.339 C 
ATOM      6  O   UNL A   1      35.007  24.871  24.467  1.00  0.00    -0.246 OA
BRANCH   5   7
ATOM      7  C   UNL A   1      33.971  22.854  25.116  1.00  0.00     0.073 A 
ATOM      8  C   UNL A   1      32.924  20.723  24.914  1.00  0.00     0.130 A 
ATOM      9  C   UNL A   1      34.053  21.504  24.794  1.00  0.00     0.063 A 
ATOM     10  N   UNL A   1      31.744  21.243  25.304  1.00  0.00    -0.231 NA
ATOM     11  C   UNL A   1      31.675  22.534  25.669  1.00  0.00     0.074 A 
ATOM     12  C   UNL A   1      32.785  23.392  25.641  1.00  0.00     0.017 A 
ATOM     13  C   UNL A   1      30.453  23.046  26.078  1.00  0.00     0.031 A 
ATOM     14  C   UNL A   1      32.647  24.717  26.108  1.00  0.00     0.037 A 
ATOM     15  C   UNL A   1      30.308  24.379  26.474  1.00  0.00     0.028 A 
ATOM     16  C   UNL A   1      31.409  25.231  26.485  1.00  0.00     0.042 A 
BRANCH   8  17
ATOM     17  N   UNL A   1      32.977  19.394  24.602  1.00  0.00    -0.345 N 
ATOM     18  N   UNL A   1      33.901  16.966  23.271  1.00  0.00    -0.332 N 
ATOM     19  C   UNL A   1      33.103  18.002  22.571  1.00  0.00     0.284 C 
ATOM     20  C   UNL A   1      34.705  17.639  24.322  1.00  0.00     0.284 C 
ATOM     21  H   UNL A   1      34.526  16.504  22.610  1.00  0.00     0.348 HD
ATOM     22  C   UNL A   1      32.204  18.865  23.487  1.00  0.00     0.179 C 
ATOM     23  C   UNL A   1      33.912  18.528  25.305  1.00  0.00     0.179 C 
BRANCH  18  24
ATOM     24  C   UNL A   1      33.052  15.899  23.817  1.00  0.00     0.262 C 
BRANCH  24  25
ATOM     25  C   UNL A   1      33.418  15.625  25.279  1.00  0.00     0.058 C 
ATOM     26  C   UNL A   1      32.281  15.011  26.082  1.00  0.00     0.010 C 
ENDBRANCH  24  25
ENDBRANCH  18  24
ENDBRANCH   8  17
BRANCH  16  27
ATOM     27  N   UNL A   1      31.197  26.551  26.916  1.00  0.00    -0.322 N 
ATOM     28  C   UNL A   1      31.681  27.758  26.467  1.00  0.00     0.255 C 
ATOM     29  H   UNL A   1      30.587  26.626  27.684  1.00  0.00     0.170 HD
ATOM     30  O   UNL A   1      31.565  28.755  27.175  1.00  0.00    -0.269 OA
BRANCH  28  31
ATOM     31  C   UNL A   1      32.322  27.896  25.147  1.00  0.00     0.040 A 
ATOM     32  C   UNL A   1      31.521  27.745  24.014  1.00  0.00     0.017 A 
ATOM     33  C   UNL A   1      33.686  28.186  25.013  1.00  0.00     0.017 A 
ATOM     34  C   UNL A   1      32.068  27.900  22.742  1.00  0.00     0.040 A 
ATOM     35  C   UNL A   1      34.227  28.365  23.738  1.00  0.00     0.040 A 
ATOM     36  C   UNL A   1      33.416  28.214  22.616  1.00  0.00     0.123 A 
ATOM     37  F   UNL A   1      33.933  28.397  21.395  1.00  0.00    -0.207 F 
ENDBRANCH  28  31
ENDBRANCH  16  27
ENDBRANCH   5   7
ENDBRANCH   4   5
ENDBRANCH   3   4
ENDBRANCH   2   3
ENDBRANCH   1   2
BRANCH   1  38
ATOM     38  C   UNL A   1      39.628  22.861  26.662  1.00  0.00     0.202 C 
BRANCH  38  39
ATOM     39  C   UNL A   1      41.053  22.951  27.228  1.00  0.00     0.261 C 
BRANCH  39  40
ATOM     40  O   UNL A   1      41.915  23.919  26.606  1.00  0.00    -0.460 OA
BRANCH  40  41
ATOM     41  C   UNL A   1      41.343  25.135  26.420  1.00  0.00     0.338 C 
ATOM     42  O   UNL A   1      40.860  25.565  25.378  1.00  0.00    -0.246 OA
BRANCH  41  43
ATOM     43  C   UNL A   1      41.285  25.892  27.684  1.00  0.00     0.060 A 
ATOM     44  C   UNL A   1      40.060  25.976  28.357  1.00  0.00     0.016 A 
ATOM     45  C   UNL A   1      42.390  26.619  28.137  1.00  0.00     0.016 A 
ATOM     46  C   UNL A   1      39.928  26.810  29.472  1.00  0.00     0.010 A 
ATOM     47  C   UNL A   1      42.252  27.461  29.248  1.00  0.00     0.010 A 
ATOM     48  C   UNL A   1      41.014  27.582  29.908  1.00  0.00    -0.014 A 
BRANCH  48  49
ATOM     49  C   UNL A   1      40.823  28.616  30.961  1.00  0.00     0.031 A 
ATOM     50  C   UNL A   1      41.643  28.531  32.220  1.00  0.00     0.074 A 
ATOM     51  C   UNL A   1      39.939  29.620  30.809  1.00  0.00     0.049 A 
ATOM     52  N   UNL A   1      41.639  29.318  33.264  1.00  0.00    -0.248 NA
ATOM     53  C   UNL A   1      42.597  27.414  32.310  1.00  0.00     0.031 C 
ATOM     54  C   UNL A   1      39.106  29.838  29.632  1.00  0.00     0.029 A 
ATOM     55  N   UNL A   1      39.578  30.638  31.659  1.00  0.00    -0.354 N 
ATOM     56  C   UNL A   1      42.595  28.801  34.130  1.00  0.00     0.074 A 
ATOM     57  C   UNL A   1      43.128  27.607  33.508  1.00  0.00     0.031 C 
ATOM     58  C   UNL A   1      38.298  30.889  29.844  1.00  0.00     0.029 A 
ATOM     59  C   UNL A   1      38.562  31.429  31.173  1.00  0.00     0.049 A 
ATOM     60  H   UNL A   1      40.007  30.788  32.531  1.00  0.00     0.167 HD
ATOM     61  C   UNL A   1      43.005  29.286  35.326  1.00  0.00     0.037 A 
ATOM     62  C   UNL A   1      37.914  32.469  31.734  1.00  0.00     0.037 A 
ATOM     63  C   UNL A   1      42.462  30.464  35.950  1.00  0.00     0.049 A 
ATOM     64  C   UNL A   1      38.341  32.952  33.095  1.00  0.00     0.074 A 
ATOM     65  C   UNL A   1      42.825  31.045  37.153  1.00  0.00     0.029 A 
ATOM     66  N   UNL A   1      41.430  31.234  35.432  1.00  0.00    -0.354 N 
ATOM     67  N   UNL A   1      39.288  32.488  33.875  1.00  0.00    -0.248 NA
ATOM     68  C   UNL A   1      37.627  34.114  33.643  1.00  0.00     0.031 C 
ATOM     69  C   UNL A   1      41.983  32.138  37.384  1.00  0.00     0.029 A 
ATOM     70  C   UNL A   1      41.129  32.271  36.301  1.00  0.00     0.049 A 
ATOM     71  H   UNL A   1      40.980  31.068  34.572  1.00  0.00     0.167 HD
ATOM     72  C   UNL A   1      39.310  33.323  34.986  1.00  0.00     0.074 A 
ATOM     73  C   UNL A   1      38.284  34.323  34.776  1.00  0.00     0.031 C 
ATOM     74  C   UNL A   1      40.113  33.269  36.077  1.00  0.00     0.037 A 
BRANCH  61  75
ATOM     75  C   UNL A   1      44.087  28.530  36.043  1.00  0.00     0.058 A 
ATOM     76  C   UNL A   1      43.805  27.379  36.797  1.00  0.00     0.135 A 
ATOM     77  C   UNL A   1      45.425  28.948  35.961  1.00  0.00     0.135 A 
ATOM     78  F   UNL A   1      42.540  26.946  36.921  1.00  0.00    -0.206 F 
ATOM     79  C   UNL A   1      44.806  26.685  37.467  1.00  0.00     0.059 A 
ATOM     80  C   UNL A   1      46.447  28.254  36.603  1.00  0.00     0.059 A 
ATOM     81  F   UNL A   1      45.749  30.043  35.256  1.00  0.00    -0.206 F 
ATOM     82  C   UNL A   1      46.125  27.132  37.366  1.00  0.00     0.060 A 
BRANCH  82  83
ATOM     83  S   UNL A   1      47.413  26.225  38.246  1.00  0.00     0.124 S 
ATOM     84  O   UNL A   1      48.601  26.999  37.901  1.00  0.00    -0.237 OA
ATOM     85  O   UNL A   1      46.973  26.323  39.633  1.00  0.00    -0.237 OA
ATOM     86  O   UNL A   1      47.345  24.888  37.664  1.00  0.00    -0.744 OA
ENDBRANCH  82  83
ENDBRANCH  61  75
BRANCH  62  87
ATOM     87  C   UNL A   1      36.807  33.142  31.002  1.00  0.00     0.058 A 
ATOM     88  C   UNL A   1      35.471  32.978  31.399  1.00  0.00     0.135 A 
ATOM     89  C   UNL A   1      37.061  33.956  29.888  1.00  0.00     0.135 A 
ATOM     90  F   UNL A   1      35.175  32.202  32.453  1.00  0.00    -0.206 F 
ATOM     91  C   UNL A   1      34.426  33.579  30.706  1.00  0.00     0.059 A 
ATOM     92  C   UNL A   1      36.033  34.588  29.194  1.00  0.00     0.059 A 
ATOM     93  F   UNL A   1      38.322  34.152  29.472  1.00  0.00    -0.206 F 
ATOM     94  C   UNL A   1      34.717  34.384  29.603  1.00  0.00     0.060 A 
BRANCH  94  95
ATOM     95  S   UNL A   1      33.353  35.187  28.733  1.00  0.00     0.124 S 
ATOM     96  O   UNL A   1      34.056  36.204  27.959  1.00  0.00    -0.237 OA
ATOM     97  O   UNL A   1      32.784  34.083  27.967  1.00  0.00    -0.237 OA
ATOM     98  O   UNL A   1      32.511  35.687  29.816  1.00  0.00    -0.744 OA
ENDBRANCH  94  95
ENDBRANCH  62  87
BRANCH  74  99
ATOM     99  C   UNL A   1      39.951  34.348  37.114  1.00  0.00     0.058 A 
ATOM    100  C   UNL A   1      40.566  35.601  36.981  1.00  0.00     0.135 A 
ATOM    101  C   UNL A   1      39.125  34.137  38.230  1.00  0.00     0.135 A 
ATOM    102  F   UNL A   1      41.371  35.853  35.937  1.00  0.00    -0.206 F 
ATOM    103  C   UNL A   1      40.384  36.603  37.931  1.00  0.00     0.059 A 
ATOM    104  C   UNL A   1      38.907  35.132  39.176  1.00  0.00     0.059 A 
ATOM    105  F   UNL A   1      38.505  32.958  38.400  1.00  0.00    -0.206 F 
ATOM    106  C   UNL A   1      39.550  36.360  39.025  1.00  0.00     0.060 A 
BRANCH 106 107
ATOM    107  S   UNL A   1      39.293  37.679  40.230  1.00  0.00     0.124 S 
ATOM    108  O   UNL A   1      40.611  38.306  40.265  1.00  0.00    -0.237 OA
ATOM    109  O   UNL A   1      38.233  38.467  39.610  1.00  0.00    -0.237 OA
ATOM    110  O   UNL A   1      38.907  36.961  41.441  1.00  0.00    -0.744 OA
ENDBRANCH 106 107
ENDBRANCH  74  99
ENDBRANCH  48  49
ENDBRANCH  41  43
ENDBRANCH  40  41
ENDBRANCH  39  40
ENDBRANCH  38  39
ENDBRANCH   1  38
TORSDOF 22
ENDMDL
MODEL 2
REMARK VINA RESULT:     -11.9      1.414      2.273
REMARK SMILES CCC[NH+]1CCN(c2cc(C(=O)OCCOCCOC(=O)c3ccc(-c4c5nc(c(-c6c(F)cc(S(=O)(=O)[O-])cc6F)c6ccc([nH]6)c(-c6c(F)cc(S(=O)(=O)[O-])cc6F)c6nc(c(-c7c(F)cc(S(=O)(=O)[O-])cc7F)c7ccc4[nH]7)C=C6)C=C5)cc3)c3cc(NC(=O)c4ccc(F)cc4)ccc3n2)CC1
REMARK SMILES IDX 16 1 15 2 14 3 13 4 11 5 12 6 10 7 8 8 9 9 104 10 103 11
REMARK SMILES IDX 88 12 102 13 89 14 101 15 90 16 7 17 4 18 5 19 106 20 6 22
REMARK SMILES IDX 105 23 3 24 2 25 1 26 91 27 92 28 93 30 94 31 95 32 100 33
REMARK SMILES IDX 96 34 99 35 97 36 98 37 17 38 18 39 19 40 20 41 21 42 22 43
REMARK SMILES IDX 23 44 87 45 24 46 86 47 25 48 26 49 27 50 80 51 28 52 85 53
REMARK SMILES IDX 79 54 81 55 29 56 84 57 78 58 77 59 30 61 64 62 43 63 63 64
REMARK SMILES IDX 44 65 47 66 62 67 82 68 45 69 46 70 61 72 83 73 48 74 31 75
REMARK SMILES IDX 32 76 41 77 33 78 34 79 40 80 42 81 35 82 36 83 37 84 38 85
REMARK SMILES IDX 39 86 65 87 66 88 75 89 67 90 68 91 74 92 76 93 69 94 70 95
REMARK SMILES IDX 71 96 72 97 73 98 49 99 50 100 59 101 51 102 52 103 58 104
REMARK SMILES IDX 60 105 53 106 54 107 55 108 56 109 57 110
REMARK H PARENT 4 21 91 29 81 60 47 71
REMARK Flexibility Score: inf
ROOT
ATOM      1  O   UNL A   1      40.512  21.820  26.425  1.00  0.00    -0.374 OA
ENDROOT
BRANCH   1   2
ATOM      2  C   UNL A   1      39.429  22.644  25.988  1.00  0.00     0.202 C 
BRANCH   2   3
ATOM      3  C   UNL A   1      38.098  21.925  25.773  1.00  0.00     0.261 C 
BRANCH   3   4
ATOM      4  O   UNL A   1      37.348  22.558  24.719  1.00  0.00    -0.460 OA
BRANCH   4   5
ATOM      5  C   UNL A   1      36.352  23.342  25.181  1.00  0.00     0.339 C 
ATOM      6  O   UNL A   1      36.478  24.384  25.813  1.00  0.00    -0.246 OA
BRANCH   5   7
ATOM      7  C   UNL A   1      35.056  22.929  24.619  1.00  0.00     0.073 A 
ATOM      8  C   UNL A   1      33.708  21.048  24.055  1.00  0.00     0.130 A 
ATOM      9  C   UNL A   1      34.751  21.583  24.779  1.00  0.00     0.063 A 
ATOM     10  N   UNL A   1      33.004  21.790  23.178  1.00  0.00    -0.231 NA
ATOM     11  C   UNL A   1      33.261  23.103  23.062  1.00  0.00     0.074 A 
ATOM     12  C   UNL A   1      34.260  23.751  23.805  1.00  0.00     0.017 A 
ATOM     13  C   UNL A   1      32.516  23.851  22.163  1.00  0.00     0.031 A 
ATOM     14  C   UNL A   1      34.421  25.147  23.679  1.00  0.00     0.037 A 
ATOM     15  C   UNL A   1      32.728  25.222  21.992  1.00  0.00     0.028 A 
ATOM     16  C   UNL A   1      33.692  25.883  22.749  1.00  0.00     0.042 A 
BRANCH   8  17
ATOM     17  N   UNL A   1      33.388  19.726  24.192  1.00  0.00    -0.345 N 
ATOM     18  N   UNL A   1      33.399  16.869  23.598  1.00  0.00    -0.332 N 
ATOM     19  C   UNL A   1      32.704  17.856  22.739  1.00  0.00     0.284 C 
ATOM     20  C   UNL A   1      34.564  17.545  24.223  1.00  0.00     0.284 C 
ATOM     21  H   UNL A   1      33.726  16.085  23.033  1.00  0.00     0.348 HD
ATOM     22  C   UNL A   1      32.269  19.157  23.455  1.00  0.00     0.179 C 
ATOM     23  C   UNL A   1      34.251  18.856  24.977  1.00  0.00     0.179 C 
BRANCH  18  24
ATOM     24  C   UNL A   1      32.496  16.280  24.596  1.00  0.00     0.262 C 
BRANCH  24  25
ATOM     25  C   UNL A   1      33.206  15.159  25.361  1.00  0.00     0.058 C 
ATOM     26  C   UNL A   1      32.342  14.520  26.437  1.00  0.00     0.010 C 
ENDBRANCH  24  25
ENDBRANCH  18  24
ENDBRANCH   8  17
BRANCH  16  27
ATOM     27  N   UNL A   1      33.835  27.265  22.543  1.00  0.00    -0.322 N 
ATOM     28  C   UNL A   1      33.335  28.355  23.216  1.00  0.00     0.255 C 
ATOM     29  H   UNL A   1      34.398  27.497  21.770  1.00  0.00     0.170 HD
ATOM     30  O   UNL A   1      33.378  29.463  22.687  1.00  0.00    -0.269 OA
BRANCH  28  31
ATOM     31  C   UNL A   1      32.763  28.238  24.569  1.00  0.00     0.040 A 
ATOM     32  C   UNL A   1      33.107  29.211  25.509  1.00  0.00     0.017 A 
ATOM     33  C   UNL A   1      31.887  27.201  24.917  1.00  0.00     0.017 A 
ATOM     34  C   UNL A   1      32.567  29.169  26.794  1.00  0.00     0.040 A 
ATOM     35  C   UNL A   1      31.329  27.175  26.196  1.00  0.00     0.040 A 
ATOM     36  C   UNL A   1      31.678  28.153  27.123  1.00  0.00     0.123 A 
ATOM     37  F   UNL A   1      31.134  28.133  28.346  1.00  0.00    -0.207 F 
ENDBRANCH  28  31
ENDBRANCH  16  27
ENDBRANCH   5   7
ENDBRANCH   4   5
ENDBRANCH   3   4
ENDBRANCH   2   3
ENDBRANCH   1   2
BRANCH   1  38
ATOM     38  C   UNL A   1      41.784  22.019  25.820  1.00  0.00     0.202 C 
BRANCH  38  39
ATOM     39  C   UNL A   1      42.958  22.407  26.731  1.00  0.00     0.261 C 
BRANCH  39  40
ATOM     40  O   UNL A   1      42.772  23.592  27.522  1.00  0.00    -0.460 OA
BRANCH  40  41
ATOM     41  C   UNL A   1      42.546  24.715  26.796  1.00  0.00     0.338 C 
ATOM     42  O   UNL A   1      42.661  24.838  25.581  1.00  0.00    -0.246 OA
BRANCH  41  43
ATOM     43  C   UNL A   1      42.043  25.806  27.652  1.00  0.00     0.060 A 
ATOM     44  C   UNL A   1      42.802  26.979  27.753  1.00  0.00     0.016 A 
ATOM     45  C   UNL A   1      40.907  25.631  28.447  1.00  0.00     0.016 A 
ATOM     46  C   UNL A   1      42.441  27.971  28.671  1.00  0.00     0.010 A 
ATOM     47  C   UNL A   1      40.554  26.622  29.372  1.00  0.00     0.010 A 
ATOM     48  C   UNL A   1      41.332  27.787  29.508  1.00  0.00    -0.014 A 
BRANCH  48  49
ATOM     49  C   UNL A   1      41.065  28.742  30.618  1.00  0.00     0.031 A 
ATOM     50  C   UNL A   1      41.871  28.630  31.884  1.00  0.00     0.074 A 
ATOM     51  C   UNL A   1      40.123  29.698  30.511  1.00  0.00     0.049 A 
ATOM     52  N   UNL A   1      41.805  29.350  32.973  1.00  0.00    -0.248 NA
ATOM     53  C   UNL A   1      42.891  27.568  31.923  1.00  0.00     0.031 C 
ATOM     54  C   UNL A   1      39.294  29.936  29.336  1.00  0.00     0.029 A 
ATOM     55  N   UNL A   1      39.690  30.639  31.414  1.00  0.00    -0.354 N 
ATOM     56  C   UNL A   1      42.779  28.840  33.822  1.00  0.00     0.074 A 
ATOM     57  C   UNL A   1      43.392  27.720  33.139  1.00  0.00     0.031 C 
ATOM     58  C   UNL A   1      38.421  30.923  29.596  1.00  0.00     0.029 A 
ATOM     59  C   UNL A   1      38.634  31.396  30.960  1.00  0.00     0.049 A 
ATOM     60  H   UNL A   1      40.097  30.761  32.301  1.00  0.00     0.167 HD
ATOM     61  C   UNL A   1      43.142  29.275  35.052  1.00  0.00     0.037 A 
ATOM     62  C   UNL A   1      37.916  32.359  31.570  1.00  0.00     0.037 A 
ATOM     63  C   UNL A   1      42.521  30.378  35.736  1.00  0.00     0.049 A 
ATOM     64  C   UNL A   1      38.294  32.783  32.965  1.00  0.00     0.074 A 
ATOM     65  C   UNL A   1      42.832  30.906  36.978  1.00  0.00     0.029 A 
ATOM     66  N   UNL A   1      41.451  31.115  35.248  1.00  0.00    -0.354 N 
ATOM     67  N   UNL A   1      39.257  32.330  33.731  1.00  0.00    -0.248 NA
ATOM     68  C   UNL A   1      37.504  33.865  33.569  1.00  0.00     0.031 C 
ATOM     69  C   UNL A   1      41.921  31.931  37.259  1.00  0.00     0.029 A 
ATOM     70  C   UNL A   1      41.076  32.077  36.171  1.00  0.00     0.049 A 
ATOM     71  H   UNL A   1      41.023  30.975  34.372  1.00  0.00     0.167 HD
ATOM     72  C   UNL A   1      39.213  33.096  34.891  1.00  0.00     0.074 A 
ATOM     73  C   UNL A   1      38.131  34.044  34.723  1.00  0.00     0.031 C 
ATOM     74  C   UNL A   1      40.004  33.024  35.990  1.00  0.00     0.037 A 
BRANCH  61  75
ATOM     75  C   UNL A   1      44.259  28.543  35.741  1.00  0.00     0.058 A 
ATOM     76  C   UNL A   1      44.010  27.463  36.602  1.00  0.00     0.135 A 
ATOM     77  C   UNL A   1      45.596  28.913  35.524  1.00  0.00     0.135 A 
ATOM     78  F   UNL A   1      42.748  27.079  36.857  1.00  0.00    -0.206 F 
ATOM     79  C   UNL A   1      45.043  26.791  37.246  1.00  0.00     0.059 A 
ATOM     80  C   UNL A   1      46.649  28.240  36.138  1.00  0.00     0.059 A 
ATOM     81  F   UNL A   1      45.891  29.940  34.713  1.00  0.00    -0.206 F 
ATOM     82  C   UNL A   1      46.361  27.190  37.009  1.00  0.00     0.060 A 
BRANCH  82  83
ATOM     83  S   UNL A   1      47.691  26.313  37.856  1.00  0.00     0.124 S 
ATOM     84  O   UNL A   1      47.675  25.026  37.168  1.00  0.00    -0.237 OA
ATOM     85  O   UNL A   1      48.846  27.161  37.586  1.00  0.00    -0.237 OA
ATOM     86  O   UNL A   1      47.249  26.285  39.248  1.00  0.00    -0.744 OA
ENDBRANCH  82  83
ENDBRANCH  61  75
BRANCH  62  87
ATOM     87  C   UNL A   1      36.780  33.007  30.861  1.00  0.00     0.058 A 
ATOM     88  C   UNL A   1      37.002  33.944  29.842  1.00  0.00     0.135 A 
ATOM     89  C   UNL A   1      35.449  32.708  31.192  1.00  0.00     0.135 A 
ATOM     90  F   UNL A   1      38.257  34.271  29.493  1.00  0.00    -0.206 F 
ATOM     91  C   UNL A   1      35.949  34.578  29.190  1.00  0.00     0.059 A 
ATOM     92  C   UNL A   1      34.379  33.310  30.538  1.00  0.00     0.059 A 
ATOM     93  F   UNL A   1      35.181  31.812  32.156  1.00  0.00    -0.206 F 
ATOM     94  C   UNL A   1      34.639  34.254  29.546  1.00  0.00     0.060 A 
BRANCH  94  95
ATOM     95  S   UNL A   1      33.279  35.057  28.669  1.00  0.00     0.124 S 
ATOM     96  O   UNL A   1      32.465  35.547  29.775  1.00  0.00    -0.237 OA
ATOM     97  O   UNL A   1      33.976  36.075  27.889  1.00  0.00    -0.237 OA
ATOM     98  O   UNL A   1      32.695  33.971  27.887  1.00  0.00    -0.744 OA
ENDBRANCH  94  95
ENDBRANCH  62  87
BRANCH  74  99
ATOM     99  C   UNL A   1      39.762  34.026  37.087  1.00  0.00     0.058 A 
ATOM    100  C   UNL A   1      39.049  33.697  38.248  1.00  0.00     0.135 A 
ATOM    101  C   UNL A   1      40.301  35.320  36.993  1.00  0.00     0.135 A 
ATOM    102  F   UNL A   1      38.508  32.476  38.385  1.00  0.00    -0.206 F 
ATOM    103  C   UNL A   1      38.858  34.622  39.271  1.00  0.00     0.059 A 
ATOM    104  C   UNL A   1      40.146  36.252  38.014  1.00  0.00     0.059 A 
ATOM    105  F   UNL A   1      41.001  35.686  35.907  1.00  0.00    -0.206 F 
ATOM    106  C   UNL A   1      39.413  35.897  39.145  1.00  0.00     0.060 A 
BRANCH 106 107
ATOM    107  S   UNL A   1      39.189  37.077  40.494  1.00  0.00     0.124 S 
ATOM    108  O   UNL A   1      38.369  38.102  39.855  1.00  0.00    -0.237 OA
ATOM    109  O   UNL A   1      38.519  36.269  41.508  1.00  0.00    -0.237 OA
ATOM    110  O   UNL A   1      40.554  37.478  40.822  1.00  0.00    -0.744 OA
ENDBRANCH 106 107
ENDBRANCH  74  99
ENDBRANCH  48  49
ENDBRANCH  41  43
ENDBRANCH  40  41
ENDBRANCH  39  40
ENDBRANCH  38  39
ENDBRANCH   1  38
TORSDOF 22
ENDMDL
MODEL 3
REMARK VINA RESULT:     -11.7      0.636      7.689
REMARK SMILES CCC[NH+]1CCN(c2cc(C(=O)OCCOCCOC(=O)c3ccc(-c4c5nc(c(-c6c(F)cc(S(=O)(=O)[O-])cc6F)c6ccc([nH]6)c(-c6c(F)cc(S(=O)(=O)[O-])cc6F)c6nc(c(-c7c(F)cc(S(=O)(=O)[O-])cc7F)c7ccc4[nH]7)C=C6)C=C5)cc3)c3cc(NC(=O)c4ccc(F)cc4)ccc3n2)CC1
REMARK SMILES IDX 16 1 15 2 14 3 13 4 11 5 12 6 10 7 8 8 9 9 104 10 103 11
REMARK SMILES IDX 88 12 102 13 89 14 101 15 90 16 7 17 4 18 5 19 106 20 6 22
REMARK SMILES IDX 105 23 3 24 2 25 1 26 91 27 92 28 93 30 94 31 95 32 100 33
REMARK SMILES IDX 96 34 99 35 97 36 98 37 17 38 18 39 19 40 20 41 21 42 22 43
REMARK SMILES IDX 23 44 87 45 24 46 86 47 25 48 26 49 27 50 80 51 28 52 85 53
REMARK SMILES IDX 79 54 81 55 29 56 84 57 78 58 77 59 30 61 64 62 43 63 63 64
REMARK SMILES IDX 44 65 47 66 62 67 82 68 45 69 46 70 61 72 83 73 48 74 31 75
REMARK SMILES IDX 32 76 41 77 33 78 34 79 40 80 42 81 35 82 36 83 37 84 38 85
REMARK SMILES IDX 39 86 65 87 66 88 75 89 67 90 68 91 74 92 76 93 69 94 70 95
REMARK SMILES IDX 71 96 72 97 73 98 49 99 50 100 59 101 51 102 52 103 58 104
REMARK SMILES IDX 60 105 53 106 54 107 55 108 56 109 57 110
REMARK H PARENT 4 21 91 29 81 60 47 71
REMARK Flexibility Score: inf
ROOT
ATOM      1  O   UNL A   1      38.911  22.549  26.636  1.00  0.00    -0.374 OA
ENDROOT
BRANCH   1   2
ATOM      2  C   UNL A   1      38.013  21.988  25.675  1.00  0.00     0.202 C 
BRANCH   2   3
ATOM      3  C   UNL A   1      37.275  22.996  24.796  1.00  0.00     0.261 C 
BRANCH   3   4
ATOM      4  O   UNL A   1      36.138  23.536  25.494  1.00  0.00    -0.460 OA
BRANCH   4   5
ATOM      5  C   UNL A   1      35.070  23.725  24.693  1.00  0.00     0.339 C 
ATOM      6  O   UNL A   1      35.058  24.316  23.620  1.00  0.00    -0.246 OA
BRANCH   5   7
ATOM      7  C   UNL A   1      33.929  22.909  25.138  1.00  0.00     0.073 A 
ATOM      8  C   UNL A   1      32.882  20.779  24.935  1.00  0.00     0.130 A 
ATOM      9  C   UNL A   1      34.010  21.560  24.812  1.00  0.00     0.063 A 
ATOM     10  N   UNL A   1      31.704  21.296  25.331  1.00  0.00    -0.231 NA
ATOM     11  C   UNL A   1      31.636  22.586  25.700  1.00  0.00     0.074 A 
ATOM     12  C   UNL A   1      32.745  23.445  25.670  1.00  0.00     0.017 A 
ATOM     13  C   UNL A   1      30.415  23.096  26.116  1.00  0.00     0.031 A 
ATOM     14  C   UNL A   1      32.608  24.768  26.141  1.00  0.00     0.037 A 
ATOM     15  C   UNL A   1      30.271  24.428  26.516  1.00  0.00     0.028 A 
ATOM     16  C   UNL A   1      31.372  25.281  26.525  1.00  0.00     0.042 A 
BRANCH   8  17
ATOM     17  N   UNL A   1      32.935  19.450  24.618  1.00  0.00    -0.345 N 
ATOM     18  N   UNL A   1      33.870  17.023  23.293  1.00  0.00    -0.332 N 
ATOM     19  C   UNL A   1      33.088  18.065  22.585  1.00  0.00     0.284 C 
ATOM     20  C   UNL A   1      34.660  17.689  24.360  1.00  0.00     0.284 C 
ATOM     21  H   UNL A   1      34.504  16.560  22.641  1.00  0.00     0.348 HD
ATOM     22  C   UNL A   1      32.178  18.929  23.489  1.00  0.00     0.179 C 
ATOM     23  C   UNL A   1      33.854  18.577  25.333  1.00  0.00     0.179 C 
BRANCH  18  24
ATOM     24  C   UNL A   1      33.008  15.958  23.822  1.00  0.00     0.262 C 
BRANCH  24  25
ATOM     25  C   UNL A   1      33.522  15.485  25.185  1.00  0.00     0.058 C 
ATOM     26  C   UNL A   1      32.414  15.047  26.130  1.00  0.00     0.010 C 
ENDBRANCH  24  25
ENDBRANCH  18  24
ENDBRANCH   8  17
BRANCH  16  27
ATOM     27  N   UNL A   1      31.161  26.599  26.960  1.00  0.00    -0.322 N 
ATOM     28  C   UNL A   1      31.616  27.810  26.493  1.00  0.00     0.255 C 
ATOM     29  H   UNL A   1      30.578  26.670  27.750  1.00  0.00     0.170 HD
ATOM     30  O   UNL A   1      31.514  28.808  27.202  1.00  0.00    -0.269 OA
BRANCH  28  31
ATOM     31  C   UNL A   1      32.209  27.952  25.151  1.00  0.00     0.040 A 
ATOM     32  C   UNL A   1      33.564  28.276  25.068  1.00  0.00     0.017 A 
ATOM     33  C   UNL A   1      31.458  27.756  23.984  1.00  0.00     0.017 A 
ATOM     34  C   UNL A   1      34.184  28.388  23.825  1.00  0.00     0.040 A 
ATOM     35  C   UNL A   1      32.087  27.845  22.741  1.00  0.00     0.040 A 
ATOM     36  C   UNL A   1      33.440  28.166  22.672  1.00  0.00     0.123 A 
ATOM     37  F   UNL A   1      34.045  28.241  21.480  1.00  0.00    -0.207 F 
ENDBRANCH  28  31
ENDBRANCH  16  27
ENDBRANCH   5   7
ENDBRANCH   4   5
ENDBRANCH   3   4
ENDBRANCH   2   3
ENDBRANCH   1   2
BRANCH   1  38
ATOM     38  C   UNL A   1      39.888  23.474  26.170  1.00  0.00     0.202 C 
BRANCH  38  39
ATOM     39  C   UNL A   1      41.297  23.393  26.775  1.00  0.00     0.261 C 
BRANCH  39  40
ATOM     40  O   UNL A   1      42.214  24.421  26.366  1.00  0.00    -0.460 OA
BRANCH  40  41
ATOM     41  C   UNL A   1      41.671  25.663  26.314  1.00  0.00     0.338 C 
ATOM     42  O   UNL A   1      41.172  26.203  25.332  1.00  0.00    -0.246 OA
BRANCH  41  43
ATOM     43  C   UNL A   1      41.668  26.296  27.646  1.00  0.00     0.060 A 
ATOM     44  C   UNL A   1      40.527  26.164  28.446  1.00  0.00     0.016 A 
ATOM     45  C   UNL A   1      42.723  27.118  28.052  1.00  0.00     0.016 A 
ATOM     46  C   UNL A   1      40.424  26.876  29.645  1.00  0.00     0.010 A 
ATOM     47  C   UNL A   1      42.613  27.837  29.250  1.00  0.00     0.010 A 
ATOM     48  C   UNL A   1      41.453  27.741  30.042  1.00  0.00    -0.014 A 
BRANCH  48  49
ATOM     49  C   UNL A   1      41.262  28.648  31.206  1.00  0.00     0.031 A 
ATOM     50  C   UNL A   1      40.194  29.706  31.137  1.00  0.00     0.074 A 
ATOM     51  C   UNL A   1      42.022  28.541  32.312  1.00  0.00     0.049 A 
ATOM     52  N   UNL A   1      39.857  30.601  32.028  1.00  0.00    -0.248 NA
ATOM     53  C   UNL A   1      39.396  29.755  29.900  1.00  0.00     0.031 C 
ATOM     54  C   UNL A   1      43.068  27.547  32.523  1.00  0.00     0.029 A 
ATOM     55  N   UNL A   1      42.044  29.289  33.465  1.00  0.00    -0.354 N 
ATOM     56  C   UNL A   1      38.802  31.312  31.469  1.00  0.00     0.074 A 
ATOM     57  C   UNL A   1      38.584  30.773  30.143  1.00  0.00     0.031 C 
ATOM     58  C   UNL A   1      43.663  27.768  33.706  1.00  0.00     0.029 A 
ATOM     59  C   UNL A   1      43.034  28.918  34.346  1.00  0.00     0.049 A 
ATOM     60  H   UNL A   1      41.411  30.021  33.643  1.00  0.00     0.167 HD
ATOM     61  C   UNL A   1      38.070  32.311  32.016  1.00  0.00     0.037 A 
ATOM     62  C   UNL A   1      43.397  29.445  35.531  1.00  0.00     0.037 A 
ATOM     63  C   UNL A   1      38.299  32.856  33.329  1.00  0.00     0.049 A 
ATOM     64  C   UNL A   1      42.611  30.600  36.093  1.00  0.00     0.074 A 
ATOM     65  C   UNL A   1      37.598  33.858  33.978  1.00  0.00     0.029 A 
ATOM     66  N   UNL A   1      39.315  32.460  34.188  1.00  0.00    -0.354 N 
ATOM     67  N   UNL A   1      41.578  31.222  35.578  1.00  0.00    -0.248 NA
ATOM     68  C   UNL A   1      43.025  31.110  37.408  1.00  0.00     0.031 C 
ATOM     69  C   UNL A   1      38.218  34.099  35.210  1.00  0.00     0.029 A 
ATOM     70  C   UNL A   1      39.273  33.211  35.351  1.00  0.00     0.049 A 
ATOM     71  H   UNL A   1      39.968  31.748  33.998  1.00  0.00     0.167 HD
ATOM     72  C   UNL A   1      41.195  32.170  36.520  1.00  0.00     0.074 A 
ATOM     73  C   UNL A   1      42.105  32.036  37.639  1.00  0.00     0.031 C 
ATOM     74  C   UNL A   1      40.176  33.063  36.465  1.00  0.00     0.037 A 
BRANCH  61  75
ATOM     75  C   UNL A   1      36.958  32.886  31.186  1.00  0.00     0.058 A 
ATOM     76  C   UNL A   1      35.619  32.520  31.396  1.00  0.00     0.135 A 
ATOM     77  C   UNL A   1      37.230  33.828  30.181  1.00  0.00     0.135 A 
ATOM     78  F   UNL A   1      35.305  31.610  32.333  1.00  0.00    -0.206 F 
ATOM     79  C   UNL A   1      34.591  33.046  30.622  1.00  0.00     0.059 A 
ATOM     80  C   UNL A   1      36.215  34.387  29.410  1.00  0.00     0.059 A 
ATOM     81  F   UNL A   1      38.493  34.211  29.937  1.00  0.00    -0.206 F 
ATOM     82  C   UNL A   1      34.899  33.978  29.628  1.00  0.00     0.060 A 
BRANCH  82  83
ATOM     83  S   UNL A   1      33.556  34.647  28.627  1.00  0.00     0.124 S 
ATOM     84  O   UNL A   1      34.207  35.789  27.992  1.00  0.00    -0.237 OA
ATOM     85  O   UNL A   1      33.235  33.530  27.746  1.00  0.00    -0.237 OA
ATOM     86  O   UNL A   1      32.530  34.979  29.611  1.00  0.00    -0.744 OA
ENDBRANCH  82  83
ENDBRANCH  61  75
BRANCH  62  87
ATOM     87  C   UNL A   1      44.547  28.872  36.283  1.00  0.00     0.058 A 
ATOM     88  C   UNL A   1      44.379  27.771  37.135  1.00  0.00     0.135 A 
ATOM     89  C   UNL A   1      45.835  29.418  36.168  1.00  0.00     0.135 A 
ATOM     90  F   UNL A   1      43.165  27.218  37.285  1.00  0.00    -0.206 F 
ATOM     91  C   UNL A   1      45.441  27.244  37.864  1.00  0.00     0.059 A 
ATOM     92  C   UNL A   1      46.918  28.892  36.868  1.00  0.00     0.059 A 
ATOM     93  F   UNL A   1      46.052  30.467  35.360  1.00  0.00    -0.206 F 
ATOM     94  C   UNL A   1      46.708  27.812  37.723  1.00  0.00     0.060 A 
BRANCH  94  95
ATOM     95  S   UNL A   1      48.085  27.097  38.648  1.00  0.00     0.124 S 
ATOM     96  O   UNL A   1      47.518  26.995  39.988  1.00  0.00    -0.237 OA
ATOM     97  O   UNL A   1      48.301  25.834  37.950  1.00  0.00    -0.237 OA
ATOM     98  O   UNL A   1      49.148  28.084  38.485  1.00  0.00    -0.744 OA
ENDBRANCH  94  95
ENDBRANCH  62  87
BRANCH  74  99
ATOM     99  C   UNL A   1      39.956  33.942  37.667  1.00  0.00     0.058 A 
ATOM    100  C   UNL A   1      39.121  33.555  38.724  1.00  0.00     0.135 A 
ATOM    101  C   UNL A   1      40.636  35.166  37.781  1.00  0.00     0.135 A 
ATOM    102  F   UNL A   1      38.443  32.398  38.663  1.00  0.00    -0.206 F 
ATOM    103  C   UNL A   1      38.948  34.362  39.846  1.00  0.00     0.059 A 
ATOM    104  C   UNL A   1      40.500  35.974  38.904  1.00  0.00     0.059 A 
ATOM    105  F   UNL A   1      41.455  35.579  36.801  1.00  0.00    -0.206 F 
ATOM    106  C   UNL A   1      39.645  35.570  39.928  1.00  0.00     0.060 A 
BRANCH 106 107
ATOM    107  S   UNL A   1      39.442  36.590  41.403  1.00  0.00     0.124 S 
ATOM    108  O   UNL A   1      38.432  35.838  42.143  1.00  0.00    -0.237 OA
ATOM    109  O   UNL A   1      40.784  36.582  41.977  1.00  0.00    -0.237 OA
ATOM    110  O   UNL A   1      39.002  37.875  40.869  1.00  0.00    -0.744 OA
ENDBRANCH 106 107
ENDBRANCH  74  99
ENDBRANCH  48  49
ENDBRANCH  41  43
ENDBRANCH  40  41
ENDBRANCH  39  40
ENDBRANCH  38  39
ENDBRANCH   1  38
TORSDOF 22
ENDMDL
