MODEL 1
REMARK VINA RESULT:     -10.9      0.000      0.000
REMARK SMILES C[C@H](Sc1ccccn1)C(=O)N[C@H](C(=O)OCCOCCOC(=O)c1ccc(-c2c3nc(c(-c4c(F)cc(S(=O)(=O)[O-])cc4F)c4ccc([nH]4)c(-c4c(F)cc(S(=O)(=O)[O-])cc4F)c4nc(c(-c5c(F)cc(S(=O)(=O)[O-])cc5F)c5ccc2[nH]5)C=C4)C=C3)cc1)c1ccc(F)cc1
REMARK SMILES IDX 18 1 17 2 16 3 14 4 15 5 13 6 12 7 10 8 11 9 2 11 1 12 3 13
REMARK SMILES IDX 4 14 5 15 9 16 6 17 8 18 7 19 91 20 92 21 97 22 93 23 96 24
REMARK SMILES IDX 94 25 95 26 19 27 20 28 21 29 22 30 23 31 24 32 25 33 26 34
REMARK SMILES IDX 90 35 27 36 89 37 28 38 29 39 30 40 83 41 31 42 88 43 82 44
REMARK SMILES IDX 84 45 32 46 87 47 81 48 80 49 33 51 67 52 46 53 66 54 47 55
REMARK SMILES IDX 50 56 65 57 85 58 48 59 49 60 64 62 86 63 51 64 34 65 35 66
REMARK SMILES IDX 44 67 36 68 37 69 43 70 45 71 38 72 39 73 40 74 41 75 42 76
REMARK SMILES IDX 68 77 69 78 78 79 70 80 71 81 77 82 79 83 72 84 73 85 74 86
REMARK SMILES IDX 75 87 76 88 52 89 53 90 62 91 54 92 55 93 61 94 63 95 56 96
REMARK SMILES IDX 57 97 58 98 59 99 60 100
REMARK H PARENT 12 10 84 50 50 61
REMARK Flexibility Score: inf
ROOT
ATOM      1  C   UNL A   1      31.876  30.113  26.021  1.00  0.00     0.202 C 
ENDROOT
BRANCH   1   2
ATOM      2  C   UNL A   1      32.989  29.369  25.277  1.00  0.00     0.261 C 
BRANCH   2   3
ATOM      3  O   UNL A   1      32.901  27.936  25.397  1.00  0.00    -0.461 OA
BRANCH   3   4
ATOM      4  C   UNL A   1      31.664  27.359  25.241  1.00  0.00     0.333 C 
ATOM      5  O   UNL A   1      30.982  26.926  26.161  1.00  0.00    -0.249 OA
BRANCH   4   6
ATOM      6  C   UNL A   1      31.409  27.045  23.741  1.00  0.00     0.223 C 
BRANCH   6   7
ATOM      7  N   UNL A   1      30.890  25.661  23.562  1.00  0.00    -0.338 N 
ATOM      8  C   UNL A   1      31.275  24.432  23.160  1.00  0.00     0.234 C 
ATOM      9  O   UNL A   1      30.314  23.635  23.180  1.00  0.00    -0.274 OA
ATOM     10  H   UNL A   1      29.942  25.633  23.828  1.00  0.00     0.164 HD
BRANCH   8  11
ATOM     11  C   UNL A   1      32.639  23.815  22.762  1.00  0.00     0.139 C 
ATOM     12  C   UNL A   1      32.676  22.316  22.439  1.00  0.00     0.030 C 
BRANCH  11  13
ATOM     13  S   UNL A   1      34.102  24.331  23.697  1.00  0.00    -0.093 SA
BRANCH  13  14
ATOM     14  C   UNL A   1      33.909  23.443  25.269  1.00  0.00     0.097 A 
ATOM     15  C   UNL A   1      32.826  23.561  26.145  1.00  0.00     0.035 A 
ATOM     16  N   UNL A   1      34.923  22.591  25.549  1.00  0.00    -0.250 NA
ATOM     17  C   UNL A   1      32.792  22.829  27.334  1.00  0.00     0.004 A 
ATOM     18  C   UNL A   1      34.850  21.863  26.693  1.00  0.00     0.112 A 
ATOM     19  C   UNL A   1      33.820  21.949  27.612  1.00  0.00     0.020 A 
ENDBRANCH  13  14
ENDBRANCH  11  13
ENDBRANCH   8  11
ENDBRANCH   6   7
BRANCH   6  20
ATOM     20  C   UNL A   1      30.341  28.073  23.226  1.00  0.00    -0.014 A 
ATOM     21  C   UNL A   1      28.950  27.889  23.452  1.00  0.00     0.009 A 
ATOM     22  C   UNL A   1      30.713  29.191  22.457  1.00  0.00     0.009 A 
ATOM     23  C   UNL A   1      27.984  28.715  22.869  1.00  0.00     0.039 A 
ATOM     24  C   UNL A   1      29.741  30.035  21.890  1.00  0.00     0.039 A 
ATOM     25  C   UNL A   1      28.389  29.780  22.087  1.00  0.00     0.123 A 
ATOM     26  F   UNL A   1      27.468  30.573  21.522  1.00  0.00    -0.207 F 
ENDBRANCH   6  20
ENDBRANCH   4   6
ENDBRANCH   3   4
ENDBRANCH   2   3
ENDBRANCH   1   2
BRANCH   1  27
ATOM     27  O   UNL A   1      32.326  31.120  26.917  1.00  0.00    -0.374 OA
BRANCH  27  28
ATOM     28  C   UNL A   1      33.557  30.885  27.603  1.00  0.00     0.202 C 
BRANCH  28  29
ATOM     29  C   UNL A   1      34.549  32.043  27.709  1.00  0.00     0.261 C 
BRANCH  29  30
ATOM     30  O   UNL A   1      33.868  33.266  27.459  1.00  0.00    -0.460 OA
BRANCH  30  31
ATOM     31  C   UNL A   1      33.645  33.895  28.632  1.00  0.00     0.338 C 
ATOM     32  O   UNL A   1      32.751  34.706  28.846  1.00  0.00    -0.246 OA
BRANCH  31  33
ATOM     33  C   UNL A   1      34.818  33.661  29.479  1.00  0.00     0.060 A 
ATOM     34  C   UNL A   1      36.059  34.187  29.108  1.00  0.00     0.016 A 
ATOM     35  C   UNL A   1      34.648  32.953  30.673  1.00  0.00     0.016 A 
ATOM     36  C   UNL A   1      37.166  33.902  29.887  1.00  0.00     0.010 A 
ATOM     37  C   UNL A   1      35.754  32.702  31.475  1.00  0.00     0.010 A 
ATOM     38  C   UNL A   1      37.021  33.117  31.040  1.00  0.00    -0.014 A 
BRANCH  38  39
ATOM     39  C   UNL A   1      38.244  32.563  31.644  1.00  0.00     0.031 A 
ATOM     40  C   UNL A   1      38.639  33.062  33.005  1.00  0.00     0.074 A 
ATOM     41  C   UNL A   1      38.877  31.548  31.034  1.00  0.00     0.049 A 
ATOM     42  N   UNL A   1      39.566  32.619  33.809  1.00  0.00    -0.248 NA
ATOM     43  C   UNL A   1      37.880  34.209  33.539  1.00  0.00     0.031 C 
ATOM     44  C   UNL A   1      38.524  31.007  29.720  1.00  0.00     0.029 A 
ATOM     45  N   UNL A   1      39.920  30.770  31.451  1.00  0.00    -0.354 N 
ATOM     46  C   UNL A   1      39.498  33.427  34.939  1.00  0.00     0.074 A 
ATOM     47  C   UNL A   1      38.475  34.417  34.702  1.00  0.00     0.031 C 
ATOM     48  C   UNL A   1      39.321  29.960  29.452  1.00  0.00     0.029 A 
ATOM     49  C   UNL A   1      40.247  29.774  30.564  1.00  0.00     0.049 A 
ATOM     50  H   UNL A   1      40.391  30.910  32.305  1.00  0.00     0.167 HD
ATOM     51  C   UNL A   1      40.218  33.332  36.078  1.00  0.00     0.037 A 
ATOM     52  C   UNL A   1      41.189  28.817  30.659  1.00  0.00     0.037 A 
ATOM     53  C   UNL A   1      41.230  32.330  36.279  1.00  0.00     0.049 A 
ATOM     54  C   UNL A   1      41.995  28.748  31.927  1.00  0.00     0.074 A 
ATOM     55  C   UNL A   1      42.036  32.122  37.381  1.00  0.00     0.029 A 
ATOM     56  N   UNL A   1      41.571  31.365  35.339  1.00  0.00    -0.354 N 
ATOM     57  N   UNL A   1      41.908  29.504  32.999  1.00  0.00    -0.248 NA
ATOM     58  C   UNL A   1      43.015  27.698  32.008  1.00  0.00     0.031 C 
ATOM     59  C   UNL A   1      42.898  31.059  37.088  1.00  0.00     0.029 A 
ATOM     60  C   UNL A   1      42.594  30.571  35.826  1.00  0.00     0.049 A 
ATOM     61  H   UNL A   1      41.149  31.262  34.456  1.00  0.00     0.167 HD
ATOM     62  C   UNL A   1      42.857  29.016  33.888  1.00  0.00     0.074 A 
ATOM     63  C   UNL A   1      43.483  27.880  33.235  1.00  0.00     0.031 C 
ATOM     64  C   UNL A   1      43.192  29.460  35.127  1.00  0.00     0.037 A 
BRANCH  51  65
ATOM     65  C   UNL A   1      39.954  34.347  37.157  1.00  0.00     0.058 A 
ATOM     66  C   UNL A   1      40.500  35.642  37.111  1.00  0.00     0.135 A 
ATOM     67  C   UNL A   1      39.152  34.019  38.261  1.00  0.00     0.135 A 
ATOM     68  F   UNL A   1      41.299  36.003  36.094  1.00  0.00    -0.206 F 
ATOM     69  C   UNL A   1      40.278  36.564  38.129  1.00  0.00     0.059 A 
ATOM     70  C   UNL A   1      38.896  34.933  39.279  1.00  0.00     0.059 A 
ATOM     71  F   UNL A   1      38.618  32.792  38.367  1.00  0.00    -0.206 F 
ATOM     72  C   UNL A   1      39.474  36.201  39.210  1.00  0.00     0.060 A 
BRANCH  72  73
ATOM     73  S   UNL A   1      39.191  37.408  40.522  1.00  0.00     0.124 S 
ATOM     74  O   UNL A   1      38.206  38.289  39.902  1.00  0.00    -0.237 OA
ATOM     75  O   UNL A   1      38.695  36.574  41.612  1.00  0.00    -0.237 OA
ATOM     76  O   UNL A   1      40.511  37.995  40.737  1.00  0.00    -0.744 OA
ENDBRANCH  72  73
ENDBRANCH  51  65
BRANCH  52  77
ATOM     77  C   UNL A   1      41.398  27.864  29.536  1.00  0.00     0.058 A 
ATOM     78  C   UNL A   1      42.523  27.946  28.702  1.00  0.00     0.135 A 
ATOM     79  C   UNL A   1      40.483  26.825  29.295  1.00  0.00     0.135 A 
ATOM     80  F   UNL A   1      43.428  28.919  28.889  1.00  0.00    -0.206 F 
ATOM     81  C   UNL A   1      42.728  27.041  27.663  1.00  0.00     0.059 A 
ATOM     82  C   UNL A   1      40.680  25.894  28.282  1.00  0.00     0.059 A 
ATOM     83  F   UNL A   1      39.399  26.689  30.075  1.00  0.00    -0.206 F 
ATOM     84  C   UNL A   1      41.801  26.016  27.463  1.00  0.00     0.060 A 
BRANCH  84  85
ATOM     85  S   UNL A   1      42.102  24.816  26.147  1.00  0.00     0.124 S 
ATOM     86  O   UNL A   1      41.857  25.619  24.955  1.00  0.00    -0.237 OA
ATOM     87  O   UNL A   1      43.491  24.438  26.389  1.00  0.00    -0.237 OA
ATOM     88  O   UNL A   1      41.120  23.770  26.416  1.00  0.00    -0.744 OA
ENDBRANCH  84  85
ENDBRANCH  52  77
BRANCH  64  89
ATOM     89  C   UNL A   1      44.278  28.706  35.839  1.00  0.00     0.058 A 
ATOM     90  C   UNL A   1      43.987  27.610  36.664  1.00  0.00     0.135 A 
ATOM     91  C   UNL A   1      45.623  29.065  35.665  1.00  0.00     0.135 A 
ATOM     92  F   UNL A   1      42.714  27.232  36.862  1.00  0.00    -0.206 F 
ATOM     93  C   UNL A   1      44.991  26.920  37.330  1.00  0.00     0.059 A 
ATOM     94  C   UNL A   1      46.647  28.369  36.296  1.00  0.00     0.059 A 
ATOM     95  F   UNL A   1      45.952  30.096  34.870  1.00  0.00    -0.206 F 
ATOM     96  C   UNL A   1      46.319  27.310  37.141  1.00  0.00     0.060 A 
BRANCH  96  97
ATOM     97  S   UNL A   1      47.615  26.404  38.007  1.00  0.00     0.124 S 
ATOM     98  O   UNL A   1      47.210  26.574  39.398  1.00  0.00    -0.237 OA
ATOM     99  O   UNL A   1      47.472  25.057  37.465  1.00  0.00    -0.237 OA
ATOM    100  O   UNL A   1      48.835  27.103  37.617  1.00  0.00    -0.744 OA
ENDBRANCH  96  97
ENDBRANCH  64  89
ENDBRANCH  38  39
ENDBRANCH  31  33
ENDBRANCH  30  31
ENDBRANCH  29  30
ENDBRANCH  28  29
ENDBRANCH  27  28
ENDBRANCH   1  27
TORSDOF 22
ENDMDL
MODEL 2
REMARK VINA RESULT:     -10.6      6.284     10.445
REMARK SMILES C[C@H](Sc1ccccn1)C(=O)N[C@H](C(=O)OCCOCCOC(=O)c1ccc(-c2c3nc(c(-c4c(F)cc(S(=O)(=O)[O-])cc4F)c4ccc([nH]4)c(-c4c(F)cc(S(=O)(=O)[O-])cc4F)c4nc(c(-c5c(F)cc(S(=O)(=O)[O-])cc5F)c5ccc2[nH]5)C=C4)C=C3)cc1)c1ccc(F)cc1
REMARK SMILES IDX 18 1 17 2 16 3 14 4 15 5 13 6 12 7 10 8 11 9 2 11 1 12 3 13
REMARK SMILES IDX 4 14 5 15 9 16 6 17 8 18 7 19 91 20 92 21 97 22 93 23 96 24
REMARK SMILES IDX 94 25 95 26 19 27 20 28 21 29 22 30 23 31 24 32 25 33 26 34
REMARK SMILES IDX 90 35 27 36 89 37 28 38 29 39 30 40 83 41 31 42 88 43 82 44
REMARK SMILES IDX 84 45 32 46 87 47 81 48 80 49 33 51 67 52 46 53 66 54 47 55
REMARK SMILES IDX 50 56 65 57 85 58 48 59 49 60 64 62 86 63 51 64 34 65 35 66
REMARK SMILES IDX 44 67 36 68 37 69 43 70 45 71 38 72 39 73 40 74 41 75 42 76
REMARK SMILES IDX 68 77 69 78 78 79 70 80 71 81 77 82 79 83 72 84 73 85 74 86
REMARK SMILES IDX 75 87 76 88 52 89 53 90 62 91 54 92 55 93 61 94 63 95 56 96
REMARK SMILES IDX 57 97 58 98 59 99 60 100
REMARK H PARENT 12 10 84 50 50 61
REMARK Flexibility Score: inf
ROOT
ATOM      1  C   UNL A   1      32.789  30.074  27.256  1.00  0.00     0.202 C 
ENDROOT
BRANCH   1   2
ATOM      2  C   UNL A   1      33.364  29.261  26.092  1.00  0.00     0.261 C 
BRANCH   2   3
ATOM      3  O   UNL A   1      33.083  27.850  26.183  1.00  0.00    -0.461 OA
BRANCH   3   4
ATOM      4  C   UNL A   1      31.795  27.441  25.937  1.00  0.00     0.333 C 
ATOM      5  O   UNL A   1      31.011  27.068  26.800  1.00  0.00    -0.249 OA
BRANCH   4   6
ATOM      6  C   UNL A   1      31.594  27.210  24.413  1.00  0.00     0.223 C 
BRANCH   6   7
ATOM      7  N   UNL A   1      31.271  25.785  24.124  1.00  0.00    -0.338 N 
ATOM      8  C   UNL A   1      31.670  24.530  24.417  1.00  0.00     0.234 C 
ATOM      9  O   UNL A   1      31.001  23.689  23.782  1.00  0.00    -0.274 OA
ATOM     10  H   UNL A   1      30.504  25.746  23.508  1.00  0.00     0.164 HD
BRANCH   8  11
ATOM     11  C   UNL A   1      32.707  23.942  25.407  1.00  0.00     0.139 C 
ATOM     12  C   UNL A   1      32.277  23.772  26.870  1.00  0.00     0.030 C 
BRANCH  11  13
ATOM     13  S   UNL A   1      34.418  24.520  25.278  1.00  0.00    -0.093 SA
BRANCH  13  14
ATOM     14  C   UNL A   1      35.358  22.972  25.151  1.00  0.00     0.097 A 
ATOM     15  C   UNL A   1      34.809  21.690  25.055  1.00  0.00     0.035 A 
ATOM     16  N   UNL A   1      36.700  23.142  25.126  1.00  0.00    -0.250 NA
ATOM     17  C   UNL A   1      35.637  20.568  24.969  1.00  0.00     0.004 A 
ATOM     18  C   UNL A   1      37.484  22.040  25.005  1.00  0.00     0.112 A 
ATOM     19  C   UNL A   1      37.006  20.745  24.930  1.00  0.00     0.020 A 
ENDBRANCH  13  14
ENDBRANCH  11  13
ENDBRANCH   8  11
ENDBRANCH   6   7
BRANCH   6  20
ATOM     20  C   UNL A   1      30.397  28.118  23.959  1.00  0.00    -0.014 A 
ATOM     21  C   UNL A   1      29.169  27.570  23.501  1.00  0.00     0.009 A 
ATOM     22  C   UNL A   1      30.516  29.520  23.924  1.00  0.00     0.009 A 
ATOM     23  C   UNL A   1      28.157  28.365  22.954  1.00  0.00     0.039 A 
ATOM     24  C   UNL A   1      29.488  30.319  23.395  1.00  0.00     0.039 A 
ATOM     25  C   UNL A   1      28.328  29.735  22.900  1.00  0.00     0.123 A 
ATOM     26  F   UNL A   1      27.363  30.501  22.372  1.00  0.00    -0.207 F 
ENDBRANCH   6  20
ENDBRANCH   4   6
ENDBRANCH   3   4
ENDBRANCH   2   3
ENDBRANCH   1   2
BRANCH   1  27
ATOM     27  O   UNL A   1      33.521  31.247  27.584  1.00  0.00    -0.374 OA
BRANCH  27  28
ATOM     28  C   UNL A   1      34.944  31.183  27.478  1.00  0.00     0.202 C 
BRANCH  28  29
ATOM     29  C   UNL A   1      35.773  31.983  28.484  1.00  0.00     0.261 C 
BRANCH  29  30
ATOM     30  O   UNL A   1      36.131  31.139  29.570  1.00  0.00    -0.460 OA
BRANCH  30  31
ATOM     31  C   UNL A   1      36.429  29.911  29.096  1.00  0.00     0.338 C 
ATOM     32  O   UNL A   1      35.663  28.954  29.066  1.00  0.00    -0.246 OA
BRANCH  31  33
ATOM     33  C   UNL A   1      37.882  29.858  28.914  1.00  0.00     0.060 A 
ATOM     34  C   UNL A   1      38.417  29.716  27.630  1.00  0.00     0.016 A 
ATOM     35  C   UNL A   1      38.702  30.002  30.039  1.00  0.00     0.016 A 
ATOM     36  C   UNL A   1      39.788  29.603  27.485  1.00  0.00     0.010 A 
ATOM     37  C   UNL A   1      40.080  29.929  29.886  1.00  0.00     0.010 A 
ATOM     38  C   UNL A   1      40.613  29.658  28.618  1.00  0.00    -0.014 A 
BRANCH  38  39
ATOM     39  C   UNL A   1      42.006  29.205  28.467  1.00  0.00     0.031 A 
ATOM     40  C   UNL A   1      42.238  27.759  28.132  1.00  0.00     0.074 A 
ATOM     41  C   UNL A   1      42.998  30.109  28.495  1.00  0.00     0.049 A 
ATOM     42  N   UNL A   1      43.345  27.159  27.791  1.00  0.00    -0.248 NA
ATOM     43  C   UNL A   1      41.063  26.869  28.178  1.00  0.00     0.031 C 
ATOM     44  C   UNL A   1      42.828  31.533  28.794  1.00  0.00     0.029 A 
ATOM     45  N   UNL A   1      44.332  29.976  28.232  1.00  0.00    -0.354 N 
ATOM     46  C   UNL A   1      42.999  25.829  27.578  1.00  0.00     0.074 A 
ATOM     47  C   UNL A   1      41.593  25.695  27.873  1.00  0.00     0.031 C 
ATOM     48  C   UNL A   1      44.015  32.149  28.666  1.00  0.00     0.029 A 
ATOM     49  C   UNL A   1      45.023  31.161  28.298  1.00  0.00     0.049 A 
ATOM     50  H   UNL A   1      44.756  29.114  28.017  1.00  0.00     0.167 HD
ATOM     51  C   UNL A   1      43.789  24.817  27.154  1.00  0.00     0.037 A 
ATOM     52  C   UNL A   1      46.327  31.406  28.072  1.00  0.00     0.037 A 
ATOM     53  C   UNL A   1      45.187  24.989  26.868  1.00  0.00     0.049 A 
ATOM     54  C   UNL A   1      47.191  30.258  27.626  1.00  0.00     0.074 A 
ATOM     55  C   UNL A   1      46.104  24.051  26.435  1.00  0.00     0.029 A 
ATOM     56  N   UNL A   1      45.868  26.195  26.993  1.00  0.00    -0.354 N 
ATOM     57  N   UNL A   1      46.849  29.008  27.406  1.00  0.00    -0.248 NA
ATOM     58  C   UNL A   1      48.608  30.549  27.387  1.00  0.00     0.031 C 
ATOM     59  C   UNL A   1      47.352  24.680  26.343  1.00  0.00     0.029 A 
ATOM     60  C   UNL A   1      47.201  26.020  26.668  1.00  0.00     0.049 A 
ATOM     61  H   UNL A   1      45.462  27.046  27.272  1.00  0.00     0.167 HD
ATOM     62  C   UNL A   1      48.008  28.363  26.994  1.00  0.00     0.074 A 
ATOM     63  C   UNL A   1      49.051  29.372  26.967  1.00  0.00     0.031 C 
ATOM     64  C   UNL A   1      48.203  27.058  26.671  1.00  0.00     0.037 A 
BRANCH  51  65
ATOM     65  C   UNL A   1      43.163  23.457  27.012  1.00  0.00     0.058 A 
ATOM     66  C   UNL A   1      42.946  22.618  28.119  1.00  0.00     0.135 A 
ATOM     67  C   UNL A   1      42.784  22.977  25.749  1.00  0.00     0.135 A 
ATOM     68  F   UNL A   1      43.317  23.011  29.348  1.00  0.00    -0.206 F 
ATOM     69  C   UNL A   1      42.398  21.346  27.975  1.00  0.00     0.059 A 
ATOM     70  C   UNL A   1      42.210  21.719  25.584  1.00  0.00     0.059 A 
ATOM     71  F   UNL A   1      42.982  23.728  24.654  1.00  0.00    -0.206 F 
ATOM     72  C   UNL A   1      42.033  20.905  26.703  1.00  0.00     0.060 A 
BRANCH  72  73
ATOM     73  S   UNL A   1      41.318  19.257  26.531  1.00  0.00     0.124 S 
ATOM     74  O   UNL A   1      41.027  18.917  27.920  1.00  0.00    -0.237 OA
ATOM     75  O   UNL A   1      40.156  19.508  25.684  1.00  0.00    -0.237 OA
ATOM     76  O   UNL A   1      42.388  18.484  25.906  1.00  0.00    -0.744 OA
ENDBRANCH  72  73
ENDBRANCH  51  65
BRANCH  52  77
ATOM     77  C   UNL A   1      46.869  32.780  28.255  1.00  0.00     0.058 A 
ATOM     78  C   UNL A   1      47.373  33.213  29.490  1.00  0.00     0.135 A 
ATOM     79  C   UNL A   1      46.922  33.681  27.178  1.00  0.00     0.135 A 
ATOM     80  F   UNL A   1      47.346  32.392  30.551  1.00  0.00    -0.206 F 
ATOM     81  C   UNL A   1      47.898  34.492  29.656  1.00  0.00     0.059 A 
ATOM     82  C   UNL A   1      47.466  34.953  27.312  1.00  0.00     0.059 A 
ATOM     83  F   UNL A   1      46.471  33.311  25.969  1.00  0.00    -0.206 F 
ATOM     84  C   UNL A   1      47.943  35.354  28.558  1.00  0.00     0.060 A 
BRANCH  84  85
ATOM     85  S   UNL A   1      48.673  36.993  28.769  1.00  0.00     0.124 S 
ATOM     86  O   UNL A   1      50.055  36.753  28.373  1.00  0.00    -0.237 OA
ATOM     87  O   UNL A   1      47.876  37.804  27.853  1.00  0.00    -0.237 OA
ATOM     88  O   UNL A   1      48.462  37.274  30.186  1.00  0.00    -0.744 OA
ENDBRANCH  84  85
ENDBRANCH  52  77
BRANCH  64  89
ATOM     89  C   UNL A   1      49.595  26.670  26.264  1.00  0.00     0.058 A 
ATOM     90  C   UNL A   1      50.494  26.103  27.180  1.00  0.00     0.135 A 
ATOM     91  C   UNL A   1      50.020  26.839  24.937  1.00  0.00     0.135 A 
ATOM     92  F   UNL A   1      50.132  25.925  28.460  1.00  0.00    -0.206 F 
ATOM     93  C   UNL A   1      51.785  25.755  26.804  1.00  0.00     0.059 A 
ATOM     94  C   UNL A   1      51.296  26.467  24.531  1.00  0.00     0.059 A 
ATOM     95  F   UNL A   1      49.189  27.360  24.021  1.00  0.00    -0.206 F 
ATOM     96  C   UNL A   1      52.177  25.944  25.477  1.00  0.00     0.060 A 
BRANCH  96  97
ATOM     97  S   UNL A   1      53.853  25.483  24.999  1.00  0.00     0.124 S 
ATOM     98  O   UNL A   1      53.760  24.028  24.976  1.00  0.00    -0.237 OA
ATOM     99  O   UNL A   1      53.998  26.130  23.700  1.00  0.00    -0.237 OA
ATOM    100  O   UNL A   1      54.675  26.044  26.067  1.00  0.00    -0.744 OA
ENDBRANCH  96  97
ENDBRANCH  64  89
ENDBRANCH  38  39
ENDBRANCH  31  33
ENDBRANCH  30  31
ENDBRANCH  29  30
ENDBRANCH  28  29
ENDBRANCH  27  28
ENDBRANCH   1  27
TORSDOF 22
ENDMDL
MODEL 3
REMARK VINA RESULT:     -10.6      5.805     10.782
REMARK SMILES C[C@H](Sc1ccccn1)C(=O)N[C@H](C(=O)OCCOCCOC(=O)c1ccc(-c2c3nc(c(-c4c(F)cc(S(=O)(=O)[O-])cc4F)c4ccc([nH]4)c(-c4c(F)cc(S(=O)(=O)[O-])cc4F)c4nc(c(-c5c(F)cc(S(=O)(=O)[O-])cc5F)c5ccc2[nH]5)C=C4)C=C3)cc1)c1ccc(F)cc1
REMARK SMILES IDX 18 1 17 2 16 3 14 4 15 5 13 6 12 7 10 8 11 9 2 11 1 12 3 13
REMARK SMILES IDX 4 14 5 15 9 16 6 17 8 18 7 19 91 20 92 21 97 22 93 23 96 24
REMARK SMILES IDX 94 25 95 26 19 27 20 28 21 29 22 30 23 31 24 32 25 33 26 34
REMARK SMILES IDX 90 35 27 36 89 37 28 38 29 39 30 40 83 41 31 42 88 43 82 44
REMARK SMILES IDX 84 45 32 46 87 47 81 48 80 49 33 51 67 52 46 53 66 54 47 55
REMARK SMILES IDX 50 56 65 57 85 58 48 59 49 60 64 62 86 63 51 64 34 65 35 66
REMARK SMILES IDX 44 67 36 68 37 69 43 70 45 71 38 72 39 73 40 74 41 75 42 76
REMARK SMILES IDX 68 77 69 78 78 79 70 80 71 81 77 82 79 83 72 84 73 85 74 86
REMARK SMILES IDX 75 87 76 88 52 89 53 90 62 91 54 92 55 93 61 94 63 95 56 96
REMARK SMILES IDX 57 97 58 98 59 99 60 100
REMARK H PARENT 12 10 84 50 50 61
REMARK Flexibility Score: inf
ROOT
ATOM      1  C   UNL A   1      34.766  30.091  27.072  1.00  0.00     0.202 C 
ENDROOT
BRANCH   1   2
ATOM      2  C   UNL A   1      33.320  29.627  27.273  1.00  0.00     0.261 C 
BRANCH   2   3
ATOM      3  O   UNL A   1      33.170  28.193  27.253  1.00  0.00    -0.461 OA
BRANCH   3   4
ATOM      4  C   UNL A   1      31.893  27.687  27.218  1.00  0.00     0.333 C 
ATOM      5  O   UNL A   1      31.049  27.878  28.084  1.00  0.00    -0.249 OA
BRANCH   4   6
ATOM      6  C   UNL A   1      31.784  26.597  26.116  1.00  0.00     0.223 C 
BRANCH   6   7
ATOM      7  N   UNL A   1      31.098  25.380  26.631  1.00  0.00    -0.338 N 
ATOM      8  C   UNL A   1      31.209  24.035  26.657  1.00  0.00     0.234 C 
ATOM      9  O   UNL A   1      30.229  23.518  27.232  1.00  0.00    -0.274 OA
ATOM     10  H   UNL A   1      30.285  25.648  27.119  1.00  0.00     0.164 HD
BRANCH   8  11
ATOM     11  C   UNL A   1      32.308  23.044  26.200  1.00  0.00     0.139 C 
ATOM     12  C   UNL A   1      33.743  23.300  26.681  1.00  0.00     0.030 C 
BRANCH  11  13
ATOM     13  S   UNL A   1      32.273  22.483  24.479  1.00  0.00    -0.093 SA
BRANCH  13  14
ATOM     14  C   UNL A   1      32.649  23.998  23.552  1.00  0.00     0.097 A 
ATOM     15  C   UNL A   1      33.801  24.777  23.696  1.00  0.00     0.035 A 
ATOM     16  N   UNL A   1      31.707  24.337  22.642  1.00  0.00    -0.250 NA
ATOM     17  C   UNL A   1      33.977  25.932  22.930  1.00  0.00     0.004 A 
ATOM     18  C   UNL A   1      31.917  25.443  21.883  1.00  0.00     0.112 A 
ATOM     19  C   UNL A   1      33.021  26.268  21.991  1.00  0.00     0.020 A 
ENDBRANCH  13  14
ENDBRANCH  11  13
ENDBRANCH   8  11
ENDBRANCH   6   7
BRANCH   6  20
ATOM     20  C   UNL A   1      30.946  27.209  24.938  1.00  0.00    -0.014 A 
ATOM     21  C   UNL A   1      31.320  28.423  24.301  1.00  0.00     0.009 A 
ATOM     22  C   UNL A   1      29.748  26.611  24.506  1.00  0.00     0.009 A 
ATOM     23  C   UNL A   1      30.502  29.052  23.358  1.00  0.00     0.039 A 
ATOM     24  C   UNL A   1      28.938  27.234  23.540  1.00  0.00     0.039 A 
ATOM     25  C   UNL A   1      29.312  28.453  22.989  1.00  0.00     0.123 A 
ATOM     26  F   UNL A   1      28.522  29.054  22.089  1.00  0.00    -0.207 F 
ENDBRANCH   6  20
ENDBRANCH   4   6
ENDBRANCH   3   4
ENDBRANCH   2   3
ENDBRANCH   1   2
BRANCH   1  27
ATOM     27  O   UNL A   1      35.333  30.773  28.183  1.00  0.00    -0.374 OA
BRANCH  27  28
ATOM     28  C   UNL A   1      35.867  29.975  29.240  1.00  0.00     0.202 C 
BRANCH  28  29
ATOM     29  C   UNL A   1      35.784  30.527  30.664  1.00  0.00     0.261 C 
BRANCH  29  30
ATOM     30  O   UNL A   1      37.078  30.946  31.079  1.00  0.00    -0.460 OA
BRANCH  30  31
ATOM     31  C   UNL A   1      37.681  29.934  31.735  1.00  0.00     0.338 C 
ATOM     32  O   UNL A   1      37.211  29.323  32.690  1.00  0.00    -0.246 OA
BRANCH  31  33
ATOM     33  C   UNL A   1      39.080  29.908  31.301  1.00  0.00     0.060 A 
ATOM     34  C   UNL A   1      39.402  30.205  29.973  1.00  0.00     0.016 A 
ATOM     35  C   UNL A   1      40.069  29.631  32.251  1.00  0.00     0.016 A 
ATOM     36  C   UNL A   1      40.721  30.113  29.567  1.00  0.00     0.010 A 
ATOM     37  C   UNL A   1      41.397  29.578  31.850  1.00  0.00     0.010 A 
ATOM     38  C   UNL A   1      41.709  29.749  30.494  1.00  0.00    -0.014 A 
BRANCH  38  39
ATOM     39  C   UNL A   1      43.020  29.339  29.964  1.00  0.00     0.031 A 
ATOM     40  C   UNL A   1      43.123  27.983  29.325  1.00  0.00     0.074 A 
ATOM     41  C   UNL A   1      44.027  30.227  29.943  1.00  0.00     0.049 A 
ATOM     42  N   UNL A   1      44.109  27.463  28.648  1.00  0.00    -0.248 NA
ATOM     43  C   UNL A   1      41.952  27.095  29.459  1.00  0.00     0.031 C 
ATOM     44  C   UNL A   1      43.977  31.568  30.530  1.00  0.00     0.029 A 
ATOM     45  N   UNL A   1      45.269  30.151  29.378  1.00  0.00    -0.354 N 
ATOM     46  C   UNL A   1      43.677  26.195  28.273  1.00  0.00     0.074 A 
ATOM     47  C   UNL A   1      42.362  26.002  28.835  1.00  0.00     0.031 C 
ATOM     48  C   UNL A   1      45.131  32.202  30.264  1.00  0.00     0.029 A 
ATOM     49  C   UNL A   1      46.000  31.306  29.510  1.00  0.00     0.049 A 
ATOM     50  H   UNL A   1      45.605  29.347  28.920  1.00  0.00     0.167 HD
ATOM     51  C   UNL A   1      44.321  25.285  27.509  1.00  0.00     0.037 A 
ATOM     52  C   UNL A   1      47.234  31.595  29.057  1.00  0.00     0.037 A 
ATOM     53  C   UNL A   1      45.631  25.514  26.963  1.00  0.00     0.049 A 
ATOM     54  C   UNL A   1      47.941  30.556  28.231  1.00  0.00     0.074 A 
ATOM     55  C   UNL A   1      46.400  24.679  26.177  1.00  0.00     0.029 A 
ATOM     56  N   UNL A   1      46.367  26.678  27.159  1.00  0.00    -0.354 N 
ATOM     57  N   UNL A   1      47.515  29.368  27.863  1.00  0.00    -0.248 NA
ATOM     58  C   UNL A   1      49.284  30.892  27.749  1.00  0.00     0.031 C 
ATOM     59  C   UNL A   1      47.621  25.319  25.935  1.00  0.00     0.029 A 
ATOM     60  C   UNL A   1      47.593  26.574  26.527  1.00  0.00     0.049 A 
ATOM     61  H   UNL A   1      46.061  27.460  27.672  1.00  0.00     0.167 HD
ATOM     62  C   UNL A   1      48.534  28.817  27.098  1.00  0.00     0.074 A 
ATOM     63  C   UNL A   1      49.584  29.818  27.033  1.00  0.00     0.031 C 
ATOM     64  C   UNL A   1      48.609  27.597  26.505  1.00  0.00     0.037 A 
BRANCH  51  65
ATOM     65  C   UNL A   1      43.630  23.973  27.257  1.00  0.00     0.058 A 
ATOM     66  C   UNL A   1      43.574  22.961  28.231  1.00  0.00     0.135 A 
ATOM     67  C   UNL A   1      43.024  23.716  26.018  1.00  0.00     0.135 A 
ATOM     68  F   UNL A   1      44.163  23.140  29.425  1.00  0.00    -0.206 F 
ATOM     69  C   UNL A   1      42.963  21.737  27.978  1.00  0.00     0.059 A 
ATOM     70  C   UNL A   1      42.384  22.508  25.751  1.00  0.00     0.059 A 
ATOM     71  F   UNL A   1      43.060  24.638  25.043  1.00  0.00    -0.206 F 
ATOM     72  C   UNL A   1      42.370  21.519  26.734  1.00  0.00     0.060 A 
BRANCH  72  73
ATOM     73  S   UNL A   1      41.576  19.928  26.421  1.00  0.00     0.124 S 
ATOM     74  O   UNL A   1      41.821  19.226  27.677  1.00  0.00    -0.237 OA
ATOM     75  O   UNL A   1      40.191  20.315  26.173  1.00  0.00    -0.237 OA
ATOM     76  O   UNL A   1      42.295  19.410  25.261  1.00  0.00    -0.744 OA
ENDBRANCH  72  73
ENDBRANCH  51  65
BRANCH  52  77
ATOM     77  C   UNL A   1      47.852  32.912  29.369  1.00  0.00     0.058 A 
ATOM     78  C   UNL A   1      47.717  34.010  28.508  1.00  0.00     0.135 A 
ATOM     79  C   UNL A   1      48.569  33.105  30.562  1.00  0.00     0.135 A 
ATOM     80  F   UNL A   1      47.041  33.880  27.356  1.00  0.00    -0.206 F 
ATOM     81  C   UNL A   1      48.279  35.248  28.810  1.00  0.00     0.059 A 
ATOM     82  C   UNL A   1      49.117  34.337  30.899  1.00  0.00     0.059 A 
ATOM     83  F   UNL A   1      48.713  32.092  31.431  1.00  0.00    -0.206 F 
ATOM     84  C   UNL A   1      48.976  35.402  30.011  1.00  0.00     0.060 A 
BRANCH  84  85
ATOM     85  S   UNL A   1      49.657  37.024  30.419  1.00  0.00     0.124 S 
ATOM     86  O   UNL A   1      49.559  37.028  31.873  1.00  0.00    -0.237 OA
ATOM     87  O   UNL A   1      51.006  36.938  29.868  1.00  0.00    -0.237 OA
ATOM     88  O   UNL A   1      48.764  37.947  29.724  1.00  0.00    -0.744 OA
ENDBRANCH  84  85
ENDBRANCH  52  77
BRANCH  64  89
ATOM     89  C   UNL A   1      49.867  27.299  25.741  1.00  0.00     0.058 A 
ATOM     90  C   UNL A   1      49.932  27.461  24.349  1.00  0.00     0.135 A 
ATOM     91  C   UNL A   1      51.024  26.879  26.414  1.00  0.00     0.135 A 
ATOM     92  F   UNL A   1      48.849  27.859  23.663  1.00  0.00    -0.206 F 
ATOM     93  C   UNL A   1      51.093  27.176  23.642  1.00  0.00     0.059 A 
ATOM     94  C   UNL A   1      52.206  26.619  25.731  1.00  0.00     0.059 A 
ATOM     95  F   UNL A   1      51.015  26.727  27.747  1.00  0.00    -0.206 F 
ATOM     96  C   UNL A   1      52.224  26.752  24.343  1.00  0.00     0.060 A 
BRANCH  96  97
ATOM     97  S   UNL A   1      53.727  26.388  23.416  1.00  0.00     0.124 S 
ATOM     98  O   UNL A   1      54.421  27.670  23.472  1.00  0.00    -0.237 OA
ATOM     99  O   UNL A   1      54.324  25.309  24.196  1.00  0.00    -0.237 OA
ATOM    100  O   UNL A   1      53.228  26.001  22.100  1.00  0.00    -0.744 OA
ENDBRANCH  96  97
ENDBRANCH  64  89
ENDBRANCH  38  39
ENDBRANCH  31  33
ENDBRANCH  30  31
ENDBRANCH  29  30
ENDBRANCH  28  29
ENDBRANCH  27  28
ENDBRANCH   1  27
TORSDOF 22
ENDMDL
