MODEL 1
REMARK VINA RESULT:     -11.6      0.000      0.000
REMARK SMILES O=C(OCCOCCOC(=O)[C@@H]1CCCC[C@H]1C(=O)Nc1ccccc1C(=O)N1CCOCC1)c1ccc(-c2c3nc(c(-c4c(F)cc(S(=O)(=O)[O-])cc4F)c4ccc([nH]4)c(-c4c(F)cc(S(=O)(=O)[O-])cc4F)c4nc(c(-c5c(F)cc(S(=O)(=O)[O-])cc5F)c5ccc2[nH]5)C=C4)C=C3)cc1
REMARK SMILES IDX 6 1 5 2 4 3 3 4 2 5 1 6 35 7 36 8 100 9 37 10 99 11 38 12
REMARK SMILES IDX 39 13 40 14 93 15 41 16 98 17 92 18 94 19 42 20 97 21 91 22
REMARK SMILES IDX 90 23 43 25 77 26 56 27 76 28 57 29 60 30 75 31 95 32 58 33
REMARK SMILES IDX 59 34 74 36 96 37 61 38 44 39 45 40 54 41 46 42 47 43 53 44
REMARK SMILES IDX 55 45 48 46 49 47 50 48 51 49 52 50 78 51 79 52 88 53 80 54
REMARK SMILES IDX 81 55 87 56 89 57 82 58 83 59 84 60 85 61 86 62 62 63 63 64
REMARK SMILES IDX 72 65 64 66 65 67 71 68 73 69 66 70 67 71 68 72 69 73 70 74
REMARK SMILES IDX 7 75 8 76 9 77 10 78 11 79 12 80 13 81 17 82 14 83 16 84
REMARK SMILES IDX 15 85 18 86 19 87 20 88 21 90 22 91 26 92 23 93 25 94 24 95
REMARK SMILES IDX 27 96 28 97 29 98 30 99 34 100 31 101 33 102 32 103
REMARK H PARENT 94 24 60 35 20 89
REMARK Flexibility Score: inf
ROOT
ATOM      1  O   UNL A   1      37.598  23.433  26.199  1.00  0.00    -0.374 OA
ENDROOT
BRANCH   1   2
ATOM      2  C   UNL A   1      38.971  23.678  26.494  1.00  0.00     0.202 C 
BRANCH   2   3
ATOM      3  C   UNL A   1      39.742  22.501  27.148  1.00  0.00     0.261 C 
BRANCH   3   4
ATOM      4  O   UNL A   1      39.854  21.306  26.322  1.00  0.00    -0.460 OA
BRANCH   4   5
ATOM      5  C   UNL A   1      41.022  20.598  26.149  1.00  0.00     0.338 C 
ATOM      6  O   UNL A   1      41.051  19.406  25.929  1.00  0.00    -0.246 OA
BRANCH   5   7
ATOM      7  C   UNL A   1      42.256  21.406  26.254  1.00  0.00     0.060 A 
ATOM      8  C   UNL A   1      42.822  21.467  27.508  1.00  0.00     0.016 A 
ATOM      9  C   UNL A   1      42.595  22.341  25.278  1.00  0.00     0.016 A 
ATOM     10  C   UNL A   1      43.320  22.693  27.905  1.00  0.00     0.010 A 
ATOM     11  C   UNL A   1      43.389  23.443  25.641  1.00  0.00     0.010 A 
ATOM     12  C   UNL A   1      43.677  23.698  26.994  1.00  0.00    -0.014 A 
BRANCH  12  13
ATOM     13  C   UNL A   1      44.278  24.988  27.485  1.00  0.00     0.031 A 
ATOM     14  C   UNL A   1      43.416  26.058  28.123  1.00  0.00     0.074 A 
ATOM     15  C   UNL A   1      45.613  25.216  27.416  1.00  0.00     0.049 A 
ATOM     16  N   UNL A   1      43.633  27.347  28.190  1.00  0.00    -0.248 NA
ATOM     17  C   UNL A   1      42.140  25.646  28.735  1.00  0.00     0.031 C 
ATOM     18  C   UNL A   1      46.625  24.287  26.902  1.00  0.00     0.029 A 
ATOM     19  N   UNL A   1      46.367  26.303  27.801  1.00  0.00    -0.354 N 
ATOM     20  C   UNL A   1      42.473  27.909  28.716  1.00  0.00     0.074 A 
ATOM     21  C   UNL A   1      41.576  26.816  29.019  1.00  0.00     0.031 C 
ATOM     22  C   UNL A   1      47.849  24.761  27.141  1.00  0.00     0.029 A 
ATOM     23  C   UNL A   1      47.710  26.148  27.534  1.00  0.00     0.049 A 
ATOM     24  H   UNL A   1      45.986  27.108  28.222  1.00  0.00     0.167 HD
ATOM     25  C   UNL A   1      42.191  29.224  28.886  1.00  0.00     0.037 A 
ATOM     26  C   UNL A   1      48.715  27.037  27.422  1.00  0.00     0.037 A 
ATOM     27  C   UNL A   1      43.164  30.271  28.690  1.00  0.00     0.049 A 
ATOM     28  C   UNL A   1      48.385  28.486  27.559  1.00  0.00     0.074 A 
ATOM     29  C   UNL A   1      43.008  31.639  28.835  1.00  0.00     0.029 A 
ATOM     30  N   UNL A   1      44.490  30.055  28.342  1.00  0.00    -0.354 N 
ATOM     31  N   UNL A   1      47.234  29.037  27.857  1.00  0.00    -0.248 NA
ATOM     32  C   UNL A   1      49.465  29.434  27.271  1.00  0.00     0.031 C 
ATOM     33  C   UNL A   1      44.235  32.250  28.551  1.00  0.00     0.029 A 
ATOM     34  C   UNL A   1      45.160  31.261  28.257  1.00  0.00     0.049 A 
ATOM     35  H   UNL A   1      44.894  29.172  28.180  1.00  0.00     0.167 HD
ATOM     36  C   UNL A   1      47.439  30.403  27.754  1.00  0.00     0.074 A 
ATOM     37  C   UNL A   1      48.835  30.593  27.412  1.00  0.00     0.031 C 
ATOM     38  C   UNL A   1      46.548  31.410  27.906  1.00  0.00     0.037 A 
BRANCH  25  39
ATOM     39  C   UNL A   1      40.780  29.629  29.220  1.00  0.00     0.058 A 
ATOM     40  C   UNL A   1      39.738  29.611  28.284  1.00  0.00     0.135 A 
ATOM     41  C   UNL A   1      40.455  29.954  30.550  1.00  0.00     0.135 A 
ATOM     42  F   UNL A   1      39.990  29.322  26.998  1.00  0.00    -0.206 F 
ATOM     43  C   UNL A   1      38.425  29.904  28.652  1.00  0.00     0.059 A 
ATOM     44  C   UNL A   1      39.150  30.233  30.945  1.00  0.00     0.059 A 
ATOM     45  F   UNL A   1      41.415  29.985  31.490  1.00  0.00    -0.206 F 
ATOM     46  C   UNL A   1      38.140  30.211  29.986  1.00  0.00     0.060 A 
BRANCH  46  47
ATOM     47  S   UNL A   1      36.429  30.555  30.459  1.00  0.00     0.124 S 
ATOM     48  O   UNL A   1      35.699  30.044  29.302  1.00  0.00    -0.237 OA
ATOM     49  O   UNL A   1      36.281  29.787  31.690  1.00  0.00    -0.237 OA
ATOM     50  O   UNL A   1      36.406  32.006  30.622  1.00  0.00    -0.744 OA
ENDBRANCH  46  47
ENDBRANCH  25  39
BRANCH  26  51
ATOM     51  C   UNL A   1      50.046  26.580  26.932  1.00  0.00     0.058 A 
ATOM     52  C   UNL A   1      51.041  26.146  27.815  1.00  0.00     0.135 A 
ATOM     53  C   UNL A   1      50.314  26.498  25.551  1.00  0.00     0.135 A 
ATOM     54  F   UNL A   1      50.841  26.222  29.139  1.00  0.00    -0.206 F 
ATOM     55  C   UNL A   1      52.248  25.630  27.349  1.00  0.00     0.059 A 
ATOM     56  C   UNL A   1      51.493  25.950  25.064  1.00  0.00     0.059 A 
ATOM     57  F   UNL A   1      49.389  26.889  24.660  1.00  0.00    -0.206 F 
ATOM     58  C   UNL A   1      52.460  25.525  25.972  1.00  0.00     0.060 A 
BRANCH  58  59
ATOM     59  S   UNL A   1      53.984  24.771  25.363  1.00  0.00     0.124 S 
ATOM     60  O   UNL A   1      53.530  23.427  25.029  1.00  0.00    -0.237 OA
ATOM     61  O   UNL A   1      54.332  25.627  24.233  1.00  0.00    -0.237 OA
ATOM     62  O   UNL A   1      54.882  24.870  26.511  1.00  0.00    -0.744 OA
ENDBRANCH  58  59
ENDBRANCH  26  51
BRANCH  38  63
ATOM     63  C   UNL A   1      47.075  32.794  27.705  1.00  0.00     0.058 A 
ATOM     64  C   UNL A   1      47.850  33.421  28.692  1.00  0.00     0.135 A 
ATOM     65  C   UNL A   1      46.808  33.493  26.520  1.00  0.00     0.135 A 
ATOM     66  F   UNL A   1      48.111  32.792  29.849  1.00  0.00    -0.206 F 
ATOM     67  C   UNL A   1      48.336  34.709  28.514  1.00  0.00     0.059 A 
ATOM     68  C   UNL A   1      47.297  34.776  26.315  1.00  0.00     0.059 A 
ATOM     69  F   UNL A   1      46.067  32.928  25.555  1.00  0.00    -0.206 F 
ATOM     70  C   UNL A   1      48.052  35.380  27.322  1.00  0.00     0.060 A 
BRANCH  70  71
ATOM     71  S   UNL A   1      48.706  37.044  27.086  1.00  0.00     0.124 S 
ATOM     72  O   UNL A   1      50.144  36.804  27.150  1.00  0.00    -0.237 OA
ATOM     73  O   UNL A   1      48.178  37.407  25.775  1.00  0.00    -0.237 OA
ATOM     74  O   UNL A   1      48.141  37.788  28.210  1.00  0.00    -0.744 OA
ENDBRANCH  70  71
ENDBRANCH  38  63
ENDBRANCH  12  13
ENDBRANCH   5   7
ENDBRANCH   4   5
ENDBRANCH   3   4
ENDBRANCH   2   3
ENDBRANCH   1   2
BRANCH   1  75
ATOM     75  C   UNL A   1      37.306  23.233  24.811  1.00  0.00     0.202 C 
BRANCH  75  76
ATOM     76  C   UNL A   1      35.884  23.673  24.438  1.00  0.00     0.261 C 
BRANCH  76  77
ATOM     77  O   UNL A   1      35.444  24.831  25.201  1.00  0.00    -0.463 OA
BRANCH  77  78
ATOM     78  C   UNL A   1      34.409  24.572  26.048  1.00  0.00     0.309 C 
ATOM     79  O   UNL A   1      34.327  23.570  26.753  1.00  0.00    -0.252 OA
BRANCH  78  80
ATOM     80  C   UNL A   1      33.179  25.456  25.847  1.00  0.00     0.111 C 
ATOM     81  C   UNL A   1      33.719  26.842  26.304  1.00  0.00     0.016 C 
ATOM     82  C   UNL A   1      31.814  25.191  26.514  1.00  0.00     0.093 C 
ATOM     83  C   UNL A   1      32.765  27.982  26.005  1.00  0.00     0.001 C 
ATOM     84  C   UNL A   1      30.864  26.376  26.177  1.00  0.00     0.014 C 
ATOM     85  C   UNL A   1      31.406  27.721  26.623  1.00  0.00     0.001 C 
BRANCH  82  86
ATOM     86  C   UNL A   1      30.869  23.994  26.286  1.00  0.00     0.228 C 
ATOM     87  O   UNL A   1      30.078  23.701  27.197  1.00  0.00    -0.274 OA
ATOM     88  N   UNL A   1      30.639  23.396  25.090  1.00  0.00    -0.325 N 
ATOM     89  H   UNL A   1      29.741  23.007  24.986  1.00  0.00     0.169 HD
BRANCH  88  90
ATOM     90  C   UNL A   1      31.475  23.249  23.987  1.00  0.00     0.054 A 
ATOM     91  C   UNL A   1      31.420  24.276  23.036  1.00  0.00     0.027 A 
ATOM     92  C   UNL A   1      32.295  22.139  23.765  1.00  0.00     0.063 A 
ATOM     93  C   UNL A   1      32.318  24.299  21.971  1.00  0.00     0.002 A 
ATOM     94  C   UNL A   1      33.238  22.202  22.723  1.00  0.00     0.016 A 
ATOM     95  C   UNL A   1      33.264  23.287  21.846  1.00  0.00     0.001 A 
BRANCH  92  96
ATOM     96  C   UNL A   1      32.144  20.817  24.454  1.00  0.00     0.256 C 
ATOM     97  O   UNL A   1      31.452  20.737  25.465  1.00  0.00    -0.269 OA
ATOM     98  N   UNL A   1      32.957  19.753  24.045  1.00  0.00    -0.334 N 
ATOM     99  C   UNL A   1      34.009  19.431  25.008  1.00  0.00     0.148 C 
ATOM    100  C   UNL A   1      32.314  18.554  23.489  1.00  0.00     0.148 C 
ATOM    101  C   UNL A   1      34.952  18.352  24.482  1.00  0.00     0.181 C 
ATOM    102  C   UNL A   1      33.290  17.448  23.085  1.00  0.00     0.181 C 
ATOM    103  O   UNL A   1      34.222  17.167  24.137  1.00  0.00    -0.378 OA
ENDBRANCH  92  96
ENDBRANCH  88  90
ENDBRANCH  82  86
ENDBRANCH  78  80
ENDBRANCH  77  78
ENDBRANCH  76  77
ENDBRANCH  75  76
ENDBRANCH   1  75
TORSDOF 20
ENDMDL
MODEL 2
REMARK VINA RESULT:     -11.5      3.278      8.354
REMARK SMILES O=C(OCCOCCOC(=O)[C@@H]1CCCC[C@H]1C(=O)Nc1ccccc1C(=O)N1CCOCC1)c1ccc(-c2c3nc(c(-c4c(F)cc(S(=O)(=O)[O-])cc4F)c4ccc([nH]4)c(-c4c(F)cc(S(=O)(=O)[O-])cc4F)c4nc(c(-c5c(F)cc(S(=O)(=O)[O-])cc5F)c5ccc2[nH]5)C=C4)C=C3)cc1
REMARK SMILES IDX 6 1 5 2 4 3 3 4 2 5 1 6 35 7 36 8 100 9 37 10 99 11 38 12
REMARK SMILES IDX 39 13 40 14 93 15 41 16 98 17 92 18 94 19 42 20 97 21 91 22
REMARK SMILES IDX 90 23 43 25 77 26 56 27 76 28 57 29 60 30 75 31 95 32 58 33
REMARK SMILES IDX 59 34 74 36 96 37 61 38 44 39 45 40 54 41 46 42 47 43 53 44
REMARK SMILES IDX 55 45 48 46 49 47 50 48 51 49 52 50 78 51 79 52 88 53 80 54
REMARK SMILES IDX 81 55 87 56 89 57 82 58 83 59 84 60 85 61 86 62 62 63 63 64
REMARK SMILES IDX 72 65 64 66 65 67 71 68 73 69 66 70 67 71 68 72 69 73 70 74
REMARK SMILES IDX 7 75 8 76 9 77 10 78 11 79 12 80 13 81 17 82 14 83 16 84
REMARK SMILES IDX 15 85 18 86 19 87 20 88 21 90 22 91 26 92 23 93 25 94 24 95
REMARK SMILES IDX 27 96 28 97 29 98 30 99 34 100 31 101 33 102 32 103
REMARK H PARENT 94 24 60 35 20 89
REMARK Flexibility Score: inf
ROOT
ATOM      1  O   UNL A   1      32.291  29.392  27.151  1.00  0.00    -0.374 OA
ENDROOT
BRANCH   1   2
ATOM      2  C   UNL A   1      31.923  30.741  26.876  1.00  0.00     0.202 C 
BRANCH   2   3
ATOM      3  C   UNL A   1      32.800  31.831  27.547  1.00  0.00     0.261 C 
BRANCH   3   4
ATOM      4  O   UNL A   1      34.231  31.552  27.549  1.00  0.00    -0.460 OA
BRANCH   4   5
ATOM      5  C   UNL A   1      34.965  31.315  28.689  1.00  0.00     0.338 C 
ATOM      6  O   UNL A   1      34.798  31.919  29.726  1.00  0.00    -0.246 OA
BRANCH   5   7
ATOM      7  C   UNL A   1      35.989  30.256  28.556  1.00  0.00     0.060 A 
ATOM      8  C   UNL A   1      36.433  29.707  29.738  1.00  0.00     0.016 A 
ATOM      9  C   UNL A   1      36.728  30.105  27.384  1.00  0.00     0.016 A 
ATOM     10  C   UNL A   1      37.787  29.449  29.833  1.00  0.00     0.010 A 
ATOM     11  C   UNL A   1      38.009  29.533  27.459  1.00  0.00     0.010 A 
ATOM     12  C   UNL A   1      38.610  29.293  28.709  1.00  0.00    -0.014 A 
BRANCH  12  13
ATOM     13  C   UNL A   1      40.066  28.946  28.876  1.00  0.00     0.031 A 
ATOM     14  C   UNL A   1      41.067  29.983  29.342  1.00  0.00     0.074 A 
ATOM     15  C   UNL A   1      40.520  27.686  28.661  1.00  0.00     0.049 A 
ATOM     16  N   UNL A   1      42.357  30.025  29.124  1.00  0.00    -0.248 NA
ATOM     17  C   UNL A   1      40.566  31.130  30.120  1.00  0.00     0.031 C 
ATOM     18  C   UNL A   1      39.708  26.527  28.276  1.00  0.00     0.029 A 
ATOM     19  N   UNL A   1      41.787  27.152  28.755  1.00  0.00    -0.354 N 
ATOM     20  C   UNL A   1      42.792  31.256  29.609  1.00  0.00     0.074 A 
ATOM     21  C   UNL A   1      41.641  31.906  30.198  1.00  0.00     0.031 C 
ATOM     22  C   UNL A   1      40.445  25.415  28.319  1.00  0.00     0.029 A 
ATOM     23  C   UNL A   1      41.832  25.815  28.426  1.00  0.00     0.049 A 
ATOM     24  H   UNL A   1      42.578  27.672  29.029  1.00  0.00     0.167 HD
ATOM     25  C   UNL A   1      44.035  31.789  29.524  1.00  0.00     0.037 A 
ATOM     26  C   UNL A   1      42.849  25.012  28.058  1.00  0.00     0.037 A 
ATOM     27  C   UNL A   1      45.178  31.052  29.043  1.00  0.00     0.049 A 
ATOM     28  C   UNL A   1      44.204  25.620  27.917  1.00  0.00     0.074 A 
ATOM     29  C   UNL A   1      46.490  31.473  28.914  1.00  0.00     0.029 A 
ATOM     30  N   UNL A   1      45.145  29.722  28.649  1.00  0.00    -0.354 N 
ATOM     31  N   UNL A   1      44.580  26.848  28.180  1.00  0.00    -0.248 NA
ATOM     32  C   UNL A   1      45.252  24.762  27.359  1.00  0.00     0.031 C 
ATOM     33  C   UNL A   1      47.244  30.403  28.418  1.00  0.00     0.029 A 
ATOM     34  C   UNL A   1      46.407  29.309  28.266  1.00  0.00     0.049 A 
ATOM     35  H   UNL A   1      44.339  29.156  28.643  1.00  0.00     0.167 HD
ATOM     36  C   UNL A   1      45.905  26.923  27.782  1.00  0.00     0.074 A 
ATOM     37  C   UNL A   1      46.275  25.605  27.304  1.00  0.00     0.031 C 
ATOM     38  C   UNL A   1      46.735  27.992  27.789  1.00  0.00     0.037 A 
BRANCH  25  39
ATOM     39  C   UNL A   1      44.230  33.241  29.872  1.00  0.00     0.058 A 
ATOM     40  C   UNL A   1      44.672  33.671  31.130  1.00  0.00     0.135 A 
ATOM     41  C   UNL A   1      44.056  34.217  28.873  1.00  0.00     0.135 A 
ATOM     42  F   UNL A   1      44.843  32.788  32.125  1.00  0.00    -0.206 F 
ATOM     43  C   UNL A   1      44.931  35.018  31.388  1.00  0.00     0.059 A 
ATOM     44  C   UNL A   1      44.325  35.564  29.102  1.00  0.00     0.059 A 
ATOM     45  F   UNL A   1      43.635  33.861  27.649  1.00  0.00    -0.206 F 
ATOM     46  C   UNL A   1      44.757  35.957  30.366  1.00  0.00     0.060 A 
BRANCH  46  47
ATOM     47  S   UNL A   1      45.129  37.694  30.702  1.00  0.00     0.124 S 
ATOM     48  O   UNL A   1      43.967  38.358  30.119  1.00  0.00    -0.237 OA
ATOM     49  O   UNL A   1      45.210  37.724  32.159  1.00  0.00    -0.237 OA
ATOM     50  O   UNL A   1      46.392  37.913  30.003  1.00  0.00    -0.744 OA
ENDBRANCH  46  47
ENDBRANCH  25  39
BRANCH  26  51
ATOM     51  C   UNL A   1      42.554  23.633  27.575  1.00  0.00     0.058 A 
ATOM     52  C   UNL A   1      42.295  23.372  26.225  1.00  0.00     0.135 A 
ATOM     53  C   UNL A   1      42.603  22.537  28.457  1.00  0.00     0.135 A 
ATOM     54  F   UNL A   1      42.219  24.383  25.348  1.00  0.00    -0.206 F 
ATOM     55  C   UNL A   1      42.114  22.070  25.761  1.00  0.00     0.059 A 
ATOM     56  C   UNL A   1      42.467  21.229  28.011  1.00  0.00     0.059 A 
ATOM     57  F   UNL A   1      42.860  22.731  29.761  1.00  0.00    -0.206 F 
ATOM     58  C   UNL A   1      42.214  21.006  26.660  1.00  0.00     0.060 A 
BRANCH  58  59
ATOM     59  S   UNL A   1      42.073  19.312  26.049  1.00  0.00     0.124 S 
ATOM     60  O   UNL A   1      40.647  19.226  25.755  1.00  0.00    -0.237 OA
ATOM     61  O   UNL A   1      42.964  19.317  24.893  1.00  0.00    -0.237 OA
ATOM     62  O   UNL A   1      42.536  18.513  27.181  1.00  0.00    -0.744 OA
ENDBRANCH  58  59
ENDBRANCH  26  51
BRANCH  38  63
ATOM     63  C   UNL A   1      48.116  27.758  27.268  1.00  0.00     0.058 A 
ATOM     64  C   UNL A   1      48.398  27.861  25.898  1.00  0.00     0.135 A 
ATOM     65  C   UNL A   1      49.162  27.436  28.144  1.00  0.00     0.135 A 
ATOM     66  F   UNL A   1      47.419  28.147  25.025  1.00  0.00    -0.206 F 
ATOM     67  C   UNL A   1      49.677  27.636  25.409  1.00  0.00     0.059 A 
ATOM     68  C   UNL A   1      50.452  27.223  27.678  1.00  0.00     0.059 A 
ATOM     69  F   UNL A   1      48.930  27.326  29.461  1.00  0.00    -0.206 F 
ATOM     70  C   UNL A   1      50.698  27.316  26.307  1.00  0.00     0.060 A 
BRANCH  70  71
ATOM     71  S   UNL A   1      52.364  27.050  25.668  1.00  0.00     0.124 S 
ATOM     72  O   UNL A   1      52.278  25.672  25.195  1.00  0.00    -0.237 OA
ATOM     73  O   UNL A   1      52.471  28.073  24.633  1.00  0.00    -0.237 OA
ATOM     74  O   UNL A   1      53.210  27.261  26.839  1.00  0.00    -0.744 OA
ENDBRANCH  70  71
ENDBRANCH  38  63
ENDBRANCH  12  13
ENDBRANCH   5   7
ENDBRANCH   4   5
ENDBRANCH   3   4
ENDBRANCH   2   3
ENDBRANCH   1   2
BRANCH   1  75
ATOM     75  C   UNL A   1      31.783  28.427  26.222  1.00  0.00     0.202 C 
BRANCH  75  76
ATOM     76  C   UNL A   1      32.368  27.027  26.446  1.00  0.00     0.261 C 
BRANCH  76  77
ATOM     77  O   UNL A   1      31.511  26.194  27.275  1.00  0.00    -0.463 OA
BRANCH  77  78
ATOM     78  C   UNL A   1      30.602  25.465  26.570  1.00  0.00     0.309 C 
ATOM     79  O   UNL A   1      29.387  25.638  26.621  1.00  0.00    -0.252 OA
BRANCH  78  80
ATOM     80  C   UNL A   1      31.156  24.191  25.934  1.00  0.00     0.111 C 
ATOM     81  C   UNL A   1      32.207  23.751  26.992  1.00  0.00     0.016 C 
ATOM     82  C   UNL A   1      31.790  24.140  24.528  1.00  0.00     0.093 C 
ATOM     83  C   UNL A   1      32.777  22.370  26.730  1.00  0.00     0.001 C 
ATOM     84  C   UNL A   1      32.353  22.708  24.295  1.00  0.00     0.014 C 
ATOM     85  C   UNL A   1      33.372  22.291  25.338  1.00  0.00     0.001 C 
BRANCH  82  86
ATOM     86  C   UNL A   1      31.102  24.400  23.173  1.00  0.00     0.228 C 
ATOM     87  O   UNL A   1      30.390  23.497  22.704  1.00  0.00    -0.274 OA
ATOM     88  N   UNL A   1      30.990  25.612  22.573  1.00  0.00    -0.325 N 
ATOM     89  H   UNL A   1      30.187  25.726  22.015  1.00  0.00     0.169 HD
BRANCH  88  90
ATOM     90  C   UNL A   1      31.832  26.717  22.624  1.00  0.00     0.054 A 
ATOM     91  C   UNL A   1      33.205  26.442  22.648  1.00  0.00     0.027 A 
ATOM     92  C   UNL A   1      31.388  28.041  22.707  1.00  0.00     0.063 A 
ATOM     93  C   UNL A   1      34.134  27.476  22.553  1.00  0.00     0.002 A 
ATOM     94  C   UNL A   1      32.330  29.073  22.548  1.00  0.00     0.016 A 
ATOM     95  C   UNL A   1      33.693  28.790  22.448  1.00  0.00     0.001 A 
BRANCH  92  96
ATOM     96  C   UNL A   1      30.004  28.452  23.107  1.00  0.00     0.256 C 
ATOM     97  O   UNL A   1      29.228  27.610  23.549  1.00  0.00    -0.269 OA
ATOM     98  N   UNL A   1      29.567  29.740  22.777  1.00  0.00    -0.334 N 
ATOM     99  C   UNL A   1      28.585  29.754  21.695  1.00  0.00     0.148 C 
ATOM    100  C   UNL A   1      29.217  30.661  23.869  1.00  0.00     0.148 C 
ATOM    101  C   UNL A   1      28.220  31.176  21.275  1.00  0.00     0.181 C 
ATOM    102  C   UNL A   1      28.741  32.037  23.400  1.00  0.00     0.181 C 
ATOM    103  O   UNL A   1      27.726  31.922  22.395  1.00  0.00    -0.378 OA
ENDBRANCH  92  96
ENDBRANCH  88  90
ENDBRANCH  82  86
ENDBRANCH  78  80
ENDBRANCH  77  78
ENDBRANCH  76  77
ENDBRANCH  75  76
ENDBRANCH   1  75
TORSDOF 20
ENDMDL
MODEL 3
REMARK VINA RESULT:     -11.4      5.584     11.230
REMARK SMILES O=C(OCCOCCOC(=O)[C@@H]1CCCC[C@H]1C(=O)Nc1ccccc1C(=O)N1CCOCC1)c1ccc(-c2c3nc(c(-c4c(F)cc(S(=O)(=O)[O-])cc4F)c4ccc([nH]4)c(-c4c(F)cc(S(=O)(=O)[O-])cc4F)c4nc(c(-c5c(F)cc(S(=O)(=O)[O-])cc5F)c5ccc2[nH]5)C=C4)C=C3)cc1
REMARK SMILES IDX 6 1 5 2 4 3 3 4 2 5 1 6 35 7 36 8 100 9 37 10 99 11 38 12
REMARK SMILES IDX 39 13 40 14 93 15 41 16 98 17 92 18 94 19 42 20 97 21 91 22
REMARK SMILES IDX 90 23 43 25 77 26 56 27 76 28 57 29 60 30 75 31 95 32 58 33
REMARK SMILES IDX 59 34 74 36 96 37 61 38 44 39 45 40 54 41 46 42 47 43 53 44
REMARK SMILES IDX 55 45 48 46 49 47 50 48 51 49 52 50 78 51 79 52 88 53 80 54
REMARK SMILES IDX 81 55 87 56 89 57 82 58 83 59 84 60 85 61 86 62 62 63 63 64
REMARK SMILES IDX 72 65 64 66 65 67 71 68 73 69 66 70 67 71 68 72 69 73 70 74
REMARK SMILES IDX 7 75 8 76 9 77 10 78 11 79 12 80 13 81 17 82 14 83 16 84
REMARK SMILES IDX 15 85 18 86 19 87 20 88 21 90 22 91 26 92 23 93 25 94 24 95
REMARK SMILES IDX 27 96 28 97 29 98 30 99 34 100 31 101 33 102 32 103
REMARK H PARENT 94 24 60 35 20 89
REMARK Flexibility Score: inf
ROOT
ATOM      1  O   UNL A   1      31.530  28.417  27.194  1.00  0.00    -0.374 OA
ENDROOT
BRANCH   1   2
ATOM      2  C   UNL A   1      31.748  29.386  26.172  1.00  0.00     0.202 C 
BRANCH   2   3
ATOM      3  C   UNL A   1      32.453  30.693  26.618  1.00  0.00     0.261 C 
BRANCH   3   4
ATOM      4  O   UNL A   1      33.601  30.502  27.497  1.00  0.00    -0.460 OA
BRANCH   4   5
ATOM      5  C   UNL A   1      34.367  31.531  27.995  1.00  0.00     0.338 C 
ATOM      6  O   UNL A   1      33.898  32.567  28.415  1.00  0.00    -0.246 OA
BRANCH   5   7
ATOM      7  C   UNL A   1      35.824  31.280  27.982  1.00  0.00     0.060 A 
ATOM      8  C   UNL A   1      36.201  29.959  28.079  1.00  0.00     0.016 A 
ATOM      9  C   UNL A   1      36.738  32.298  28.250  1.00  0.00     0.016 A 
ATOM     10  C   UNL A   1      37.291  29.682  28.882  1.00  0.00     0.010 A 
ATOM     11  C   UNL A   1      37.993  31.960  28.783  1.00  0.00     0.010 A 
ATOM     12  C   UNL A   1      38.254  30.646  29.214  1.00  0.00    -0.014 A 
BRANCH  12  13
ATOM     13  C   UNL A   1      39.456  30.266  30.037  1.00  0.00     0.031 A 
ATOM     14  C   UNL A   1      40.522  29.344  29.482  1.00  0.00     0.074 A 
ATOM     15  C   UNL A   1      39.648  30.771  31.280  1.00  0.00     0.049 A 
ATOM     16  N   UNL A   1      41.349  28.568  30.135  1.00  0.00    -0.248 NA
ATOM     17  C   UNL A   1      40.665  29.253  28.018  1.00  0.00     0.031 C 
ATOM     18  C   UNL A   1      38.777  31.729  31.971  1.00  0.00     0.029 A 
ATOM     19  N   UNL A   1      40.659  30.567  32.194  1.00  0.00    -0.354 N 
ATOM     20  C   UNL A   1      42.003  27.801  29.174  1.00  0.00     0.074 A 
ATOM     21  C   UNL A   1      41.531  28.253  27.883  1.00  0.00     0.031 C 
ATOM     22  C   UNL A   1      39.352  32.141  33.102  1.00  0.00     0.029 A 
ATOM     23  C   UNL A   1      40.468  31.259  33.371  1.00  0.00     0.049 A 
ATOM     24  H   UNL A   1      41.437  29.988  32.025  1.00  0.00     0.167 HD
ATOM     25  C   UNL A   1      42.884  26.792  29.376  1.00  0.00     0.037 A 
ATOM     26  C   UNL A   1      40.984  31.099  34.604  1.00  0.00     0.037 A 
ATOM     27  C   UNL A   1      43.422  26.463  30.674  1.00  0.00     0.049 A 
ATOM     28  C   UNL A   1      41.914  29.954  34.829  1.00  0.00     0.074 A 
ATOM     29  C   UNL A   1      44.326  25.471  31.012  1.00  0.00     0.029 A 
ATOM     30  N   UNL A   1      43.129  27.152  31.842  1.00  0.00    -0.354 N 
ATOM     31  N   UNL A   1      42.378  29.094  33.955  1.00  0.00    -0.248 NA
ATOM     32  C   UNL A   1      42.329  29.709  36.213  1.00  0.00     0.031 C 
ATOM     33  C   UNL A   1      44.560  25.547  32.391  1.00  0.00     0.029 A 
ATOM     34  C   UNL A   1      43.824  26.602  32.904  1.00  0.00     0.049 A 
ATOM     35  H   UNL A   1      42.516  27.920  31.906  1.00  0.00     0.167 HD
ATOM     36  C   UNL A   1      43.112  28.177  34.690  1.00  0.00     0.074 A 
ATOM     37  C   UNL A   1      43.067  28.616  36.072  1.00  0.00     0.031 C 
ATOM     38  C   UNL A   1      43.747  27.060  34.266  1.00  0.00     0.037 A 
BRANCH  25  39
ATOM     39  C   UNL A   1      43.270  25.918  28.213  1.00  0.00     0.058 A 
ATOM     40  C   UNL A   1      44.402  26.154  27.422  1.00  0.00     0.135 A 
ATOM     41  C   UNL A   1      42.525  24.753  27.952  1.00  0.00     0.135 A 
ATOM     42  F   UNL A   1      45.144  27.256  27.615  1.00  0.00    -0.206 F 
ATOM     43  C   UNL A   1      44.781  25.270  26.411  1.00  0.00     0.059 A 
ATOM     44  C   UNL A   1      42.893  23.848  26.961  1.00  0.00     0.059 A 
ATOM     45  F   UNL A   1      41.431  24.476  28.680  1.00  0.00    -0.206 F 
ATOM     46  C   UNL A   1      44.021  24.118  26.189  1.00  0.00     0.060 A 
BRANCH  46  47
ATOM     47  S   UNL A   1      44.540  22.962  24.900  1.00  0.00     0.124 S 
ATOM     48  O   UNL A   1      45.154  21.900  25.691  1.00  0.00    -0.237 OA
ATOM     49  O   UNL A   1      43.276  22.619  24.255  1.00  0.00    -0.237 OA
ATOM     50  O   UNL A   1      45.461  23.750  24.087  1.00  0.00    -0.744 OA
ENDBRANCH  46  47
ENDBRANCH  25  39
BRANCH  26  51
ATOM     51  C   UNL A   1      40.435  31.897  35.737  1.00  0.00     0.058 A 
ATOM     52  C   UNL A   1      39.198  31.593  36.314  1.00  0.00     0.135 A 
ATOM     53  C   UNL A   1      41.188  32.941  36.311  1.00  0.00     0.135 A 
ATOM     54  F   UNL A   1      38.435  30.621  35.791  1.00  0.00    -0.206 F 
ATOM     55  C   UNL A   1      38.731  32.280  37.432  1.00  0.00     0.059 A 
ATOM     56  C   UNL A   1      40.762  33.611  37.450  1.00  0.00     0.059 A 
ATOM     57  F   UNL A   1      42.388  33.265  35.804  1.00  0.00    -0.206 F 
ATOM     58  C   UNL A   1      39.526  33.279  37.999  1.00  0.00     0.060 A 
BRANCH  58  59
ATOM     59  S   UNL A   1      38.969  34.109  39.504  1.00  0.00     0.124 S 
ATOM     60  O   UNL A   1      37.874  33.243  39.925  1.00  0.00    -0.237 OA
ATOM     61  O   UNL A   1      40.164  34.082  40.342  1.00  0.00    -0.237 OA
ATOM     62  O   UNL A   1      38.581  35.433  39.025  1.00  0.00    -0.744 OA
ENDBRANCH  58  59
ENDBRANCH  26  51
BRANCH  38  63
ATOM     63  C   UNL A   1      44.440  26.256  35.316  1.00  0.00     0.058 A 
ATOM     64  C   UNL A   1      43.792  25.187  35.952  1.00  0.00     0.135 A 
ATOM     65  C   UNL A   1      45.760  26.552  35.684  1.00  0.00     0.135 A 
ATOM     66  F   UNL A   1      42.521  24.885  35.642  1.00  0.00    -0.206 F 
ATOM     67  C   UNL A   1      44.429  24.442  36.935  1.00  0.00     0.059 A 
ATOM     68  C   UNL A   1      46.422  25.809  36.653  1.00  0.00     0.059 A 
ATOM     69  F   UNL A   1      46.413  27.569  35.100  1.00  0.00    -0.206 F 
ATOM     70  C   UNL A   1      45.744  24.762  37.280  1.00  0.00     0.060 A 
BRANCH  70  71
ATOM     71  S   UNL A   1      46.575  23.774  38.540  1.00  0.00     0.124 S 
ATOM     72  O   UNL A   1      47.470  24.758  39.139  1.00  0.00    -0.237 OA
ATOM     73  O   UNL A   1      45.464  23.331  39.376  1.00  0.00    -0.237 OA
ATOM     74  O   UNL A   1      47.226  22.721  37.765  1.00  0.00    -0.744 OA
ENDBRANCH  70  71
ENDBRANCH  38  63
ENDBRANCH  12  13
ENDBRANCH   5   7
ENDBRANCH   4   5
ENDBRANCH   3   4
ENDBRANCH   2   3
ENDBRANCH   1   2
BRANCH   1  75
ATOM     75  C   UNL A   1      31.034  27.155  26.733  1.00  0.00     0.202 C 
BRANCH  75  76
ATOM     76  C   UNL A   1      32.157  26.167  26.394  1.00  0.00     0.261 C 
BRANCH  76  77
ATOM     77  O   UNL A   1      32.107  24.967  27.216  1.00  0.00    -0.463 OA
BRANCH  77  78
ATOM     78  C   UNL A   1      31.306  23.987  26.713  1.00  0.00     0.309 C 
ATOM     79  O   UNL A   1      30.292  23.570  27.268  1.00  0.00    -0.252 OA
BRANCH  78  80
ATOM     80  C   UNL A   1      31.908  23.200  25.551  1.00  0.00     0.111 C 
ATOM     81  C   UNL A   1      33.270  22.753  26.155  1.00  0.00     0.016 C 
ATOM     82  C   UNL A   1      32.138  23.789  24.144  1.00  0.00     0.093 C 
ATOM     83  C   UNL A   1      34.008  21.752  25.288  1.00  0.00     0.001 C 
ATOM     84  C   UNL A   1      32.888  22.729  23.285  1.00  0.00     0.014 C 
ATOM     85  C   UNL A   1      34.211  22.299  23.889  1.00  0.00     0.001 C 
BRANCH  82  86
ATOM     86  C   UNL A   1      31.075  24.271  23.137  1.00  0.00     0.228 C 
ATOM     87  O   UNL A   1      30.216  23.454  22.768  1.00  0.00    -0.274 OA
ATOM     88  N   UNL A   1      30.832  25.567  22.817  1.00  0.00    -0.325 N 
ATOM     89  H   UNL A   1      29.901  25.765  22.566  1.00  0.00     0.169 HD
BRANCH  88  90
ATOM     90  C   UNL A   1      31.693  26.659  22.790  1.00  0.00     0.054 A 
ATOM     91  C   UNL A   1      33.060  26.363  22.855  1.00  0.00     0.027 A 
ATOM     92  C   UNL A   1      31.272  27.993  22.760  1.00  0.00     0.063 A 
ATOM     93  C   UNL A   1      34.009  27.371  22.688  1.00  0.00     0.002 A 
ATOM     94  C   UNL A   1      32.233  28.992  22.531  1.00  0.00     0.016 A 
ATOM     95  C   UNL A   1      33.592  28.680  22.472  1.00  0.00     0.001 A 
BRANCH  92  96
ATOM     96  C   UNL A   1      29.890  28.457  23.108  1.00  0.00     0.256 C 
ATOM     97  O   UNL A   1      29.061  27.644  23.505  1.00  0.00    -0.269 OA
ATOM     98  N   UNL A   1      29.522  29.767  22.778  1.00  0.00    -0.334 N 
ATOM     99  C   UNL A   1      28.589  29.836  21.655  1.00  0.00     0.148 C 
ATOM    100  C   UNL A   1      29.166  30.689  23.866  1.00  0.00     0.148 C 
ATOM    101  C   UNL A   1      28.302  31.277  21.240  1.00  0.00     0.181 C 
ATOM    102  C   UNL A   1      28.769  32.089  23.397  1.00  0.00     0.181 C 
ATOM    103  O   UNL A   1      27.793  32.030  22.348  1.00  0.00    -0.378 OA
ENDBRANCH  92  96
ENDBRANCH  88  90
ENDBRANCH  82  86
ENDBRANCH  78  80
ENDBRANCH  77  78
ENDBRANCH  76  77
ENDBRANCH  75  76
ENDBRANCH   1  75
TORSDOF 20
ENDMDL
