MODEL 1
REMARK VINA RESULT:      -9.5      0.000      0.000
REMARK SMILES O=C(/C=C/C(=O)OCCOCCOC(=O)c1ccc(-c2c3nc(c(-c4c(F)cc(S(=O)(=O)[O-])cc4F)c4ccc([nH]4)c(-c4c(F)cc(S(=O)(=O)[O-])cc4F)c4nc(c(-c5c(F)cc(S(=O)(=O)[O-])cc5F)c5ccc2[nH]5)C=C4)C=C3)cc1)NNC(=O)CSc1ccc2ccccc2n1
REMARK SMILES IDX 9 1 8 2 7 3 5 4 6 5 4 6 3 7 2 8 1 9 82 10 83 12 84 13 85 15
REMARK SMILES IDX 86 16 87 17 88 18 89 19 97 20 90 21 96 22 91 23 95 24 92 25
REMARK SMILES IDX 94 26 93 27 10 28 11 29 12 30 13 31 14 32 15 33 16 34 17 35
REMARK SMILES IDX 81 36 18 37 80 38 19 39 20 40 21 41 74 42 22 43 79 44 73 45
REMARK SMILES IDX 75 46 23 47 78 48 72 49 71 50 24 52 58 53 37 54 57 55 38 56
REMARK SMILES IDX 41 57 56 58 76 59 39 60 40 61 55 63 77 64 42 65 25 66 26 67
REMARK SMILES IDX 35 68 27 69 28 70 34 71 36 72 29 73 30 74 31 75 32 76 33 77
REMARK SMILES IDX 59 78 60 79 69 80 61 81 62 82 68 83 70 84 63 85 64 86 65 87
REMARK SMILES IDX 66 88 67 89 43 90 44 91 53 92 45 93 46 94 52 95 54 96 47 97
REMARK SMILES IDX 48 98 49 99 50 100 51 101
REMARK H PARENT 82 11 83 14 75 51 41 62
REMARK Flexibility Score: inf
ROOT
ATOM      1  C   UNL A   1      34.198  34.934  28.349  1.00  0.00     0.202 C 
ENDROOT
BRANCH   1   2
ATOM      2  C   UNL A   1      33.260  35.207  29.528  1.00  0.00     0.261 C 
BRANCH   2   3
ATOM      3  O   UNL A   1      33.630  34.462  30.702  1.00  0.00    -0.460 OA
BRANCH   3   4
ATOM      4  C   UNL A   1      33.907  35.215  31.791  1.00  0.00     0.331 C 
ATOM      5  O   UNL A   1      33.625  36.391  31.960  1.00  0.00    -0.247 OA
BRANCH   4   6
ATOM      6  C   UNL A   1      34.483  34.424  32.895  1.00  0.00     0.099 C 
ATOM      7  C   UNL A   1      35.769  34.075  33.040  1.00  0.00     0.080 C 
BRANCH   7   8
ATOM      8  C   UNL A   1      36.238  33.263  34.196  1.00  0.00     0.262 C 
ATOM      9  O   UNL A   1      35.859  33.516  35.334  1.00  0.00    -0.268 OA
ATOM     10  N   UNL A   1      37.169  32.290  33.892  1.00  0.00    -0.264 N 
ATOM     11  H   UNL A   1      37.526  32.209  32.978  1.00  0.00     0.191 HD
BRANCH  10  12
ATOM     12  N   UNL A   1      37.598  31.421  34.896  1.00  0.00    -0.267 N 
ATOM     13  C   UNL A   1      38.641  31.684  35.755  1.00  0.00     0.248 C 
ATOM     14  H   UNL A   1      37.123  30.564  34.996  1.00  0.00     0.191 HD
ATOM     15  O   UNL A   1      38.964  30.855  36.609  1.00  0.00    -0.272 OA
BRANCH  13  16
ATOM     16  C   UNL A   1      39.386  33.006  35.620  1.00  0.00     0.178 C 
BRANCH  16  17
ATOM     17  S   UNL A   1      41.125  32.597  35.278  1.00  0.00    -0.096 SA
BRANCH  17  18
ATOM     18  C   UNL A   1      41.377  33.061  33.590  1.00  0.00     0.097 A 
ATOM     19  C   UNL A   1      42.539  33.589  33.050  1.00  0.00     0.036 A 
ATOM     20  N   UNL A   1      40.247  32.930  32.865  1.00  0.00    -0.241 NA
ATOM     21  C   UNL A   1      42.470  34.177  31.786  1.00  0.00     0.013 A 
ATOM     22  C   UNL A   1      40.175  33.495  31.657  1.00  0.00     0.072 A 
ATOM     23  C   UNL A   1      41.247  34.210  31.101  1.00  0.00     0.000 A 
ATOM     24  C   UNL A   1      38.976  33.428  30.966  1.00  0.00     0.029 A 
ATOM     25  C   UNL A   1      41.047  34.956  29.926  1.00  0.00     0.010 A 
ATOM     26  C   UNL A   1      38.776  34.154  29.793  1.00  0.00     0.002 A 
ATOM     27  C   UNL A   1      39.803  34.951  29.294  1.00  0.00     0.001 A 
ENDBRANCH  17  18
ENDBRANCH  16  17
ENDBRANCH  13  16
ENDBRANCH  10  12
ENDBRANCH   7   8
ENDBRANCH   4   6
ENDBRANCH   3   4
ENDBRANCH   2   3
ENDBRANCH   1   2
BRANCH   1  28
ATOM     28  O   UNL A   1      35.377  34.180  28.623  1.00  0.00    -0.374 OA
BRANCH  28  29
ATOM     29  C   UNL A   1      35.414  32.825  28.176  1.00  0.00     0.202 C 
BRANCH  29  30
ATOM     30  C   UNL A   1      35.138  31.727  29.211  1.00  0.00     0.261 C 
BRANCH  30  31
ATOM     31  O   UNL A   1      36.164  31.635  30.213  1.00  0.00    -0.460 OA
BRANCH  31  32
ATOM     32  C   UNL A   1      36.594  30.370  30.456  1.00  0.00     0.338 C 
ATOM     33  O   UNL A   1      35.910  29.409  30.758  1.00  0.00    -0.246 OA
BRANCH  32  34
ATOM     34  C   UNL A   1      38.028  30.248  30.122  1.00  0.00     0.060 A 
ATOM     35  C   UNL A   1      38.379  30.306  28.767  1.00  0.00     0.016 A 
ATOM     36  C   UNL A   1      38.996  30.002  31.098  1.00  0.00     0.016 A 
ATOM     37  C   UNL A   1      39.693  30.057  28.376  1.00  0.00     0.010 A 
ATOM     38  C   UNL A   1      40.314  29.749  30.701  1.00  0.00     0.010 A 
ATOM     39  C   UNL A   1      40.660  29.734  29.338  1.00  0.00    -0.014 A 
BRANCH  39  40
ATOM     40  C   UNL A   1      41.984  29.230  28.896  1.00  0.00     0.031 A 
ATOM     41  C   UNL A   1      43.151  30.182  28.859  1.00  0.00     0.074 A 
ATOM     42  C   UNL A   1      42.158  27.934  28.577  1.00  0.00     0.049 A 
ATOM     43  N   UNL A   1      44.385  29.968  28.484  1.00  0.00    -0.248 NA
ATOM     44  C   UNL A   1      42.890  31.560  29.305  1.00  0.00     0.031 C 
ATOM     45  C   UNL A   1      41.115  26.911  28.608  1.00  0.00     0.029 A 
ATOM     46  N   UNL A   1      43.278  27.261  28.158  1.00  0.00    -0.354 N 
ATOM     47  C   UNL A   1      45.048  31.180  28.651  1.00  0.00     0.074 A 
ATOM     48  C   UNL A   1      44.068  32.136  29.118  1.00  0.00     0.031 C 
ATOM     49  C   UNL A   1      41.642  25.739  28.211  1.00  0.00     0.029 A 
ATOM     50  C   UNL A   1      43.049  25.937  27.870  1.00  0.00     0.049 A 
ATOM     51  H   UNL A   1      44.161  27.686  28.072  1.00  0.00     0.167 HD
ATOM     52  C   UNL A   1      46.357  31.466  28.450  1.00  0.00     0.037 A 
ATOM     53  C   UNL A   1      43.876  24.997  27.368  1.00  0.00     0.037 A 
ATOM     54  C   UNL A   1      47.327  30.512  27.978  1.00  0.00     0.049 A 
ATOM     55  C   UNL A   1      45.313  25.358  27.086  1.00  0.00     0.074 A 
ATOM     56  C   UNL A   1      48.676  30.705  27.731  1.00  0.00     0.029 A 
ATOM     57  N   UNL A   1      47.054  29.184  27.684  1.00  0.00    -0.354 N 
ATOM     58  N   UNL A   1      45.928  26.505  27.257  1.00  0.00    -0.248 NA
ATOM     59  C   UNL A   1      46.174  24.292  26.554  1.00  0.00     0.031 C 
ATOM     60  C   UNL A   1      49.207  29.505  27.245  1.00  0.00     0.029 A 
ATOM     61  C   UNL A   1      48.205  28.549  27.246  1.00  0.00     0.049 A 
ATOM     62  H   UNL A   1      46.172  28.756  27.773  1.00  0.00     0.167 HD
ATOM     63  C   UNL A   1      47.252  26.287  26.888  1.00  0.00     0.074 A 
ATOM     64  C   UNL A   1      47.352  24.898  26.497  1.00  0.00     0.031 C 
ATOM     65  C   UNL A   1      48.293  27.158  26.877  1.00  0.00     0.037 A 
BRANCH  52  66
ATOM     66  C   UNL A   1      46.815  32.872  28.732  1.00  0.00     0.058 A 
ATOM     67  C   UNL A   1      47.231  33.267  30.014  1.00  0.00     0.135 A 
ATOM     68  C   UNL A   1      46.875  33.825  27.702  1.00  0.00     0.135 A 
ATOM     69  F   UNL A   1      47.176  32.402  31.039  1.00  0.00    -0.206 F 
ATOM     70  C   UNL A   1      47.667  34.562  30.270  1.00  0.00     0.059 A 
ATOM     71  C   UNL A   1      47.336  35.119  27.930  1.00  0.00     0.059 A 
ATOM     72  F   UNL A   1      46.486  33.504  26.459  1.00  0.00    -0.206 F 
ATOM     73  C   UNL A   1      47.717  35.482  29.221  1.00  0.00     0.060 A 
BRANCH  73  74
ATOM     74  S   UNL A   1      48.298  37.156  29.570  1.00  0.00     0.124 S 
ATOM     75  O   UNL A   1      49.704  36.915  29.886  1.00  0.00    -0.237 OA
ATOM     76  O   UNL A   1      48.041  37.844  28.310  1.00  0.00    -0.237 OA
ATOM     77  O   UNL A   1      47.467  37.577  30.694  1.00  0.00    -0.744 OA
ENDBRANCH  73  74
ENDBRANCH  52  66
BRANCH  53  78
ATOM     78  C   UNL A   1      43.369  23.629  27.080  1.00  0.00     0.058 A 
ATOM     79  C   UNL A   1      43.250  22.665  28.094  1.00  0.00     0.135 A 
ATOM     80  C   UNL A   1      43.018  23.247  25.775  1.00  0.00     0.135 A 
ATOM     81  F   UNL A   1      43.579  22.977  29.356  1.00  0.00    -0.206 F 
ATOM     82  C   UNL A   1      42.832  21.367  27.821  1.00  0.00     0.059 A 
ATOM     83  C   UNL A   1      42.567  21.964  25.482  1.00  0.00     0.059 A 
ATOM     84  F   UNL A   1      43.099  24.133  24.770  1.00  0.00    -0.206 F 
ATOM     85  C   UNL A   1      42.495  21.025  26.511  1.00  0.00     0.060 A 
BRANCH  85  86
ATOM     86  S   UNL A   1      41.933  19.343  26.169  1.00  0.00     0.124 S 
ATOM     87  O   UNL A   1      42.744  18.993  25.009  1.00  0.00    -0.237 OA
ATOM     88  O   UNL A   1      42.263  18.652  27.412  1.00  0.00    -0.237 OA
ATOM     89  O   UNL A   1      40.505  19.511  25.915  1.00  0.00    -0.744 OA
ENDBRANCH  85  86
ENDBRANCH  53  78
BRANCH  65  90
ATOM     90  C   UNL A   1      49.644  26.620  26.484  1.00  0.00     0.058 A 
ATOM     91  C   UNL A   1      50.478  25.958  27.399  1.00  0.00     0.135 A 
ATOM     92  C   UNL A   1      50.093  26.740  25.158  1.00  0.00     0.135 A 
ATOM     93  F   UNL A   1      50.099  25.817  28.678  1.00  0.00    -0.206 F 
ATOM     94  C   UNL A   1      51.724  25.465  27.022  1.00  0.00     0.059 A 
ATOM     95  C   UNL A   1      51.321  26.227  24.752  1.00  0.00     0.059 A 
ATOM     96  F   UNL A   1      49.330  27.352  24.238  1.00  0.00    -0.206 F 
ATOM     97  C   UNL A   1      52.137  25.606  25.696  1.00  0.00     0.060 A 
BRANCH  97  98
ATOM     98  S   UNL A   1      53.749  24.951  25.217  1.00  0.00     0.124 S 
ATOM     99  O   UNL A   1      54.574  25.336  26.356  1.00  0.00    -0.237 OA
ATOM    100  O   UNL A   1      53.480  23.523  25.082  1.00  0.00    -0.237 OA
ATOM    101  O   UNL A   1      54.042  25.647  23.967  1.00  0.00    -0.744 OA
ENDBRANCH  97  98
ENDBRANCH  65  90
ENDBRANCH  39  40
ENDBRANCH  32  34
ENDBRANCH  31  32
ENDBRANCH  30  31
ENDBRANCH  29  30
ENDBRANCH  28  29
ENDBRANCH   1  28
TORSDOF 22
ENDMDL
MODEL 2
REMARK VINA RESULT:      -9.4      6.407     13.998
REMARK SMILES O=C(/C=C/C(=O)OCCOCCOC(=O)c1ccc(-c2c3nc(c(-c4c(F)cc(S(=O)(=O)[O-])cc4F)c4ccc([nH]4)c(-c4c(F)cc(S(=O)(=O)[O-])cc4F)c4nc(c(-c5c(F)cc(S(=O)(=O)[O-])cc5F)c5ccc2[nH]5)C=C4)C=C3)cc1)NNC(=O)CSc1ccc2ccccc2n1
REMARK SMILES IDX 9 1 8 2 7 3 5 4 6 5 4 6 3 7 2 8 1 9 82 10 83 12 84 13 85 15
REMARK SMILES IDX 86 16 87 17 88 18 89 19 97 20 90 21 96 22 91 23 95 24 92 25
REMARK SMILES IDX 94 26 93 27 10 28 11 29 12 30 13 31 14 32 15 33 16 34 17 35
REMARK SMILES IDX 81 36 18 37 80 38 19 39 20 40 21 41 74 42 22 43 79 44 73 45
REMARK SMILES IDX 75 46 23 47 78 48 72 49 71 50 24 52 58 53 37 54 57 55 38 56
REMARK SMILES IDX 41 57 56 58 76 59 39 60 40 61 55 63 77 64 42 65 25 66 26 67
REMARK SMILES IDX 35 68 27 69 28 70 34 71 36 72 29 73 30 74 31 75 32 76 33 77
REMARK SMILES IDX 59 78 60 79 69 80 61 81 62 82 68 83 70 84 63 85 64 86 65 87
REMARK SMILES IDX 66 88 67 89 43 90 44 91 53 92 45 93 46 94 52 95 54 96 47 97
REMARK SMILES IDX 48 98 49 99 50 100 51 101
REMARK H PARENT 82 11 83 14 75 51 41 62
REMARK Flexibility Score: inf
ROOT
ATOM      1  C   UNL A   1      40.172  21.139  26.456  1.00  0.00     0.202 C 
ENDROOT
BRANCH   1   2
ATOM      2  C   UNL A   1      38.881  21.889  26.115  1.00  0.00     0.261 C 
BRANCH   2   3
ATOM      3  O   UNL A   1      38.354  21.508  24.831  1.00  0.00    -0.460 OA
BRANCH   3   4
ATOM      4  C   UNL A   1      37.102  20.995  24.858  1.00  0.00     0.331 C 
ATOM      5  O   UNL A   1      36.791  19.831  25.058  1.00  0.00    -0.247 OA
BRANCH   4   6
ATOM      6  C   UNL A   1      36.061  22.036  24.768  1.00  0.00     0.099 C 
ATOM      7  C   UNL A   1      36.009  23.038  23.878  1.00  0.00     0.080 C 
BRANCH   7   8
ATOM      8  C   UNL A   1      34.910  24.041  23.886  1.00  0.00     0.262 C 
ATOM      9  O   UNL A   1      34.304  24.316  22.857  1.00  0.00    -0.268 OA
ATOM     10  N   UNL A   1      34.699  24.671  25.097  1.00  0.00    -0.264 N 
ATOM     11  H   UNL A   1      35.294  24.495  25.862  1.00  0.00     0.191 HD
BRANCH  10  12
ATOM     12  N   UNL A   1      33.631  25.560  25.224  1.00  0.00    -0.267 N 
ATOM     13  C   UNL A   1      32.484  25.295  25.938  1.00  0.00     0.248 C 
ATOM     14  H   UNL A   1      33.703  26.433  24.775  1.00  0.00     0.191 HD
ATOM     15  O   UNL A   1      31.580  26.132  25.992  1.00  0.00    -0.272 OA
BRANCH  13  16
ATOM     16  C   UNL A   1      32.355  23.952  26.645  1.00  0.00     0.178 C 
BRANCH  16  17
ATOM     17  S   UNL A   1      30.986  23.064  25.841  1.00  0.00    -0.096 SA
BRANCH  17  18
ATOM     18  C   UNL A   1      31.770  21.892  24.773  1.00  0.00     0.097 A 
ATOM     19  C   UNL A   1      31.903  21.997  23.397  1.00  0.00     0.036 A 
ATOM     20  N   UNL A   1      32.164  20.792  25.446  1.00  0.00    -0.241 NA
ATOM     21  C   UNL A   1      32.270  20.857  22.682  1.00  0.00     0.013 A 
ATOM     22  C   UNL A   1      32.510  19.696  24.766  1.00  0.00     0.072 A 
ATOM     23  C   UNL A   1      32.501  19.653  23.363  1.00  0.00     0.000 A 
ATOM     24  C   UNL A   1      32.823  18.548  25.475  1.00  0.00     0.029 A 
ATOM     25  C   UNL A   1      32.673  18.422  22.706  1.00  0.00     0.010 A 
ATOM     26  C   UNL A   1      33.008  17.327  24.829  1.00  0.00     0.002 A 
ATOM     27  C   UNL A   1      32.893  17.258  23.444  1.00  0.00     0.001 A 
ENDBRANCH  17  18
ENDBRANCH  16  17
ENDBRANCH  13  16
ENDBRANCH  10  12
ENDBRANCH   7   8
ENDBRANCH   4   6
ENDBRANCH   3   4
ENDBRANCH   2   3
ENDBRANCH   1   2
BRANCH   1  28
ATOM     28  O   UNL A   1      41.348  21.522  25.745  1.00  0.00    -0.374 OA
BRANCH  28  29
ATOM     29  C   UNL A   1      42.113  22.608  26.268  1.00  0.00     0.202 C 
BRANCH  29  30
ATOM     30  C   UNL A   1      42.742  23.583  25.264  1.00  0.00     0.261 C 
BRANCH  30  31
ATOM     31  O   UNL A   1      43.096  24.843  25.857  1.00  0.00    -0.460 OA
BRANCH  31  32
ATOM     32  C   UNL A   1      42.061  25.713  25.979  1.00  0.00     0.338 C 
ATOM     33  O   UNL A   1      41.139  25.868  25.199  1.00  0.00    -0.246 OA
BRANCH  32  34
ATOM     34  C   UNL A   1      42.088  26.351  27.311  1.00  0.00     0.060 A 
ATOM     35  C   UNL A   1      41.035  26.053  28.187  1.00  0.00     0.016 A 
ATOM     36  C   UNL A   1      43.068  27.278  27.667  1.00  0.00     0.016 A 
ATOM     37  C   UNL A   1      40.926  26.729  29.400  1.00  0.00     0.010 A 
ATOM     38  C   UNL A   1      42.954  27.958  28.885  1.00  0.00     0.010 A 
ATOM     39  C   UNL A   1      41.861  27.717  29.738  1.00  0.00    -0.014 A 
BRANCH  39  40
ATOM     40  C   UNL A   1      41.600  28.597  30.904  1.00  0.00     0.031 A 
ATOM     41  C   UNL A   1      40.471  29.592  30.829  1.00  0.00     0.074 A 
ATOM     42  C   UNL A   1      42.328  28.483  32.030  1.00  0.00     0.049 A 
ATOM     43  N   UNL A   1      40.082  30.474  31.712  1.00  0.00    -0.248 NA
ATOM     44  C   UNL A   1      39.675  29.590  29.590  1.00  0.00     0.031 C 
ATOM     45  C   UNL A   1      43.422  27.536  32.237  1.00  0.00     0.029 A 
ATOM     46  N   UNL A   1      42.255  29.176  33.213  1.00  0.00    -0.354 N 
ATOM     47  C   UNL A   1      38.996  31.129  31.140  1.00  0.00     0.074 A 
ATOM     48  C   UNL A   1      38.817  30.573  29.816  1.00  0.00     0.031 C 
ATOM     49  C   UNL A   1      43.929  27.716  33.469  1.00  0.00     0.029 A 
ATOM     50  C   UNL A   1      43.216  28.809  34.126  1.00  0.00     0.049 A 
ATOM     51  H   UNL A   1      41.580  29.870  33.390  1.00  0.00     0.167 HD
ATOM     52  C   UNL A   1      38.209  32.093  31.675  1.00  0.00     0.037 A 
ATOM     53  C   UNL A   1      43.500  29.315  35.343  1.00  0.00     0.037 A 
ATOM     54  C   UNL A   1      38.395  32.648  32.991  1.00  0.00     0.049 A 
ATOM     55  C   UNL A   1      42.652  30.436  35.890  1.00  0.00     0.074 A 
ATOM     56  C   UNL A   1      37.660  33.636  33.622  1.00  0.00     0.029 A 
ATOM     57  N   UNL A   1      39.388  32.260  33.881  1.00  0.00    -0.354 N 
ATOM     58  N   UNL A   1      41.624  31.040  35.342  1.00  0.00    -0.248 NA
ATOM     59  C   UNL A   1      42.997  30.938  37.228  1.00  0.00     0.031 C 
ATOM     60  C   UNL A   1      38.235  33.877  34.875  1.00  0.00     0.029 A 
ATOM     61  C   UNL A   1      39.291  32.998  35.049  1.00  0.00     0.049 A 
ATOM     62  H   UNL A   1      40.061  31.564  33.707  1.00  0.00     0.167 HD
ATOM     63  C   UNL A   1      41.178  31.965  36.282  1.00  0.00     0.074 A 
ATOM     64  C   UNL A   1      42.041  31.833  37.437  1.00  0.00     0.031 C 
ATOM     65  C   UNL A   1      40.147  32.843  36.199  1.00  0.00     0.037 A 
BRANCH  52  66
ATOM     66  C   UNL A   1      37.077  32.617  30.832  1.00  0.00     0.058 A 
ATOM     67  C   UNL A   1      37.285  33.596  29.847  1.00  0.00     0.135 A 
ATOM     68  C   UNL A   1      35.777  32.107  30.983  1.00  0.00     0.135 A 
ATOM     69  F   UNL A   1      38.504  34.132  29.674  1.00  0.00    -0.206 F 
ATOM     70  C   UNL A   1      36.242  34.069  29.059  1.00  0.00     0.059 A 
ATOM     71  C   UNL A   1      34.724  32.545  30.185  1.00  0.00     0.059 A 
ATOM     72  F   UNL A   1      35.520  31.173  31.910  1.00  0.00    -0.206 F 
ATOM     73  C   UNL A   1      34.963  33.536  29.234  1.00  0.00     0.060 A 
BRANCH  73  74
ATOM     74  S   UNL A   1      33.623  34.153  28.193  1.00  0.00     0.124 S 
ATOM     75  O   UNL A   1      34.354  34.990  27.245  1.00  0.00    -0.237 OA
ATOM     76  O   UNL A   1      33.059  32.923  27.650  1.00  0.00    -0.237 OA
ATOM     77  O   UNL A   1      32.767  34.873  29.132  1.00  0.00    -0.744 OA
ENDBRANCH  73  74
ENDBRANCH  52  66
BRANCH  53  78
ATOM     78  C   UNL A   1      44.647  28.781  36.127  1.00  0.00     0.058 A 
ATOM     79  C   UNL A   1      45.932  29.332  36.008  1.00  0.00     0.135 A 
ATOM     80  C   UNL A   1      44.485  27.688  36.992  1.00  0.00     0.135 A 
ATOM     81  F   UNL A   1      46.142  30.373  35.188  1.00  0.00    -0.206 F 
ATOM     82  C   UNL A   1      47.019  28.801  36.693  1.00  0.00     0.059 A 
ATOM     83  C   UNL A   1      45.551  27.158  37.712  1.00  0.00     0.059 A 
ATOM     84  F   UNL A   1      43.274  27.131  37.154  1.00  0.00    -0.206 F 
ATOM     85  C   UNL A   1      46.819  27.711  37.542  1.00  0.00     0.060 A 
BRANCH  85  86
ATOM     86  S   UNL A   1      48.233  27.041  38.444  1.00  0.00     0.124 S 
ATOM     87  O   UNL A   1      49.333  27.817  37.882  1.00  0.00    -0.237 OA
ATOM     88  O   UNL A   1      47.882  27.341  39.829  1.00  0.00    -0.237 OA
ATOM     89  O   UNL A   1      48.214  25.625  38.093  1.00  0.00    -0.744 OA
ENDBRANCH  85  86
ENDBRANCH  53  78
BRANCH  65  90
ATOM     90  C   UNL A   1      39.855  33.688  37.411  1.00  0.00     0.058 A 
ATOM     91  C   UNL A   1      40.495  34.918  37.634  1.00  0.00     0.135 A 
ATOM     92  C   UNL A   1      38.891  33.274  38.345  1.00  0.00     0.135 A 
ATOM     93  F   UNL A   1      41.426  35.360  36.774  1.00  0.00    -0.206 F 
ATOM     94  C   UNL A   1      40.216  35.689  38.758  1.00  0.00     0.059 A 
ATOM     95  C   UNL A   1      38.573  34.044  39.459  1.00  0.00     0.059 A 
ATOM     96  F   UNL A   1      38.238  32.113  38.174  1.00  0.00    -0.206 F 
ATOM     97  C   UNL A   1      39.253  35.243  39.666  1.00  0.00     0.060 A 
BRANCH  97  98
ATOM     98  S   UNL A   1      38.890  36.259  41.113  1.00  0.00     0.124 S 
ATOM     99  O   UNL A   1      37.785  35.525  41.719  1.00  0.00    -0.237 OA
ATOM    100  O   UNL A   1      40.153  36.224  41.845  1.00  0.00    -0.237 OA
ATOM    101  O   UNL A   1      38.542  37.556  40.540  1.00  0.00    -0.744 OA
ENDBRANCH  97  98
ENDBRANCH  65  90
ENDBRANCH  39  40
ENDBRANCH  32  34
ENDBRANCH  31  32
ENDBRANCH  30  31
ENDBRANCH  29  30
ENDBRANCH  28  29
ENDBRANCH   1  28
TORSDOF 22
ENDMDL
MODEL 3
REMARK VINA RESULT:      -9.3      2.072      4.208
REMARK SMILES O=C(/C=C/C(=O)OCCOCCOC(=O)c1ccc(-c2c3nc(c(-c4c(F)cc(S(=O)(=O)[O-])cc4F)c4ccc([nH]4)c(-c4c(F)cc(S(=O)(=O)[O-])cc4F)c4nc(c(-c5c(F)cc(S(=O)(=O)[O-])cc5F)c5ccc2[nH]5)C=C4)C=C3)cc1)NNC(=O)CSc1ccc2ccccc2n1
REMARK SMILES IDX 9 1 8 2 7 3 5 4 6 5 4 6 3 7 2 8 1 9 82 10 83 12 84 13 85 15
REMARK SMILES IDX 86 16 87 17 88 18 89 19 97 20 90 21 96 22 91 23 95 24 92 25
REMARK SMILES IDX 94 26 93 27 10 28 11 29 12 30 13 31 14 32 15 33 16 34 17 35
REMARK SMILES IDX 81 36 18 37 80 38 19 39 20 40 21 41 74 42 22 43 79 44 73 45
REMARK SMILES IDX 75 46 23 47 78 48 72 49 71 50 24 52 58 53 37 54 57 55 38 56
REMARK SMILES IDX 41 57 56 58 76 59 39 60 40 61 55 63 77 64 42 65 25 66 26 67
REMARK SMILES IDX 35 68 27 69 28 70 34 71 36 72 29 73 30 74 31 75 32 76 33 77
REMARK SMILES IDX 59 78 60 79 69 80 61 81 62 82 68 83 70 84 63 85 64 86 65 87
REMARK SMILES IDX 66 88 67 89 43 90 44 91 53 92 45 93 46 94 52 95 54 96 47 97
REMARK SMILES IDX 48 98 49 99 50 100 51 101
REMARK H PARENT 82 11 83 14 75 51 41 62
REMARK Flexibility Score: inf
ROOT
ATOM      1  C   UNL A   1      39.012  33.616  32.973  1.00  0.00     0.202 C 
ENDROOT
BRANCH   1   2
ATOM      2  C   UNL A   1      38.361  34.799  33.696  1.00  0.00     0.261 C 
BRANCH   2   3
ATOM      3  O   UNL A   1      37.782  34.414  34.956  1.00  0.00    -0.460 OA
BRANCH   3   4
ATOM      4  C   UNL A   1      36.442  34.234  34.936  1.00  0.00     0.331 C 
ATOM      5  O   UNL A   1      35.778  33.585  35.730  1.00  0.00    -0.247 OA
BRANCH   4   6
ATOM      6  C   UNL A   1      35.775  35.052  33.906  1.00  0.00     0.099 C 
ATOM      7  C   UNL A   1      34.668  35.791  34.066  1.00  0.00     0.080 C 
BRANCH   7   8
ATOM      8  C   UNL A   1      34.075  36.573  32.947  1.00  0.00     0.262 C 
ATOM      9  O   UNL A   1      33.735  37.739  33.109  1.00  0.00    -0.268 OA
ATOM     10  N   UNL A   1      33.875  35.867  31.778  1.00  0.00    -0.264 N 
ATOM     11  H   UNL A   1      34.059  34.900  31.741  1.00  0.00     0.191 HD
BRANCH  10  12
ATOM     12  N   UNL A   1      33.409  36.540  30.648  1.00  0.00    -0.267 N 
ATOM     13  C   UNL A   1      33.115  35.929  29.449  1.00  0.00     0.248 C 
ATOM     14  H   UNL A   1      33.283  37.514  30.712  1.00  0.00     0.191 HD
ATOM     15  O   UNL A   1      32.718  36.599  28.493  1.00  0.00    -0.272 OA
BRANCH  13  16
ATOM     16  C   UNL A   1      33.300  34.422  29.330  1.00  0.00     0.178 C 
BRANCH  16  17
ATOM     17  S   UNL A   1      34.632  34.148  28.122  1.00  0.00    -0.096 SA
BRANCH  17  18
ATOM     18  C   UNL A   1      34.734  32.392  27.949  1.00  0.00     0.097 A 
ATOM     19  C   UNL A   1      35.897  31.642  27.871  1.00  0.00     0.036 A 
ATOM     20  N   UNL A   1      33.514  31.835  27.799  1.00  0.00    -0.241 NA
ATOM     21  C   UNL A   1      35.801  30.320  27.434  1.00  0.00     0.013 A 
ATOM     22  C   UNL A   1      33.418  30.573  27.375  1.00  0.00     0.072 A 
ATOM     23  C   UNL A   1      34.548  29.789  27.096  1.00  0.00     0.000 A 
ATOM     24  C   UNL A   1      32.157  30.048  27.140  1.00  0.00     0.029 A 
ATOM     25  C   UNL A   1      34.389  28.546  26.459  1.00  0.00     0.010 A 
ATOM     26  C   UNL A   1      31.993  28.810  26.521  1.00  0.00     0.002 A 
ATOM     27  C   UNL A   1      33.114  28.076  26.144  1.00  0.00     0.001 A 
ENDBRANCH  17  18
ENDBRANCH  16  17
ENDBRANCH  13  16
ENDBRANCH  10  12
ENDBRANCH   7   8
ENDBRANCH   4   6
ENDBRANCH   3   4
ENDBRANCH   2   3
ENDBRANCH   1   2
BRANCH   1  28
ATOM     28  O   UNL A   1      38.630  33.399  31.616  1.00  0.00    -0.374 OA
BRANCH  28  29
ATOM     29  C   UNL A   1      37.239  33.465  31.302  1.00  0.00     0.202 C 
BRANCH  29  30
ATOM     30  C   UNL A   1      36.337  32.343  31.832  1.00  0.00     0.261 C 
BRANCH  30  31
ATOM     31  O   UNL A   1      36.433  31.137  31.058  1.00  0.00    -0.460 OA
BRANCH  31  32
ATOM     32  C   UNL A   1      37.086  30.123  31.683  1.00  0.00     0.338 C 
ATOM     33  O   UNL A   1      36.599  29.279  32.412  1.00  0.00    -0.246 OA
BRANCH  32  34
ATOM     34  C   UNL A   1      38.484  30.052  31.212  1.00  0.00     0.060 A 
ATOM     35  C   UNL A   1      38.718  30.302  29.853  1.00  0.00     0.016 A 
ATOM     36  C   UNL A   1      39.529  29.671  32.055  1.00  0.00     0.016 A 
ATOM     37  C   UNL A   1      39.990  30.113  29.318  1.00  0.00     0.010 A 
ATOM     38  C   UNL A   1      40.806  29.478  31.514  1.00  0.00     0.010 A 
ATOM     39  C   UNL A   1      41.033  29.657  30.137  1.00  0.00    -0.014 A 
BRANCH  39  40
ATOM     40  C   UNL A   1      42.309  29.223  29.516  1.00  0.00     0.031 A 
ATOM     41  C   UNL A   1      43.442  30.210  29.409  1.00  0.00     0.074 A 
ATOM     42  C   UNL A   1      42.474  27.956  29.093  1.00  0.00     0.049 A 
ATOM     43  N   UNL A   1      44.629  30.058  28.883  1.00  0.00    -0.248 NA
ATOM     44  C   UNL A   1      43.202  31.549  29.973  1.00  0.00     0.031 C 
ATOM     45  C   UNL A   1      41.465  26.901  29.174  1.00  0.00     0.029 A 
ATOM     46  N   UNL A   1      43.553  27.344  28.506  1.00  0.00    -0.354 N 
ATOM     47  C   UNL A   1      45.279  31.277  29.054  1.00  0.00     0.074 A 
ATOM     48  C   UNL A   1      44.337  32.171  29.692  1.00  0.00     0.031 C 
ATOM     49  C   UNL A   1      41.969  25.773  28.643  1.00  0.00     0.029 A 
ATOM     50  C   UNL A   1      43.323  26.035  28.159  1.00  0.00     0.049 A 
ATOM     51  H   UNL A   1      44.410  27.801  28.349  1.00  0.00     0.167 HD
ATOM     52  C   UNL A   1      46.548  31.614  28.725  1.00  0.00     0.037 A 
ATOM     53  C   UNL A   1      44.107  25.155  27.504  1.00  0.00     0.037 A 
ATOM     54  C   UNL A   1      47.479  30.722  28.083  1.00  0.00     0.049 A 
ATOM     55  C   UNL A   1      45.494  25.576  27.086  1.00  0.00     0.074 A 
ATOM     56  C   UNL A   1      48.786  30.970  27.698  1.00  0.00     0.029 A 
ATOM     57  N   UNL A   1      47.205  29.407  27.735  1.00  0.00    -0.354 N 
ATOM     58  N   UNL A   1      46.098  26.728  27.261  1.00  0.00    -0.248 NA
ATOM     59  C   UNL A   1      46.312  24.572  26.389  1.00  0.00     0.031 C 
ATOM     60  C   UNL A   1      49.285  29.821  27.076  1.00  0.00     0.029 A 
ATOM     61  C   UNL A   1      48.311  28.836  27.128  1.00  0.00     0.049 A 
ATOM     62  H   UNL A   1      46.349  28.948  27.894  1.00  0.00     0.167 HD
ATOM     63  C   UNL A   1      47.376  26.574  26.731  1.00  0.00     0.074 A 
ATOM     64  C   UNL A   1      47.461  25.216  26.239  1.00  0.00     0.031 C 
ATOM     65  C   UNL A   1      48.388  27.475  26.659  1.00  0.00     0.037 A 
BRANCH  52  66
ATOM     66  C   UNL A   1      47.003  33.013  29.046  1.00  0.00     0.058 A 
ATOM     67  C   UNL A   1      47.632  33.321  30.263  1.00  0.00     0.135 A 
ATOM     68  C   UNL A   1      46.844  34.049  28.112  1.00  0.00     0.135 A 
ATOM     69  F   UNL A   1      47.793  32.372  31.200  1.00  0.00    -0.206 F 
ATOM     70  C   UNL A   1      48.065  34.610  30.553  1.00  0.00     0.059 A 
ATOM     71  C   UNL A   1      47.296  35.341  28.369  1.00  0.00     0.059 A 
ATOM     72  F   UNL A   1      46.247  33.813  26.934  1.00  0.00    -0.206 F 
ATOM     73  C   UNL A   1      47.894  35.614  29.599  1.00  0.00     0.060 A 
BRANCH  73  74
ATOM     74  S   UNL A   1      48.473  37.279  29.988  1.00  0.00     0.124 S 
ATOM     75  O   UNL A   1      47.422  37.750  30.887  1.00  0.00    -0.237 OA
ATOM     76  O   UNL A   1      49.769  37.022  30.606  1.00  0.00    -0.237 OA
ATOM     77  O   UNL A   1      48.522  37.936  28.685  1.00  0.00    -0.744 OA
ENDBRANCH  73  74
ENDBRANCH  52  66
BRANCH  53  78
ATOM     78  C   UNL A   1      43.602  23.793  27.185  1.00  0.00     0.058 A 
ATOM     79  C   UNL A   1      43.217  23.442  25.882  1.00  0.00     0.135 A 
ATOM     80  C   UNL A   1      43.466  22.819  28.188  1.00  0.00     0.135 A 
ATOM     81  F   UNL A   1      43.319  24.339  24.889  1.00  0.00    -0.206 F 
ATOM     82  C   UNL A   1      42.689  22.189  25.589  1.00  0.00     0.059 A 
ATOM     83  C   UNL A   1      42.970  21.548  27.914  1.00  0.00     0.059 A 
ATOM     84  F   UNL A   1      43.832  23.097  29.449  1.00  0.00    -0.206 F 
ATOM     85  C   UNL A   1      42.567  21.249  26.613  1.00  0.00     0.060 A 
BRANCH  85  86
ATOM     86  S   UNL A   1      41.900  19.617  26.220  1.00  0.00     0.124 S 
ATOM     87  O   UNL A   1      42.389  18.823  27.341  1.00  0.00    -0.237 OA
ATOM     88  O   UNL A   1      40.462  19.873  26.197  1.00  0.00    -0.237 OA
ATOM     89  O   UNL A   1      42.496  19.315  24.923  1.00  0.00    -0.744 OA
ENDBRANCH  85  86
ENDBRANCH  53  78
BRANCH  65  90
ATOM     90  C   UNL A   1      49.697  27.004  26.081  1.00  0.00     0.058 A 
ATOM     91  C   UNL A   1      50.640  26.301  26.845  1.00  0.00     0.135 A 
ATOM     92  C   UNL A   1      49.992  27.232  24.726  1.00  0.00     0.135 A 
ATOM     93  F   UNL A   1      50.410  26.058  28.145  1.00  0.00    -0.206 F 
ATOM     94  C   UNL A   1      51.845  25.872  26.298  1.00  0.00     0.059 A 
ATOM     95  C   UNL A   1      51.176  26.784  24.149  1.00  0.00     0.059 A 
ATOM     96  F   UNL A   1      49.119  27.888  23.944  1.00  0.00    -0.206 F 
ATOM     97  C   UNL A   1      52.104  26.119  24.948  1.00  0.00     0.060 A 
BRANCH  97  98
ATOM     98  S   UNL A   1      53.665  25.545  24.246  1.00  0.00     0.124 S 
ATOM     99  O   UNL A   1      53.655  24.134  24.618  1.00  0.00    -0.237 OA
ATOM    100  O   UNL A   1      53.493  25.828  22.824  1.00  0.00    -0.237 OA
ATOM    101  O   UNL A   1      54.665  26.365  24.924  1.00  0.00    -0.744 OA
ENDBRANCH  97  98
ENDBRANCH  65  90
ENDBRANCH  39  40
ENDBRANCH  32  34
ENDBRANCH  31  32
ENDBRANCH  30  31
ENDBRANCH  29  30
ENDBRANCH  28  29
ENDBRANCH   1  28
TORSDOF 22
ENDMDL
