MODEL 1
REMARK VINA RESULT:     -10.5      0.000      0.000
REMARK SMILES O=C(C[C@@H]1CN(C(=O)NCc2cccs2)CCO1)OCCOCCOC(=O)c1ccc(-c2c3nc(c(-c4c(F)cc(S(=O)(=O)[O-])cc4F)c4ccc([nH]4)c(-c4c(F)cc(S(=O)(=O)[O-])cc4F)c4nc(c(-c5c(F)cc(S(=O)(=O)[O-])cc5F)c5ccc2[nH]5)C=C4)C=C3)cc1
REMARK SMILES IDX 21 1 20 2 19 3 2 4 1 5 3 6 4 7 5 8 18 9 6 10 17 11 16 12
REMARK SMILES IDX 7 13 8 14 9 15 10 17 11 18 12 19 15 20 13 21 14 22 22 23
REMARK SMILES IDX 23 24 24 25 25 26 26 27 27 28 28 29 29 30 93 31 30 32 92 33
REMARK SMILES IDX 31 34 32 35 33 36 86 37 34 38 91 39 85 40 87 41 35 42 90 43
REMARK SMILES IDX 84 44 83 45 36 47 70 48 49 49 69 50 50 51 53 52 68 53 88 54
REMARK SMILES IDX 51 55 52 56 67 58 89 59 54 60 37 61 38 62 47 63 39 64 40 65
REMARK SMILES IDX 46 66 48 67 41 68 42 69 43 70 44 71 45 72 71 73 72 74 81 75
REMARK SMILES IDX 73 76 74 77 80 78 82 79 75 80 76 81 77 82 78 83 79 84 55 85
REMARK SMILES IDX 56 86 65 87 57 88 58 89 64 90 66 91 59 92 60 93 61 94 62 95
REMARK SMILES IDX 63 96
REMARK H PARENT 9 16 87 46 53 57
REMARK Flexibility Score: inf
ROOT
ATOM      1  C   UNL A   1      32.540  26.896  26.526  1.00  0.00     0.202 C 
ENDROOT
BRANCH   1   2
ATOM      2  C   UNL A   1      31.092  26.529  26.233  1.00  0.00     0.261 C 
BRANCH   2   3
ATOM      3  O   UNL A   1      30.647  25.348  26.912  1.00  0.00    -0.463 OA
BRANCH   3   4
ATOM      4  C   UNL A   1      30.987  24.077  26.616  1.00  0.00     0.308 C 
ATOM      5  O   UNL A   1      31.487  23.374  27.497  1.00  0.00    -0.252 OA
BRANCH   4   6
ATOM      6  C   UNL A   1      30.953  23.567  25.195  1.00  0.00     0.156 C 
BRANCH   6   7
ATOM      7  C   UNL A   1      32.060  23.957  24.222  1.00  0.00     0.149 C 
ATOM      8  C   UNL A   1      31.465  24.233  22.818  1.00  0.00     0.154 C 
ATOM      9  O   UNL A   1      33.105  22.977  24.207  1.00  0.00    -0.374 OA
ATOM     10  N   UNL A   1      32.514  24.504  21.843  1.00  0.00    -0.320 N 
ATOM     11  C   UNL A   1      34.133  23.300  23.259  1.00  0.00     0.182 C 
ATOM     12  C   UNL A   1      33.557  23.470  21.849  1.00  0.00     0.150 C 
BRANCH  10  13
ATOM     13  C   UNL A   1      32.708  25.622  21.093  1.00  0.00     0.317 C 
ATOM     14  O   UNL A   1      32.904  25.559  19.875  1.00  0.00    -0.249 OA
ATOM     15  N   UNL A   1      32.701  26.863  21.608  1.00  0.00    -0.333 N 
ATOM     16  H   UNL A   1      33.057  27.530  20.978  1.00  0.00     0.165 HD
BRANCH  15  17
ATOM     17  C   UNL A   1      32.297  27.455  22.864  1.00  0.00     0.164 C 
BRANCH  17  18
ATOM     18  C   UNL A   1      31.026  28.249  22.704  1.00  0.00     0.024 A 
ATOM     19  C   UNL A   1      30.905  29.538  22.212  1.00  0.00     0.017 A 
ATOM     20  S   UNL A   1      29.481  27.614  23.119  1.00  0.00    -0.147 S 
ATOM     21  C   UNL A   1      29.556  29.999  22.194  1.00  0.00     0.012 A 
ATOM     22  C   UNL A   1      28.680  29.047  22.661  1.00  0.00     0.065 A 
ENDBRANCH  17  18
ENDBRANCH  15  17
ENDBRANCH  10  13
ENDBRANCH   6   7
ENDBRANCH   4   6
ENDBRANCH   3   4
ENDBRANCH   2   3
ENDBRANCH   1   2
BRANCH   1  23
ATOM     23  O   UNL A   1      32.773  28.107  27.241  1.00  0.00    -0.374 OA
BRANCH  23  24
ATOM     24  C   UNL A   1      31.980  29.230  26.829  1.00  0.00     0.202 C 
BRANCH  24  25
ATOM     25  C   UNL A   1      32.650  30.612  26.873  1.00  0.00     0.261 C 
BRANCH  25  26
ATOM     26  O   UNL A   1      33.638  30.706  27.912  1.00  0.00    -0.460 OA
BRANCH  26  27
ATOM     27  C   UNL A   1      34.526  31.718  27.754  1.00  0.00     0.338 C 
ATOM     28  O   UNL A   1      34.263  32.905  27.617  1.00  0.00    -0.246 OA
BRANCH  27  29
ATOM     29  C   UNL A   1      35.895  31.226  28.020  1.00  0.00     0.060 A 
ATOM     30  C   UNL A   1      36.114  29.847  27.896  1.00  0.00     0.016 A 
ATOM     31  C   UNL A   1      36.938  32.079  28.392  1.00  0.00     0.016 A 
ATOM     32  C   UNL A   1      37.339  29.300  28.256  1.00  0.00     0.010 A 
ATOM     33  C   UNL A   1      38.170  31.528  28.758  1.00  0.00     0.010 A 
ATOM     34  C   UNL A   1      38.344  30.133  28.762  1.00  0.00    -0.014 A 
BRANCH  34  35
ATOM     35  C   UNL A   1      39.437  29.517  29.552  1.00  0.00     0.031 A 
ATOM     36  C   UNL A   1      39.579  29.934  30.994  1.00  0.00     0.074 A 
ATOM     37  C   UNL A   1      40.227  28.564  29.029  1.00  0.00     0.049 A 
ATOM     38  N   UNL A   1      40.434  29.533  31.896  1.00  0.00    -0.248 NA
ATOM     39  C   UNL A   1      38.626  30.947  31.483  1.00  0.00     0.031 C 
ATOM     40  C   UNL A   1      40.145  28.052  27.663  1.00  0.00     0.029 A 
ATOM     41  N   UNL A   1      41.252  27.852  29.597  1.00  0.00    -0.354 N 
ATOM     42  C   UNL A   1      40.133  30.253  33.048  1.00  0.00     0.074 A 
ATOM     43  C   UNL A   1      39.043  31.142  32.723  1.00  0.00     0.031 C 
ATOM     44  C   UNL A   1      41.084  27.104  27.497  1.00  0.00     0.029 A 
ATOM     45  C   UNL A   1      41.848  26.963  28.735  1.00  0.00     0.049 A 
ATOM     46  H   UNL A   1      41.533  27.966  30.533  1.00  0.00     0.167 HD
ATOM     47  C   UNL A   1      40.706  30.170  34.272  1.00  0.00     0.037 A 
ATOM     48  C   UNL A   1      42.898  26.141  28.929  1.00  0.00     0.037 A 
ATOM     49  C   UNL A   1      41.783  29.269  34.585  1.00  0.00     0.049 A 
ATOM     50  C   UNL A   1      43.551  26.099  30.288  1.00  0.00     0.074 A 
ATOM     51  C   UNL A   1      42.427  29.086  35.795  1.00  0.00     0.029 A 
ATOM     52  N   UNL A   1      42.378  28.404  33.678  1.00  0.00    -0.354 N 
ATOM     53  N   UNL A   1      43.246  26.770  31.374  1.00  0.00    -0.248 NA
ATOM     54  C   UNL A   1      44.682  25.177  30.451  1.00  0.00     0.031 C 
ATOM     55  C   UNL A   1      43.452  28.153  35.605  1.00  0.00     0.029 A 
ATOM     56  C   UNL A   1      43.398  27.701  34.296  1.00  0.00     0.049 A 
ATOM     57  H   UNL A   1      42.114  28.305  32.735  1.00  0.00     0.167 HD
ATOM     58  C   UNL A   1      44.119  26.319  32.360  1.00  0.00     0.074 A 
ATOM     59  C   UNL A   1      44.959  25.315  31.739  1.00  0.00     0.031 C 
ATOM     60  C   UNL A   1      44.214  26.694  33.661  1.00  0.00     0.037 A 
BRANCH  47  61
ATOM     61  C   UNL A   1      40.203  31.098  35.345  1.00  0.00     0.058 A 
ATOM     62  C   UNL A   1      38.974  30.897  35.993  1.00  0.00     0.135 A 
ATOM     63  C   UNL A   1      40.977  32.201  35.743  1.00  0.00     0.135 A 
ATOM     64  F   UNL A   1      38.180  29.874  35.636  1.00  0.00    -0.206 F 
ATOM     65  C   UNL A   1      38.517  31.770  36.976  1.00  0.00     0.059 A 
ATOM     66  C   UNL A   1      40.556  33.068  36.746  1.00  0.00     0.059 A 
ATOM     67  F   UNL A   1      42.156  32.447  35.152  1.00  0.00    -0.206 F 
ATOM     68  C   UNL A   1      39.317  32.852  37.348  1.00  0.00     0.060 A 
BRANCH  68  69
ATOM     69  S   UNL A   1      38.717  33.970  38.631  1.00  0.00     0.124 S 
ATOM     70  O   UNL A   1      37.310  33.587  38.716  1.00  0.00    -0.237 OA
ATOM     71  O   UNL A   1      39.543  33.601  39.776  1.00  0.00    -0.237 OA
ATOM     72  O   UNL A   1      38.973  35.295  38.077  1.00  0.00    -0.744 OA
ENDBRANCH  68  69
ENDBRANCH  47  61
BRANCH  48  73
ATOM     73  C   UNL A   1      43.388  25.282  27.817  1.00  0.00     0.058 A 
ATOM     74  C   UNL A   1      42.863  23.999  27.603  1.00  0.00     0.135 A 
ATOM     75  C   UNL A   1      44.396  25.726  26.946  1.00  0.00     0.135 A 
ATOM     76  F   UNL A   1      41.904  23.524  28.412  1.00  0.00    -0.206 F 
ATOM     77  C   UNL A   1      43.329  23.180  26.580  1.00  0.00     0.059 A 
ATOM     78  C   UNL A   1      44.859  24.938  25.897  1.00  0.00     0.059 A 
ATOM     79  F   UNL A   1      44.925  26.951  27.098  1.00  0.00    -0.206 F 
ATOM     80  C   UNL A   1      44.326  23.661  25.729  1.00  0.00     0.060 A 
BRANCH  80  81
ATOM     81  S   UNL A   1      44.894  22.606  24.377  1.00  0.00     0.124 S 
ATOM     82  O   UNL A   1      43.725  22.589  23.506  1.00  0.00    -0.237 OA
ATOM     83  O   UNL A   1      46.051  23.346  23.881  1.00  0.00    -0.237 OA
ATOM     84  O   UNL A   1      45.205  21.344  25.042  1.00  0.00    -0.744 OA
ENDBRANCH  80  81
ENDBRANCH  48  73
BRANCH  60  85
ATOM     85  C   UNL A   1      45.217  25.968  34.519  1.00  0.00     0.058 A 
ATOM     86  C   UNL A   1      46.510  26.463  34.740  1.00  0.00     0.135 A 
ATOM     87  C   UNL A   1      44.856  24.768  35.156  1.00  0.00     0.135 A 
ATOM     88  F   UNL A   1      46.907  27.605  34.157  1.00  0.00    -0.206 F 
ATOM     89  C   UNL A   1      47.429  25.771  35.524  1.00  0.00     0.059 A 
ATOM     90  C   UNL A   1      45.745  24.078  35.973  1.00  0.00     0.059 A 
ATOM     91  F   UNL A   1      43.625  24.259  34.995  1.00  0.00    -0.206 F 
ATOM     92  C   UNL A   1      47.037  24.577  36.134  1.00  0.00     0.060 A 
BRANCH  92  93
ATOM     93  S   UNL A   1      48.236  23.687  37.147  1.00  0.00     0.124 S 
ATOM     94  O   UNL A   1      47.551  22.417  37.362  1.00  0.00    -0.237 OA
ATOM     95  O   UNL A   1      49.406  23.637  36.276  1.00  0.00    -0.237 OA
ATOM     96  O   UNL A   1      48.376  24.532  38.330  1.00  0.00    -0.744 OA
ENDBRANCH  92  93
ENDBRANCH  60  85
ENDBRANCH  34  35
ENDBRANCH  27  29
ENDBRANCH  26  27
ENDBRANCH  25  26
ENDBRANCH  24  25
ENDBRANCH  23  24
ENDBRANCH   1  23
TORSDOF 21
ENDMDL
MODEL 2
REMARK VINA RESULT:     -10.2      2.037      3.487
REMARK SMILES O=C(C[C@@H]1CN(C(=O)NCc2cccs2)CCO1)OCCOCCOC(=O)c1ccc(-c2c3nc(c(-c4c(F)cc(S(=O)(=O)[O-])cc4F)c4ccc([nH]4)c(-c4c(F)cc(S(=O)(=O)[O-])cc4F)c4nc(c(-c5c(F)cc(S(=O)(=O)[O-])cc5F)c5ccc2[nH]5)C=C4)C=C3)cc1
REMARK SMILES IDX 21 1 20 2 19 3 2 4 1 5 3 6 4 7 5 8 18 9 6 10 17 11 16 12
REMARK SMILES IDX 7 13 8 14 9 15 10 17 11 18 12 19 15 20 13 21 14 22 22 23
REMARK SMILES IDX 23 24 24 25 25 26 26 27 27 28 28 29 29 30 93 31 30 32 92 33
REMARK SMILES IDX 31 34 32 35 33 36 86 37 34 38 91 39 85 40 87 41 35 42 90 43
REMARK SMILES IDX 84 44 83 45 36 47 70 48 49 49 69 50 50 51 53 52 68 53 88 54
REMARK SMILES IDX 51 55 52 56 67 58 89 59 54 60 37 61 38 62 47 63 39 64 40 65
REMARK SMILES IDX 46 66 48 67 41 68 42 69 43 70 44 71 45 72 71 73 72 74 81 75
REMARK SMILES IDX 73 76 74 77 80 78 82 79 75 80 76 81 77 82 78 83 79 84 55 85
REMARK SMILES IDX 56 86 65 87 57 88 58 89 64 90 66 91 59 92 60 93 61 94 62 95
REMARK SMILES IDX 63 96
REMARK H PARENT 9 16 87 46 53 57
REMARK Flexibility Score: inf
ROOT
ATOM      1  C   UNL A   1      31.471  27.825  27.557  1.00  0.00     0.202 C 
ENDROOT
BRANCH   1   2
ATOM      2  C   UNL A   1      31.471  26.837  26.400  1.00  0.00     0.261 C 
BRANCH   2   3
ATOM      3  O   UNL A   1      30.446  25.841  26.490  1.00  0.00    -0.463 OA
BRANCH   3   4
ATOM      4  C   UNL A   1      30.600  24.514  26.301  1.00  0.00     0.308 C 
ATOM      5  O   UNL A   1      30.948  23.814  27.255  1.00  0.00    -0.252 OA
BRANCH   4   6
ATOM      6  C   UNL A   1      30.550  23.907  24.920  1.00  0.00     0.156 C 
BRANCH   6   7
ATOM      7  C   UNL A   1      31.719  24.105  23.961  1.00  0.00     0.149 C 
ATOM      8  C   UNL A   1      33.062  24.007  24.727  1.00  0.00     0.154 C 
ATOM      9  O   UNL A   1      31.581  25.324  23.221  1.00  0.00    -0.374 OA
ATOM     10  N   UNL A   1      34.191  24.297  23.854  1.00  0.00    -0.320 N 
ATOM     11  C   UNL A   1      32.698  25.554  22.349  1.00  0.00     0.182 C 
ATOM     12  C   UNL A   1      34.019  25.561  23.125  1.00  0.00     0.150 C 
BRANCH  10  13
ATOM     13  C   UNL A   1      35.245  23.498  23.533  1.00  0.00     0.317 C 
ATOM     14  O   UNL A   1      35.373  23.018  22.402  1.00  0.00    -0.249 OA
ATOM     15  N   UNL A   1      36.213  23.174  24.406  1.00  0.00    -0.333 N 
ATOM     16  H   UNL A   1      36.776  22.435  24.082  1.00  0.00     0.165 HD
BRANCH  15  17
ATOM     17  C   UNL A   1      36.627  23.647  25.709  1.00  0.00     0.164 C 
BRANCH  17  18
ATOM     18  C   UNL A   1      37.950  23.043  26.108  1.00  0.00     0.024 A 
ATOM     19  C   UNL A   1      38.946  23.641  26.860  1.00  0.00     0.017 A 
ATOM     20  S   UNL A   1      38.404  21.442  25.668  1.00  0.00    -0.147 S 
ATOM     21  C   UNL A   1      40.076  22.794  27.056  1.00  0.00     0.012 A 
ATOM     22  C   UNL A   1      39.908  21.567  26.460  1.00  0.00     0.065 A 
ENDBRANCH  17  18
ENDBRANCH  15  17
ENDBRANCH  10  13
ENDBRANCH   6   7
ENDBRANCH   4   6
ENDBRANCH   3   4
ENDBRANCH   2   3
ENDBRANCH   1   2
BRANCH   1  23
ATOM     23  O   UNL A   1      31.304  29.204  27.236  1.00  0.00    -0.374 OA
BRANCH  23  24
ATOM     24  C   UNL A   1      32.008  29.658  26.071  1.00  0.00     0.202 C 
BRANCH  24  25
ATOM     25  C   UNL A   1      33.455  30.137  26.271  1.00  0.00     0.261 C 
BRANCH  25  26
ATOM     26  O   UNL A   1      33.710  30.549  27.624  1.00  0.00    -0.460 OA
BRANCH  26  27
ATOM     27  C   UNL A   1      34.788  31.356  27.772  1.00  0.00     0.338 C 
ATOM     28  O   UNL A   1      34.782  32.577  27.843  1.00  0.00    -0.246 OA
BRANCH  27  29
ATOM     29  C   UNL A   1      35.981  30.542  28.091  1.00  0.00     0.060 A 
ATOM     30  C   UNL A   1      35.959  29.820  29.294  1.00  0.00     0.016 A 
ATOM     31  C   UNL A   1      37.098  30.488  27.253  1.00  0.00     0.016 A 
ATOM     32  C   UNL A   1      37.093  29.140  29.719  1.00  0.00     0.010 A 
ATOM     33  C   UNL A   1      38.241  29.807  27.683  1.00  0.00     0.010 A 
ATOM     34  C   UNL A   1      38.262  29.198  28.950  1.00  0.00    -0.014 A 
BRANCH  34  35
ATOM     35  C   UNL A   1      39.552  28.878  29.605  1.00  0.00     0.031 A 
ATOM     36  C   UNL A   1      39.890  29.609  30.880  1.00  0.00     0.074 A 
ATOM     37  C   UNL A   1      40.360  27.916  29.128  1.00  0.00     0.049 A 
ATOM     38  N   UNL A   1      40.940  29.498  31.650  1.00  0.00    -0.248 NA
ATOM     39  C   UNL A   1      38.909  30.605  31.347  1.00  0.00     0.031 C 
ATOM     40  C   UNL A   1      40.107  27.114  27.932  1.00  0.00     0.029 A 
ATOM     41  N   UNL A   1      41.557  27.446  29.603  1.00  0.00    -0.354 N 
ATOM     42  C   UNL A   1      40.753  30.418  32.677  1.00  0.00     0.074 A 
ATOM     43  C   UNL A   1      39.510  31.105  32.415  1.00  0.00     0.031 C 
ATOM     44  C   UNL A   1      41.123  26.249  27.766  1.00  0.00     0.029 A 
ATOM     45  C   UNL A   1      42.107  26.455  28.826  1.00  0.00     0.049 A 
ATOM     46  H   UNL A   1      41.983  27.788  30.422  1.00  0.00     0.167 HD
ATOM     47  C   UNL A   1      41.540  30.658  33.751  1.00  0.00     0.037 A 
ATOM     48  C   UNL A   1      43.278  25.800  28.958  1.00  0.00     0.037 A 
ATOM     49  C   UNL A   1      42.770  29.956  34.008  1.00  0.00     0.049 A 
ATOM     50  C   UNL A   1      44.162  26.118  30.138  1.00  0.00     0.074 A 
ATOM     51  C   UNL A   1      43.638  30.103  35.074  1.00  0.00     0.029 A 
ATOM     52  N   UNL A   1      43.307  28.977  33.184  1.00  0.00    -0.354 N 
ATOM     53  N   UNL A   1      43.966  26.976  31.113  1.00  0.00    -0.248 NA
ATOM     54  C   UNL A   1      45.420  25.368  30.244  1.00  0.00     0.031 C 
ATOM     55  C   UNL A   1      44.731  29.255  34.864  1.00  0.00     0.029 A 
ATOM     56  C   UNL A   1      44.507  28.527  33.706  1.00  0.00     0.049 A 
ATOM     57  H   UNL A   1      42.895  28.651  32.352  1.00  0.00     0.167 HD
ATOM     58  C   UNL A   1      45.055  26.836  31.969  1.00  0.00     0.074 A 
ATOM     59  C   UNL A   1      45.900  25.808  31.398  1.00  0.00     0.031 C 
ATOM     60  C   UNL A   1      45.328  27.492  33.126  1.00  0.00     0.037 A 
BRANCH  47  61
ATOM     61  C   UNL A   1      41.114  31.743  34.704  1.00  0.00     0.058 A 
ATOM     62  C   UNL A   1      40.219  31.504  35.759  1.00  0.00     0.135 A 
ATOM     63  C   UNL A   1      41.626  33.044  34.565  1.00  0.00     0.135 A 
ATOM     64  F   UNL A   1      39.678  30.286  35.925  1.00  0.00    -0.206 F 
ATOM     65  C   UNL A   1      39.826  32.520  36.625  1.00  0.00     0.059 A 
ATOM     66  C   UNL A   1      41.273  34.067  35.440  1.00  0.00     0.059 A 
ATOM     67  F   UNL A   1      42.478  33.332  33.570  1.00  0.00    -0.206 F 
ATOM     68  C   UNL A   1      40.361  33.798  36.459  1.00  0.00     0.060 A 
BRANCH  68  69
ATOM     69  S   UNL A   1      39.850  35.103  37.596  1.00  0.00     0.124 S 
ATOM     70  O   UNL A   1      40.913  35.053  38.595  1.00  0.00    -0.237 OA
ATOM     71  O   UNL A   1      39.846  36.282  36.735  1.00  0.00    -0.237 OA
ATOM     72  O   UNL A   1      38.537  34.662  38.055  1.00  0.00    -0.744 OA
ENDBRANCH  68  69
ENDBRANCH  47  61
BRANCH  48  73
ATOM     73  C   UNL A   1      43.675  24.774  27.958  1.00  0.00     0.058 A 
ATOM     74  C   UNL A   1      43.425  23.411  28.176  1.00  0.00     0.135 A 
ATOM     75  C   UNL A   1      44.317  25.134  26.762  1.00  0.00     0.135 A 
ATOM     76  F   UNL A   1      42.822  23.012  29.307  1.00  0.00    -0.206 F 
ATOM     77  C   UNL A   1      43.812  22.440  27.258  1.00  0.00     0.059 A 
ATOM     78  C   UNL A   1      44.688  24.186  25.814  1.00  0.00     0.059 A 
ATOM     79  F   UNL A   1      44.570  26.426  26.498  1.00  0.00    -0.206 F 
ATOM     80  C   UNL A   1      44.440  22.839  26.077  1.00  0.00     0.060 A 
BRANCH  80  81
ATOM     81  S   UNL A   1      44.899  21.575  24.870  1.00  0.00     0.124 S 
ATOM     82  O   UNL A   1      44.330  22.119  23.643  1.00  0.00    -0.237 OA
ATOM     83  O   UNL A   1      46.357  21.587  24.959  1.00  0.00    -0.237 OA
ATOM     84  O   UNL A   1      44.257  20.370  25.385  1.00  0.00    -0.744 OA
ENDBRANCH  80  81
ENDBRANCH  48  73
BRANCH  60  85
ATOM     85  C   UNL A   1      46.558  27.070  33.887  1.00  0.00     0.058 A 
ATOM     86  C   UNL A   1      46.526  26.057  34.856  1.00  0.00     0.135 A 
ATOM     87  C   UNL A   1      47.795  27.676  33.612  1.00  0.00     0.135 A 
ATOM     88  F   UNL A   1      45.371  25.444  35.158  1.00  0.00    -0.206 F 
ATOM     89  C   UNL A   1      47.669  25.690  35.561  1.00  0.00     0.059 A 
ATOM     90  C   UNL A   1      48.957  27.301  34.276  1.00  0.00     0.059 A 
ATOM     91  F   UNL A   1      47.886  28.638  32.680  1.00  0.00    -0.206 F 
ATOM     92  C   UNL A   1      48.880  26.321  35.265  1.00  0.00     0.060 A 
BRANCH  92  93
ATOM     93  S   UNL A   1      50.356  25.838  36.185  1.00  0.00     0.124 S 
ATOM     94  O   UNL A   1      49.805  24.888  37.145  1.00  0.00    -0.237 OA
ATOM     95  O   UNL A   1      51.201  25.268  35.141  1.00  0.00    -0.237 OA
ATOM     96  O   UNL A   1      50.832  27.097  36.751  1.00  0.00    -0.744 OA
ENDBRANCH  92  93
ENDBRANCH  60  85
ENDBRANCH  34  35
ENDBRANCH  27  29
ENDBRANCH  26  27
ENDBRANCH  25  26
ENDBRANCH  24  25
ENDBRANCH  23  24
ENDBRANCH   1  23
TORSDOF 21
ENDMDL
MODEL 3
REMARK VINA RESULT:     -10.1      2.271      8.788
REMARK SMILES O=C(C[C@@H]1CN(C(=O)NCc2cccs2)CCO1)OCCOCCOC(=O)c1ccc(-c2c3nc(c(-c4c(F)cc(S(=O)(=O)[O-])cc4F)c4ccc([nH]4)c(-c4c(F)cc(S(=O)(=O)[O-])cc4F)c4nc(c(-c5c(F)cc(S(=O)(=O)[O-])cc5F)c5ccc2[nH]5)C=C4)C=C3)cc1
REMARK SMILES IDX 21 1 20 2 19 3 2 4 1 5 3 6 4 7 5 8 18 9 6 10 17 11 16 12
REMARK SMILES IDX 7 13 8 14 9 15 10 17 11 18 12 19 15 20 13 21 14 22 22 23
REMARK SMILES IDX 23 24 24 25 25 26 26 27 27 28 28 29 29 30 93 31 30 32 92 33
REMARK SMILES IDX 31 34 32 35 33 36 86 37 34 38 91 39 85 40 87 41 35 42 90 43
REMARK SMILES IDX 84 44 83 45 36 47 70 48 49 49 69 50 50 51 53 52 68 53 88 54
REMARK SMILES IDX 51 55 52 56 67 58 89 59 54 60 37 61 38 62 47 63 39 64 40 65
REMARK SMILES IDX 46 66 48 67 41 68 42 69 43 70 44 71 45 72 71 73 72 74 81 75
REMARK SMILES IDX 73 76 74 77 80 78 82 79 75 80 76 81 77 82 78 83 79 84 55 85
REMARK SMILES IDX 56 86 65 87 57 88 58 89 64 90 66 91 59 92 60 93 61 94 62 95
REMARK SMILES IDX 63 96
REMARK H PARENT 9 16 87 46 53 57
REMARK Flexibility Score: inf
ROOT
ATOM      1  C   UNL A   1      31.459  27.898  27.603  1.00  0.00     0.202 C 
ENDROOT
BRANCH   1   2
ATOM      2  C   UNL A   1      31.463  26.842  26.508  1.00  0.00     0.261 C 
BRANCH   2   3
ATOM      3  O   UNL A   1      30.461  25.832  26.676  1.00  0.00    -0.463 OA
BRANCH   3   4
ATOM      4  C   UNL A   1      30.597  24.517  26.410  1.00  0.00     0.308 C 
ATOM      5  O   UNL A   1      31.031  23.774  27.293  1.00  0.00    -0.252 OA
BRANCH   4   6
ATOM      6  C   UNL A   1      30.419  23.976  25.012  1.00  0.00     0.156 C 
BRANCH   6   7
ATOM      7  C   UNL A   1      31.541  24.132  23.990  1.00  0.00     0.149 C 
ATOM      8  C   UNL A   1      32.917  24.142  24.702  1.00  0.00     0.154 C 
ATOM      9  O   UNL A   1      31.328  25.280  23.160  1.00  0.00    -0.374 OA
ATOM     10  N   UNL A   1      33.998  24.396  23.760  1.00  0.00    -0.320 N 
ATOM     11  C   UNL A   1      32.400  25.474  22.224  1.00  0.00     0.182 C 
ATOM     12  C   UNL A   1      33.750  25.589  22.939  1.00  0.00     0.150 C 
BRANCH  10  13
ATOM     13  C   UNL A   1      35.066  23.608  23.460  1.00  0.00     0.317 C 
ATOM     14  O   UNL A   1      35.207  23.109  22.339  1.00  0.00    -0.249 OA
ATOM     15  N   UNL A   1      36.035  23.316  24.343  1.00  0.00    -0.333 N 
ATOM     16  H   UNL A   1      36.611  22.581  24.036  1.00  0.00     0.165 HD
BRANCH  15  17
ATOM     17  C   UNL A   1      36.435  23.822  25.638  1.00  0.00     0.164 C 
BRANCH  17  18
ATOM     18  C   UNL A   1      37.804  23.316  26.016  1.00  0.00     0.024 A 
ATOM     19  C   UNL A   1      38.795  24.014  26.684  1.00  0.00     0.017 A 
ATOM     20  S   UNL A   1      38.328  21.715  25.660  1.00  0.00    -0.147 S 
ATOM     21  C   UNL A   1      39.978  23.242  26.883  1.00  0.00     0.012 A 
ATOM     22  C   UNL A   1      39.854  21.971  26.375  1.00  0.00     0.065 A 
ENDBRANCH  17  18
ENDBRANCH  15  17
ENDBRANCH  10  13
ENDBRANCH   6   7
ENDBRANCH   4   6
ENDBRANCH   3   4
ENDBRANCH   2   3
ENDBRANCH   1   2
BRANCH   1  23
ATOM     23  O   UNL A   1      31.422  29.263  27.191  1.00  0.00    -0.374 OA
BRANCH  23  24
ATOM     24  C   UNL A   1      32.176  29.572  26.010  1.00  0.00     0.202 C 
BRANCH  24  25
ATOM     25  C   UNL A   1      33.660  29.923  26.200  1.00  0.00     0.261 C 
BRANCH  25  26
ATOM     26  O   UNL A   1      33.960  30.309  27.551  1.00  0.00    -0.460 OA
BRANCH  26  27
ATOM     27  C   UNL A   1      34.999  31.170  27.673  1.00  0.00     0.338 C 
ATOM     28  O   UNL A   1      34.944  32.392  27.628  1.00  0.00    -0.246 OA
BRANCH  27  29
ATOM     29  C   UNL A   1      36.204  30.439  28.122  1.00  0.00     0.060 A 
ATOM     30  C   UNL A   1      36.107  29.728  29.326  1.00  0.00     0.016 A 
ATOM     31  C   UNL A   1      37.401  30.453  27.400  1.00  0.00     0.016 A 
ATOM     32  C   UNL A   1      37.234  29.128  29.874  1.00  0.00     0.010 A 
ATOM     33  C   UNL A   1      38.536  29.852  27.954  1.00  0.00     0.010 A 
ATOM     34  C   UNL A   1      38.468  29.256  29.225  1.00  0.00    -0.014 A 
BRANCH  34  35
ATOM     35  C   UNL A   1      39.703  29.027  30.011  1.00  0.00     0.031 A 
ATOM     36  C   UNL A   1      40.658  27.968  29.521  1.00  0.00     0.074 A 
ATOM     37  C   UNL A   1      40.005  29.785  31.078  1.00  0.00     0.049 A 
ATOM     38  N   UNL A   1      41.808  27.590  30.014  1.00  0.00    -0.248 NA
ATOM     39  C   UNL A   1      40.258  27.230  28.309  1.00  0.00     0.031 C 
ATOM     40  C   UNL A   1      39.178  30.867  31.608  1.00  0.00     0.029 A 
ATOM     41  N   UNL A   1      41.100  29.762  31.902  1.00  0.00    -0.354 N 
ATOM     42  C   UNL A   1      42.256  26.566  29.186  1.00  0.00     0.074 A 
ATOM     43  C   UNL A   1      41.240  26.354  28.181  1.00  0.00     0.031 C 
ATOM     44  C   UNL A   1      39.797  31.406  32.673  1.00  0.00     0.029 A 
ATOM     45  C   UNL A   1      41.048  30.690  32.914  1.00  0.00     0.049 A 
ATOM     46  H   UNL A   1      41.852  29.139  31.781  1.00  0.00     0.167 HD
ATOM     47  C   UNL A   1      43.417  25.873  29.249  1.00  0.00     0.037 A 
ATOM     48  C   UNL A   1      41.912  30.922  33.922  1.00  0.00     0.037 A 
ATOM     49  C   UNL A   1      44.426  26.104  30.248  1.00  0.00     0.049 A 
ATOM     50  C   UNL A   1      43.178  30.105  34.000  1.00  0.00     0.074 A 
ATOM     51  C   UNL A   1      45.649  25.476  30.397  1.00  0.00     0.029 A 
ATOM     52  N   UNL A   1      44.325  27.035  31.272  1.00  0.00    -0.354 N 
ATOM     53  N   UNL A   1      43.600  29.153  33.200  1.00  0.00    -0.248 NA
ATOM     54  C   UNL A   1      44.093  30.406  35.109  1.00  0.00     0.031 C 
ATOM     55  C   UNL A   1      46.262  25.986  31.547  1.00  0.00     0.029 A 
ATOM     56  C   UNL A   1      45.454  26.982  32.071  1.00  0.00     0.049 A 
ATOM     57  H   UNL A   1      43.564  27.643  31.410  1.00  0.00     0.167 HD
ATOM     58  C   UNL A   1      44.848  28.772  33.686  1.00  0.00     0.074 A 
ATOM     59  C   UNL A   1      45.112  29.601  34.844  1.00  0.00     0.031 C 
ATOM     60  C   UNL A   1      45.702  27.828  33.214  1.00  0.00     0.037 A 
BRANCH  47  61
ATOM     61  C   UNL A   1      43.638  24.783  28.235  1.00  0.00     0.058 A 
ATOM     62  C   UNL A   1      43.216  23.461  28.453  1.00  0.00     0.135 A 
ATOM     63  C   UNL A   1      44.270  25.072  27.015  1.00  0.00     0.135 A 
ATOM     64  F   UNL A   1      42.629  23.121  29.612  1.00  0.00    -0.206 F 
ATOM     65  C   UNL A   1      43.438  22.461  27.512  1.00  0.00     0.059 A 
ATOM     66  C   UNL A   1      44.472  24.095  26.045  1.00  0.00     0.059 A 
ATOM     67  F   UNL A   1      44.702  26.315  26.756  1.00  0.00    -0.206 F 
ATOM     68  C   UNL A   1      44.064  22.789  26.308  1.00  0.00     0.060 A 
BRANCH  68  69
ATOM     69  S   UNL A   1      44.335  21.483  25.092  1.00  0.00     0.124 S 
ATOM     70  O   UNL A   1      44.187  22.217  23.838  1.00  0.00    -0.237 OA
ATOM     71  O   UNL A   1      45.689  21.039  25.409  1.00  0.00    -0.237 OA
ATOM     72  O   UNL A   1      43.278  20.520  25.382  1.00  0.00    -0.744 OA
ENDBRANCH  68  69
ENDBRANCH  47  61
BRANCH  48  73
ATOM     73  C   UNL A   1      41.618  31.977  34.929  1.00  0.00     0.058 A 
ATOM     74  C   UNL A   1      40.787  31.721  36.029  1.00  0.00     0.135 A 
ATOM     75  C   UNL A   1      42.160  33.267  34.809  1.00  0.00     0.135 A 
ATOM     76  F   UNL A   1      40.236  30.507  36.185  1.00  0.00    -0.206 F 
ATOM     77  C   UNL A   1      40.487  32.707  36.964  1.00  0.00     0.059 A 
ATOM     78  C   UNL A   1      41.900  34.261  35.746  1.00  0.00     0.059 A 
ATOM     79  F   UNL A   1      42.972  33.562  33.781  1.00  0.00    -0.206 F 
ATOM     80  C   UNL A   1      41.053  33.974  36.815  1.00  0.00     0.060 A 
BRANCH  80  81
ATOM     81  S   UNL A   1      40.693  35.234  38.058  1.00  0.00     0.124 S 
ATOM     82  O   UNL A   1      40.898  36.462  37.300  1.00  0.00    -0.237 OA
ATOM     83  O   UNL A   1      39.311  34.924  38.413  1.00  0.00    -0.237 OA
ATOM     84  O   UNL A   1      41.676  34.965  39.104  1.00  0.00    -0.744 OA
ENDBRANCH  80  81
ENDBRANCH  48  73
BRANCH  60  85
ATOM     85  C   UNL A   1      47.031  27.688  33.908  1.00  0.00     0.058 A 
ATOM     86  C   UNL A   1      48.158  28.430  33.524  1.00  0.00     0.135 A 
ATOM     87  C   UNL A   1      47.164  26.813  35.000  1.00  0.00     0.135 A 
ATOM     88  F   UNL A   1      48.087  29.281  32.487  1.00  0.00    -0.206 F 
ATOM     89  C   UNL A   1      49.382  28.277  34.167  1.00  0.00     0.059 A 
ATOM     90  C   UNL A   1      48.367  26.671  35.681  1.00  0.00     0.059 A 
ATOM     91  F   UNL A   1      46.113  26.093  35.423  1.00  0.00    -0.206 F 
ATOM     92  C   UNL A   1      49.478  27.392  35.243  1.00  0.00     0.060 A 
BRANCH  92  93
ATOM     93  S   UNL A   1      51.071  27.200  36.070  1.00  0.00     0.124 S 
ATOM     94  O   UNL A   1      51.523  25.919  35.540  1.00  0.00    -0.237 OA
ATOM     95  O   UNL A   1      51.805  28.373  35.607  1.00  0.00    -0.237 OA
ATOM     96  O   UNL A   1      50.721  27.205  37.487  1.00  0.00    -0.744 OA
ENDBRANCH  92  93
ENDBRANCH  60  85
ENDBRANCH  34  35
ENDBRANCH  27  29
ENDBRANCH  26  27
ENDBRANCH  25  26
ENDBRANCH  24  25
ENDBRANCH  23  24
ENDBRANCH   1  23
TORSDOF 21
ENDMDL
