MODEL 1
REMARK VINA RESULT:     -10.1      0.000      0.000
REMARK SMILES COc1cccc(O[C@@H](C)c2nnc(SCC(=O)OCCOCCOC(=O)c3ccc(-c4c5nc(c(-c6c(F)cc(S(=O)(=O)[O-])cc6F)c6ccc([nH]6)c(-c6c(F)cc(S(=O)(=O)[O-])cc6F)c6nc(c(-c7c(F)cc(S(=O)(=O)[O-])cc7F)c7ccc4[nH]7)C=C6)C=C5)cc3)n2C)c1
REMARK SMILES IDX 20 1 19 2 17 3 18 4 16 5 15 6 14 7 11 8 12 9 94 10 13 11
REMARK SMILES IDX 95 12 9 13 10 14 8 15 7 16 3 17 4 18 96 19 5 20 6 21 2 22
REMARK SMILES IDX 1 23 21 24 22 25 23 26 24 27 25 28 26 29 27 30 28 31 29 32
REMARK SMILES IDX 93 33 30 34 92 35 31 36 32 37 33 38 86 39 34 40 91 41 85 42
REMARK SMILES IDX 87 43 35 44 90 45 84 46 83 47 36 49 70 50 49 51 69 52 50 53
REMARK SMILES IDX 53 54 68 55 88 56 51 57 52 58 67 60 89 61 54 62 37 63 38 64
REMARK SMILES IDX 47 65 39 66 40 67 46 68 48 69 41 70 42 71 43 72 44 73 45 74
REMARK SMILES IDX 71 75 72 76 81 77 73 78 74 79 80 80 82 81 75 82 76 83 77 84
REMARK SMILES IDX 78 85 79 86 55 87 56 88 65 89 57 90 58 91 64 92 66 93 59 94
REMARK SMILES IDX 60 95 61 96 62 97 63 98
REMARK H PARENT 87 48 53 59
REMARK Flexibility Score: inf
ROOT
ATOM      1  C   UNL A   1      33.233  29.963  27.270  1.00  0.00     0.261 C 
ENDROOT
BRANCH   1   2
ATOM      2  O   UNL A   1      33.721  29.669  25.938  1.00  0.00    -0.463 OA
BRANCH   2   3
ATOM      3  C   UNL A   1      33.263  28.535  25.343  1.00  0.00     0.316 C 
ATOM      4  O   UNL A   1      33.957  27.787  24.659  1.00  0.00    -0.251 OA
BRANCH   3   5
ATOM      5  C   UNL A   1      31.791  28.241  25.590  1.00  0.00     0.200 C 
BRANCH   5   6
ATOM      6  S   UNL A   1      30.819  27.943  24.106  1.00  0.00    -0.074 SA
BRANCH   6   7
ATOM      7  C   UNL A   1      30.827  26.252  23.711  1.00  0.00     0.191 A 
ATOM      8  C   UNL A   1      31.666  24.302  23.102  1.00  0.00     0.174 A 
ATOM      9  N   UNL A   1      30.936  24.135  24.192  1.00  0.00    -0.130 NA
ATOM     10  N   UNL A   1      31.475  25.608  22.680  1.00  0.00    -0.306 N 
ATOM     11  N   UNL A   1      30.427  25.348  24.574  1.00  0.00    -0.123 NA
ATOM     12  C   UNL A   1      31.851  26.178  21.424  1.00  0.00     0.154 C 
BRANCH   8  13
ATOM     13  C   UNL A   1      32.623  23.244  22.596  1.00  0.00     0.238 C 
ATOM     14  C   UNL A   1      32.563  21.817  23.109  1.00  0.00     0.062 C 
BRANCH  13  15
ATOM     15  O   UNL A   1      33.983  23.691  22.495  1.00  0.00    -0.483 OA
BRANCH  15  16
ATOM     16  C   UNL A   1      34.888  23.544  23.497  1.00  0.00     0.124 A 
ATOM     17  C   UNL A   1      36.765  22.570  24.679  1.00  0.00     0.122 A 
ATOM     18  C   UNL A   1      36.552  23.471  25.724  1.00  0.00     0.046 A 
ATOM     19  C   UNL A   1      35.942  22.629  23.550  1.00  0.00     0.092 A 
ATOM     20  C   UNL A   1      35.555  24.438  25.641  1.00  0.00     0.008 A 
ATOM     21  C   UNL A   1      34.729  24.474  24.524  1.00  0.00     0.047 A 
BRANCH  17  22
ATOM     22  O   UNL A   1      37.817  21.725  24.891  1.00  0.00    -0.497 OA
ATOM     23  C   UNL A   1      37.611  20.324  24.819  1.00  0.00     0.278 C 
ENDBRANCH  17  22
ENDBRANCH  15  16
ENDBRANCH  13  15
ENDBRANCH   8  13
ENDBRANCH   6   7
ENDBRANCH   5   6
ENDBRANCH   3   5
ENDBRANCH   2   3
ENDBRANCH   1   2
BRANCH   1  24
ATOM     24  C   UNL A   1      33.226  31.476  27.538  1.00  0.00     0.202 C 
BRANCH  24  25
ATOM     25  O   UNL A   1      34.499  32.079  27.813  1.00  0.00    -0.374 OA
BRANCH  25  26
ATOM     26  C   UNL A   1      34.669  32.649  29.100  1.00  0.00     0.202 C 
BRANCH  26  27
ATOM     27  C   UNL A   1      35.590  31.909  30.069  1.00  0.00     0.261 C 
BRANCH  27  28
ATOM     28  O   UNL A   1      36.089  30.686  29.566  1.00  0.00    -0.460 OA
BRANCH  28  29
ATOM     29  C   UNL A   1      36.722  29.950  30.500  1.00  0.00     0.338 C 
ATOM     30  O   UNL A   1      36.236  29.330  31.436  1.00  0.00    -0.246 OA
BRANCH  29  31
ATOM     31  C   UNL A   1      38.108  29.831  30.077  1.00  0.00     0.060 A 
ATOM     32  C   UNL A   1      38.346  29.848  28.702  1.00  0.00     0.016 A 
ATOM     33  C   UNL A   1      39.139  29.711  31.012  1.00  0.00     0.016 A 
ATOM     34  C   UNL A   1      39.639  29.681  28.244  1.00  0.00     0.010 A 
ATOM     35  C   UNL A   1      40.438  29.541  30.549  1.00  0.00     0.010 A 
ATOM     36  C   UNL A   1      40.676  29.485  29.166  1.00  0.00    -0.014 A 
BRANCH  36  37
ATOM     37  C   UNL A   1      41.978  29.033  28.649  1.00  0.00     0.031 A 
ATOM     38  C   UNL A   1      43.098  30.029  28.601  1.00  0.00     0.074 A 
ATOM     39  C   UNL A   1      42.152  27.742  28.326  1.00  0.00     0.049 A 
ATOM     40  N   UNL A   1      44.347  29.848  28.271  1.00  0.00    -0.248 NA
ATOM     41  C   UNL A   1      42.769  31.415  28.979  1.00  0.00     0.031 C 
ATOM     42  C   UNL A   1      41.111  26.714  28.377  1.00  0.00     0.029 A 
ATOM     43  N   UNL A   1      43.268  27.076  27.905  1.00  0.00    -0.354 N 
ATOM     44  C   UNL A   1      44.952  31.091  28.405  1.00  0.00     0.074 A 
ATOM     45  C   UNL A   1      43.930  32.027  28.809  1.00  0.00     0.031 C 
ATOM     46  C   UNL A   1      41.644  25.539  28.002  1.00  0.00     0.029 A 
ATOM     47  C   UNL A   1      43.052  25.740  27.670  1.00  0.00     0.049 A 
ATOM     48  H   UNL A   1      44.143  27.510  27.783  1.00  0.00     0.167 HD
ATOM     49  C   UNL A   1      46.253  31.411  28.218  1.00  0.00     0.037 A 
ATOM     50  C   UNL A   1      43.904  24.797  27.229  1.00  0.00     0.037 A 
ATOM     51  C   UNL A   1      47.247  30.456  27.811  1.00  0.00     0.049 A 
ATOM     52  C   UNL A   1      45.338  25.187  26.991  1.00  0.00     0.074 A 
ATOM     53  C   UNL A   1      48.597  30.656  27.593  1.00  0.00     0.029 A 
ATOM     54  N   UNL A   1      46.990  29.115  27.552  1.00  0.00    -0.354 N 
ATOM     55  N   UNL A   1      45.909  26.359  27.150  1.00  0.00    -0.248 NA
ATOM     56  C   UNL A   1      46.245  24.132  26.526  1.00  0.00     0.031 C 
ATOM     57  C   UNL A   1      49.147  29.444  27.159  1.00  0.00     0.029 A 
ATOM     58  C   UNL A   1      48.150  28.478  27.156  1.00  0.00     0.049 A 
ATOM     59  H   UNL A   1      46.109  28.683  27.638  1.00  0.00     0.167 HD
ATOM     60  C   UNL A   1      47.248  26.178  26.825  1.00  0.00     0.074 A 
ATOM     61  C   UNL A   1      47.401  24.779  26.475  1.00  0.00     0.031 C 
ATOM     62  C   UNL A   1      48.262  27.081  26.817  1.00  0.00     0.037 A 
BRANCH  49  63
ATOM     63  C   UNL A   1      46.651  32.845  28.425  1.00  0.00     0.058 A 
ATOM     64  C   UNL A   1      47.096  33.317  29.671  1.00  0.00     0.135 A 
ATOM     65  C   UNL A   1      46.596  33.758  27.361  1.00  0.00     0.135 A 
ATOM     66  F   UNL A   1      47.144  32.493  30.729  1.00  0.00    -0.206 F 
ATOM     67  C   UNL A   1      47.450  34.650  29.858  1.00  0.00     0.059 A 
ATOM     68  C   UNL A   1      46.969  35.090  27.520  1.00  0.00     0.059 A 
ATOM     69  F   UNL A   1      46.166  33.362  26.152  1.00  0.00    -0.206 F 
ATOM     70  C   UNL A   1      47.385  35.528  28.775  1.00  0.00     0.060 A 
BRANCH  70  71
ATOM     71  S   UNL A   1      47.860  37.252  29.030  1.00  0.00     0.124 S 
ATOM     72  O   UNL A   1      47.936  37.321  30.486  1.00  0.00    -0.237 OA
ATOM     73  O   UNL A   1      49.135  37.331  28.326  1.00  0.00    -0.237 OA
ATOM     74  O   UNL A   1      46.764  38.000  28.423  1.00  0.00    -0.744 OA
ENDBRANCH  70  71
ENDBRANCH  49  63
BRANCH  50  75
ATOM     75  C   UNL A   1      43.420  23.411  26.995  1.00  0.00     0.058 A 
ATOM     76  C   UNL A   1      43.155  22.938  25.703  1.00  0.00     0.135 A 
ATOM     77  C   UNL A   1      43.243  22.521  28.066  1.00  0.00     0.135 A 
ATOM     78  F   UNL A   1      43.307  23.750  24.646  1.00  0.00    -0.206 F 
ATOM     79  C   UNL A   1      42.718  21.634  25.480  1.00  0.00     0.059 A 
ATOM     80  C   UNL A   1      42.831  21.207  27.867  1.00  0.00     0.059 A 
ATOM     81  F   UNL A   1      43.502  22.919  29.322  1.00  0.00    -0.206 F 
ATOM     82  C   UNL A   1      42.562  20.776  26.570  1.00  0.00     0.060 A 
BRANCH  82  83
ATOM     83  S   UNL A   1      42.049  19.071  26.266  1.00  0.00     0.124 S 
ATOM     84  O   UNL A   1      42.288  18.456  27.565  1.00  0.00    -0.237 OA
ATOM     85  O   UNL A   1      40.650  19.235  25.883  1.00  0.00    -0.237 OA
ATOM     86  O   UNL A   1      42.937  18.641  25.189  1.00  0.00    -0.744 OA
ENDBRANCH  82  83
ENDBRANCH  50  75
BRANCH  62  87
ATOM     87  C   UNL A   1      49.624  26.574  26.444  1.00  0.00     0.058 A 
ATOM     88  C   UNL A   1      50.120  26.694  25.137  1.00  0.00     0.135 A 
ATOM     89  C   UNL A   1      50.463  26.014  27.420  1.00  0.00     0.135 A 
ATOM     90  F   UNL A   1      49.352  27.217  24.168  1.00  0.00    -0.206 F 
ATOM     91  C   UNL A   1      51.395  26.253  24.804  1.00  0.00     0.059 A 
ATOM     92  C   UNL A   1      51.752  25.593  27.116  1.00  0.00     0.059 A 
ATOM     93  F   UNL A   1      50.038  25.890  28.688  1.00  0.00    -0.206 F 
ATOM     94  C   UNL A   1      52.204  25.705  25.802  1.00  0.00     0.060 A 
BRANCH  94  95
ATOM     95  S   UNL A   1      53.870  25.164  25.366  1.00  0.00     0.124 S 
ATOM     96  O   UNL A   1      54.043  25.781  24.055  1.00  0.00    -0.237 OA
ATOM     97  O   UNL A   1      54.675  25.728  26.445  1.00  0.00    -0.237 OA
ATOM     98  O   UNL A   1      53.764  23.707  25.366  1.00  0.00    -0.744 OA
ENDBRANCH  94  95
ENDBRANCH  62  87
ENDBRANCH  36  37
ENDBRANCH  29  31
ENDBRANCH  28  29
ENDBRANCH  27  28
ENDBRANCH  26  27
ENDBRANCH  25  26
ENDBRANCH  24  25
ENDBRANCH   1  24
TORSDOF 23
ENDMDL
MODEL 2
REMARK VINA RESULT:      -9.8      6.111      8.346
REMARK SMILES COc1cccc(O[C@@H](C)c2nnc(SCC(=O)OCCOCCOC(=O)c3ccc(-c4c5nc(c(-c6c(F)cc(S(=O)(=O)[O-])cc6F)c6ccc([nH]6)c(-c6c(F)cc(S(=O)(=O)[O-])cc6F)c6nc(c(-c7c(F)cc(S(=O)(=O)[O-])cc7F)c7ccc4[nH]7)C=C6)C=C5)cc3)n2C)c1
REMARK SMILES IDX 20 1 19 2 17 3 18 4 16 5 15 6 14 7 11 8 12 9 94 10 13 11
REMARK SMILES IDX 95 12 9 13 10 14 8 15 7 16 3 17 4 18 96 19 5 20 6 21 2 22
REMARK SMILES IDX 1 23 21 24 22 25 23 26 24 27 25 28 26 29 27 30 28 31 29 32
REMARK SMILES IDX 93 33 30 34 92 35 31 36 32 37 33 38 86 39 34 40 91 41 85 42
REMARK SMILES IDX 87 43 35 44 90 45 84 46 83 47 36 49 70 50 49 51 69 52 50 53
REMARK SMILES IDX 53 54 68 55 88 56 51 57 52 58 67 60 89 61 54 62 37 63 38 64
REMARK SMILES IDX 47 65 39 66 40 67 46 68 48 69 41 70 42 71 43 72 44 73 45 74
REMARK SMILES IDX 71 75 72 76 81 77 73 78 74 79 80 80 82 81 75 82 76 83 77 84
REMARK SMILES IDX 78 85 79 86 55 87 56 88 65 89 57 90 58 91 64 92 66 93 59 94
REMARK SMILES IDX 60 95 61 96 62 97 63 98
REMARK H PARENT 87 48 53 59
REMARK Flexibility Score: inf
ROOT
ATOM      1  C   UNL A   1      32.412  29.050  24.361  1.00  0.00     0.261 C 
ENDROOT
BRANCH   1   2
ATOM      2  O   UNL A   1      32.116  29.081  22.943  1.00  0.00    -0.463 OA
BRANCH   2   3
ATOM      3  C   UNL A   1      30.902  28.612  22.549  1.00  0.00     0.316 C 
ATOM      4  O   UNL A   1      30.087  29.265  21.903  1.00  0.00    -0.251 OA
BRANCH   3   5
ATOM      5  C   UNL A   1      30.610  27.179  22.969  1.00  0.00     0.200 C 
BRANCH   5   6
ATOM      6  S   UNL A   1      31.714  25.945  22.267  1.00  0.00    -0.074 SA
BRANCH   6   7
ATOM      7  C   UNL A   1      32.700  25.241  23.512  1.00  0.00     0.191 A 
ATOM      8  C   UNL A   1      33.418  23.696  24.918  1.00  0.00     0.174 A 
ATOM      9  N   UNL A   1      34.451  24.187  24.253  1.00  0.00    -0.130 NA
ATOM     10  N   UNL A   1      32.315  24.468  24.586  1.00  0.00    -0.306 N 
ATOM     11  N   UNL A   1      34.001  25.136  23.374  1.00  0.00    -0.123 NA
ATOM     12  C   UNL A   1      31.040  24.484  25.231  1.00  0.00     0.154 C 
BRANCH   8  13
ATOM     13  C   UNL A   1      33.506  22.423  25.731  1.00  0.00     0.238 C 
ATOM     14  C   UNL A   1      33.609  22.461  27.246  1.00  0.00     0.062 C 
BRANCH  13  15
ATOM     15  O   UNL A   1      34.403  21.445  25.187  1.00  0.00    -0.483 OA
BRANCH  15  16
ATOM     16  C   UNL A   1      33.983  20.268  24.654  1.00  0.00     0.124 A 
ATOM     17  C   UNL A   1      34.056  17.900  24.147  1.00  0.00     0.122 A 
ATOM     18  C   UNL A   1      32.888  18.043  23.395  1.00  0.00     0.046 A 
ATOM     19  C   UNL A   1      34.586  19.016  24.801  1.00  0.00     0.092 A 
ATOM     20  C   UNL A   1      32.237  19.271  23.313  1.00  0.00     0.008 A 
ATOM     21  C   UNL A   1      32.786  20.379  23.947  1.00  0.00     0.047 A 
BRANCH  17  22
ATOM     22  O   UNL A   1      34.536  16.622  24.174  1.00  0.00    -0.497 OA
ATOM     23  C   UNL A   1      34.096  15.734  25.188  1.00  0.00     0.278 C 
ENDBRANCH  17  22
ENDBRANCH  15  16
ENDBRANCH  13  15
ENDBRANCH   8  13
ENDBRANCH   6   7
ENDBRANCH   5   6
ENDBRANCH   3   5
ENDBRANCH   2   3
ENDBRANCH   1   2
BRANCH   1  24
ATOM     24  C   UNL A   1      31.506  30.016  25.140  1.00  0.00     0.202 C 
BRANCH  24  25
ATOM     25  O   UNL A   1      32.126  30.744  26.210  1.00  0.00    -0.374 OA
BRANCH  25  26
ATOM     26  C   UNL A   1      31.372  31.799  26.783  1.00  0.00     0.202 C 
BRANCH  26  27
ATOM     27  C   UNL A   1      32.098  33.124  27.013  1.00  0.00     0.261 C 
BRANCH  27  28
ATOM     28  O   UNL A   1      33.277  33.005  27.784  1.00  0.00    -0.460 OA
BRANCH  28  29
ATOM     29  C   UNL A   1      33.489  34.063  28.591  1.00  0.00     0.338 C 
ATOM     30  O   UNL A   1      32.801  35.067  28.723  1.00  0.00    -0.246 OA
BRANCH  29  31
ATOM     31  C   UNL A   1      34.594  33.713  29.468  1.00  0.00     0.060 A 
ATOM     32  C   UNL A   1      35.857  34.182  29.101  1.00  0.00     0.016 A 
ATOM     33  C   UNL A   1      34.386  32.949  30.619  1.00  0.00     0.016 A 
ATOM     34  C   UNL A   1      36.950  33.831  29.869  1.00  0.00     0.010 A 
ATOM     35  C   UNL A   1      35.488  32.596  31.388  1.00  0.00     0.010 A 
ATOM     36  C   UNL A   1      36.770  33.004  30.986  1.00  0.00    -0.014 A 
BRANCH  36  37
ATOM     37  C   UNL A   1      37.970  32.422  31.610  1.00  0.00     0.031 A 
ATOM     38  C   UNL A   1      38.412  32.976  32.932  1.00  0.00     0.074 A 
ATOM     39  C   UNL A   1      38.573  31.370  31.035  1.00  0.00     0.049 A 
ATOM     40  N   UNL A   1      39.378  32.574  33.711  1.00  0.00    -0.248 NA
ATOM     41  C   UNL A   1      37.663  34.135  33.448  1.00  0.00     0.031 C 
ATOM     42  C   UNL A   1      38.177  30.764  29.764  1.00  0.00     0.029 A 
ATOM     43  N   UNL A   1      39.636  30.620  31.454  1.00  0.00    -0.354 N 
ATOM     44  C   UNL A   1      39.350  33.426  34.808  1.00  0.00     0.074 A 
ATOM     45  C   UNL A   1      38.300  34.390  34.580  1.00  0.00     0.031 C 
ATOM     46  C   UNL A   1      38.991  29.726  29.506  1.00  0.00     0.029 A 
ATOM     47  C   UNL A   1      39.969  29.611  30.584  1.00  0.00     0.049 A 
ATOM     48  H   UNL A   1      40.116  30.785  32.296  1.00  0.00     0.167 HD
ATOM     49  C   UNL A   1      40.130  33.390  35.913  1.00  0.00     0.037 A 
ATOM     50  C   UNL A   1      40.963  28.706  30.659  1.00  0.00     0.037 A 
ATOM     51  C   UNL A   1      41.172  32.419  36.109  1.00  0.00     0.049 A 
ATOM     52  C   UNL A   1      41.841  28.712  31.880  1.00  0.00     0.074 A 
ATOM     53  C   UNL A   1      42.026  32.275  37.186  1.00  0.00     0.029 A 
ATOM     54  N   UNL A   1      41.504  31.427  35.195  1.00  0.00    -0.354 N 
ATOM     55  N   UNL A   1      41.789  29.501  32.928  1.00  0.00    -0.248 NA
ATOM     56  C   UNL A   1      42.904  27.701  31.939  1.00  0.00     0.031 C 
ATOM     57  C   UNL A   1      42.904  31.224  36.902  1.00  0.00     0.029 A 
ATOM     58  C   UNL A   1      42.564  30.679  35.672  1.00  0.00     0.049 A 
ATOM     59  H   UNL A   1      41.050  31.279  34.333  1.00  0.00     0.167 HD
ATOM     60  C   UNL A   1      42.798  29.071  33.781  1.00  0.00     0.074 A 
ATOM     61  C   UNL A   1      43.433  27.941  33.131  1.00  0.00     0.031 C 
ATOM     62  C   UNL A   1      43.168  29.559  34.993  1.00  0.00     0.037 A 
BRANCH  49  63
ATOM     63  C   UNL A   1      39.897  34.441  36.961  1.00  0.00     0.058 A 
ATOM     64  C   UNL A   1      39.015  34.235  38.034  1.00  0.00     0.135 A 
ATOM     65  C   UNL A   1      40.573  35.670  36.897  1.00  0.00     0.135 A 
ATOM     66  F   UNL A   1      38.322  33.089  38.130  1.00  0.00    -0.206 F 
ATOM     67  C   UNL A   1      38.794  35.219  38.993  1.00  0.00     0.059 A 
ATOM     68  C   UNL A   1      40.386  36.658  37.859  1.00  0.00     0.059 A 
ATOM     69  F   UNL A   1      41.419  35.923  35.886  1.00  0.00    -0.206 F 
ATOM     70  C   UNL A   1      39.486  36.427  38.897  1.00  0.00     0.060 A 
BRANCH  70  71
ATOM     71  S   UNL A   1      39.199  37.689  40.157  1.00  0.00     0.124 S 
ATOM     72  O   UNL A   1      40.505  38.337  40.223  1.00  0.00    -0.237 OA
ATOM     73  O   UNL A   1      38.128  38.482  39.565  1.00  0.00    -0.237 OA
ATOM     74  O   UNL A   1      38.823  36.913  41.334  1.00  0.00    -0.744 OA
ENDBRANCH  70  71
ENDBRANCH  49  63
BRANCH  50  75
ATOM     75  C   UNL A   1      41.163  27.732  29.553  1.00  0.00     0.058 A 
ATOM     76  C   UNL A   1      42.246  27.842  28.670  1.00  0.00     0.135 A 
ATOM     77  C   UNL A   1      40.286  26.650  29.380  1.00  0.00     0.135 A 
ATOM     78  F   UNL A   1      43.112  28.859  28.793  1.00  0.00    -0.206 F 
ATOM     79  C   UNL A   1      42.446  26.921  27.645  1.00  0.00     0.059 A 
ATOM     80  C   UNL A   1      40.478  25.704  28.379  1.00  0.00     0.059 A 
ATOM     81  F   UNL A   1      39.244  26.489  30.211  1.00  0.00    -0.206 F 
ATOM     82  C   UNL A   1      41.557  25.853  27.509  1.00  0.00     0.060 A 
BRANCH  82  83
ATOM     83  S   UNL A   1      41.856  24.633  26.212  1.00  0.00     0.124 S 
ATOM     84  O   UNL A   1      41.970  25.482  25.032  1.00  0.00    -0.237 OA
ATOM     85  O   UNL A   1      43.089  23.998  26.666  1.00  0.00    -0.237 OA
ATOM     86  O   UNL A   1      40.668  23.786  26.269  1.00  0.00    -0.744 OA
ENDBRANCH  82  83
ENDBRANCH  50  75
BRANCH  62  87
ATOM     87  C   UNL A   1      44.291  28.856  35.697  1.00  0.00     0.058 A 
ATOM     88  C   UNL A   1      45.630  29.220  35.491  1.00  0.00     0.135 A 
ATOM     89  C   UNL A   1      44.017  27.847  36.634  1.00  0.00     0.135 A 
ATOM     90  F   UNL A   1      45.941  30.176  34.602  1.00  0.00    -0.206 F 
ATOM     91  C   UNL A   1      46.664  28.588  36.172  1.00  0.00     0.059 A 
ATOM     92  C   UNL A   1      45.032  27.221  37.346  1.00  0.00     0.059 A 
ATOM     93  F   UNL A   1      42.750  27.473  36.876  1.00  0.00    -0.206 F 
ATOM     94  C   UNL A   1      46.354  27.590  37.099  1.00  0.00     0.060 A 
BRANCH  94  95
ATOM     95  S   UNL A   1      47.703  26.798  38.000  1.00  0.00     0.124 S 
ATOM     96  O   UNL A   1      48.870  27.364  37.334  1.00  0.00    -0.237 OA
ATOM     97  O   UNL A   1      47.471  27.248  39.369  1.00  0.00    -0.237 OA
ATOM     98  O   UNL A   1      47.475  25.374  37.768  1.00  0.00    -0.744 OA
ENDBRANCH  94  95
ENDBRANCH  62  87
ENDBRANCH  36  37
ENDBRANCH  29  31
ENDBRANCH  28  29
ENDBRANCH  27  28
ENDBRANCH  26  27
ENDBRANCH  25  26
ENDBRANCH  24  25
ENDBRANCH   1  24
TORSDOF 23
ENDMDL
MODEL 3
REMARK VINA RESULT:      -9.7      6.269     11.825
REMARK SMILES COc1cccc(O[C@@H](C)c2nnc(SCC(=O)OCCOCCOC(=O)c3ccc(-c4c5nc(c(-c6c(F)cc(S(=O)(=O)[O-])cc6F)c6ccc([nH]6)c(-c6c(F)cc(S(=O)(=O)[O-])cc6F)c6nc(c(-c7c(F)cc(S(=O)(=O)[O-])cc7F)c7ccc4[nH]7)C=C6)C=C5)cc3)n2C)c1
REMARK SMILES IDX 20 1 19 2 17 3 18 4 16 5 15 6 14 7 11 8 12 9 94 10 13 11
REMARK SMILES IDX 95 12 9 13 10 14 8 15 7 16 3 17 4 18 96 19 5 20 6 21 2 22
REMARK SMILES IDX 1 23 21 24 22 25 23 26 24 27 25 28 26 29 27 30 28 31 29 32
REMARK SMILES IDX 93 33 30 34 92 35 31 36 32 37 33 38 86 39 34 40 91 41 85 42
REMARK SMILES IDX 87 43 35 44 90 45 84 46 83 47 36 49 70 50 49 51 69 52 50 53
REMARK SMILES IDX 53 54 68 55 88 56 51 57 52 58 67 60 89 61 54 62 37 63 38 64
REMARK SMILES IDX 47 65 39 66 40 67 46 68 48 69 41 70 42 71 43 72 44 73 45 74
REMARK SMILES IDX 71 75 72 76 81 77 73 78 74 79 80 80 82 81 75 82 76 83 77 84
REMARK SMILES IDX 78 85 79 86 55 87 56 88 65 89 57 90 58 91 64 92 66 93 59 94
REMARK SMILES IDX 60 95 61 96 62 97 63 98
REMARK H PARENT 87 48 53 59
REMARK Flexibility Score: inf
ROOT
ATOM      1  C   UNL A   1      37.135  23.662  26.006  1.00  0.00     0.261 C 
ENDROOT
BRANCH   1   2
ATOM      2  O   UNL A   1      35.891  23.174  25.448  1.00  0.00    -0.463 OA
BRANCH   2   3
ATOM      3  C   UNL A   1      35.196  22.262  26.178  1.00  0.00     0.316 C 
ATOM      4  O   UNL A   1      34.704  22.491  27.281  1.00  0.00    -0.251 OA
BRANCH   3   5
ATOM      5  C   UNL A   1      35.056  20.897  25.520  1.00  0.00     0.200 C 
BRANCH   5   6
ATOM      6  S   UNL A   1      33.374  20.265  25.437  1.00  0.00    -0.074 SA
BRANCH   6   7
ATOM      7  C   UNL A   1      32.356  21.375  24.571  1.00  0.00     0.191 A 
ATOM      8  C   UNL A   1      31.534  23.326  23.944  1.00  0.00     0.174 A 
ATOM      9  N   UNL A   1      31.828  22.617  22.867  1.00  0.00    -0.130 NA
ATOM     10  N   UNL A   1      31.702  22.493  25.039  1.00  0.00    -0.306 N 
ATOM     11  N   UNL A   1      32.349  21.412  23.259  1.00  0.00    -0.123 NA
ATOM     12  C   UNL A   1      31.271  22.727  26.382  1.00  0.00     0.154 C 
BRANCH   8  13
ATOM     13  C   UNL A   1      31.241  24.810  23.884  1.00  0.00     0.238 C 
ATOM     14  C   UNL A   1      29.815  25.332  23.889  1.00  0.00     0.062 C 
BRANCH  13  15
ATOM     15  O   UNL A   1      32.039  25.523  22.929  1.00  0.00    -0.483 OA
BRANCH  15  16
ATOM     16  C   UNL A   1      32.697  26.674  23.225  1.00  0.00     0.124 A 
ATOM     17  C   UNL A   1      33.392  28.558  24.580  1.00  0.00     0.122 A 
ATOM     18  C   UNL A   1      34.126  29.045  23.497  1.00  0.00     0.046 A 
ATOM     19  C   UNL A   1      32.698  27.352  24.446  1.00  0.00     0.092 A 
ATOM     20  C   UNL A   1      34.195  28.332  22.303  1.00  0.00     0.008 A 
ATOM     21  C   UNL A   1      33.483  27.146  22.173  1.00  0.00     0.047 A 
BRANCH  17  22
ATOM     22  O   UNL A   1      33.474  29.344  25.694  1.00  0.00    -0.497 OA
ATOM     23  C   UNL A   1      34.441  29.045  26.688  1.00  0.00     0.278 C 
ENDBRANCH  17  22
ENDBRANCH  15  16
ENDBRANCH  13  15
ENDBRANCH   8  13
ENDBRANCH   6   7
ENDBRANCH   5   6
ENDBRANCH   3   5
ENDBRANCH   2   3
ENDBRANCH   1   2
BRANCH   1  24
ATOM     24  C   UNL A   1      38.260  22.627  25.848  1.00  0.00     0.202 C 
BRANCH  24  25
ATOM     25  O   UNL A   1      39.385  22.771  26.727  1.00  0.00    -0.374 OA
BRANCH  25  26
ATOM     26  C   UNL A   1      40.602  22.176  26.308  1.00  0.00     0.202 C 
BRANCH  26  27
ATOM     27  C   UNL A   1      41.672  23.111  25.744  1.00  0.00     0.261 C 
BRANCH  27  28
ATOM     28  O   UNL A   1      42.137  24.073  26.668  1.00  0.00    -0.460 OA
BRANCH  28  29
ATOM     29  C   UNL A   1      41.787  25.333  26.339  1.00  0.00     0.338 C 
ATOM     30  O   UNL A   1      41.383  25.751  25.262  1.00  0.00    -0.246 OA
BRANCH  29  31
ATOM     31  C   UNL A   1      41.760  26.101  27.573  1.00  0.00     0.060 A 
ATOM     32  C   UNL A   1      40.792  25.742  28.512  1.00  0.00     0.016 A 
ATOM     33  C   UNL A   1      42.666  27.140  27.794  1.00  0.00     0.016 A 
ATOM     34  C   UNL A   1      40.686  26.476  29.678  1.00  0.00     0.010 A 
ATOM     35  C   UNL A   1      42.556  27.878  28.966  1.00  0.00     0.010 A 
ATOM     36  C   UNL A   1      41.538  27.569  29.884  1.00  0.00    -0.014 A 
BRANCH  36  37
ATOM     37  C   UNL A   1      41.219  28.491  30.986  1.00  0.00     0.031 A 
ATOM     38  C   UNL A   1      42.074  28.437  32.217  1.00  0.00     0.074 A 
ATOM     39  C   UNL A   1      40.247  29.403  30.827  1.00  0.00     0.049 A 
ATOM     40  N   UNL A   1      42.044  29.200  33.274  1.00  0.00    -0.248 NA
ATOM     41  C   UNL A   1      43.104  27.383  32.262  1.00  0.00     0.031 C 
ATOM     42  C   UNL A   1      39.396  29.530  29.643  1.00  0.00     0.029 A 
ATOM     43  N   UNL A   1      39.823  30.401  31.659  1.00  0.00    -0.354 N 
ATOM     44  C   UNL A   1      43.049  28.724  34.106  1.00  0.00     0.074 A 
ATOM     45  C   UNL A   1      43.647  27.584  33.452  1.00  0.00     0.031 C 
ATOM     46  C   UNL A   1      38.549  30.556  29.826  1.00  0.00     0.029 A 
ATOM     47  C   UNL A   1      38.788  31.141  31.142  1.00  0.00     0.049 A 
ATOM     48  H   UNL A   1      40.221  30.574  32.542  1.00  0.00     0.167 HD
ATOM     49  C   UNL A   1      43.442  29.212  35.305  1.00  0.00     0.037 A 
ATOM     50  C   UNL A   1      38.114  32.171  31.686  1.00  0.00     0.037 A 
ATOM     51  C   UNL A   1      42.823  30.347  35.933  1.00  0.00     0.049 A 
ATOM     52  C   UNL A   1      38.545  32.670  33.039  1.00  0.00     0.074 A 
ATOM     53  C   UNL A   1      43.133  30.939  37.143  1.00  0.00     0.029 A 
ATOM     54  N   UNL A   1      41.757  31.058  35.396  1.00  0.00    -0.354 N 
ATOM     55  N   UNL A   1      39.517  32.233  33.806  1.00  0.00    -0.248 NA
ATOM     56  C   UNL A   1      37.800  33.804  33.596  1.00  0.00     0.031 C 
ATOM     57  C   UNL A   1      42.224  31.981  37.357  1.00  0.00     0.029 A 
ATOM     58  C   UNL A   1      41.381  32.071  36.258  1.00  0.00     0.049 A 
ATOM     59  H   UNL A   1      41.331  30.867  34.529  1.00  0.00     0.167 HD
ATOM     60  C   UNL A   1      39.515  33.052  34.928  1.00  0.00     0.074 A 
ATOM     61  C   UNL A   1      38.452  34.020  34.730  1.00  0.00     0.031 C 
ATOM     62  C   UNL A   1      40.317  33.015  36.023  1.00  0.00     0.037 A 
BRANCH  49  63
ATOM     63  C   UNL A   1      44.562  28.501  36.010  1.00  0.00     0.058 A 
ATOM     64  C   UNL A   1      44.323  27.445  36.905  1.00  0.00     0.135 A 
ATOM     65  C   UNL A   1      45.896  28.876  35.782  1.00  0.00     0.135 A 
ATOM     66  F   UNL A   1      43.066  27.064  37.180  1.00  0.00    -0.206 F 
ATOM     67  C   UNL A   1      45.366  26.802  37.565  1.00  0.00     0.059 A 
ATOM     68  C   UNL A   1      46.955  28.229  36.412  1.00  0.00     0.059 A 
ATOM     69  F   UNL A   1      46.180  29.886  34.945  1.00  0.00    -0.206 F 
ATOM     70  C   UNL A   1      46.679  27.200  37.310  1.00  0.00     0.060 A 
BRANCH  70  71
ATOM     71  S   UNL A   1      48.022  26.346  38.163  1.00  0.00     0.124 S 
ATOM     72  O   UNL A   1      47.284  25.412  39.008  1.00  0.00    -0.237 OA
ATOM     73  O   UNL A   1      48.764  25.750  37.058  1.00  0.00    -0.237 OA
ATOM     74  O   UNL A   1      48.711  27.420  38.871  1.00  0.00    -0.744 OA
ENDBRANCH  70  71
ENDBRANCH  49  63
BRANCH  50  75
ATOM     75  C   UNL A   1      36.980  32.786  30.948  1.00  0.00     0.058 A 
ATOM     76  C   UNL A   1      35.650  32.455  31.243  1.00  0.00     0.135 A 
ATOM     77  C   UNL A   1      37.207  33.746  29.950  1.00  0.00     0.135 A 
ATOM     78  F   UNL A   1      35.380  31.542  32.189  1.00  0.00    -0.206 F 
ATOM     79  C   UNL A   1      34.585  33.043  30.566  1.00  0.00     0.059 A 
ATOM     80  C   UNL A   1      36.160  34.365  29.275  1.00  0.00     0.059 A 
ATOM     81  F   UNL A   1      38.462  34.112  29.642  1.00  0.00    -0.206 F 
ATOM     82  C   UNL A   1      34.851  34.000  29.584  1.00  0.00     0.060 A 
BRANCH  82  83
ATOM     83  S   UNL A   1      33.462  34.798  28.750  1.00  0.00     0.124 S 
ATOM     84  O   UNL A   1      32.544  35.022  29.859  1.00  0.00    -0.237 OA
ATOM     85  O   UNL A   1      34.088  35.990  28.184  1.00  0.00    -0.237 OA
ATOM     86  O   UNL A   1      33.041  33.799  27.772  1.00  0.00    -0.744 OA
ENDBRANCH  82  83
ENDBRANCH  50  75
BRANCH  62  87
ATOM     87  C   UNL A   1      40.088  34.064  37.071  1.00  0.00     0.058 A 
ATOM     88  C   UNL A   1      40.673  35.336  36.978  1.00  0.00     0.135 A 
ATOM     89  C   UNL A   1      39.226  33.811  38.150  1.00  0.00     0.135 A 
ATOM     90  F   UNL A   1      41.509  35.623  35.967  1.00  0.00    -0.206 F 
ATOM     91  C   UNL A   1      40.431  36.315  37.934  1.00  0.00     0.059 A 
ATOM     92  C   UNL A   1      38.947  34.785  39.102  1.00  0.00     0.059 A 
ATOM     93  F   UNL A   1      38.632  32.613  38.276  1.00  0.00    -0.206 F 
ATOM     94  C   UNL A   1      39.565  36.030  38.991  1.00  0.00     0.060 A 
BRANCH  94  95
ATOM     95  S   UNL A   1      39.233  37.320  40.210  1.00  0.00     0.124 S 
ATOM     96  O   UNL A   1      40.584  37.724  40.582  1.00  0.00    -0.237 OA
ATOM     97  O   UNL A   1      38.469  38.293  39.435  1.00  0.00    -0.237 OA
ATOM     98  O   UNL A   1      38.478  36.621  41.247  1.00  0.00    -0.744 OA
ENDBRANCH  94  95
ENDBRANCH  62  87
ENDBRANCH  36  37
ENDBRANCH  29  31
ENDBRANCH  28  29
ENDBRANCH  27  28
ENDBRANCH  26  27
ENDBRANCH  25  26
ENDBRANCH  24  25
ENDBRANCH   1  24
TORSDOF 23
ENDMDL
