MODEL 1
REMARK VINA RESULT:     -11.1      0.000      0.000
REMARK SMILES CC[N@@H+](C)Cc1cc2c(cc1Cl)C=C(C(=O)OCCOCCOC(=O)c1ccc(-c3c4nc(c(-c5c(F)cc(S(=O)(=O)[O-])cc5F)c5ccc([nH]5)c(-c5c(F)cc(S(=O)(=O)[O-])cc5F)c5nc(c(-c6c(F)cc(S(=O)(=O)[O-])cc6F)c6ccc3[nH]6)C=C5)C=C4)cc1)[C@@H](C(F)(F)F)O2
REMARK SMILES IDX 20 1 19 2 18 3 17 4 15 5 16 6 14 7 6 8 7 9 11 10 8 11 10 12
REMARK SMILES IDX 12 13 9 14 97 15 13 16 92 17 5 18 3 19 4 20 2 22 1 23 93 24
REMARK SMILES IDX 94 25 95 26 96 27 21 28 22 29 23 30 24 31 25 32 26 33 27 34
REMARK SMILES IDX 91 35 28 36 90 37 29 38 30 39 31 40 84 41 32 42 89 43 83 44
REMARK SMILES IDX 85 45 33 46 88 47 82 48 81 49 34 51 68 52 47 53 67 54 48 55
REMARK SMILES IDX 51 56 66 57 86 58 49 59 50 60 65 62 87 63 52 64 35 65 36 66
REMARK SMILES IDX 45 67 37 68 38 69 44 70 46 71 39 72 40 73 41 74 42 75 43 76
REMARK SMILES IDX 69 77 70 78 79 79 71 80 72 81 78 82 80 83 73 84 74 85 75 86
REMARK SMILES IDX 76 87 77 88 53 89 54 90 63 91 55 92 56 93 62 94 64 95 57 96
REMARK SMILES IDX 58 97 59 98 60 99 61 100
REMARK H PARENT 3 21 85 50 51 61
REMARK Flexibility Score: inf
ROOT
ATOM      1  O   UNL A   1      39.313  21.229  26.014  1.00  0.00    -0.374 OA
ENDROOT
BRANCH   1   2
ATOM      2  C   UNL A   1      38.082  21.838  25.631  1.00  0.00     0.202 C 
BRANCH   2   3
ATOM      3  C   UNL A   1      37.004  20.950  25.003  1.00  0.00     0.261 C 
BRANCH   3   4
ATOM      4  O   UNL A   1      36.010  21.721  24.315  1.00  0.00    -0.460 OA
BRANCH   4   5
ATOM      5  C   UNL A   1      34.738  21.323  24.546  1.00  0.00     0.338 C 
ATOM      6  O   UNL A   1      34.346  20.184  24.745  1.00  0.00    -0.246 OA
BRANCH   5   7
ATOM      7  C   UNL A   1      33.874  22.509  24.682  1.00  0.00     0.087 C 
ATOM      8  C   UNL A   1      32.279  27.225  24.738  1.00  0.00     0.029 A 
ATOM      9  C   UNL A   1      31.790  26.022  25.281  1.00  0.00     0.058 A 
ATOM     10  C   UNL A   1      33.235  27.143  23.712  1.00  0.00     0.050 A 
ATOM     11  C   UNL A   1      32.382  24.803  24.970  1.00  0.00     0.128 A 
ATOM     12  C   UNL A   1      33.781  25.908  23.350  1.00  0.00     0.033 A 
ATOM     13  Cl  UNL A   1      33.826  28.532  22.871  1.00  0.00    -0.084 Cl
ATOM     14  C   UNL A   1      33.404  24.750  24.029  1.00  0.00     0.019 A 
ATOM     15  O   UNL A   1      31.923  23.712  25.651  1.00  0.00    -0.475 OA
ATOM     16  C   UNL A   1      34.126  23.511  23.828  1.00  0.00     0.027 C 
ATOM     17  C   UNL A   1      32.796  22.550  25.732  1.00  0.00     0.316 C 
BRANCH   8  18
ATOM     18  C   UNL A   1      31.826  28.542  25.342  1.00  0.00     0.300 C 
BRANCH  18  19
ATOM     19  N   UNL A   1      32.342  28.853  26.694  1.00  0.00    -0.334 N 
ATOM     20  C   UNL A   1      31.528  28.247  27.752  1.00  0.00     0.333 C 
ATOM     21  H   UNL A   1      33.269  28.426  26.676  1.00  0.00     0.348 HD
BRANCH  19  22
ATOM     22  C   UNL A   1      32.590  30.270  26.995  1.00  0.00     0.258 C 
ATOM     23  C   UNL A   1      34.048  30.610  27.285  1.00  0.00     0.071 C 
ENDBRANCH  19  22
ENDBRANCH  18  19
ENDBRANCH   8  18
BRANCH  17  24
ATOM     24  C   UNL A   1      33.366  22.432  27.153  1.00  0.00     0.430 C 
ATOM     25  F   UNL A   1      34.548  23.082  27.265  1.00  0.00    -0.167 F 
ATOM     26  F   UNL A   1      32.530  22.972  28.069  1.00  0.00    -0.167 F 
ATOM     27  F   UNL A   1      33.577  21.143  27.505  1.00  0.00    -0.167 F 
ENDBRANCH  17  24
ENDBRANCH   5   7
ENDBRANCH   4   5
ENDBRANCH   3   4
ENDBRANCH   2   3
ENDBRANCH   1   2
BRANCH   1  28
ATOM     28  C   UNL A   1      40.145  21.900  26.960  1.00  0.00     0.202 C 
BRANCH  28  29
ATOM     29  C   UNL A   1      40.921  23.147  26.516  1.00  0.00     0.261 C 
BRANCH  29  30
ATOM     30  O   UNL A   1      40.104  24.326  26.466  1.00  0.00    -0.460 OA
BRANCH  30  31
ATOM     31  C   UNL A   1      40.796  25.484  26.308  1.00  0.00     0.338 C 
ATOM     32  O   UNL A   1      41.169  25.979  25.256  1.00  0.00    -0.246 OA
BRANCH  31  33
ATOM     33  C   UNL A   1      40.862  26.197  27.596  1.00  0.00     0.060 A 
ATOM     34  C   UNL A   1      41.916  27.059  27.898  1.00  0.00     0.016 A 
ATOM     35  C   UNL A   1      39.800  26.024  28.496  1.00  0.00     0.016 A 
ATOM     36  C   UNL A   1      41.880  27.785  29.092  1.00  0.00     0.010 A 
ATOM     37  C   UNL A   1      39.767  26.749  29.686  1.00  0.00     0.010 A 
ATOM     38  C   UNL A   1      40.793  27.657  29.979  1.00  0.00    -0.014 A 
BRANCH  38  39
ATOM     39  C   UNL A   1      40.648  28.595  31.120  1.00  0.00     0.031 A 
ATOM     40  C   UNL A   1      41.512  28.494  32.341  1.00  0.00     0.074 A 
ATOM     41  C   UNL A   1      39.690  29.540  31.044  1.00  0.00     0.049 A 
ATOM     42  N   UNL A   1      41.558  29.290  33.378  1.00  0.00    -0.248 NA
ATOM     43  C   UNL A   1      42.433  27.350  32.418  1.00  0.00     0.031 C 
ATOM     44  C   UNL A   1      38.754  29.691  29.928  1.00  0.00     0.029 A 
ATOM     45  N   UNL A   1      39.348  30.551  31.905  1.00  0.00    -0.354 N 
ATOM     46  C   UNL A   1      42.530  28.767  34.220  1.00  0.00     0.074 A 
ATOM     47  C   UNL A   1      43.007  27.548  33.598  1.00  0.00     0.031 C 
ATOM     48  C   UNL A   1      37.976  30.761  30.150  1.00  0.00     0.029 A 
ATOM     49  C   UNL A   1      38.333  31.352  31.436  1.00  0.00     0.049 A 
ATOM     50  H   UNL A   1      39.788  30.690  32.775  1.00  0.00     0.167 HD
ATOM     51  C   UNL A   1      42.994  29.273  35.388  1.00  0.00     0.037 A 
ATOM     52  C   UNL A   1      37.760  32.445  31.974  1.00  0.00     0.037 A 
ATOM     53  C   UNL A   1      42.491  30.476  36.004  1.00  0.00     0.049 A 
ATOM     54  C   UNL A   1      38.266  32.964  33.291  1.00  0.00     0.074 A 
ATOM     55  C   UNL A   1      42.920  31.086  37.171  1.00  0.00     0.029 A 
ATOM     56  N   UNL A   1      41.443  31.245  35.517  1.00  0.00    -0.354 N 
ATOM     57  N   UNL A   1      39.243  32.504  34.035  1.00  0.00    -0.248 NA
ATOM     58  C   UNL A   1      37.598  34.152  33.842  1.00  0.00     0.031 C 
ATOM     59  C   UNL A   1      42.096  32.188  37.419  1.00  0.00     0.029 A 
ATOM     60  C   UNL A   1      41.194  32.306  36.373  1.00  0.00     0.049 A 
ATOM     61  H   UNL A   1      40.949  31.063  34.684  1.00  0.00     0.167 HD
ATOM     62  C   UNL A   1      39.328  33.362  35.126  1.00  0.00     0.074 A 
ATOM     63  C   UNL A   1      38.305  34.371  34.943  1.00  0.00     0.031 C 
ATOM     64  C   UNL A   1      40.180  33.314  36.179  1.00  0.00     0.037 A 
BRANCH  51  65
ATOM     65  C   UNL A   1      44.114  28.542  36.078  1.00  0.00     0.058 A 
ATOM     66  C   UNL A   1      43.861  27.447  36.921  1.00  0.00     0.135 A 
ATOM     67  C   UNL A   1      45.455  28.882  35.836  1.00  0.00     0.135 A 
ATOM     68  F   UNL A   1      42.598  27.081  37.193  1.00  0.00    -0.206 F 
ATOM     69  C   UNL A   1      44.894  26.731  37.515  1.00  0.00     0.059 A 
ATOM     70  C   UNL A   1      46.506  28.162  36.399  1.00  0.00     0.059 A 
ATOM     71  F   UNL A   1      45.757  29.917  35.036  1.00  0.00    -0.206 F 
ATOM     72  C   UNL A   1      46.214  27.094  37.245  1.00  0.00     0.060 A 
BRANCH  72  73
ATOM     73  S   UNL A   1      47.538  26.146  38.023  1.00  0.00     0.124 S 
ATOM     74  O   UNL A   1      46.902  25.721  39.266  1.00  0.00    -0.237 OA
ATOM     75  O   UNL A   1      47.781  25.091  37.043  1.00  0.00    -0.237 OA
ATOM     76  O   UNL A   1      48.614  27.119  38.172  1.00  0.00    -0.744 OA
ENDBRANCH  72  73
ENDBRANCH  51  65
BRANCH  52  77
ATOM     77  C   UNL A   1      36.679  33.146  31.232  1.00  0.00     0.058 A 
ATOM     78  C   UNL A   1      36.968  33.916  30.097  1.00  0.00     0.135 A 
ATOM     79  C   UNL A   1      35.332  33.016  31.610  1.00  0.00     0.135 A 
ATOM     80  F   UNL A   1      38.240  34.072  29.699  1.00  0.00    -0.206 F 
ATOM     81  C   UNL A   1      35.964  34.539  29.365  1.00  0.00     0.059 A 
ATOM     82  C   UNL A   1      34.308  33.607  30.876  1.00  0.00     0.059 A 
ATOM     83  F   UNL A   1      35.001  32.274  32.677  1.00  0.00    -0.206 F 
ATOM     84  C   UNL A   1      34.635  34.371  29.758  1.00  0.00     0.060 A 
BRANCH  84  85
ATOM     85  S   UNL A   1      33.339  35.135  28.760  1.00  0.00     0.124 S 
ATOM     86  O   UNL A   1      32.813  33.987  28.031  1.00  0.00    -0.237 OA
ATOM     87  O   UNL A   1      32.462  35.698  29.783  1.00  0.00    -0.237 OA
ATOM     88  O   UNL A   1      34.064  36.115  27.957  1.00  0.00    -0.744 OA
ENDBRANCH  84  85
ENDBRANCH  52  77
BRANCH  64  89
ATOM     89  C   UNL A   1      40.076  34.397  37.220  1.00  0.00     0.058 A 
ATOM     90  C   UNL A   1      40.795  35.595  37.112  1.00  0.00     0.135 A 
ATOM     91  C   UNL A   1      39.160  34.275  38.279  1.00  0.00     0.135 A 
ATOM     92  F   UNL A   1      41.692  35.760  36.125  1.00  0.00    -0.206 F 
ATOM     93  C   UNL A   1      40.610  36.638  38.014  1.00  0.00     0.059 A 
ATOM     94  C   UNL A   1      38.938  35.314  39.177  1.00  0.00     0.059 A 
ATOM     95  F   UNL A   1      38.441  33.150  38.425  1.00  0.00    -0.206 F 
ATOM     96  C   UNL A   1      39.668  36.494  39.035  1.00  0.00     0.060 A 
BRANCH  96  97
ATOM     97  S   UNL A   1      39.382  37.887  40.147  1.00  0.00     0.124 S 
ATOM     98  O   UNL A   1      40.597  38.672  39.956  1.00  0.00    -0.237 OA
ATOM     99  O   UNL A   1      38.158  38.469  39.603  1.00  0.00    -0.237 OA
ATOM    100  O   UNL A   1      39.242  37.258  41.456  1.00  0.00    -0.744 OA
ENDBRANCH  96  97
ENDBRANCH  64  89
ENDBRANCH  38  39
ENDBRANCH  31  33
ENDBRANCH  30  31
ENDBRANCH  29  30
ENDBRANCH  28  29
ENDBRANCH   1  28
TORSDOF 21
ENDMDL
MODEL 2
REMARK VINA RESULT:     -11.0      1.446      2.085
REMARK SMILES CC[N@@H+](C)Cc1cc2c(cc1Cl)C=C(C(=O)OCCOCCOC(=O)c1ccc(-c3c4nc(c(-c5c(F)cc(S(=O)(=O)[O-])cc5F)c5ccc([nH]5)c(-c5c(F)cc(S(=O)(=O)[O-])cc5F)c5nc(c(-c6c(F)cc(S(=O)(=O)[O-])cc6F)c6ccc3[nH]6)C=C5)C=C4)cc1)[C@@H](C(F)(F)F)O2
REMARK SMILES IDX 20 1 19 2 18 3 17 4 15 5 16 6 14 7 6 8 7 9 11 10 8 11 10 12
REMARK SMILES IDX 12 13 9 14 97 15 13 16 92 17 5 18 3 19 4 20 2 22 1 23 93 24
REMARK SMILES IDX 94 25 95 26 96 27 21 28 22 29 23 30 24 31 25 32 26 33 27 34
REMARK SMILES IDX 91 35 28 36 90 37 29 38 30 39 31 40 84 41 32 42 89 43 83 44
REMARK SMILES IDX 85 45 33 46 88 47 82 48 81 49 34 51 68 52 47 53 67 54 48 55
REMARK SMILES IDX 51 56 66 57 86 58 49 59 50 60 65 62 87 63 52 64 35 65 36 66
REMARK SMILES IDX 45 67 37 68 38 69 44 70 46 71 39 72 40 73 41 74 42 75 43 76
REMARK SMILES IDX 69 77 70 78 79 79 71 80 72 81 78 82 80 83 73 84 74 85 75 86
REMARK SMILES IDX 76 87 77 88 53 89 54 90 63 91 55 92 56 93 62 94 64 95 57 96
REMARK SMILES IDX 58 97 59 98 60 99 61 100
REMARK H PARENT 3 21 85 50 51 61
REMARK Flexibility Score: inf
ROOT
ATOM      1  O   UNL A   1      39.017  21.424  25.505  1.00  0.00    -0.374 OA
ENDROOT
BRANCH   1   2
ATOM      2  C   UNL A   1      37.720  21.882  25.126  1.00  0.00     0.202 C 
BRANCH   2   3
ATOM      3  C   UNL A   1      36.530  20.944  25.353  1.00  0.00     0.261 C 
BRANCH   3   4
ATOM      4  O   UNL A   1      35.355  21.396  24.668  1.00  0.00    -0.460 OA
BRANCH   4   5
ATOM      5  C   UNL A   1      34.578  22.235  25.390  1.00  0.00     0.338 C 
ATOM      6  O   UNL A   1      34.268  22.125  26.566  1.00  0.00    -0.246 OA
BRANCH   5   7
ATOM      7  C   UNL A   1      34.265  23.426  24.581  1.00  0.00     0.087 C 
ATOM      8  C   UNL A   1      32.608  27.916  23.207  1.00  0.00     0.029 A 
ATOM      9  C   UNL A   1      32.984  26.756  22.505  1.00  0.00     0.058 A 
ATOM     10  C   UNL A   1      33.027  28.040  24.543  1.00  0.00     0.050 A 
ATOM     11  C   UNL A   1      33.563  25.676  23.161  1.00  0.00     0.128 A 
ATOM     12  C   UNL A   1      33.673  26.979  25.185  1.00  0.00     0.033 A 
ATOM     13  Cl  UNL A   1      32.746  29.463  25.483  1.00  0.00    -0.084 Cl
ATOM     14  C   UNL A   1      33.875  25.774  24.512  1.00  0.00     0.019 A 
ATOM     15  O   UNL A   1      33.766  24.549  22.417  1.00  0.00    -0.475 OA
ATOM     16  C   UNL A   1      34.325  24.598  25.229  1.00  0.00     0.027 C 
ATOM     17  C   UNL A   1      33.899  23.285  23.128  1.00  0.00     0.316 C 
BRANCH   8  18
ATOM     18  C   UNL A   1      31.699  28.925  22.530  1.00  0.00     0.300 C 
BRANCH  18  19
ATOM     19  N   UNL A   1      30.344  29.075  23.107  1.00  0.00    -0.334 N 
ATOM     20  C   UNL A   1      29.604  27.809  23.120  1.00  0.00     0.333 C 
ATOM     21  H   UNL A   1      30.546  29.372  24.062  1.00  0.00     0.348 HD
BRANCH  19  22
ATOM     22  C   UNL A   1      29.505  30.145  22.551  1.00  0.00     0.258 C 
ATOM     23  C   UNL A   1      28.062  30.140  23.046  1.00  0.00     0.071 C 
ENDBRANCH  19  22
ENDBRANCH  18  19
ENDBRANCH   8  18
BRANCH  17  24
ATOM     24  C   UNL A   1      32.628  22.447  22.928  1.00  0.00     0.430 C 
ATOM     25  F   UNL A   1      31.513  23.198  23.087  1.00  0.00    -0.167 F 
ATOM     26  F   UNL A   1      32.573  21.918  21.685  1.00  0.00    -0.167 F 
ATOM     27  F   UNL A   1      32.556  21.424  23.810  1.00  0.00    -0.167 F 
ENDBRANCH  17  24
ENDBRANCH   5   7
ENDBRANCH   4   5
ENDBRANCH   3   4
ENDBRANCH   2   3
ENDBRANCH   1   2
BRANCH   1  28
ATOM     28  C   UNL A   1      39.682  22.070  26.590  1.00  0.00     0.202 C 
BRANCH  28  29
ATOM     29  C   UNL A   1      40.631  23.238  26.293  1.00  0.00     0.261 C 
BRANCH  29  30
ATOM     30  O   UNL A   1      39.955  24.503  26.223  1.00  0.00    -0.460 OA
BRANCH  30  31
ATOM     31  C   UNL A   1      40.779  25.575  26.109  1.00  0.00     0.338 C 
ATOM     32  O   UNL A   1      41.264  26.023  25.082  1.00  0.00    -0.246 OA
BRANCH  31  33
ATOM     33  C   UNL A   1      40.852  26.280  27.402  1.00  0.00     0.060 A 
ATOM     34  C   UNL A   1      41.866  27.198  27.674  1.00  0.00     0.016 A 
ATOM     35  C   UNL A   1      39.836  26.039  28.337  1.00  0.00     0.016 A 
ATOM     36  C   UNL A   1      41.833  27.910  28.877  1.00  0.00     0.010 A 
ATOM     37  C   UNL A   1      39.805  26.750  29.535  1.00  0.00     0.010 A 
ATOM     38  C   UNL A   1      40.787  27.713  29.801  1.00  0.00    -0.014 A 
BRANCH  38  39
ATOM     39  C   UNL A   1      40.632  28.631  30.956  1.00  0.00     0.031 A 
ATOM     40  C   UNL A   1      41.485  28.511  32.183  1.00  0.00     0.074 A 
ATOM     41  C   UNL A   1      39.672  29.575  30.889  1.00  0.00     0.049 A 
ATOM     42  N   UNL A   1      41.522  29.290  33.233  1.00  0.00    -0.248 NA
ATOM     43  C   UNL A   1      42.408  27.368  32.247  1.00  0.00     0.031 C 
ATOM     44  C   UNL A   1      38.745  29.744  29.768  1.00  0.00     0.029 A 
ATOM     45  N   UNL A   1      39.321  30.571  31.764  1.00  0.00    -0.354 N 
ATOM     46  C   UNL A   1      42.488  28.754  34.074  1.00  0.00     0.074 A 
ATOM     47  C   UNL A   1      42.972  27.546  33.436  1.00  0.00     0.031 C 
ATOM     48  C   UNL A   1      37.963  30.808  30.001  1.00  0.00     0.029 A 
ATOM     49  C   UNL A   1      38.308  31.378  31.301  1.00  0.00     0.049 A 
ATOM     50  H   UNL A   1      39.754  30.695  32.639  1.00  0.00     0.167 HD
ATOM     51  C   UNL A   1      42.941  29.241  35.254  1.00  0.00     0.037 A 
ATOM     52  C   UNL A   1      37.729  32.460  31.853  1.00  0.00     0.037 A 
ATOM     53  C   UNL A   1      42.431  30.432  35.887  1.00  0.00     0.049 A 
ATOM     54  C   UNL A   1      38.222  32.958  33.182  1.00  0.00     0.074 A 
ATOM     55  C   UNL A   1      42.849  31.023  37.067  1.00  0.00     0.029 A 
ATOM     56  N   UNL A   1      41.385  31.208  35.404  1.00  0.00    -0.354 N 
ATOM     57  N   UNL A   1      39.195  32.487  33.926  1.00  0.00    -0.248 NA
ATOM     58  C   UNL A   1      37.548  34.135  33.748  1.00  0.00     0.031 C 
ATOM     59  C   UNL A   1      42.021  32.120  37.327  1.00  0.00     0.029 A 
ATOM     60  C   UNL A   1      41.127  32.253  36.276  1.00  0.00     0.049 A 
ATOM     61  H   UNL A   1      40.898  31.039  34.565  1.00  0.00     0.167 HD
ATOM     62  C   UNL A   1      39.269  33.326  35.032  1.00  0.00     0.074 A 
ATOM     63  C   UNL A   1      38.246  34.337  34.858  1.00  0.00     0.031 C 
ATOM     64  C   UNL A   1      40.112  33.263  36.091  1.00  0.00     0.037 A 
BRANCH  51  65
ATOM     65  C   UNL A   1      44.057  28.501  35.941  1.00  0.00     0.058 A 
ATOM     66  C   UNL A   1      43.797  27.408  36.784  1.00  0.00     0.135 A 
ATOM     67  C   UNL A   1      45.401  28.830  35.695  1.00  0.00     0.135 A 
ATOM     68  F   UNL A   1      42.532  27.052  37.060  1.00  0.00    -0.206 F 
ATOM     69  C   UNL A   1      44.826  26.683  37.375  1.00  0.00     0.059 A 
ATOM     70  C   UNL A   1      46.447  28.101  36.255  1.00  0.00     0.059 A 
ATOM     71  F   UNL A   1      45.709  29.862  34.894  1.00  0.00    -0.206 F 
ATOM     72  C   UNL A   1      46.149  27.035  37.102  1.00  0.00     0.060 A 
BRANCH  72  73
ATOM     73  S   UNL A   1      47.467  26.075  37.875  1.00  0.00     0.124 S 
ATOM     74  O   UNL A   1      48.657  26.717  37.324  1.00  0.00    -0.237 OA
ATOM     75  O   UNL A   1      47.226  26.305  39.295  1.00  0.00    -0.237 OA
ATOM     76  O   UNL A   1      47.219  24.715  37.411  1.00  0.00    -0.744 OA
ENDBRANCH  72  73
ENDBRANCH  51  65
BRANCH  52  77
ATOM     77  C   UNL A   1      36.652  33.171  31.113  1.00  0.00     0.058 A 
ATOM     78  C   UNL A   1      35.302  32.951  31.422  1.00  0.00     0.135 A 
ATOM     79  C   UNL A   1      36.951  34.122  30.124  1.00  0.00     0.135 A 
ATOM     80  F   UNL A   1      34.967  32.049  32.358  1.00  0.00    -0.206 F 
ATOM     81  C   UNL A   1      34.285  33.641  30.772  1.00  0.00     0.059 A 
ATOM     82  C   UNL A   1      35.951  34.845  29.481  1.00  0.00     0.059 A 
ATOM     83  F   UNL A   1      38.228  34.384  29.806  1.00  0.00    -0.206 F 
ATOM     84  C   UNL A   1      34.621  34.593  29.809  1.00  0.00     0.060 A 
BRANCH  84  85
ATOM     85  S   UNL A   1      33.291  35.526  29.020  1.00  0.00     0.124 S 
ATOM     86  O   UNL A   1      32.479  34.457  28.450  1.00  0.00    -0.237 OA
ATOM     87  O   UNL A   1      32.707  36.237  30.153  1.00  0.00    -0.237 OA
ATOM     88  O   UNL A   1      33.995  36.366  28.055  1.00  0.00    -0.744 OA
ENDBRANCH  84  85
ENDBRANCH  52  77
BRANCH  64  89
ATOM     89  C   UNL A   1      39.998  34.327  37.149  1.00  0.00     0.058 A 
ATOM     90  C   UNL A   1      40.657  35.559  37.031  1.00  0.00     0.135 A 
ATOM     91  C   UNL A   1      39.128  34.151  38.239  1.00  0.00     0.135 A 
ATOM     92  F   UNL A   1      41.508  35.776  36.015  1.00  0.00    -0.206 F 
ATOM     93  C   UNL A   1      40.458  36.582  37.953  1.00  0.00     0.059 A 
ATOM     94  C   UNL A   1      38.892  35.169  39.159  1.00  0.00     0.059 A 
ATOM     95  F   UNL A   1      38.468  32.992  38.397  1.00  0.00    -0.206 F 
ATOM     96  C   UNL A   1      39.562  36.382  39.006  1.00  0.00     0.060 A 
BRANCH  96  97
ATOM     97  S   UNL A   1      39.253  37.747  40.145  1.00  0.00     0.124 S 
ATOM     98  O   UNL A   1      38.988  37.039  41.393  1.00  0.00    -0.237 OA
ATOM     99  O   UNL A   1      40.512  38.485  40.090  1.00  0.00    -0.237 OA
ATOM    100  O   UNL A   1      38.105  38.432  39.558  1.00  0.00    -0.744 OA
ENDBRANCH  96  97
ENDBRANCH  64  89
ENDBRANCH  38  39
ENDBRANCH  31  33
ENDBRANCH  30  31
ENDBRANCH  29  30
ENDBRANCH  28  29
ENDBRANCH   1  28
TORSDOF 21
ENDMDL
MODEL 3
REMARK VINA RESULT:     -10.9      6.875     12.170
REMARK SMILES CC[N@@H+](C)Cc1cc2c(cc1Cl)C=C(C(=O)OCCOCCOC(=O)c1ccc(-c3c4nc(c(-c5c(F)cc(S(=O)(=O)[O-])cc5F)c5ccc([nH]5)c(-c5c(F)cc(S(=O)(=O)[O-])cc5F)c5nc(c(-c6c(F)cc(S(=O)(=O)[O-])cc6F)c6ccc3[nH]6)C=C5)C=C4)cc1)[C@@H](C(F)(F)F)O2
REMARK SMILES IDX 20 1 19 2 18 3 17 4 15 5 16 6 14 7 6 8 7 9 11 10 8 11 10 12
REMARK SMILES IDX 12 13 9 14 97 15 13 16 92 17 5 18 3 19 4 20 2 22 1 23 93 24
REMARK SMILES IDX 94 25 95 26 96 27 21 28 22 29 23 30 24 31 25 32 26 33 27 34
REMARK SMILES IDX 91 35 28 36 90 37 29 38 30 39 31 40 84 41 32 42 89 43 83 44
REMARK SMILES IDX 85 45 33 46 88 47 82 48 81 49 34 51 68 52 47 53 67 54 48 55
REMARK SMILES IDX 51 56 66 57 86 58 49 59 50 60 65 62 87 63 52 64 35 65 36 66
REMARK SMILES IDX 45 67 37 68 38 69 44 70 46 71 39 72 40 73 41 74 42 75 43 76
REMARK SMILES IDX 69 77 70 78 79 79 71 80 72 81 78 82 80 83 73 84 74 85 75 86
REMARK SMILES IDX 76 87 77 88 53 89 54 90 63 91 55 92 56 93 62 94 64 95 57 96
REMARK SMILES IDX 58 97 59 98 60 99 61 100
REMARK H PARENT 3 21 85 50 51 61
REMARK Flexibility Score: inf
ROOT
ATOM      1  O   UNL A   1      33.911  30.123  26.797  1.00  0.00    -0.374 OA
ENDROOT
BRANCH   1   2
ATOM      2  C   UNL A   1      32.662  29.968  26.125  1.00  0.00     0.202 C 
BRANCH   2   3
ATOM      3  C   UNL A   1      32.495  28.771  25.182  1.00  0.00     0.261 C 
BRANCH   3   4
ATOM      4  O   UNL A   1      32.917  27.546  25.796  1.00  0.00    -0.460 OA
BRANCH   4   5
ATOM      5  C   UNL A   1      31.961  26.934  26.531  1.00  0.00     0.338 C 
ATOM      6  O   UNL A   1      31.168  27.460  27.295  1.00  0.00    -0.246 OA
BRANCH   5   7
ATOM      7  C   UNL A   1      31.900  25.509  26.160  1.00  0.00     0.087 C 
ATOM      8  C   UNL A   1      33.194  20.963  24.594  1.00  0.00     0.029 A 
ATOM      9  C   UNL A   1      31.964  21.627  24.760  1.00  0.00     0.058 A 
ATOM     10  C   UNL A   1      34.318  21.491  25.252  1.00  0.00     0.050 A 
ATOM     11  C   UNL A   1      31.898  22.873  25.371  1.00  0.00     0.128 A 
ATOM     12  C   UNL A   1      34.236  22.712  25.928  1.00  0.00     0.033 A 
ATOM     13  Cl  UNL A   1      35.860  20.710  25.240  1.00  0.00    -0.084 Cl
ATOM     14  C   UNL A   1      33.043  23.434  25.925  1.00  0.00     0.019 A 
ATOM     15  O   UNL A   1      30.681  23.492  25.362  1.00  0.00    -0.475 OA
ATOM     16  C   UNL A   1      33.007  24.796  26.414  1.00  0.00     0.027 C 
ATOM     17  C   UNL A   1      30.657  24.938  25.532  1.00  0.00     0.316 C 
BRANCH   8  18
ATOM     18  C   UNL A   1      33.271  19.778  23.650  1.00  0.00     0.300 C 
BRANCH  18  19
ATOM     19  N   UNL A   1      33.551  18.464  24.272  1.00  0.00    -0.334 N 
ATOM     20  C   UNL A   1      33.521  17.370  23.296  1.00  0.00     0.333 C 
ATOM     21  H   UNL A   1      34.499  18.590  24.628  1.00  0.00     0.348 HD
BRANCH  19  22
ATOM     22  C   UNL A   1      32.753  18.110  25.453  1.00  0.00     0.258 C 
ATOM     23  C   UNL A   1      32.637  16.611  25.713  1.00  0.00     0.071 C 
ENDBRANCH  19  22
ENDBRANCH  18  19
ENDBRANCH   8  18
BRANCH  17  24
ATOM     24  C   UNL A   1      30.323  25.609  24.192  1.00  0.00     0.430 C 
ATOM     25  F   UNL A   1      29.516  26.682  24.368  1.00  0.00    -0.167 F 
ATOM     26  F   UNL A   1      31.437  26.052  23.567  1.00  0.00    -0.167 F 
ATOM     27  F   UNL A   1      29.691  24.761  23.348  1.00  0.00    -0.167 F 
ENDBRANCH  17  24
ENDBRANCH   5   7
ENDBRANCH   4   5
ENDBRANCH   3   4
ENDBRANCH   2   3
ENDBRANCH   1   2
BRANCH   1  28
ATOM     28  C   UNL A   1      34.091  31.248  27.656  1.00  0.00     0.202 C 
BRANCH  28  29
ATOM     29  C   UNL A   1      35.156  31.180  28.758  1.00  0.00     0.261 C 
BRANCH  29  30
ATOM     30  O   UNL A   1      35.759  29.882  28.873  1.00  0.00    -0.460 OA
BRANCH  30  31
ATOM     31  C   UNL A   1      36.529  29.715  29.979  1.00  0.00     0.338 C 
ATOM     32  O   UNL A   1      36.144  29.467  31.111  1.00  0.00    -0.246 OA
BRANCH  31  33
ATOM     33  C   UNL A   1      37.949  29.663  29.587  1.00  0.00     0.060 A 
ATOM     34  C   UNL A   1      38.966  29.614  30.540  1.00  0.00     0.016 A 
ATOM     35  C   UNL A   1      38.249  29.613  28.219  1.00  0.00     0.016 A 
ATOM     36  C   UNL A   1      40.289  29.468  30.116  1.00  0.00     0.010 A 
ATOM     37  C   UNL A   1      39.570  29.467  27.798  1.00  0.00     0.010 A 
ATOM     38  C   UNL A   1      40.598  29.364  28.745  1.00  0.00    -0.014 A 
BRANCH  38  39
ATOM     39  C   UNL A   1      41.964  28.978  28.315  1.00  0.00     0.031 A 
ATOM     40  C   UNL A   1      43.087  29.970  28.263  1.00  0.00     0.074 A 
ATOM     41  C   UNL A   1      42.172  27.699  27.943  1.00  0.00     0.049 A 
ATOM     42  N   UNL A   1      44.349  29.763  27.990  1.00  0.00    -0.248 NA
ATOM     43  C   UNL A   1      42.753  31.375  28.540  1.00  0.00     0.031 C 
ATOM     44  C   UNL A   1      41.138  26.664  27.900  1.00  0.00     0.029 A 
ATOM     45  N   UNL A   1      43.311  27.048  27.544  1.00  0.00    -0.354 N 
ATOM     46  C   UNL A   1      44.971  31.001  28.089  1.00  0.00     0.074 A 
ATOM     47  C   UNL A   1      43.932  31.965  28.388  1.00  0.00     0.031 C 
ATOM     48  C   UNL A   1      41.697  25.499  27.542  1.00  0.00     0.029 A 
ATOM     49  C   UNL A   1      43.122  25.709  27.298  1.00  0.00     0.049 A 
ATOM     50  H   UNL A   1      44.182  27.498  27.443  1.00  0.00     0.167 HD
ATOM     51  C   UNL A   1      46.287  31.295  27.963  1.00  0.00     0.037 A 
ATOM     52  C   UNL A   1      43.996  24.753  26.929  1.00  0.00     0.037 A 
ATOM     53  C   UNL A   1      47.305  30.325  27.641  1.00  0.00     0.049 A 
ATOM     54  C   UNL A   1      45.445  25.113  26.757  1.00  0.00     0.074 A 
ATOM     55  C   UNL A   1      48.671  30.521  27.525  1.00  0.00     0.029 A 
ATOM     56  N   UNL A   1      47.073  28.983  27.370  1.00  0.00    -0.354 N 
ATOM     57  N   UNL A   1      46.030  26.273  26.936  1.00  0.00    -0.248 NA
ATOM     58  C   UNL A   1      46.355  24.037  26.341  1.00  0.00     0.031 C 
ATOM     59  C   UNL A   1      49.255  29.314  27.128  1.00  0.00     0.029 A 
ATOM     60  C   UNL A   1      48.265  28.348  27.060  1.00  0.00     0.049 A 
ATOM     61  H   UNL A   1      46.190  28.547  27.394  1.00  0.00     0.167 HD
ATOM     62  C   UNL A   1      47.381  26.061  26.683  1.00  0.00     0.074 A 
ATOM     63  C   UNL A   1      47.527  24.660  26.342  1.00  0.00     0.031 C 
ATOM     64  C   UNL A   1      48.403  26.949  26.732  1.00  0.00     0.037 A 
BRANCH  51  65
ATOM     65  C   UNL A   1      46.717  32.718  28.190  1.00  0.00     0.058 A 
ATOM     66  C   UNL A   1      47.217  33.141  29.432  1.00  0.00     0.135 A 
ATOM     67  C   UNL A   1      46.707  33.652  27.140  1.00  0.00     0.135 A 
ATOM     68  F   UNL A   1      47.245  32.293  30.473  1.00  0.00    -0.206 F 
ATOM     69  C   UNL A   1      47.671  34.441  29.632  1.00  0.00     0.059 A 
ATOM     70  C   UNL A   1      47.181  34.950  27.309  1.00  0.00     0.059 A 
ATOM     71  F   UNL A   1      46.243  33.303  25.929  1.00  0.00    -0.206 F 
ATOM     72  C   UNL A   1      47.652  35.338  28.563  1.00  0.00     0.060 A 
BRANCH  72  73
ATOM     73  S   UNL A   1      48.252  37.016  28.844  1.00  0.00     0.124 S 
ATOM     74  O   UNL A   1      47.813  37.257  30.215  1.00  0.00    -0.237 OA
ATOM     75  O   UNL A   1      49.691  36.866  28.657  1.00  0.00    -0.237 OA
ATOM     76  O   UNL A   1      47.567  37.800  27.821  1.00  0.00    -0.744 OA
ENDBRANCH  72  73
ENDBRANCH  51  65
BRANCH  52  77
ATOM     77  C   UNL A   1      43.520  23.355  26.751  1.00  0.00     0.058 A 
ATOM     78  C   UNL A   1      43.427  22.785  25.473  1.00  0.00     0.135 A 
ATOM     79  C   UNL A   1      43.201  22.547  27.854  1.00  0.00     0.135 A 
ATOM     80  F   UNL A   1      43.718  23.520  24.388  1.00  0.00    -0.206 F 
ATOM     81  C   UNL A   1      43.029  21.466  25.293  1.00  0.00     0.059 A 
ATOM     82  C   UNL A   1      42.828  21.216  27.700  1.00  0.00     0.059 A 
ATOM     83  F   UNL A   1      43.293  23.040  29.098  1.00  0.00    -0.206 F 
ATOM     84  C   UNL A   1      42.739  20.686  26.414  1.00  0.00     0.060 A 
BRANCH  84  85
ATOM     85  S   UNL A   1      42.285  18.956  26.166  1.00  0.00     0.124 S 
ATOM     86  O   UNL A   1      43.223  18.551  25.126  1.00  0.00    -0.237 OA
ATOM     87  O   UNL A   1      42.515  18.390  27.491  1.00  0.00    -0.237 OA
ATOM     88  O   UNL A   1      40.885  19.031  25.757  1.00  0.00    -0.744 OA
ENDBRANCH  84  85
ENDBRANCH  52  77
BRANCH  64  89
ATOM     89  C   UNL A   1      49.791  26.445  26.438  1.00  0.00     0.058 A 
ATOM     90  C   UNL A   1      50.338  26.501  25.148  1.00  0.00     0.135 A 
ATOM     91  C   UNL A   1      50.620  26.004  27.483  1.00  0.00     0.135 A 
ATOM     92  F   UNL A   1      49.586  26.903  24.111  1.00  0.00    -0.206 F 
ATOM     93  C   UNL A   1      51.660  26.141  24.903  1.00  0.00     0.059 A 
ATOM     94  C   UNL A   1      51.953  25.666  27.267  1.00  0.00     0.059 A 
ATOM     95  F   UNL A   1      50.148  25.937  28.739  1.00  0.00    -0.206 F 
ATOM     96  C   UNL A   1      52.464  25.738  25.972  1.00  0.00     0.060 A 
BRANCH  96  97
ATOM     97  S   UNL A   1      54.197  25.354  25.648  1.00  0.00     0.124 S 
ATOM     98  O   UNL A   1      54.109  23.990  25.137  1.00  0.00    -0.237 OA
ATOM     99  O   UNL A   1      54.563  26.375  24.672  1.00  0.00    -0.237 OA
ATOM    100  O   UNL A   1      54.829  25.491  26.958  1.00  0.00    -0.744 OA
ENDBRANCH  96  97
ENDBRANCH  64  89
ENDBRANCH  38  39
ENDBRANCH  31  33
ENDBRANCH  30  31
ENDBRANCH  29  30
ENDBRANCH  28  29
ENDBRANCH   1  28
TORSDOF 21
ENDMDL
