MODEL 1
REMARK VINA RESULT:     -11.2      0.000      0.000
REMARK SMILES C#Cc1cc(Cl)cc2c1O[C@H](C(F)(F)F)C(C(=O)OCCOCCOC(=O)c1ccc(-c3c4nc(c(-c5c(F)cc(S(=O)(=O)[O-])cc5F)c5ccc([nH]5)c(-c5c(F)cc(S(=O)(=O)[O-])cc5F)c5nc(c(-c6c(F)cc(S(=O)(=O)[O-])cc6F)c6ccc3[nH]6)C=C5)C=C4)cc1)=C2
REMARK SMILES IDX 23 1 22 2 21 3 20 4 19 5 17 6 18 7 16 8 3 9 4 10 9 11 5 12
REMARK SMILES IDX 8 13 10 14 6 15 7 16 94 17 11 18 2 19 1 20 12 21 13 22 14 23
REMARK SMILES IDX 15 24 24 25 25 26 26 27 27 28 28 29 29 30 93 31 30 32 92 33
REMARK SMILES IDX 31 34 32 35 33 36 86 37 34 38 91 39 85 40 87 41 35 42 90 43
REMARK SMILES IDX 84 44 83 45 36 47 70 48 49 49 69 50 50 51 53 52 68 53 88 54
REMARK SMILES IDX 51 55 52 56 67 58 89 59 54 60 37 61 38 62 47 63 39 64 40 65
REMARK SMILES IDX 46 66 48 67 41 68 42 69 43 70 44 71 45 72 71 73 72 74 81 75
REMARK SMILES IDX 73 76 74 77 80 78 82 79 75 80 76 81 77 82 78 83 79 84 55 85
REMARK SMILES IDX 56 86 65 87 57 88 58 89 64 90 66 91 59 92 60 93 61 94 62 95
REMARK SMILES IDX 63 96
REMARK H PARENT 87 46 53 57
REMARK Flexibility Score: inf
ROOT
ATOM      1  C   UNL A   1      38.385  21.887  25.861  1.00  0.00     0.202 C 
ENDROOT
BRANCH   1   2
ATOM      2  O   UNL A   1      37.691  22.834  25.054  1.00  0.00    -0.374 OA
BRANCH   2   3
ATOM      3  C   UNL A   1      36.757  22.367  24.086  1.00  0.00     0.202 C 
BRANCH   3   4
ATOM      4  C   UNL A   1      35.645  23.304  23.606  1.00  0.00     0.261 C 
BRANCH   4   5
ATOM      5  O   UNL A   1      34.357  22.934  24.112  1.00  0.00    -0.460 OA
BRANCH   5   6
ATOM      6  C   UNL A   1      34.013  23.561  25.260  1.00  0.00     0.338 C 
ATOM      7  O   UNL A   1      34.203  23.166  26.398  1.00  0.00    -0.246 OA
BRANCH   6   8
ATOM      8  C   UNL A   1      33.493  24.908  24.953  1.00  0.00     0.087 C 
ATOM      9  C   UNL A   1      31.744  28.676  24.610  1.00  0.00     0.068 A 
ATOM     10  C   UNL A   1      32.170  29.703  25.460  1.00  0.00     0.041 A 
ATOM     11  C   UNL A   1      32.399  27.434  24.627  1.00  0.00     0.143 A 
ATOM     12  C   UNL A   1      33.257  29.500  26.305  1.00  0.00     0.043 A 
ATOM     13  C   UNL A   1      33.463  27.229  25.512  1.00  0.00     0.020 A 
ATOM     14  O   UNL A   1      31.965  26.467  23.759  1.00  0.00    -0.474 OA
ATOM     15  Cl  UNL A   1      33.776  30.760  27.354  1.00  0.00    -0.084 Cl
ATOM     16  C   UNL A   1      33.909  28.270  26.332  1.00  0.00     0.032 A 
ATOM     17  C   UNL A   1      34.047  25.910  25.647  1.00  0.00     0.027 C 
ATOM     18  C   UNL A   1      32.390  25.090  23.948  1.00  0.00     0.316 C 
BRANCH   9  19
ATOM     19  C   UNL A   1      30.599  28.902  23.780  1.00  0.00    -0.067 C 
ATOM     20  C   UNL A   1      29.622  29.106  23.109  1.00  0.00     0.010 C 
ENDBRANCH   9  19
BRANCH  18  21
ATOM     21  C   UNL A   1      31.155  24.237  24.270  1.00  0.00     0.430 C 
ATOM     22  F   UNL A   1      30.034  24.775  23.737  1.00  0.00    -0.167 F 
ATOM     23  F   UNL A   1      31.265  22.985  23.774  1.00  0.00    -0.167 F 
ATOM     24  F   UNL A   1      30.961  24.129  25.605  1.00  0.00    -0.167 F 
ENDBRANCH  18  21
ENDBRANCH   6   8
ENDBRANCH   5   6
ENDBRANCH   4   5
ENDBRANCH   3   4
ENDBRANCH   2   3
ENDBRANCH   1   2
BRANCH   1  25
ATOM     25  C   UNL A   1      39.795  22.197  26.383  1.00  0.00     0.261 C 
BRANCH  25  26
ATOM     26  O   UNL A   1      39.844  23.247  27.361  1.00  0.00    -0.460 OA
BRANCH  26  27
ATOM     27  C   UNL A   1      40.806  24.177  27.126  1.00  0.00     0.338 C 
ATOM     28  O   UNL A   1      41.684  24.131  26.283  1.00  0.00    -0.246 OA
BRANCH  27  29
ATOM     29  C   UNL A   1      40.533  25.384  27.925  1.00  0.00     0.060 A 
ATOM     30  C   UNL A   1      41.529  26.366  27.998  1.00  0.00     0.016 A 
ATOM     31  C   UNL A   1      39.358  25.500  28.668  1.00  0.00     0.016 A 
ATOM     32  C   UNL A   1      41.366  27.461  28.841  1.00  0.00     0.010 A 
ATOM     33  C   UNL A   1      39.204  26.593  29.525  1.00  0.00     0.010 A 
ATOM     34  C   UNL A   1      40.219  27.561  29.640  1.00  0.00    -0.014 A 
BRANCH  34  35
ATOM     35  C   UNL A   1      40.153  28.595  30.699  1.00  0.00     0.031 A 
ATOM     36  C   UNL A   1      41.099  28.504  31.867  1.00  0.00     0.074 A 
ATOM     37  C   UNL A   1      39.290  29.623  30.600  1.00  0.00     0.049 A 
ATOM     38  N   UNL A   1      41.182  29.266  32.924  1.00  0.00    -0.248 NA
ATOM     39  C   UNL A   1      42.081  27.407  31.838  1.00  0.00     0.031 C 
ATOM     40  C   UNL A   1      38.366  29.843  29.487  1.00  0.00     0.029 A 
ATOM     41  N   UNL A   1      39.051  30.674  31.448  1.00  0.00    -0.354 N 
ATOM     42  C   UNL A   1      42.223  28.745  33.685  1.00  0.00     0.074 A 
ATOM     43  C   UNL A   1      42.713  27.576  32.990  1.00  0.00     0.031 C 
ATOM     44  C   UNL A   1      37.660  30.962  29.722  1.00  0.00     0.029 A 
ATOM     45  C   UNL A   1      38.050  31.514  31.018  1.00  0.00     0.049 A 
ATOM     46  H   UNL A   1      39.549  30.814  32.286  1.00  0.00     0.167 HD
ATOM     47  C   UNL A   1      42.733  29.214  34.848  1.00  0.00     0.037 A 
ATOM     48  C   UNL A   1      37.500  32.591  31.613  1.00  0.00     0.037 A 
ATOM     49  C   UNL A   1      42.243  30.386  35.526  1.00  0.00     0.049 A 
ATOM     50  C   UNL A   1      38.022  33.032  32.959  1.00  0.00     0.074 A 
ATOM     51  C   UNL A   1      42.696  30.942  36.710  1.00  0.00     0.029 A 
ATOM     52  N   UNL A   1      41.194  31.180  35.087  1.00  0.00    -0.354 N 
ATOM     53  N   UNL A   1      39.012  32.536  33.663  1.00  0.00    -0.248 NA
ATOM     54  C   UNL A   1      37.355  34.180  33.590  1.00  0.00     0.031 C 
ATOM     55  C   UNL A   1      41.883  32.036  37.017  1.00  0.00     0.029 A 
ATOM     56  C   UNL A   1      40.967  32.204  35.991  1.00  0.00     0.049 A 
ATOM     57  H   UNL A   1      40.687  31.037  34.254  1.00  0.00     0.167 HD
ATOM     58  C   UNL A   1      39.105  33.330  34.803  1.00  0.00     0.074 A 
ATOM     59  C   UNL A   1      38.083  34.349  34.685  1.00  0.00     0.031 C 
ATOM     60  C   UNL A   1      39.956  33.223  35.853  1.00  0.00     0.037 A 
BRANCH  47  61
ATOM     61  C   UNL A   1      43.882  28.471  35.472  1.00  0.00     0.058 A 
ATOM     62  C   UNL A   1      45.215  28.779  35.155  1.00  0.00     0.135 A 
ATOM     63  C   UNL A   1      43.651  27.508  36.467  1.00  0.00     0.135 A 
ATOM     64  F   UNL A   1      45.492  29.678  34.197  1.00  0.00    -0.206 F 
ATOM     65  C   UNL A   1      46.278  28.159  35.804  1.00  0.00     0.059 A 
ATOM     66  C   UNL A   1      44.699  26.895  37.150  1.00  0.00     0.059 A 
ATOM     67  F   UNL A   1      42.397  27.170  36.804  1.00  0.00    -0.206 F 
ATOM     68  C   UNL A   1      46.009  27.227  36.808  1.00  0.00     0.060 A 
BRANCH  68  69
ATOM     69  S   UNL A   1      47.404  26.471  37.669  1.00  0.00     0.124 S 
ATOM     70  O   UNL A   1      48.122  27.647  38.152  1.00  0.00    -0.237 OA
ATOM     71  O   UNL A   1      46.739  25.670  38.690  1.00  0.00    -0.237 OA
ATOM     72  O   UNL A   1      48.082  25.713  36.621  1.00  0.00    -0.744 OA
ENDBRANCH  68  69
ENDBRANCH  47  61
BRANCH  48  73
ATOM     73  C   UNL A   1      36.390  33.330  30.950  1.00  0.00     0.058 A 
ATOM     74  C   UNL A   1      36.626  34.126  29.819  1.00  0.00     0.135 A 
ATOM     75  C   UNL A   1      35.075  33.271  31.439  1.00  0.00     0.135 A 
ATOM     76  F   UNL A   1      37.867  34.226  29.318  1.00  0.00    -0.206 F 
ATOM     77  C   UNL A   1      35.607  34.852  29.211  1.00  0.00     0.059 A 
ATOM     78  C   UNL A   1      34.033  33.960  30.829  1.00  0.00     0.059 A 
ATOM     79  F   UNL A   1      34.789  32.517  32.514  1.00  0.00    -0.206 F 
ATOM     80  C   UNL A   1      34.312  34.759  29.722  1.00  0.00     0.060 A 
BRANCH  80  81
ATOM     81  S   UNL A   1      32.997  35.688  28.905  1.00  0.00     0.124 S 
ATOM     82  O   UNL A   1      32.443  34.685  28.004  1.00  0.00    -0.237 OA
ATOM     83  O   UNL A   1      32.153  36.071  30.032  1.00  0.00    -0.237 OA
ATOM     84  O   UNL A   1      33.711  36.787  28.261  1.00  0.00    -0.744 OA
ENDBRANCH  80  81
ENDBRANCH  48  73
BRANCH  60  85
ATOM     85  C   UNL A   1      39.852  34.247  36.953  1.00  0.00     0.058 A 
ATOM     86  C   UNL A   1      40.486  35.496  36.860  1.00  0.00     0.135 A 
ATOM     87  C   UNL A   1      39.038  34.010  38.073  1.00  0.00     0.135 A 
ATOM     88  F   UNL A   1      41.279  35.776  35.812  1.00  0.00    -0.206 F 
ATOM     89  C   UNL A   1      40.333  36.464  37.847  1.00  0.00     0.059 A 
ATOM     90  C   UNL A   1      38.842  34.977  39.054  1.00  0.00     0.059 A 
ATOM     91  F   UNL A   1      38.396  32.838  38.207  1.00  0.00    -0.206 F 
ATOM     92  C   UNL A   1      39.502  36.198  38.936  1.00  0.00     0.060 A 
BRANCH  92  93
ATOM     93  S   UNL A   1      39.283  37.484  40.184  1.00  0.00     0.124 S 
ATOM     94  O   UNL A   1      38.901  36.698  41.354  1.00  0.00    -0.237 OA
ATOM     95  O   UNL A   1      40.608  38.093  40.236  1.00  0.00    -0.237 OA
ATOM     96  O   UNL A   1      38.231  38.328  39.626  1.00  0.00    -0.744 OA
ENDBRANCH  92  93
ENDBRANCH  60  85
ENDBRANCH  34  35
ENDBRANCH  27  29
ENDBRANCH  26  27
ENDBRANCH  25  26
ENDBRANCH   1  25
TORSDOF 19
ENDMDL
MODEL 2
REMARK VINA RESULT:     -10.9      6.725     12.080
REMARK SMILES C#Cc1cc(Cl)cc2c1O[C@H](C(F)(F)F)C(C(=O)OCCOCCOC(=O)c1ccc(-c3c4nc(c(-c5c(F)cc(S(=O)(=O)[O-])cc5F)c5ccc([nH]5)c(-c5c(F)cc(S(=O)(=O)[O-])cc5F)c5nc(c(-c6c(F)cc(S(=O)(=O)[O-])cc6F)c6ccc3[nH]6)C=C5)C=C4)cc1)=C2
REMARK SMILES IDX 23 1 22 2 21 3 20 4 19 5 17 6 18 7 16 8 3 9 4 10 9 11 5 12
REMARK SMILES IDX 8 13 10 14 6 15 7 16 94 17 11 18 2 19 1 20 12 21 13 22 14 23
REMARK SMILES IDX 15 24 24 25 25 26 26 27 27 28 28 29 29 30 93 31 30 32 92 33
REMARK SMILES IDX 31 34 32 35 33 36 86 37 34 38 91 39 85 40 87 41 35 42 90 43
REMARK SMILES IDX 84 44 83 45 36 47 70 48 49 49 69 50 50 51 53 52 68 53 88 54
REMARK SMILES IDX 51 55 52 56 67 58 89 59 54 60 37 61 38 62 47 63 39 64 40 65
REMARK SMILES IDX 46 66 48 67 41 68 42 69 43 70 44 71 45 72 71 73 72 74 81 75
REMARK SMILES IDX 73 76 74 77 80 78 82 79 75 80 76 81 77 82 78 83 79 84 55 85
REMARK SMILES IDX 56 86 65 87 57 88 58 89 64 90 66 91 59 92 60 93 61 94 62 95
REMARK SMILES IDX 63 96
REMARK H PARENT 87 46 53 57
REMARK Flexibility Score: inf
ROOT
ATOM      1  C   UNL A   1      34.312  31.666  27.626  1.00  0.00     0.202 C 
ENDROOT
BRANCH   1   2
ATOM      2  O   UNL A   1      33.144  30.926  27.284  1.00  0.00    -0.374 OA
BRANCH   2   3
ATOM      3  C   UNL A   1      33.284  29.701  26.571  1.00  0.00     0.202 C 
BRANCH   3   4
ATOM      4  C   UNL A   1      32.028  28.925  26.164  1.00  0.00     0.261 C 
BRANCH   4   5
ATOM      5  O   UNL A   1      32.243  27.509  26.132  1.00  0.00    -0.460 OA
BRANCH   5   6
ATOM      6  C   UNL A   1      32.753  27.054  24.965  1.00  0.00     0.338 C 
ATOM      7  O   UNL A   1      33.044  27.716  23.982  1.00  0.00    -0.246 OA
BRANCH   6   8
ATOM      8  C   UNL A   1      33.066  25.617  25.087  1.00  0.00     0.087 C 
ATOM      9  C   UNL A   1      34.218  21.615  24.902  1.00  0.00     0.068 A 
ATOM     10  C   UNL A   1      35.576  21.293  25.005  1.00  0.00     0.041 A 
ATOM     11  C   UNL A   1      33.796  22.943  25.079  1.00  0.00     0.143 A 
ATOM     12  C   UNL A   1      36.504  22.285  25.304  1.00  0.00     0.043 A 
ATOM     13  C   UNL A   1      34.745  23.937  25.338  1.00  0.00     0.020 A 
ATOM     14  O   UNL A   1      32.455  23.207  24.997  1.00  0.00    -0.474 OA
ATOM     15  Cl  UNL A   1      38.174  21.891  25.424  1.00  0.00    -0.084 Cl
ATOM     16  C   UNL A   1      36.096  23.605  25.477  1.00  0.00     0.032 A 
ATOM     17  C   UNL A   1      34.342  25.329  25.371  1.00  0.00     0.027 C 
ATOM     18  C   UNL A   1      32.001  24.582  24.862  1.00  0.00     0.316 C 
BRANCH   9  19
ATOM     19  C   UNL A   1      33.291  20.581  24.555  1.00  0.00    -0.067 C 
ATOM     20  C   UNL A   1      32.528  19.708  24.233  1.00  0.00     0.010 C 
ENDBRANCH   9  19
BRANCH  18  21
ATOM     21  C   UNL A   1      31.309  24.735  23.500  1.00  0.00     0.430 C 
ATOM     22  F   UNL A   1      32.201  25.028  22.525  1.00  0.00    -0.167 F 
ATOM     23  F   UNL A   1      30.677  23.601  23.126  1.00  0.00    -0.167 F 
ATOM     24  F   UNL A   1      30.387  25.725  23.520  1.00  0.00    -0.167 F 
ENDBRANCH  18  21
ENDBRANCH   6   8
ENDBRANCH   5   6
ENDBRANCH   4   5
ENDBRANCH   3   4
ENDBRANCH   2   3
ENDBRANCH   1   2
BRANCH   1  25
ATOM     25  C   UNL A   1      35.007  31.439  28.977  1.00  0.00     0.261 C 
BRANCH  25  26
ATOM     26  O   UNL A   1      35.690  30.181  29.084  1.00  0.00    -0.460 OA
BRANCH  26  27
ATOM     27  C   UNL A   1      36.456  30.061  30.199  1.00  0.00     0.338 C 
ATOM     28  O   UNL A   1      36.071  29.897  31.344  1.00  0.00    -0.246 OA
BRANCH  27  29
ATOM     29  C   UNL A   1      37.876  29.965  29.817  1.00  0.00     0.060 A 
ATOM     30  C   UNL A   1      38.189  29.915  28.453  1.00  0.00     0.016 A 
ATOM     31  C   UNL A   1      38.870  29.827  30.785  1.00  0.00     0.016 A 
ATOM     32  C   UNL A   1      39.503  29.696  28.049  1.00  0.00     0.010 A 
ATOM     33  C   UNL A   1      40.186  29.593  30.376  1.00  0.00     0.010 A 
ATOM     34  C   UNL A   1      40.503  29.495  29.009  1.00  0.00    -0.014 A 
BRANCH  34  35
ATOM     35  C   UNL A   1      41.845  29.035  28.582  1.00  0.00     0.031 A 
ATOM     36  C   UNL A   1      42.977  30.027  28.544  1.00  0.00     0.074 A 
ATOM     37  C   UNL A   1      42.061  27.743  28.273  1.00  0.00     0.049 A 
ATOM     38  N   UNL A   1      44.213  29.856  28.157  1.00  0.00    -0.248 NA
ATOM     39  C   UNL A   1      42.674  31.393  29.002  1.00  0.00     0.031 C 
ATOM     40  C   UNL A   1      41.053  26.684  28.327  1.00  0.00     0.029 A 
ATOM     41  N   UNL A   1      43.198  27.103  27.850  1.00  0.00    -0.354 N 
ATOM     42  C   UNL A   1      44.836  31.088  28.325  1.00  0.00     0.074 A 
ATOM     43  C   UNL A   1      43.831  32.009  28.808  1.00  0.00     0.031 C 
ATOM     44  C   UNL A   1      41.619  25.524  27.953  1.00  0.00     0.029 A 
ATOM     45  C   UNL A   1      43.015  25.765  27.592  1.00  0.00     0.049 A 
ATOM     46  H   UNL A   1      44.064  27.559  27.743  1.00  0.00     0.167 HD
ATOM     47  C   UNL A   1      46.133  31.412  28.113  1.00  0.00     0.037 A 
ATOM     48  C   UNL A   1      43.871  24.846  27.102  1.00  0.00     0.037 A 
ATOM     49  C   UNL A   1      47.127  30.483  27.641  1.00  0.00     0.049 A 
ATOM     50  C   UNL A   1      45.286  25.260  26.780  1.00  0.00     0.074 A 
ATOM     51  C   UNL A   1      48.469  30.717  27.397  1.00  0.00     0.029 A 
ATOM     52  N   UNL A   1      46.891  29.150  27.341  1.00  0.00    -0.354 N 
ATOM     53  N   UNL A   1      45.864  26.426  26.952  1.00  0.00    -0.248 NA
ATOM     54  C   UNL A   1      46.166  24.236  26.199  1.00  0.00     0.031 C 
ATOM     55  C   UNL A   1      49.031  29.542  26.893  1.00  0.00     0.029 A 
ATOM     56  C   UNL A   1      48.057  28.556  26.887  1.00  0.00     0.049 A 
ATOM     57  H   UNL A   1      46.024  28.693  27.438  1.00  0.00     0.167 HD
ATOM     58  C   UNL A   1      47.181  26.264  26.530  1.00  0.00     0.074 A 
ATOM     59  C   UNL A   1      47.318  24.885  26.112  1.00  0.00     0.031 C 
ATOM     60  C   UNL A   1      48.185  27.176  26.489  1.00  0.00     0.037 A 
BRANCH  47  61
ATOM     61  C   UNL A   1      46.567  32.825  28.388  1.00  0.00     0.058 A 
ATOM     62  C   UNL A   1      47.096  33.203  29.633  1.00  0.00     0.135 A 
ATOM     63  C   UNL A   1      46.544  33.789  27.367  1.00  0.00     0.135 A 
ATOM     64  F   UNL A   1      47.123  32.327  30.650  1.00  0.00    -0.206 F 
ATOM     65  C   UNL A   1      47.586  34.485  29.855  1.00  0.00     0.059 A 
ATOM     66  C   UNL A   1      47.056  35.070  27.558  1.00  0.00     0.059 A 
ATOM     67  F   UNL A   1      46.043  33.484  26.160  1.00  0.00    -0.206 F 
ATOM     68  C   UNL A   1      47.573  35.408  28.807  1.00  0.00     0.060 A 
BRANCH  68  69
ATOM     69  S   UNL A   1      48.259  37.050  29.105  1.00  0.00     0.124 S 
ATOM     70  O   UNL A   1      47.484  37.486  30.263  1.00  0.00    -0.237 OA
ATOM     71  O   UNL A   1      49.665  36.756  29.358  1.00  0.00    -0.237 OA
ATOM     72  O   UNL A   1      47.982  37.768  27.864  1.00  0.00    -0.744 OA
ENDBRANCH  68  69
ENDBRANCH  47  61
BRANCH  48  73
ATOM     73  C   UNL A   1      43.422  23.444  26.880  1.00  0.00     0.058 A 
ATOM     74  C   UNL A   1      43.299  22.546  27.951  1.00  0.00     0.135 A 
ATOM     75  C   UNL A   1      43.120  22.966  25.594  1.00  0.00     0.135 A 
ATOM     76  F   UNL A   1      43.585  22.948  29.198  1.00  0.00    -0.206 F 
ATOM     77  C   UNL A   1      42.917  21.223  27.754  1.00  0.00     0.059 A 
ATOM     78  C   UNL A   1      42.703  21.657  25.375  1.00  0.00     0.059 A 
ATOM     79  F   UNL A   1      43.211  23.784  24.532  1.00  0.00    -0.206 F 
ATOM     80  C   UNL A   1      42.617  20.789  26.462  1.00  0.00     0.060 A 
BRANCH  80  81
ATOM     81  S   UNL A   1      42.097  19.076  26.229  1.00  0.00     0.124 S 
ATOM     82  O   UNL A   1      43.038  18.617  25.214  1.00  0.00    -0.237 OA
ATOM     83  O   UNL A   1      42.278  18.521  27.566  1.00  0.00    -0.237 OA
ATOM     84  O   UNL A   1      40.709  19.202  25.790  1.00  0.00    -0.744 OA
ENDBRANCH  80  81
ENDBRANCH  48  73
BRANCH  60  85
ATOM     85  C   UNL A   1      49.536  26.717  26.007  1.00  0.00     0.058 A 
ATOM     86  C   UNL A   1      49.960  26.933  24.687  1.00  0.00     0.135 A 
ATOM     87  C   UNL A   1      50.450  26.132  26.899  1.00  0.00     0.135 A 
ATOM     88  F   UNL A   1      49.127  27.487  23.790  1.00  0.00    -0.206 F 
ATOM     89  C   UNL A   1      51.234  26.567  24.264  1.00  0.00     0.059 A 
ATOM     90  C   UNL A   1      51.741  25.790  26.507  1.00  0.00     0.059 A 
ATOM     91  F   UNL A   1      50.102  25.914  28.178  1.00  0.00    -0.206 F 
ATOM     92  C   UNL A   1      52.119  26.004  25.184  1.00  0.00     0.060 A 
BRANCH  92  93
ATOM     93  S   UNL A   1      53.782  25.576  24.625  1.00  0.00     0.124 S 
ATOM     94  O   UNL A   1      53.726  25.953  23.216  1.00  0.00    -0.237 OA
ATOM     95  O   UNL A   1      54.619  26.417  25.474  1.00  0.00    -0.237 OA
ATOM     96  O   UNL A   1      53.873  24.142  24.886  1.00  0.00    -0.744 OA
ENDBRANCH  92  93
ENDBRANCH  60  85
ENDBRANCH  34  35
ENDBRANCH  27  29
ENDBRANCH  26  27
ENDBRANCH  25  26
ENDBRANCH   1  25
TORSDOF 19
ENDMDL
MODEL 3
REMARK VINA RESULT:     -10.8      2.728      3.519
REMARK SMILES C#Cc1cc(Cl)cc2c1O[C@H](C(F)(F)F)C(C(=O)OCCOCCOC(=O)c1ccc(-c3c4nc(c(-c5c(F)cc(S(=O)(=O)[O-])cc5F)c5ccc([nH]5)c(-c5c(F)cc(S(=O)(=O)[O-])cc5F)c5nc(c(-c6c(F)cc(S(=O)(=O)[O-])cc6F)c6ccc3[nH]6)C=C5)C=C4)cc1)=C2
REMARK SMILES IDX 23 1 22 2 21 3 20 4 19 5 17 6 18 7 16 8 3 9 4 10 9 11 5 12
REMARK SMILES IDX 8 13 10 14 6 15 7 16 94 17 11 18 2 19 1 20 12 21 13 22 14 23
REMARK SMILES IDX 15 24 24 25 25 26 26 27 27 28 28 29 29 30 93 31 30 32 92 33
REMARK SMILES IDX 31 34 32 35 33 36 86 37 34 38 91 39 85 40 87 41 35 42 90 43
REMARK SMILES IDX 84 44 83 45 36 47 70 48 49 49 69 50 50 51 53 52 68 53 88 54
REMARK SMILES IDX 51 55 52 56 67 58 89 59 54 60 37 61 38 62 47 63 39 64 40 65
REMARK SMILES IDX 46 66 48 67 41 68 42 69 43 70 44 71 45 72 71 73 72 74 81 75
REMARK SMILES IDX 73 76 74 77 80 78 82 79 75 80 76 81 77 82 78 83 79 84 55 85
REMARK SMILES IDX 56 86 65 87 57 88 58 89 64 90 66 91 59 92 60 93 61 94 62 95
REMARK SMILES IDX 63 96
REMARK H PARENT 87 46 53 57
REMARK Flexibility Score: inf
ROOT
ATOM      1  C   UNL A   1      36.009  21.318  25.909  1.00  0.00     0.202 C 
ENDROOT
BRANCH   1   2
ATOM      2  O   UNL A   1      34.863  20.703  25.328  1.00  0.00    -0.374 OA
BRANCH   2   3
ATOM      3  C   UNL A   1      33.602  20.836  25.976  1.00  0.00     0.202 C 
BRANCH   3   4
ATOM      4  C   UNL A   1      32.654  21.959  25.544  1.00  0.00     0.261 C 
BRANCH   4   5
ATOM      5  O   UNL A   1      33.288  23.244  25.544  1.00  0.00    -0.460 OA
BRANCH   5   6
ATOM      6  C   UNL A   1      33.511  23.750  24.309  1.00  0.00     0.338 C 
ATOM      7  O   UNL A   1      33.864  23.136  23.317  1.00  0.00    -0.246 OA
BRANCH   6   8
ATOM      8  C   UNL A   1      33.113  25.171  24.276  1.00  0.00     0.087 C 
ATOM      9  C   UNL A   1      31.767  29.090  24.727  1.00  0.00     0.068 A 
ATOM     10  C   UNL A   1      32.393  29.921  25.663  1.00  0.00     0.041 A 
ATOM     11  C   UNL A   1      32.278  27.806  24.474  1.00  0.00     0.143 A 
ATOM     12  C   UNL A   1      33.534  29.482  26.327  1.00  0.00     0.043 A 
ATOM     13  C   UNL A   1      33.401  27.362  25.180  1.00  0.00     0.020 A 
ATOM     14  O   UNL A   1      31.649  27.039  23.531  1.00  0.00    -0.474 OA
ATOM     15  Cl  UNL A   1      34.300  30.501  27.483  1.00  0.00    -0.084 Cl
ATOM     16  C   UNL A   1      34.046  28.209  26.087  1.00  0.00     0.032 A 
ATOM     17  C   UNL A   1      33.846  25.990  25.041  1.00  0.00     0.027 C 
ATOM     18  C   UNL A   1      31.936  25.616  23.455  1.00  0.00     0.316 C 
BRANCH   9  19
ATOM     19  C   UNL A   1      30.572  29.553  24.088  1.00  0.00    -0.067 C 
ATOM     20  C   UNL A   1      29.584  29.943  23.523  1.00  0.00     0.010 C 
ENDBRANCH   9  19
BRANCH  18  21
ATOM     21  C   UNL A   1      30.655  24.840  23.794  1.00  0.00     0.430 C 
ATOM     22  F   UNL A   1      30.599  23.666  23.125  1.00  0.00    -0.167 F 
ATOM     23  F   UNL A   1      30.580  24.546  25.112  1.00  0.00    -0.167 F 
ATOM     24  F   UNL A   1      29.547  25.547  23.473  1.00  0.00    -0.167 F 
ENDBRANCH  18  21
ENDBRANCH   6   8
ENDBRANCH   5   6
ENDBRANCH   4   5
ENDBRANCH   3   4
ENDBRANCH   2   3
ENDBRANCH   1   2
BRANCH   1  25
ATOM     25  C   UNL A   1      37.400  21.104  25.294  1.00  0.00     0.261 C 
BRANCH  25  26
ATOM     26  O   UNL A   1      38.393  22.039  25.744  1.00  0.00    -0.460 OA
BRANCH  26  27
ATOM     27  C   UNL A   1      38.154  23.322  25.368  1.00  0.00     0.338 C 
ATOM     28  O   UNL A   1      37.360  23.709  24.528  1.00  0.00    -0.246 OA
BRANCH  27  29
ATOM     29  C   UNL A   1      38.869  24.243  26.269  1.00  0.00     0.060 A 
ATOM     30  C   UNL A   1      38.507  24.256  27.622  1.00  0.00     0.016 A 
ATOM     31  C   UNL A   1      39.810  25.144  25.772  1.00  0.00     0.016 A 
ATOM     32  C   UNL A   1      39.065  25.196  28.482  1.00  0.00     0.010 A 
ATOM     33  C   UNL A   1      40.358  26.097  26.635  1.00  0.00     0.010 A 
ATOM     34  C   UNL A   1      39.964  26.148  27.985  1.00  0.00    -0.014 A 
BRANCH  34  35
ATOM     35  C   UNL A   1      40.377  27.284  28.844  1.00  0.00     0.031 A 
ATOM     36  C   UNL A   1      41.710  27.224  29.540  1.00  0.00     0.074 A 
ATOM     37  C   UNL A   1      39.591  28.369  28.967  1.00  0.00     0.049 A 
ATOM     38  N   UNL A   1      42.247  28.077  30.371  1.00  0.00    -0.248 NA
ATOM     39  C   UNL A   1      42.549  26.047  29.262  1.00  0.00     0.031 C 
ATOM     40  C   UNL A   1      38.305  28.560  28.296  1.00  0.00     0.029 A 
ATOM     41  N   UNL A   1      39.760  29.516  29.701  1.00  0.00    -0.354 N 
ATOM     42  C   UNL A   1      43.483  27.543  30.715  1.00  0.00     0.074 A 
ATOM     43  C   UNL A   1      43.601  26.271  30.036  1.00  0.00     0.031 C 
ATOM     44  C   UNL A   1      37.802  29.756  28.649  1.00  0.00     0.029 A 
ATOM     45  C   UNL A   1      38.708  30.395  29.603  1.00  0.00     0.049 A 
ATOM     46  H   UNL A   1      40.561  29.693  30.247  1.00  0.00     0.167 HD
ATOM     47  C   UNL A   1      44.440  28.077  31.510  1.00  0.00     0.037 A 
ATOM     48  C   UNL A   1      38.491  31.571  30.226  1.00  0.00     0.037 A 
ATOM     49  C   UNL A   1      44.317  29.348  32.173  1.00  0.00     0.049 A 
ATOM     50  C   UNL A   1      39.533  32.094  31.185  1.00  0.00     0.074 A 
ATOM     51  C   UNL A   1      45.234  29.976  32.999  1.00  0.00     0.029 A 
ATOM     52  N   UNL A   1      43.214  30.185  32.091  1.00  0.00    -0.354 N 
ATOM     53  N   UNL A   1      40.701  31.583  31.494  1.00  0.00    -0.248 NA
ATOM     54  C   UNL A   1      39.227  33.353  31.879  1.00  0.00     0.031 C 
ATOM     55  C   UNL A   1      44.662  31.162  33.463  1.00  0.00     0.029 A 
ATOM     56  C   UNL A   1      43.416  31.310  32.874  1.00  0.00     0.049 A 
ATOM     57  H   UNL A   1      42.408  30.006  31.554  1.00  0.00     0.167 HD
ATOM     58  C   UNL A   1      41.281  32.475  32.393  1.00  0.00     0.074 A 
ATOM     59  C   UNL A   1      40.343  33.563  32.564  1.00  0.00     0.031 C 
ATOM     60  C   UNL A   1      42.480  32.396  33.023  1.00  0.00     0.037 A 
BRANCH  47  61
ATOM     61  C   UNL A   1      45.711  27.299  31.713  1.00  0.00     0.058 A 
ATOM     62  C   UNL A   1      46.843  27.516  30.910  1.00  0.00     0.135 A 
ATOM     63  C   UNL A   1      45.832  26.397  32.783  1.00  0.00     0.135 A 
ATOM     64  F   UNL A   1      46.777  28.353  29.862  1.00  0.00    -0.206 F 
ATOM     65  C   UNL A   1      48.047  26.867  31.160  1.00  0.00     0.059 A 
ATOM     66  C   UNL A   1      47.036  25.758  33.070  1.00  0.00     0.059 A 
ATOM     67  F   UNL A   1      44.780  26.146  33.578  1.00  0.00    -0.206 F 
ATOM     68  C   UNL A   1      48.137  25.999  32.250  1.00  0.00     0.060 A 
BRANCH  68  69
ATOM     69  S   UNL A   1      49.723  25.206  32.584  1.00  0.00     0.124 S 
ATOM     70  O   UNL A   1      50.501  26.320  33.120  1.00  0.00    -0.237 OA
ATOM     71  O   UNL A   1      49.355  24.170  33.542  1.00  0.00    -0.237 OA
ATOM     72  O   UNL A   1      50.148  24.725  31.272  1.00  0.00    -0.744 OA
ENDBRANCH  68  69
ENDBRANCH  47  61
BRANCH  48  73
ATOM     73  C   UNL A   1      37.240  32.337  29.972  1.00  0.00     0.058 A 
ATOM     74  C   UNL A   1      37.231  33.439  29.104  1.00  0.00     0.135 A 
ATOM     75  C   UNL A   1      36.031  31.996  30.601  1.00  0.00     0.135 A 
ATOM     76  F   UNL A   1      38.361  33.814  28.486  1.00  0.00    -0.206 F 
ATOM     77  C   UNL A   1      36.079  34.187  28.885  1.00  0.00     0.059 A 
ATOM     78  C   UNL A   1      34.858  32.707  30.372  1.00  0.00     0.059 A 
ATOM     79  F   UNL A   1      35.979  30.944  31.435  1.00  0.00    -0.206 F 
ATOM     80  C   UNL A   1      34.896  33.810  29.522  1.00  0.00     0.060 A 
BRANCH  80  81
ATOM     81  S   UNL A   1      33.404  34.777  29.207  1.00  0.00     0.124 S 
ATOM     82  O   UNL A   1      32.655  33.886  28.328  1.00  0.00    -0.237 OA
ATOM     83  O   UNL A   1      32.866  34.949  30.552  1.00  0.00    -0.237 OA
ATOM     84  O   UNL A   1      33.917  35.993  28.582  1.00  0.00    -0.744 OA
ENDBRANCH  80  81
ENDBRANCH  48  73
BRANCH  60  85
ATOM     85  C   UNL A   1      42.874  33.529  33.934  1.00  0.00     0.058 A 
ATOM     86  C   UNL A   1      42.530  33.535  35.294  1.00  0.00     0.135 A 
ATOM     87  C   UNL A   1      43.679  34.578  33.459  1.00  0.00     0.135 A 
ATOM     88  F   UNL A   1      41.761  32.558  35.802  1.00  0.00    -0.206 F 
ATOM     89  C   UNL A   1      42.953  34.550  36.146  1.00  0.00     0.059 A 
ATOM     90  C   UNL A   1      44.142  35.585  34.300  1.00  0.00     0.059 A 
ATOM     91  F   UNL A   1      44.049  34.616  32.168  1.00  0.00    -0.206 F 
ATOM     92  C   UNL A   1      43.765  35.566  35.641  1.00  0.00     0.060 A 
BRANCH  92  93
ATOM     93  S   UNL A   1      44.338  36.851  36.773  1.00  0.00     0.124 S 
ATOM     94  O   UNL A   1      43.714  36.440  38.027  1.00  0.00    -0.237 OA
ATOM     95  O   UNL A   1      45.788  36.698  36.706  1.00  0.00    -0.237 OA
ATOM     96  O   UNL A   1      43.814  38.082  36.188  1.00  0.00    -0.744 OA
ENDBRANCH  92  93
ENDBRANCH  60  85
ENDBRANCH  34  35
ENDBRANCH  27  29
ENDBRANCH  26  27
ENDBRANCH  25  26
ENDBRANCH   1  25
TORSDOF 19
ENDMDL
