MODEL 1
REMARK VINA RESULT:      -9.8      0.000      0.000
REMARK SMILES CC[C@@H](C)N(C)S(=O)(=O)c1cc(C(=O)OCCOCCOC(=O)c2ccc(-c3c4nc(c(-c5c(F)cc(S(=O)(=O)[O-])cc5F)c5ccc([nH]5)c(-c5c(F)cc(S(=O)(=O)[O-])cc5F)c5nc(c(-c6c(F)cc(S(=O)(=O)[O-])cc6F)c6ccc3[nH]6)C=C5)C=C4)cc2)c(C)cc1C
REMARK SMILES IDX 17 1 16 2 15 3 13 4 14 5 12 6 10 7 11 8 93 9 92 10 94 11
REMARK SMILES IDX 90 12 91 13 7 14 8 15 9 16 5 17 6 18 3 19 4 20 2 21 1 22
REMARK SMILES IDX 18 23 19 24 20 25 21 26 22 27 23 28 24 29 25 30 89 31 26 32
REMARK SMILES IDX 88 33 27 34 28 35 29 36 82 37 30 38 87 39 81 40 83 41 31 42
REMARK SMILES IDX 86 43 80 44 79 45 32 47 66 48 45 49 65 50 46 51 49 52 64 53
REMARK SMILES IDX 84 54 47 55 48 56 63 58 85 59 50 60 33 61 34 62 43 63 35 64
REMARK SMILES IDX 36 65 42 66 44 67 37 68 38 69 39 70 40 71 41 72 67 73 68 74
REMARK SMILES IDX 77 75 69 76 70 77 76 78 78 79 71 80 72 81 73 82 74 83 75 84
REMARK SMILES IDX 51 85 52 86 61 87 53 88 54 89 60 90 62 91 55 92 56 93 57 94
REMARK SMILES IDX 58 95 59 96
REMARK H PARENT 83 46 49 57
REMARK Flexibility Score: inf
ROOT
ATOM      1  C   UNL A   1      44.478  20.576  24.801  1.00  0.00     0.202 C 
ENDROOT
BRANCH   1   2
ATOM      2  C   UNL A   1      43.558  19.608  25.549  1.00  0.00     0.261 C 
BRANCH   2   3
ATOM      3  O   UNL A   1      42.197  20.057  25.423  1.00  0.00    -0.460 OA
BRANCH   3   4
ATOM      4  C   UNL A   1      41.437  19.923  26.531  1.00  0.00     0.338 C 
ATOM      5  O   UNL A   1      41.612  19.132  27.444  1.00  0.00    -0.246 OA
BRANCH   4   6
ATOM      6  C   UNL A   1      40.464  21.042  26.623  1.00  0.00     0.064 A 
ATOM      7  C   UNL A   1      38.342  21.893  25.760  1.00  0.00     0.086 A 
ATOM      8  C   UNL A   1      39.303  20.877  25.852  1.00  0.00     0.038 A 
ATOM      9  C   UNL A   1      38.550  23.116  26.412  1.00  0.00    -0.031 A 
ATOM     10  C   UNL A   1      39.690  23.243  27.233  1.00  0.00     0.009 A 
ATOM     11  C   UNL A   1      37.706  24.343  26.202  1.00  0.00     0.046 C 
ATOM     12  C   UNL A   1      40.640  22.211  27.378  1.00  0.00    -0.036 A 
ATOM     13  C   UNL A   1      41.836  22.456  28.258  1.00  0.00     0.045 C 
BRANCH   7  14
ATOM     14  S   UNL A   1      36.912  21.553  24.742  1.00  0.00     0.243 S 
ATOM     15  O   UNL A   1      36.670  20.125  24.800  1.00  0.00    -0.207 OA
ATOM     16  O   UNL A   1      37.148  22.217  23.481  1.00  0.00    -0.207 OA
BRANCH  14  17
ATOM     17  N   UNL A   1      35.588  22.299  25.552  1.00  0.00    -0.198 NA
ATOM     18  C   UNL A   1      34.947  21.456  26.597  1.00  0.00     0.124 C 
BRANCH  17  19
ATOM     19  C   UNL A   1      34.555  22.994  24.687  1.00  0.00     0.069 C 
ATOM     20  C   UNL A   1      33.979  24.246  25.353  1.00  0.00     0.026 C 
BRANCH  19  21
ATOM     21  C   UNL A   1      33.467  22.015  24.213  1.00  0.00     0.016 C 
ATOM     22  C   UNL A   1      32.633  22.545  23.052  1.00  0.00     0.005 C 
ENDBRANCH  19  21
ENDBRANCH  17  19
ENDBRANCH  14  17
ENDBRANCH   7  14
ENDBRANCH   4   6
ENDBRANCH   3   4
ENDBRANCH   2   3
ENDBRANCH   1   2
BRANCH   1  23
ATOM     23  O   UNL A   1      45.399  21.295  25.627  1.00  0.00    -0.374 OA
BRANCH  23  24
ATOM     24  C   UNL A   1      45.188  22.700  25.768  1.00  0.00     0.202 C 
BRANCH  24  25
ATOM     25  C   UNL A   1      43.981  23.277  25.020  1.00  0.00     0.261 C 
BRANCH  25  26
ATOM     26  O   UNL A   1      43.216  24.185  25.830  1.00  0.00    -0.460 OA
BRANCH  26  27
ATOM     27  C   UNL A   1      43.654  25.468  25.789  1.00  0.00     0.338 C 
ATOM     28  O   UNL A   1      44.457  25.942  25.001  1.00  0.00    -0.246 OA
BRANCH  27  29
ATOM     29  C   UNL A   1      42.906  26.302  26.749  1.00  0.00     0.060 A 
ATOM     30  C   UNL A   1      43.416  27.580  27.012  1.00  0.00     0.016 A 
ATOM     31  C   UNL A   1      41.792  25.827  27.446  1.00  0.00     0.016 A 
ATOM     32  C   UNL A   1      42.860  28.358  28.022  1.00  0.00     0.010 A 
ATOM     33  C   UNL A   1      41.236  26.611  28.465  1.00  0.00     0.010 A 
ATOM     34  C   UNL A   1      41.798  27.858  28.789  1.00  0.00    -0.014 A 
BRANCH  34  35
ATOM     35  C   UNL A   1      41.411  28.581  30.025  1.00  0.00     0.031 A 
ATOM     36  C   UNL A   1      42.231  28.383  31.273  1.00  0.00     0.074 A 
ATOM     37  C   UNL A   1      40.393  29.460  30.019  1.00  0.00     0.049 A 
ATOM     38  N   UNL A   1      42.119  28.961  32.440  1.00  0.00    -0.248 NA
ATOM     39  C   UNL A   1      43.327  27.403  31.191  1.00  0.00     0.031 C 
ATOM     40  C   UNL A   1      39.541  29.756  28.868  1.00  0.00     0.029 A 
ATOM     41  N   UNL A   1      39.911  30.272  31.014  1.00  0.00    -0.354 N 
ATOM     42  C   UNL A   1      43.126  28.420  33.230  1.00  0.00     0.074 A 
ATOM     43  C   UNL A   1      43.817  27.439  32.422  1.00  0.00     0.031 C 
ATOM     44  C   UNL A   1      38.638  30.688  29.224  1.00  0.00     0.029 A 
ATOM     45  C   UNL A   1      38.841  31.042  30.627  1.00  0.00     0.049 A 
ATOM     46  H   UNL A   1      40.297  30.301  31.919  1.00  0.00     0.167 HD
ATOM     47  C   UNL A   1      43.457  28.722  34.509  1.00  0.00     0.037 A 
ATOM     48  C   UNL A   1      38.108  31.931  31.328  1.00  0.00     0.037 A 
ATOM     49  C   UNL A   1      42.773  29.701  35.312  1.00  0.00     0.049 A 
ATOM     50  C   UNL A   1      38.475  32.228  32.758  1.00  0.00     0.074 A 
ATOM     51  C   UNL A   1      43.043  30.090  36.613  1.00  0.00     0.029 A 
ATOM     52  N   UNL A   1      41.680  30.444  34.892  1.00  0.00    -0.354 N 
ATOM     53  N   UNL A   1      39.449  31.728  33.482  1.00  0.00    -0.248 NA
ATOM     54  C   UNL A   1      37.650  33.219  33.462  1.00  0.00     0.031 C 
ATOM     55  C   UNL A   1      42.089  31.042  36.992  1.00  0.00     0.029 A 
ATOM     56  C   UNL A   1      41.252  31.276  35.912  1.00  0.00     0.049 A 
ATOM     57  H   UNL A   1      41.268  30.387  33.999  1.00  0.00     0.167 HD
ATOM     58  C   UNL A   1      39.369  32.363  34.718  1.00  0.00     0.074 A 
ATOM     59  C   UNL A   1      38.260  33.291  34.638  1.00  0.00     0.031 C 
ATOM     60  C   UNL A   1      40.145  32.196  35.817  1.00  0.00     0.037 A 
BRANCH  47  61
ATOM     61  C   UNL A   1      44.604  27.967  35.122  1.00  0.00     0.058 A 
ATOM     62  C   UNL A   1      45.917  28.462  35.087  1.00  0.00     0.135 A 
ATOM     63  C   UNL A   1      44.384  26.740  35.769  1.00  0.00     0.135 A 
ATOM     64  F   UNL A   1      46.185  29.621  34.465  1.00  0.00    -0.206 F 
ATOM     65  C   UNL A   1      46.977  27.755  35.647  1.00  0.00     0.059 A 
ATOM     66  C   UNL A   1      45.424  26.027  36.356  1.00  0.00     0.059 A 
ATOM     67  F   UNL A   1      43.148  26.219  35.828  1.00  0.00    -0.206 F 
ATOM     68  C   UNL A   1      46.721  26.536  36.277  1.00  0.00     0.060 A 
BRANCH  68  69
ATOM     69  S   UNL A   1      48.104  25.624  36.993  1.00  0.00     0.124 S 
ATOM     70  O   UNL A   1      48.516  24.791  35.868  1.00  0.00    -0.237 OA
ATOM     71  O   UNL A   1      49.028  26.693  37.361  1.00  0.00    -0.237 OA
ATOM     72  O   UNL A   1      47.497  24.911  38.113  1.00  0.00    -0.744 OA
ENDBRANCH  68  69
ENDBRANCH  47  61
BRANCH  48  73
ATOM     73  C   UNL A   1      36.956  32.612  30.681  1.00  0.00     0.058 A 
ATOM     74  C   UNL A   1      35.666  32.067  30.732  1.00  0.00     0.135 A 
ATOM     75  C   UNL A   1      37.128  33.828  30.000  1.00  0.00     0.135 A 
ATOM     76  F   UNL A   1      35.456  30.901  31.362  1.00  0.00    -0.206 F 
ATOM     77  C   UNL A   1      34.586  32.694  30.120  1.00  0.00     0.059 A 
ATOM     78  C   UNL A   1      36.059  34.485  29.400  1.00  0.00     0.059 A 
ATOM     79  F   UNL A   1      38.341  34.396  29.932  1.00  0.00    -0.206 F 
ATOM     80  C   UNL A   1      34.792  33.906  29.457  1.00  0.00     0.060 A 
BRANCH  80  81
ATOM     81  S   UNL A   1      33.375  34.743  28.712  1.00  0.00     0.124 S 
ATOM     82  O   UNL A   1      34.012  35.895  28.086  1.00  0.00    -0.237 OA
ATOM     83  O   UNL A   1      32.860  33.723  27.803  1.00  0.00    -0.237 OA
ATOM     84  O   UNL A   1      32.522  35.036  29.859  1.00  0.00    -0.744 OA
ENDBRANCH  80  81
ENDBRANCH  48  73
BRANCH  60  85
ATOM     85  C   UNL A   1      39.839  33.055  37.013  1.00  0.00     0.058 A 
ATOM     86  C   UNL A   1      40.501  34.272  37.236  1.00  0.00     0.135 A 
ATOM     87  C   UNL A   1      38.853  32.667  37.934  1.00  0.00     0.135 A 
ATOM     88  F   UNL A   1      41.454  34.688  36.387  1.00  0.00    -0.206 F 
ATOM     89  C   UNL A   1      40.221  35.059  38.348  1.00  0.00     0.059 A 
ATOM     90  C   UNL A   1      38.538  33.450  39.040  1.00  0.00     0.059 A 
ATOM     91  F   UNL A   1      38.180  31.518  37.760  1.00  0.00    -0.206 F 
ATOM     92  C   UNL A   1      39.241  34.635  39.250  1.00  0.00     0.060 A 
BRANCH  92  93
ATOM     93  S   UNL A   1      38.880  35.664  40.689  1.00  0.00     0.124 S 
ATOM     94  O   UNL A   1      38.910  37.002  40.108  1.00  0.00    -0.237 OA
ATOM     95  O   UNL A   1      37.566  35.180  41.101  1.00  0.00    -0.237 OA
ATOM     96  O   UNL A   1      39.970  35.353  41.609  1.00  0.00    -0.744 OA
ENDBRANCH  92  93
ENDBRANCH  60  85
ENDBRANCH  34  35
ENDBRANCH  27  29
ENDBRANCH  26  27
ENDBRANCH  25  26
ENDBRANCH  24  25
ENDBRANCH  23  24
ENDBRANCH   1  23
TORSDOF 21
ENDMDL
MODEL 2
REMARK VINA RESULT:      -9.5      5.973      8.894
REMARK SMILES CC[C@@H](C)N(C)S(=O)(=O)c1cc(C(=O)OCCOCCOC(=O)c2ccc(-c3c4nc(c(-c5c(F)cc(S(=O)(=O)[O-])cc5F)c5ccc([nH]5)c(-c5c(F)cc(S(=O)(=O)[O-])cc5F)c5nc(c(-c6c(F)cc(S(=O)(=O)[O-])cc6F)c6ccc3[nH]6)C=C5)C=C4)cc2)c(C)cc1C
REMARK SMILES IDX 17 1 16 2 15 3 13 4 14 5 12 6 10 7 11 8 93 9 92 10 94 11
REMARK SMILES IDX 90 12 91 13 7 14 8 15 9 16 5 17 6 18 3 19 4 20 2 21 1 22
REMARK SMILES IDX 18 23 19 24 20 25 21 26 22 27 23 28 24 29 25 30 89 31 26 32
REMARK SMILES IDX 88 33 27 34 28 35 29 36 82 37 30 38 87 39 81 40 83 41 31 42
REMARK SMILES IDX 86 43 80 44 79 45 32 47 66 48 45 49 65 50 46 51 49 52 64 53
REMARK SMILES IDX 84 54 47 55 48 56 63 58 85 59 50 60 33 61 34 62 43 63 35 64
REMARK SMILES IDX 36 65 42 66 44 67 37 68 38 69 39 70 40 71 41 72 67 73 68 74
REMARK SMILES IDX 77 75 69 76 70 77 76 78 78 79 71 80 72 81 73 82 74 83 75 84
REMARK SMILES IDX 51 85 52 86 61 87 53 88 54 89 60 90 62 91 55 92 56 93 57 94
REMARK SMILES IDX 58 95 59 96
REMARK H PARENT 83 46 49 57
REMARK Flexibility Score: inf
ROOT
ATOM      1  C   UNL A   1      37.901  23.239  25.862  1.00  0.00     0.202 C 
ENDROOT
BRANCH   1   2
ATOM      2  C   UNL A   1      36.378  23.362  25.943  1.00  0.00     0.261 C 
BRANCH   2   3
ATOM      3  O   UNL A   1      35.917  24.227  24.889  1.00  0.00    -0.460 OA
BRANCH   3   4
ATOM      4  C   UNL A   1      35.105  23.649  23.978  1.00  0.00     0.338 C 
ATOM      5  O   UNL A   1      35.436  23.174  22.904  1.00  0.00    -0.246 OA
BRANCH   4   6
ATOM      6  C   UNL A   1      33.751  23.445  24.555  1.00  0.00     0.064 A 
ATOM      7  C   UNL A   1      31.773  24.598  25.410  1.00  0.00     0.086 A 
ATOM      8  C   UNL A   1      33.024  24.625  24.778  1.00  0.00     0.038 A 
ATOM      9  C   UNL A   1      31.244  23.383  25.867  1.00  0.00    -0.031 A 
ATOM     10  C   UNL A   1      31.958  22.200  25.580  1.00  0.00     0.009 A 
ATOM     11  C   UNL A   1      30.031  23.264  26.749  1.00  0.00     0.046 C 
ATOM     12  C   UNL A   1      33.194  22.205  24.898  1.00  0.00    -0.036 A 
ATOM     13  C   UNL A   1      33.887  20.891  24.663  1.00  0.00     0.045 C 
BRANCH   7  14
ATOM     14  S   UNL A   1      30.954  26.171  25.634  1.00  0.00     0.243 S 
ATOM     15  O   UNL A   1      30.982  26.474  27.052  1.00  0.00    -0.207 OA
ATOM     16  O   UNL A   1      29.702  26.079  24.918  1.00  0.00    -0.207 OA
BRANCH  14  17
ATOM     17  N   UNL A   1      31.976  27.329  24.873  1.00  0.00    -0.198 NA
ATOM     18  C   UNL A   1      32.414  28.443  25.757  1.00  0.00     0.124 C 
BRANCH  17  19
ATOM     19  C   UNL A   1      31.545  27.837  23.511  1.00  0.00     0.069 C 
ATOM     20  C   UNL A   1      31.231  26.702  22.535  1.00  0.00     0.026 C 
BRANCH  19  21
ATOM     21  C   UNL A   1      32.552  28.852  22.943  1.00  0.00     0.016 C 
ATOM     22  C   UNL A   1      33.781  28.206  22.314  1.00  0.00     0.005 C 
ENDBRANCH  19  21
ENDBRANCH  17  19
ENDBRANCH  14  17
ENDBRANCH   7  14
ENDBRANCH   4   6
ENDBRANCH   3   4
ENDBRANCH   2   3
ENDBRANCH   1   2
BRANCH   1  23
ATOM     23  O   UNL A   1      38.386  21.925  25.565  1.00  0.00    -0.374 OA
BRANCH  23  24
ATOM     24  C   UNL A   1      39.596  21.519  26.204  1.00  0.00     0.202 C 
BRANCH  24  25
ATOM     25  C   UNL A   1      39.912  20.020  26.157  1.00  0.00     0.261 C 
BRANCH  25  26
ATOM     26  O   UNL A   1      41.111  19.734  25.418  1.00  0.00    -0.460 OA
BRANCH  26  27
ATOM     27  C   UNL A   1      42.193  19.478  26.195  1.00  0.00     0.338 C 
ATOM     28  O   UNL A   1      42.589  18.383  26.558  1.00  0.00    -0.246 OA
BRANCH  27  29
ATOM     29  C   UNL A   1      42.961  20.714  26.439  1.00  0.00     0.060 A 
ATOM     30  C   UNL A   1      42.992  21.193  27.754  1.00  0.00     0.016 A 
ATOM     31  C   UNL A   1      43.559  21.441  25.406  1.00  0.00     0.016 A 
ATOM     32  C   UNL A   1      43.557  22.434  28.032  1.00  0.00     0.010 A 
ATOM     33  C   UNL A   1      44.124  22.692  25.686  1.00  0.00     0.010 A 
ATOM     34  C   UNL A   1      44.081  23.214  26.992  1.00  0.00    -0.014 A 
BRANCH  34  35
ATOM     35  C   UNL A   1      44.419  24.632  27.267  1.00  0.00     0.031 A 
ATOM     36  C   UNL A   1      45.836  25.098  27.057  1.00  0.00     0.074 A 
ATOM     37  C   UNL A   1      43.465  25.511  27.622  1.00  0.00     0.049 A 
ATOM     38  N   UNL A   1      46.339  26.299  27.168  1.00  0.00    -0.248 NA
ATOM     39  C   UNL A   1      46.816  24.070  26.669  1.00  0.00     0.031 C 
ATOM     40  C   UNL A   1      42.054  25.186  27.833  1.00  0.00     0.029 A 
ATOM     41  N   UNL A   1      43.540  26.860  27.859  1.00  0.00    -0.354 N 
ATOM     42  C   UNL A   1      47.689  26.176  26.862  1.00  0.00     0.074 A 
ATOM     43  C   UNL A   1      47.935  24.775  26.597  1.00  0.00     0.031 C 
ATOM     44  C   UNL A   1      41.395  26.310  28.168  1.00  0.00     0.029 A 
ATOM     45  C   UNL A   1      42.337  27.426  28.208  1.00  0.00     0.049 A 
ATOM     46  H   UNL A   1      44.376  27.373  27.785  1.00  0.00     0.167 HD
ATOM     47  C   UNL A   1      48.636  27.141  26.792  1.00  0.00     0.037 A 
ATOM     48  C   UNL A   1      42.034  28.701  28.525  1.00  0.00     0.037 A 
ATOM     49  C   UNL A   1      48.390  28.536  27.051  1.00  0.00     0.049 A 
ATOM     50  C   UNL A   1      43.109  29.753  28.471  1.00  0.00     0.074 A 
ATOM     51  C   UNL A   1      49.281  29.594  26.990  1.00  0.00     0.029 A 
ATOM     52  N   UNL A   1      47.164  29.067  27.423  1.00  0.00    -0.354 N 
ATOM     53  N   UNL A   1      44.376  29.624  28.151  1.00  0.00    -0.248 NA
ATOM     54  C   UNL A   1      42.712  31.127  28.809  1.00  0.00     0.031 C 
ATOM     55  C   UNL A   1      48.601  30.760  27.362  1.00  0.00     0.029 A 
ATOM     56  C   UNL A   1      47.277  30.433  27.612  1.00  0.00     0.049 A 
ATOM     57  H   UNL A   1      46.335  28.547  27.536  1.00  0.00     0.167 HD
ATOM     58  C   UNL A   1      44.920  30.903  28.225  1.00  0.00     0.074 A 
ATOM     59  C   UNL A   1      43.842  31.792  28.607  1.00  0.00     0.031 C 
ATOM     60  C   UNL A   1      46.194  31.306  27.993  1.00  0.00     0.037 A 
BRANCH  47  61
ATOM     61  C   UNL A   1      50.034  26.715  26.436  1.00  0.00     0.058 A 
ATOM     62  C   UNL A   1      50.501  26.746  25.113  1.00  0.00     0.135 A 
ATOM     63  C   UNL A   1      50.923  26.285  27.435  1.00  0.00     0.135 A 
ATOM     64  F   UNL A   1      49.686  27.130  24.118  1.00  0.00    -0.206 F 
ATOM     65  C   UNL A   1      51.791  26.339  24.787  1.00  0.00     0.059 A 
ATOM     66  C   UNL A   1      52.224  25.897  27.136  1.00  0.00     0.059 A 
ATOM     67  F   UNL A   1      50.526  26.232  28.716  1.00  0.00    -0.206 F 
ATOM     68  C   UNL A   1      52.645  25.913  25.806  1.00  0.00     0.060 A 
BRANCH  68  69
ATOM     69  S   UNL A   1      54.315  25.382  25.371  1.00  0.00     0.124 S 
ATOM     70  O   UNL A   1      54.224  23.941  25.580  1.00  0.00    -0.237 OA
ATOM     71  O   UNL A   1      54.430  25.815  23.981  1.00  0.00    -0.237 OA
ATOM     72  O   UNL A   1      55.158  26.102  26.320  1.00  0.00    -0.744 OA
ENDBRANCH  68  69
ENDBRANCH  47  61
BRANCH  48  73
ATOM     73  C   UNL A   1      40.643  29.055  28.914  1.00  0.00     0.058 A 
ATOM     74  C   UNL A   1      40.267  29.152  30.260  1.00  0.00     0.135 A 
ATOM     75  C   UNL A   1      39.664  29.305  27.940  1.00  0.00     0.135 A 
ATOM     76  F   UNL A   1      41.166  28.911  31.227  1.00  0.00    -0.206 F 
ATOM     77  C   UNL A   1      38.966  29.472  30.632  1.00  0.00     0.059 A 
ATOM     78  C   UNL A   1      38.361  29.649  28.286  1.00  0.00     0.059 A 
ATOM     79  F   UNL A   1      39.977  29.234  26.637  1.00  0.00    -0.206 F 
ATOM     80  C   UNL A   1      38.019  29.722  29.635  1.00  0.00     0.060 A 
BRANCH  80  81
ATOM     81  S   UNL A   1      36.344  30.191  30.124  1.00  0.00     0.124 S 
ATOM     82  O   UNL A   1      35.557  29.662  29.017  1.00  0.00    -0.237 OA
ATOM     83  O   UNL A   1      36.193  29.503  31.403  1.00  0.00    -0.237 OA
ATOM     84  O   UNL A   1      36.419  31.646  30.208  1.00  0.00    -0.744 OA
ENDBRANCH  80  81
ENDBRANCH  48  73
BRANCH  60  85
ATOM     85  C   UNL A   1      46.485  32.776  28.120  1.00  0.00     0.058 A 
ATOM     86  C   UNL A   1      47.027  33.323  29.292  1.00  0.00     0.135 A 
ATOM     87  C   UNL A   1      46.241  33.644  27.043  1.00  0.00     0.135 A 
ATOM     88  F   UNL A   1      47.276  32.537  30.352  1.00  0.00    -0.206 F 
ATOM     89  C   UNL A   1      47.285  34.685  29.407  1.00  0.00     0.059 A 
ATOM     90  C   UNL A   1      46.515  35.005  27.126  1.00  0.00     0.059 A 
ATOM     91  F   UNL A   1      45.736  33.169  25.892  1.00  0.00    -0.206 F 
ATOM     92  C   UNL A   1      47.019  35.520  28.320  1.00  0.00     0.060 A 
BRANCH  92  93
ATOM     93  S   UNL A   1      47.361  37.286  28.475  1.00  0.00     0.124 S 
ATOM     94  O   UNL A   1      48.718  37.276  29.010  1.00  0.00    -0.237 OA
ATOM     95  O   UNL A   1      47.224  37.756  27.099  1.00  0.00    -0.237 OA
ATOM     96  O   UNL A   1      46.326  37.752  29.393  1.00  0.00    -0.744 OA
ENDBRANCH  92  93
ENDBRANCH  60  85
ENDBRANCH  34  35
ENDBRANCH  27  29
ENDBRANCH  26  27
ENDBRANCH  25  26
ENDBRANCH  24  25
ENDBRANCH  23  24
ENDBRANCH   1  23
TORSDOF 21
ENDMDL
MODEL 3
REMARK VINA RESULT:      -9.4      5.961     11.422
REMARK SMILES CC[C@@H](C)N(C)S(=O)(=O)c1cc(C(=O)OCCOCCOC(=O)c2ccc(-c3c4nc(c(-c5c(F)cc(S(=O)(=O)[O-])cc5F)c5ccc([nH]5)c(-c5c(F)cc(S(=O)(=O)[O-])cc5F)c5nc(c(-c6c(F)cc(S(=O)(=O)[O-])cc6F)c6ccc3[nH]6)C=C5)C=C4)cc2)c(C)cc1C
REMARK SMILES IDX 17 1 16 2 15 3 13 4 14 5 12 6 10 7 11 8 93 9 92 10 94 11
REMARK SMILES IDX 90 12 91 13 7 14 8 15 9 16 5 17 6 18 3 19 4 20 2 21 1 22
REMARK SMILES IDX 18 23 19 24 20 25 21 26 22 27 23 28 24 29 25 30 89 31 26 32
REMARK SMILES IDX 88 33 27 34 28 35 29 36 82 37 30 38 87 39 81 40 83 41 31 42
REMARK SMILES IDX 86 43 80 44 79 45 32 47 66 48 45 49 65 50 46 51 49 52 64 53
REMARK SMILES IDX 84 54 47 55 48 56 63 58 85 59 50 60 33 61 34 62 43 63 35 64
REMARK SMILES IDX 36 65 42 66 44 67 37 68 38 69 39 70 40 71 41 72 67 73 68 74
REMARK SMILES IDX 77 75 69 76 70 77 76 78 78 79 71 80 72 81 73 82 74 83 75 84
REMARK SMILES IDX 51 85 52 86 61 87 53 88 54 89 60 90 62 91 55 92 56 93 57 94
REMARK SMILES IDX 58 95 59 96
REMARK H PARENT 83 46 49 57
REMARK Flexibility Score: inf
ROOT
ATOM      1  C   UNL A   1      36.557  22.239  24.271  1.00  0.00     0.202 C 
ENDROOT
BRANCH   1   2
ATOM      2  C   UNL A   1      35.085  22.054  24.648  1.00  0.00     0.261 C 
BRANCH   2   3
ATOM      3  O   UNL A   1      34.268  22.829  23.753  1.00  0.00    -0.460 OA
BRANCH   3   4
ATOM      4  C   UNL A   1      32.937  22.745  23.963  1.00  0.00     0.338 C 
ATOM      5  O   UNL A   1      32.239  21.753  23.831  1.00  0.00    -0.246 OA
BRANCH   4   6
ATOM      6  C   UNL A   1      32.442  23.983  24.619  1.00  0.00     0.064 A 
ATOM      7  C   UNL A   1      31.761  26.296  24.216  1.00  0.00     0.086 A 
ATOM      8  C   UNL A   1      32.142  25.034  23.738  1.00  0.00     0.038 A 
ATOM      9  C   UNL A   1      31.715  26.538  25.596  1.00  0.00    -0.031 A 
ATOM     10  C   UNL A   1      31.960  25.455  26.467  1.00  0.00     0.009 A 
ATOM     11  C   UNL A   1      31.542  27.899  26.213  1.00  0.00     0.046 C 
ATOM     12  C   UNL A   1      32.292  24.165  26.001  1.00  0.00    -0.036 A 
ATOM     13  C   UNL A   1      32.558  23.085  27.013  1.00  0.00     0.045 C 
BRANCH   7  14
ATOM     14  S   UNL A   1      31.408  27.545  22.987  1.00  0.00     0.243 S 
ATOM     15  O   UNL A   1      31.129  26.859  21.741  1.00  0.00    -0.207 OA
ATOM     16  O   UNL A   1      32.476  28.514  23.080  1.00  0.00    -0.207 OA
BRANCH  14  17
ATOM     17  N   UNL A   1      29.925  28.266  23.484  1.00  0.00    -0.198 NA
ATOM     18  C   UNL A   1      28.761  27.340  23.497  1.00  0.00     0.124 C 
BRANCH  17  19
ATOM     19  C   UNL A   1      29.566  29.601  22.861  1.00  0.00     0.069 C 
ATOM     20  C   UNL A   1      29.572  30.743  23.879  1.00  0.00     0.026 C 
BRANCH  19  21
ATOM     21  C   UNL A   1      28.253  29.517  22.064  1.00  0.00     0.016 C 
ATOM     22  C   UNL A   1      28.028  30.700  21.130  1.00  0.00     0.005 C 
ENDBRANCH  19  21
ENDBRANCH  17  19
ENDBRANCH  14  17
ENDBRANCH   7  14
ENDBRANCH   4   6
ENDBRANCH   3   4
ENDBRANCH   2   3
ENDBRANCH   1   2
BRANCH   1  23
ATOM     23  O   UNL A   1      37.364  21.062  24.388  1.00  0.00    -0.374 OA
BRANCH  23  24
ATOM     24  C   UNL A   1      38.395  21.075  25.375  1.00  0.00     0.202 C 
BRANCH  24  25
ATOM     25  C   UNL A   1      39.052  19.725  25.680  1.00  0.00     0.261 C 
BRANCH  25  26
ATOM     26  O   UNL A   1      40.485  19.815  25.752  1.00  0.00    -0.460 OA
BRANCH  26  27
ATOM     27  C   UNL A   1      40.960  20.125  26.984  1.00  0.00     0.338 C 
ATOM     28  O   UNL A   1      40.778  19.500  28.016  1.00  0.00    -0.246 OA
BRANCH  27  29
ATOM     29  C   UNL A   1      41.887  21.270  26.909  1.00  0.00     0.060 A 
ATOM     30  C   UNL A   1      42.428  21.728  28.117  1.00  0.00     0.016 A 
ATOM     31  C   UNL A   1      42.155  21.941  25.714  1.00  0.00     0.016 A 
ATOM     32  C   UNL A   1      43.179  22.899  28.145  1.00  0.00     0.010 A 
ATOM     33  C   UNL A   1      42.908  23.122  25.744  1.00  0.00     0.010 A 
ATOM     34  C   UNL A   1      43.381  23.631  26.966  1.00  0.00    -0.014 A 
BRANCH  34  35
ATOM     35  C   UNL A   1      43.938  25.002  27.067  1.00  0.00     0.031 A 
ATOM     36  C   UNL A   1      43.046  26.119  27.540  1.00  0.00     0.074 A 
ATOM     37  C   UNL A   1      45.239  25.237  26.817  1.00  0.00     0.049 A 
ATOM     38  N   UNL A   1      43.336  27.373  27.768  1.00  0.00    -0.248 NA
ATOM     39  C   UNL A   1      41.637  25.773  27.791  1.00  0.00     0.031 C 
ATOM     40  C   UNL A   1      46.208  24.235  26.375  1.00  0.00     0.029 A 
ATOM     41  N   UNL A   1      45.968  26.395  26.907  1.00  0.00    -0.354 N 
ATOM     42  C   UNL A   1      42.152  27.966  28.191  1.00  0.00     0.074 A 
ATOM     43  C   UNL A   1      41.130  26.943  28.152  1.00  0.00     0.031 C 
ATOM     44  C   UNL A   1      47.409  24.824  26.235  1.00  0.00     0.029 A 
ATOM     45  C   UNL A   1      47.290  26.243  26.562  1.00  0.00     0.049 A 
ATOM     46  H   UNL A   1      45.581  27.254  27.193  1.00  0.00     0.167 HD
ATOM     47  C   UNL A   1      41.937  29.243  28.590  1.00  0.00     0.037 A 
ATOM     48  C   UNL A   1      48.288  27.148  26.515  1.00  0.00     0.037 A 
ATOM     49  C   UNL A   1      42.955  30.259  28.633  1.00  0.00     0.049 A 
ATOM     50  C   UNL A   1      48.019  28.569  26.933  1.00  0.00     0.074 A 
ATOM     51  C   UNL A   1      42.840  31.578  29.038  1.00  0.00     0.029 A 
ATOM     52  N   UNL A   1      44.276  30.072  28.255  1.00  0.00    -0.354 N 
ATOM     53  N   UNL A   1      46.899  29.107  27.358  1.00  0.00    -0.248 NA
ATOM     54  C   UNL A   1      49.151  29.503  26.878  1.00  0.00     0.031 C 
ATOM     55  C   UNL A   1      44.084  32.198  28.869  1.00  0.00     0.029 A 
ATOM     56  C   UNL A   1      44.983  31.253  28.400  1.00  0.00     0.049 A 
ATOM     57  H   UNL A   1      44.655  29.223  27.931  1.00  0.00     0.167 HD
ATOM     58  C   UNL A   1      47.200  30.435  27.644  1.00  0.00     0.074 A 
ATOM     59  C   UNL A   1      48.608  30.615  27.356  1.00  0.00     0.031 C 
ATOM     60  C   UNL A   1      46.386  31.417  28.108  1.00  0.00     0.037 A 
BRANCH  47  61
ATOM     61  C   UNL A   1      40.537  29.613  28.996  1.00  0.00     0.058 A 
ATOM     62  C   UNL A   1      40.201  29.874  30.334  1.00  0.00     0.135 A 
ATOM     63  C   UNL A   1      39.522  29.725  28.031  1.00  0.00     0.135 A 
ATOM     64  F   UNL A   1      41.129  29.763  31.298  1.00  0.00    -0.206 F 
ATOM     65  C   UNL A   1      38.902  30.206  30.706  1.00  0.00     0.059 A 
ATOM     66  C   UNL A   1      38.222  30.079  28.378  1.00  0.00     0.059 A 
ATOM     67  F   UNL A   1      39.789  29.482  26.739  1.00  0.00    -0.206 F 
ATOM     68  C   UNL A   1      37.918  30.303  29.721  1.00  0.00     0.060 A 
BRANCH  68  69
ATOM     69  S   UNL A   1      36.235  30.728  30.216  1.00  0.00     0.124 S 
ATOM     70  O   UNL A   1      35.963  29.706  31.222  1.00  0.00    -0.237 OA
ATOM     71  O   UNL A   1      36.391  32.088  30.722  1.00  0.00    -0.237 OA
ATOM     72  O   UNL A   1      35.475  30.606  28.976  1.00  0.00    -0.744 OA
ENDBRANCH  68  69
ENDBRANCH  47  61
BRANCH  48  73
ATOM     73  C   UNL A   1      49.641  26.733  26.061  1.00  0.00     0.058 A 
ATOM     74  C   UNL A   1      50.057  26.933  24.737  1.00  0.00     0.135 A 
ATOM     75  C   UNL A   1      50.545  26.128  26.948  1.00  0.00     0.135 A 
ATOM     76  F   UNL A   1      49.224  27.498  23.850  1.00  0.00    -0.206 F 
ATOM     77  C   UNL A   1      51.318  26.538  24.303  1.00  0.00     0.059 A 
ATOM     78  C   UNL A   1      51.819  25.744  26.542  1.00  0.00     0.059 A 
ATOM     79  F   UNL A   1      50.198  25.924  28.228  1.00  0.00    -0.206 F 
ATOM     80  C   UNL A   1      52.194  25.945  25.215  1.00  0.00     0.060 A 
BRANCH  80  81
ATOM     81  S   UNL A   1      53.850  25.484  24.658  1.00  0.00     0.124 S 
ATOM     82  O   UNL A   1      54.689  26.226  25.591  1.00  0.00    -0.237 OA
ATOM     83  O   UNL A   1      53.836  24.034  24.823  1.00  0.00    -0.237 OA
ATOM     84  O   UNL A   1      53.876  25.949  23.275  1.00  0.00    -0.744 OA
ENDBRANCH  80  81
ENDBRANCH  48  73
BRANCH  60  85
ATOM     85  C   UNL A   1      47.005  32.764  28.359  1.00  0.00     0.058 A 
ATOM     86  C   UNL A   1      47.573  33.096  29.598  1.00  0.00     0.135 A 
ATOM     87  C   UNL A   1      47.054  33.725  27.336  1.00  0.00     0.135 A 
ATOM     88  F   UNL A   1      47.550  32.214  30.610  1.00  0.00    -0.206 F 
ATOM     89  C   UNL A   1      48.135  34.348  29.827  1.00  0.00     0.059 A 
ATOM     90  C   UNL A   1      47.634  34.973  27.535  1.00  0.00     0.059 A 
ATOM     91  F   UNL A   1      46.538  33.452  26.126  1.00  0.00    -0.206 F 
ATOM     92  C   UNL A   1      48.156  35.283  28.790  1.00  0.00     0.060 A 
BRANCH  92  93
ATOM     93  S   UNL A   1      48.892  36.903  29.094  1.00  0.00     0.124 S 
ATOM     94  O   UNL A   1      48.436  37.183  30.451  1.00  0.00    -0.237 OA
ATOM     95  O   UNL A   1      50.319  36.634  28.946  1.00  0.00    -0.237 OA
ATOM     96  O   UNL A   1      48.309  37.741  28.050  1.00  0.00    -0.744 OA
ENDBRANCH  92  93
ENDBRANCH  60  85
ENDBRANCH  34  35
ENDBRANCH  27  29
ENDBRANCH  26  27
ENDBRANCH  25  26
ENDBRANCH  24  25
ENDBRANCH  23  24
ENDBRANCH   1  23
TORSDOF 21
ENDMDL
