MODEL 1
REMARK VINA RESULT:     -10.4      0.000      0.000
REMARK SMILES O=C(OCCOCCOC(=O)c1ccc(S(=O)(=O)Cc2ncccn2)c(F)c1)c1ccc(-c2c3nc(c(-c4c(F)cc(S(=O)(=O)[O-])cc4F)c4ccc([nH]4)c(-c4c(F)cc(S(=O)(=O)[O-])cc4F)c4nc(c(-c5c(F)cc(S(=O)(=O)[O-])cc5F)c5ccc2[nH]5)C=C4)C=C3)cc1
REMARK SMILES IDX 6 1 5 2 4 3 3 4 2 5 1 6 29 7 30 8 94 9 31 10 93 11 32 12
REMARK SMILES IDX 33 13 34 14 87 15 35 16 92 17 86 18 88 19 36 20 91 21 85 22
REMARK SMILES IDX 84 23 37 25 71 26 50 27 70 28 51 29 54 30 69 31 89 32 52 33
REMARK SMILES IDX 53 34 68 36 90 37 55 38 38 39 39 40 48 41 40 42 41 43 47 44
REMARK SMILES IDX 49 45 42 46 43 47 44 48 45 49 46 50 72 51 73 52 82 53 74 54
REMARK SMILES IDX 75 55 81 56 83 57 76 58 77 59 78 60 79 61 80 62 56 63 57 64
REMARK SMILES IDX 66 65 58 66 59 67 65 68 67 69 60 70 61 71 62 72 63 73 64 74
REMARK SMILES IDX 7 75 8 76 9 77 10 78 11 79 12 80 13 81 28 82 14 83 26 84
REMARK SMILES IDX 15 85 27 86 16 87 17 88 18 89 19 90 20 91 21 92 25 93 22 94
REMARK SMILES IDX 24 95 23 96
REMARK H PARENT 88 24 54 35
REMARK Flexibility Score: inf
ROOT
ATOM      1  O   UNL A   1      41.647  22.293  27.159  1.00  0.00    -0.374 OA
ENDROOT
BRANCH   1   2
ATOM      2  C   UNL A   1      42.277  22.802  25.984  1.00  0.00     0.202 C 
BRANCH   2   3
ATOM      3  C   UNL A   1      43.477  23.718  26.230  1.00  0.00     0.261 C 
BRANCH   3   4
ATOM      4  O   UNL A   1      43.239  25.011  25.655  1.00  0.00    -0.460 OA
BRANCH   4   5
ATOM      5  C   UNL A   1      42.212  25.854  25.914  1.00  0.00     0.338 C 
ATOM      6  O   UNL A   1      41.364  26.031  25.041  1.00  0.00    -0.246 OA
BRANCH   5   7
ATOM      7  C   UNL A   1      42.063  26.594  27.202  1.00  0.00     0.060 A 
ATOM      8  C   UNL A   1      42.736  27.778  27.518  1.00  0.00     0.016 A 
ATOM      9  C   UNL A   1      41.090  26.129  28.099  1.00  0.00     0.016 A 
ATOM     10  C   UNL A   1      42.488  28.464  28.696  1.00  0.00     0.010 A 
ATOM     11  C   UNL A   1      40.796  26.840  29.267  1.00  0.00     0.010 A 
ATOM     12  C   UNL A   1      41.495  28.016  29.558  1.00  0.00    -0.014 A 
BRANCH  12  13
ATOM     13  C   UNL A   1      41.210  28.813  30.762  1.00  0.00     0.031 A 
ATOM     14  C   UNL A   1      40.065  29.771  30.736  1.00  0.00     0.074 A 
ATOM     15  C   UNL A   1      41.936  28.590  31.875  1.00  0.00     0.049 A 
ATOM     16  N   UNL A   1      39.700  30.632  31.642  1.00  0.00    -0.248 NA
ATOM     17  C   UNL A   1      39.205  29.747  29.540  1.00  0.00     0.031 C 
ATOM     18  C   UNL A   1      42.996  27.582  32.000  1.00  0.00     0.029 A 
ATOM     19  N   UNL A   1      41.892  29.176  33.110  1.00  0.00    -0.354 N 
ATOM     20  C   UNL A   1      38.590  31.277  31.116  1.00  0.00     0.074 A 
ATOM     21  C   UNL A   1      38.327  30.701  29.817  1.00  0.00     0.031 C 
ATOM     22  C   UNL A   1      43.498  27.623  33.243  1.00  0.00     0.029 A 
ATOM     23  C   UNL A   1      42.854  28.705  33.975  1.00  0.00     0.049 A 
ATOM     24  H   UNL A   1      41.236  29.867  33.358  1.00  0.00     0.167 HD
ATOM     25  C   UNL A   1      37.873  32.272  31.681  1.00  0.00     0.037 A 
ATOM     26  C   UNL A   1      43.208  29.146  35.198  1.00  0.00     0.037 A 
ATOM     27  C   UNL A   1      38.166  32.807  32.982  1.00  0.00     0.049 A 
ATOM     28  C   UNL A   1      42.455  30.323  35.758  1.00  0.00     0.074 A 
ATOM     29  C   UNL A   1      37.531  33.834  33.653  1.00  0.00     0.029 A 
ATOM     30  N   UNL A   1      39.188  32.353  33.807  1.00  0.00    -0.354 N 
ATOM     31  N   UNL A   1      41.427  30.957  35.243  1.00  0.00    -0.248 NA
ATOM     32  C   UNL A   1      42.918  30.869  37.040  1.00  0.00     0.031 C 
ATOM     33  C   UNL A   1      38.200  34.035  34.862  1.00  0.00     0.029 A 
ATOM     34  C   UNL A   1      39.224  33.103  34.967  1.00  0.00     0.049 A 
ATOM     35  H   UNL A   1      39.796  31.608  33.596  1.00  0.00     0.167 HD
ATOM     36  C   UNL A   1      41.124  31.979  36.132  1.00  0.00     0.074 A 
ATOM     37  C   UNL A   1      42.059  31.860  37.234  1.00  0.00     0.031 C 
ATOM     38  C   UNL A   1      40.171  32.938  36.043  1.00  0.00     0.037 A 
BRANCH  25  39
ATOM     39  C   UNL A   1      36.755  32.881  30.890  1.00  0.00     0.058 A 
ATOM     40  C   UNL A   1      37.035  33.851  29.913  1.00  0.00     0.135 A 
ATOM     41  C   UNL A   1      35.412  32.564  31.136  1.00  0.00     0.135 A 
ATOM     42  F   UNL A   1      38.305  34.171  29.623  1.00  0.00    -0.206 F 
ATOM     43  C   UNL A   1      36.018  34.513  29.235  1.00  0.00     0.059 A 
ATOM     44  C   UNL A   1      34.378  33.202  30.455  1.00  0.00     0.059 A 
ATOM     45  F   UNL A   1      35.094  31.617  32.032  1.00  0.00    -0.206 F 
ATOM     46  C   UNL A   1      34.691  34.189  29.520  1.00  0.00     0.060 A 
BRANCH  46  47
ATOM     47  S   UNL A   1      33.386  35.074  28.642  1.00  0.00     0.124 S 
ATOM     48  O   UNL A   1      34.151  36.039  27.860  1.00  0.00    -0.237 OA
ATOM     49  O   UNL A   1      32.747  34.002  27.885  1.00  0.00    -0.237 OA
ATOM     50  O   UNL A   1      32.576  35.637  29.718  1.00  0.00    -0.744 OA
ENDBRANCH  46  47
ENDBRANCH  25  39
BRANCH  26  51
ATOM     51  C   UNL A   1      44.367  28.542  35.912  1.00  0.00     0.058 A 
ATOM     52  C   UNL A   1      44.182  27.501  36.838  1.00  0.00     0.135 A 
ATOM     53  C   UNL A   1      45.679  28.984  35.690  1.00  0.00     0.135 A 
ATOM     54  F   UNL A   1      42.949  27.036  37.094  1.00  0.00    -0.206 F 
ATOM     55  C   UNL A   1      45.247  26.938  37.533  1.00  0.00     0.059 A 
ATOM     56  C   UNL A   1      46.767  28.415  36.351  1.00  0.00     0.059 A 
ATOM     57  F   UNL A   1      45.915  29.966  34.806  1.00  0.00    -0.206 F 
ATOM     58  C   UNL A   1      46.539  27.400  37.281  1.00  0.00     0.060 A 
BRANCH  58  59
ATOM     59  S   UNL A   1      47.910  26.628  38.167  1.00  0.00     0.124 S 
ATOM     60  O   UNL A   1      48.941  26.591  37.136  1.00  0.00    -0.237 OA
ATOM     61  O   UNL A   1      48.137  27.570  39.259  1.00  0.00    -0.237 OA
ATOM     62  O   UNL A   1      47.368  25.333  38.564  1.00  0.00    -0.744 OA
ENDBRANCH  58  59
ENDBRANCH  26  51
BRANCH  38  63
ATOM     63  C   UNL A   1      40.089  33.939  37.155  1.00  0.00     0.058 A 
ATOM     64  C   UNL A   1      39.254  33.709  38.257  1.00  0.00     0.135 A 
ATOM     65  C   UNL A   1      40.722  35.186  37.048  1.00  0.00     0.135 A 
ATOM     66  F   UNL A   1      38.624  32.530  38.396  1.00  0.00    -0.206 F 
ATOM     67  C   UNL A   1      39.007  34.702  39.195  1.00  0.00     0.059 A 
ATOM     68  C   UNL A   1      40.511  36.186  37.988  1.00  0.00     0.059 A 
ATOM     69  F   UNL A   1      41.542  35.442  36.016  1.00  0.00    -0.206 F 
ATOM     70  C   UNL A   1      39.628  35.943  39.042  1.00  0.00     0.060 A 
BRANCH  70  71
ATOM     71  S   UNL A   1      39.249  37.241  40.235  1.00  0.00     0.124 S 
ATOM     72  O   UNL A   1      38.447  38.159  39.432  1.00  0.00    -0.237 OA
ATOM     73  O   UNL A   1      38.529  36.506  41.270  1.00  0.00    -0.237 OA
ATOM     74  O   UNL A   1      40.565  37.737  40.628  1.00  0.00    -0.744 OA
ENDBRANCH  70  71
ENDBRANCH  38  63
ENDBRANCH  12  13
ENDBRANCH   5   7
ENDBRANCH   4   5
ENDBRANCH   3   4
ENDBRANCH   2   3
ENDBRANCH   1   2
BRANCH   1  75
ATOM     75  C   UNL A   1      40.217  22.405  27.207  1.00  0.00     0.202 C 
BRANCH  75  76
ATOM     76  C   UNL A   1      39.599  21.482  26.150  1.00  0.00     0.261 C 
BRANCH  76  77
ATOM     77  O   UNL A   1      38.530  22.197  25.507  1.00  0.00    -0.460 OA
BRANCH  77  78
ATOM     78  C   UNL A   1      37.531  21.397  25.052  1.00  0.00     0.338 C 
ATOM     79  O   UNL A   1      37.500  20.189  24.995  1.00  0.00    -0.246 OA
BRANCH  78  80
ATOM     80  C   UNL A   1      36.340  22.250  24.870  1.00  0.00     0.063 A 
ATOM     81  C   UNL A   1      36.396  23.637  25.015  1.00  0.00     0.017 A 
ATOM     82  C   UNL A   1      35.127  21.609  24.605  1.00  0.00     0.056 A 
ATOM     83  C   UNL A   1      35.239  24.388  24.812  1.00  0.00     0.024 A 
ATOM     84  C   UNL A   1      33.964  22.358  24.499  1.00  0.00     0.142 A 
ATOM     85  C   UNL A   1      34.025  23.741  24.524  1.00  0.00     0.103 A 
ATOM     86  F   UNL A   1      32.801  21.708  24.386  1.00  0.00    -0.206 F 
BRANCH  85  87
ATOM     87  S   UNL A   1      32.634  24.746  24.119  1.00  0.00     0.188 S 
ATOM     88  O   UNL A   1      32.201  24.255  22.817  1.00  0.00    -0.223 OA
ATOM     89  O   UNL A   1      31.708  24.643  25.237  1.00  0.00    -0.223 OA
BRANCH  87  90
ATOM     90  C   UNL A   1      33.048  26.436  23.898  1.00  0.00     0.219 C 
BRANCH  90  91
ATOM     91  C   UNL A   1      32.805  27.312  25.082  1.00  0.00     0.143 A 
ATOM     92  N   UNL A   1      31.801  28.204  24.925  1.00  0.00    -0.240 NA
ATOM     93  N   UNL A   1      33.607  27.286  26.160  1.00  0.00    -0.240 NA
ATOM     94  C   UNL A   1      31.647  29.138  25.883  1.00  0.00     0.115 A 
ATOM     95  C   UNL A   1      33.420  28.251  27.087  1.00  0.00     0.115 A 
ATOM     96  C   UNL A   1      32.451  29.218  26.992  1.00  0.00     0.040 A 
ENDBRANCH  90  91
ENDBRANCH  87  90
ENDBRANCH  85  87
ENDBRANCH  78  80
ENDBRANCH  77  78
ENDBRANCH  76  77
ENDBRANCH  75  76
ENDBRANCH   1  75
TORSDOF 20
ENDMDL
MODEL 2
REMARK VINA RESULT:     -10.3      6.043      8.522
REMARK SMILES O=C(OCCOCCOC(=O)c1ccc(S(=O)(=O)Cc2ncccn2)c(F)c1)c1ccc(-c2c3nc(c(-c4c(F)cc(S(=O)(=O)[O-])cc4F)c4ccc([nH]4)c(-c4c(F)cc(S(=O)(=O)[O-])cc4F)c4nc(c(-c5c(F)cc(S(=O)(=O)[O-])cc5F)c5ccc2[nH]5)C=C4)C=C3)cc1
REMARK SMILES IDX 6 1 5 2 4 3 3 4 2 5 1 6 29 7 30 8 94 9 31 10 93 11 32 12
REMARK SMILES IDX 33 13 34 14 87 15 35 16 92 17 86 18 88 19 36 20 91 21 85 22
REMARK SMILES IDX 84 23 37 25 71 26 50 27 70 28 51 29 54 30 69 31 89 32 52 33
REMARK SMILES IDX 53 34 68 36 90 37 55 38 38 39 39 40 48 41 40 42 41 43 47 44
REMARK SMILES IDX 49 45 42 46 43 47 44 48 45 49 46 50 72 51 73 52 82 53 74 54
REMARK SMILES IDX 75 55 81 56 83 57 76 58 77 59 78 60 79 61 80 62 56 63 57 64
REMARK SMILES IDX 66 65 58 66 59 67 65 68 67 69 60 70 61 71 62 72 63 73 64 74
REMARK SMILES IDX 7 75 8 76 9 77 10 78 11 79 12 80 13 81 28 82 14 83 26 84
REMARK SMILES IDX 15 85 27 86 16 87 17 88 18 89 19 90 20 91 21 92 25 93 22 94
REMARK SMILES IDX 24 95 23 96
REMARK H PARENT 88 24 54 35
REMARK Flexibility Score: inf
ROOT
ATOM      1  O   UNL A   1      37.259  21.562  24.594  1.00  0.00    -0.374 OA
ENDROOT
BRANCH   1   2
ATOM      2  C   UNL A   1      37.982  20.446  25.112  1.00  0.00     0.202 C 
BRANCH   2   3
ATOM      3  C   UNL A   1      39.226  20.796  25.930  1.00  0.00     0.261 C 
BRANCH   3   4
ATOM      4  O   UNL A   1      40.169  19.716  25.883  1.00  0.00    -0.460 OA
BRANCH   4   5
ATOM      5  C   UNL A   1      41.516  19.790  25.995  1.00  0.00     0.338 C 
ATOM      6  O   UNL A   1      42.174  18.759  25.869  1.00  0.00    -0.246 OA
BRANCH   5   7
ATOM      7  C   UNL A   1      42.245  21.062  26.281  1.00  0.00     0.060 A 
ATOM      8  C   UNL A   1      42.577  22.019  25.318  1.00  0.00     0.016 A 
ATOM      9  C   UNL A   1      42.501  21.364  27.627  1.00  0.00     0.016 A 
ATOM     10  C   UNL A   1      43.176  23.220  25.661  1.00  0.00     0.010 A 
ATOM     11  C   UNL A   1      43.060  22.594  27.990  1.00  0.00     0.010 A 
ATOM     12  C   UNL A   1      43.390  23.525  27.000  1.00  0.00    -0.014 A 
BRANCH  12  13
ATOM     13  C   UNL A   1      43.961  24.842  27.329  1.00  0.00     0.031 A 
ATOM     14  C   UNL A   1      43.059  25.901  27.872  1.00  0.00     0.074 A 
ATOM     15  C   UNL A   1      45.290  25.020  27.212  1.00  0.00     0.049 A 
ATOM     16  N   UNL A   1      43.329  27.148  28.134  1.00  0.00    -0.248 NA
ATOM     17  C   UNL A   1      41.673  25.503  28.174  1.00  0.00     0.031 C 
ATOM     18  C   UNL A   1      46.245  23.984  26.797  1.00  0.00     0.029 A 
ATOM     19  N   UNL A   1      46.075  26.117  27.440  1.00  0.00    -0.354 N 
ATOM     20  C   UNL A   1      42.143  27.695  28.602  1.00  0.00     0.074 A 
ATOM     21  C   UNL A   1      41.150  26.644  28.602  1.00  0.00     0.031 C 
ATOM     22  C   UNL A   1      47.483  24.499  26.802  1.00  0.00     0.029 A 
ATOM     23  C   UNL A   1      47.404  25.913  27.143  1.00  0.00     0.049 A 
ATOM     24  H   UNL A   1      45.724  26.970  27.784  1.00  0.00     0.167 HD
ATOM     25  C   UNL A   1      41.920  28.971  28.981  1.00  0.00     0.037 A 
ATOM     26  C   UNL A   1      48.424  26.792  27.096  1.00  0.00     0.037 A 
ATOM     27  C   UNL A   1      42.943  29.980  28.973  1.00  0.00     0.049 A 
ATOM     28  C   UNL A   1      48.121  28.229  27.426  1.00  0.00     0.074 A 
ATOM     29  C   UNL A   1      42.835  31.316  29.307  1.00  0.00     0.029 A 
ATOM     30  N   UNL A   1      44.264  29.758  28.604  1.00  0.00    -0.354 N 
ATOM     31  N   UNL A   1      46.988  28.753  27.834  1.00  0.00    -0.248 NA
ATOM     32  C   UNL A   1      49.210  29.199  27.264  1.00  0.00     0.031 C 
ATOM     33  C   UNL A   1      44.079  31.913  29.093  1.00  0.00     0.029 A 
ATOM     34  C   UNL A   1      44.975  30.941  28.669  1.00  0.00     0.049 A 
ATOM     35  H   UNL A   1      44.637  28.887  28.336  1.00  0.00     0.167 HD
ATOM     36  C   UNL A   1      47.224  30.114  27.972  1.00  0.00     0.074 A 
ATOM     37  C   UNL A   1      48.618  30.328  27.633  1.00  0.00     0.031 C 
ATOM     38  C   UNL A   1      46.369  31.101  28.331  1.00  0.00     0.037 A 
BRANCH  25  39
ATOM     39  C   UNL A   1      40.528  29.362  29.376  1.00  0.00     0.058 A 
ATOM     40  C   UNL A   1      39.579  29.671  28.388  1.00  0.00     0.135 A 
ATOM     41  C   UNL A   1      40.148  29.499  30.719  1.00  0.00     0.135 A 
ATOM     42  F   UNL A   1      39.887  29.532  27.089  1.00  0.00    -0.206 F 
ATOM     43  C   UNL A   1      38.313  30.139  28.717  1.00  0.00     0.059 A 
ATOM     44  C   UNL A   1      38.878  29.949  31.072  1.00  0.00     0.059 A 
ATOM     45  F   UNL A   1      41.005  29.180  31.700  1.00  0.00    -0.206 F 
ATOM     46  C   UNL A   1      37.974  30.286  30.063  1.00  0.00     0.060 A 
BRANCH  46  47
ATOM     47  S   UNL A   1      36.331  30.912  30.470  1.00  0.00     0.124 S 
ATOM     48  O   UNL A   1      36.565  32.351  30.532  1.00  0.00    -0.237 OA
ATOM     49  O   UNL A   1      35.537  30.444  29.339  1.00  0.00    -0.237 OA
ATOM     50  O   UNL A   1      36.030  30.268  31.745  1.00  0.00    -0.744 OA
ENDBRANCH  46  47
ENDBRANCH  25  39
BRANCH  26  51
ATOM     51  C   UNL A   1      49.772  26.358  26.636  1.00  0.00     0.058 A 
ATOM     52  C   UNL A   1      50.127  26.419  25.278  1.00  0.00     0.135 A 
ATOM     53  C   UNL A   1      50.735  25.875  27.534  1.00  0.00     0.135 A 
ATOM     54  F   UNL A   1      49.247  26.872  24.371  1.00  0.00    -0.206 F 
ATOM     55  C   UNL A   1      51.371  25.997  24.823  1.00  0.00     0.059 A 
ATOM     56  C   UNL A   1      52.001  25.474  27.108  1.00  0.00     0.059 A 
ATOM     57  F   UNL A   1      50.455  25.808  28.845  1.00  0.00    -0.206 F 
ATOM     58  C   UNL A   1      52.305  25.528  25.747  1.00  0.00     0.060 A 
BRANCH  58  59
ATOM     59  S   UNL A   1      53.928  25.021  25.138  1.00  0.00     0.124 S 
ATOM     60  O   UNL A   1      53.693  23.619  24.812  1.00  0.00    -0.237 OA
ATOM     61  O   UNL A   1      54.121  25.915  24.001  1.00  0.00    -0.237 OA
ATOM     62  O   UNL A   1      54.806  25.264  26.279  1.00  0.00    -0.744 OA
ENDBRANCH  58  59
ENDBRANCH  26  51
BRANCH  38  63
ATOM     63  C   UNL A   1      46.903  32.500  28.372  1.00  0.00     0.058 A 
ATOM     64  C   UNL A   1      47.478  33.006  29.546  1.00  0.00     0.135 A 
ATOM     65  C   UNL A   1      46.703  33.378  27.296  1.00  0.00     0.135 A 
ATOM     66  F   UNL A   1      47.682  32.202  30.601  1.00  0.00    -0.206 F 
ATOM     67  C   UNL A   1      47.794  34.353  29.672  1.00  0.00     0.059 A 
ATOM     68  C   UNL A   1      47.035  34.723  27.390  1.00  0.00     0.059 A 
ATOM     69  F   UNL A   1      46.169  32.930  26.148  1.00  0.00    -0.206 F 
ATOM     70  C   UNL A   1      47.553  35.205  28.592  1.00  0.00     0.060 A 
BRANCH  70  71
ATOM     71  S   UNL A   1      47.913  36.961  28.795  1.00  0.00     0.124 S 
ATOM     72  O   UNL A   1      47.204  37.269  30.033  1.00  0.00    -0.237 OA
ATOM     73  O   UNL A   1      49.369  36.968  28.879  1.00  0.00    -0.237 OA
ATOM     74  O   UNL A   1      47.357  37.563  27.587  1.00  0.00    -0.744 OA
ENDBRANCH  70  71
ENDBRANCH  38  63
ENDBRANCH  12  13
ENDBRANCH   5   7
ENDBRANCH   4   5
ENDBRANCH   3   4
ENDBRANCH   2   3
ENDBRANCH   1   2
BRANCH   1  75
ATOM     75  C   UNL A   1      36.043  21.899  25.279  1.00  0.00     0.202 C 
BRANCH  75  76
ATOM     76  C   UNL A   1      35.176  20.642  25.423  1.00  0.00     0.261 C 
BRANCH  76  77
ATOM     77  O   UNL A   1      34.274  20.595  24.304  1.00  0.00    -0.460 OA
BRANCH  77  78
ATOM     78  C   UNL A   1      33.003  20.967  24.609  1.00  0.00     0.338 C 
ATOM     79  O   UNL A   1      32.238  20.460  25.397  1.00  0.00    -0.246 OA
BRANCH  78  80
ATOM     80  C   UNL A   1      32.778  22.291  23.996  1.00  0.00     0.063 A 
ATOM     81  C   UNL A   1      32.145  23.326  24.685  1.00  0.00     0.017 A 
ATOM     82  C   UNL A   1      33.169  22.455  22.665  1.00  0.00     0.056 A 
ATOM     83  C   UNL A   1      31.979  24.559  24.056  1.00  0.00     0.024 A 
ATOM     84  C   UNL A   1      32.912  23.655  22.017  1.00  0.00     0.142 A 
ATOM     85  C   UNL A   1      32.393  24.727  22.724  1.00  0.00     0.103 A 
ATOM     86  F   UNL A   1      33.168  23.735  20.707  1.00  0.00    -0.206 F 
BRANCH  85  87
ATOM     87  S   UNL A   1      32.306  26.348  22.034  1.00  0.00     0.188 S 
ATOM     88  O   UNL A   1      33.696  26.718  21.805  1.00  0.00    -0.223 OA
ATOM     89  O   UNL A   1      31.417  26.262  20.885  1.00  0.00    -0.223 OA
BRANCH  87  90
ATOM     90  C   UNL A   1      31.654  27.535  23.148  1.00  0.00     0.219 C 
BRANCH  90  91
ATOM     91  C   UNL A   1      30.366  28.164  22.729  1.00  0.00     0.143 A 
ATOM     92  N   UNL A   1      30.504  29.282  21.981  1.00  0.00    -0.240 NA
ATOM     93  N   UNL A   1      29.180  27.712  23.171  1.00  0.00    -0.240 NA
ATOM     94  C   UNL A   1      29.390  29.992  21.721  1.00  0.00     0.115 A 
ATOM     95  C   UNL A   1      28.095  28.467  22.894  1.00  0.00     0.115 A 
ATOM     96  C   UNL A   1      28.145  29.635  22.174  1.00  0.00     0.040 A 
ENDBRANCH  90  91
ENDBRANCH  87  90
ENDBRANCH  85  87
ENDBRANCH  78  80
ENDBRANCH  77  78
ENDBRANCH  76  77
ENDBRANCH  75  76
ENDBRANCH   1  75
TORSDOF 20
ENDMDL
MODEL 3
REMARK VINA RESULT:     -10.1      6.226     12.000
REMARK SMILES O=C(OCCOCCOC(=O)c1ccc(S(=O)(=O)Cc2ncccn2)c(F)c1)c1ccc(-c2c3nc(c(-c4c(F)cc(S(=O)(=O)[O-])cc4F)c4ccc([nH]4)c(-c4c(F)cc(S(=O)(=O)[O-])cc4F)c4nc(c(-c5c(F)cc(S(=O)(=O)[O-])cc5F)c5ccc2[nH]5)C=C4)C=C3)cc1
REMARK SMILES IDX 6 1 5 2 4 3 3 4 2 5 1 6 29 7 30 8 94 9 31 10 93 11 32 12
REMARK SMILES IDX 33 13 34 14 87 15 35 16 92 17 86 18 88 19 36 20 91 21 85 22
REMARK SMILES IDX 84 23 37 25 71 26 50 27 70 28 51 29 54 30 69 31 89 32 52 33
REMARK SMILES IDX 53 34 68 36 90 37 55 38 38 39 39 40 48 41 40 42 41 43 47 44
REMARK SMILES IDX 49 45 42 46 43 47 44 48 45 49 46 50 72 51 73 52 82 53 74 54
REMARK SMILES IDX 75 55 81 56 83 57 76 58 77 59 78 60 79 61 80 62 56 63 57 64
REMARK SMILES IDX 66 65 58 66 59 67 65 68 67 69 60 70 61 71 62 72 63 73 64 74
REMARK SMILES IDX 7 75 8 76 9 77 10 78 11 79 12 80 13 81 28 82 14 83 26 84
REMARK SMILES IDX 15 85 27 86 16 87 17 88 18 89 19 90 20 91 21 92 25 93 22 94
REMARK SMILES IDX 24 95 23 96
REMARK H PARENT 88 24 54 35
REMARK Flexibility Score: inf
ROOT
ATOM      1  O   UNL A   1      35.224  31.453  27.578  1.00  0.00    -0.374 OA
ENDROOT
BRANCH   1   2
ATOM      2  C   UNL A   1      34.469  31.989  28.664  1.00  0.00     0.202 C 
BRANCH   2   3
ATOM      3  C   UNL A   1      35.265  32.264  29.941  1.00  0.00     0.261 C 
BRANCH   3   4
ATOM      4  O   UNL A   1      35.657  31.027  30.555  1.00  0.00    -0.460 OA
BRANCH   4   5
ATOM      5  C   UNL A   1      36.786  30.774  31.256  1.00  0.00     0.338 C 
ATOM      6  O   UNL A   1      36.774  30.949  32.473  1.00  0.00    -0.246 OA
BRANCH   5   7
ATOM      7  C   UNL A   1      38.056  30.308  30.623  1.00  0.00     0.060 A 
ATOM      8  C   UNL A   1      38.324  30.360  29.253  1.00  0.00     0.016 A 
ATOM      9  C   UNL A   1      39.091  29.908  31.483  1.00  0.00     0.016 A 
ATOM     10  C   UNL A   1      39.557  29.993  28.737  1.00  0.00     0.010 A 
ATOM     11  C   UNL A   1      40.354  29.584  30.979  1.00  0.00     0.010 A 
ATOM     12  C   UNL A   1      40.586  29.635  29.601  1.00  0.00    -0.014 A 
BRANCH  12  13
ATOM     13  C   UNL A   1      41.902  29.325  29.019  1.00  0.00     0.031 A 
ATOM     14  C   UNL A   1      42.144  27.953  28.481  1.00  0.00     0.074 A 
ATOM     15  C   UNL A   1      42.813  30.310  28.913  1.00  0.00     0.049 A 
ATOM     16  N   UNL A   1      43.248  27.441  28.019  1.00  0.00    -0.248 NA
ATOM     17  C   UNL A   1      40.988  27.039  28.444  1.00  0.00     0.031 C 
ATOM     18  C   UNL A   1      42.595  31.705  29.315  1.00  0.00     0.029 A 
ATOM     19  N   UNL A   1      44.092  30.304  28.427  1.00  0.00    -0.354 N 
ATOM     20  C   UNL A   1      42.933  26.136  27.664  1.00  0.00     0.074 A 
ATOM     21  C   UNL A   1      41.531  25.935  27.951  1.00  0.00     0.031 C 
ATOM     22  C   UNL A   1      43.702  32.416  29.057  1.00  0.00     0.029 A 
ATOM     23  C   UNL A   1      44.730  31.519  28.548  1.00  0.00     0.049 A 
ATOM     24  H   UNL A   1      44.516  29.510  28.029  1.00  0.00     0.167 HD
ATOM     25  C   UNL A   1      43.763  25.200  27.157  1.00  0.00     0.037 A 
ATOM     26  C   UNL A   1      46.019  31.843  28.326  1.00  0.00     0.037 A 
ATOM     27  C   UNL A   1      45.150  25.450  26.879  1.00  0.00     0.049 A 
ATOM     28  C   UNL A   1      46.941  30.751  27.857  1.00  0.00     0.074 A 
ATOM     29  C   UNL A   1      46.100  24.575  26.391  1.00  0.00     0.029 A 
ATOM     30  N   UNL A   1      45.783  26.671  27.074  1.00  0.00    -0.354 N 
ATOM     31  N   UNL A   1      46.650  29.506  27.556  1.00  0.00    -0.248 NA
ATOM     32  C   UNL A   1      48.365  31.085  27.725  1.00  0.00     0.031 C 
ATOM     33  C   UNL A   1      47.320  25.253  26.336  1.00  0.00     0.029 A 
ATOM     34  C   UNL A   1      47.122  26.564  26.747  1.00  0.00     0.049 A 
ATOM     35  H   UNL A   1      45.343  27.491  27.396  1.00  0.00     0.167 HD
ATOM     36  C   UNL A   1      47.851  28.907  27.206  1.00  0.00     0.074 A 
ATOM     37  C   UNL A   1      48.870  29.933  27.302  1.00  0.00     0.031 C 
ATOM     38  C   UNL A   1      48.097  27.622  26.850  1.00  0.00     0.037 A 
BRANCH  25  39
ATOM     39  C   UNL A   1      43.221  23.822  26.925  1.00  0.00     0.058 A 
ATOM     40  C   UNL A   1      43.067  22.937  28.006  1.00  0.00     0.135 A 
ATOM     41  C   UNL A   1      42.919  23.348  25.640  1.00  0.00     0.135 A 
ATOM     42  F   UNL A   1      43.319  23.350  29.257  1.00  0.00    -0.206 F 
ATOM     43  C   UNL A   1      42.669  21.620  27.815  1.00  0.00     0.059 A 
ATOM     44  C   UNL A   1      42.501  22.037  25.428  1.00  0.00     0.059 A 
ATOM     45  F   UNL A   1      43.013  24.165  24.580  1.00  0.00    -0.206 F 
ATOM     46  C   UNL A   1      42.398  21.174  26.520  1.00  0.00     0.060 A 
BRANCH  46  47
ATOM     47  S   UNL A   1      41.900  19.454  26.292  1.00  0.00     0.124 S 
ATOM     48  O   UNL A   1      42.314  18.852  27.555  1.00  0.00    -0.237 OA
ATOM     49  O   UNL A   1      40.461  19.578  26.086  1.00  0.00    -0.237 OA
ATOM     50  O   UNL A   1      42.659  19.036  25.118  1.00  0.00    -0.744 OA
ENDBRANCH  46  47
ENDBRANCH  25  39
BRANCH  26  51
ATOM     51  C   UNL A   1      46.514  33.214  28.633  1.00  0.00     0.058 A 
ATOM     52  C   UNL A   1      46.454  34.237  27.670  1.00  0.00     0.135 A 
ATOM     53  C   UNL A   1      47.057  33.537  29.885  1.00  0.00     0.135 A 
ATOM     54  F   UNL A   1      45.945  33.988  26.453  1.00  0.00    -0.206 F 
ATOM     55  C   UNL A   1      46.931  35.517  27.927  1.00  0.00     0.059 A 
ATOM     56  C   UNL A   1      47.515  34.821  30.177  1.00  0.00     0.059 A 
ATOM     57  F   UNL A   1      47.127  32.603  30.846  1.00  0.00    -0.206 F 
ATOM     58  C   UNL A   1      47.459  35.802  29.186  1.00  0.00     0.060 A 
BRANCH  58  59
ATOM     59  S   UNL A   1      48.039  37.481  29.509  1.00  0.00     0.124 S 
ATOM     60  O   UNL A   1      48.479  37.377  30.896  1.00  0.00    -0.237 OA
ATOM     61  O   UNL A   1      49.098  37.636  28.516  1.00  0.00    -0.237 OA
ATOM     62  O   UNL A   1      46.850  38.297  29.285  1.00  0.00    -0.744 OA
ENDBRANCH  58  59
ENDBRANCH  26  51
BRANCH  38  63
ATOM     63  C   UNL A   1      49.515  27.247  26.546  1.00  0.00     0.058 A 
ATOM     64  C   UNL A   1      49.946  27.120  25.217  1.00  0.00     0.135 A 
ATOM     65  C   UNL A   1      50.394  26.867  27.571  1.00  0.00     0.135 A 
ATOM     66  F   UNL A   1      49.134  27.467  24.206  1.00  0.00    -0.206 F 
ATOM     67  C   UNL A   1      51.188  26.581  24.911  1.00  0.00     0.059 A 
ATOM     68  C   UNL A   1      51.652  26.349  27.288  1.00  0.00     0.059 A 
ATOM     69  F   UNL A   1      50.026  26.987  28.856  1.00  0.00    -0.206 F 
ATOM     70  C   UNL A   1      52.027  26.183  25.955  1.00  0.00     0.060 A 
BRANCH  70  71
ATOM     71  S   UNL A   1      53.611  25.429  25.536  1.00  0.00     0.124 S 
ATOM     72  O   UNL A   1      54.217  25.260  26.853  1.00  0.00    -0.237 OA
ATOM     73  O   UNL A   1      53.199  24.201  24.865  1.00  0.00    -0.237 OA
ATOM     74  O   UNL A   1      54.244  26.425  24.677  1.00  0.00    -0.744 OA
ENDBRANCH  70  71
ENDBRANCH  38  63
ENDBRANCH  12  13
ENDBRANCH   5   7
ENDBRANCH   4   5
ENDBRANCH   3   4
ENDBRANCH   2   3
ENDBRANCH   1   2
BRANCH   1  75
ATOM     75  C   UNL A   1      35.072  30.046  27.339  1.00  0.00     0.202 C 
BRANCH  75  76
ATOM     76  C   UNL A   1      33.581  29.706  27.233  1.00  0.00     0.261 C 
BRANCH  76  77
ATOM     77  O   UNL A   1      33.453  28.275  27.196  1.00  0.00    -0.460 OA
BRANCH  77  78
ATOM     78  C   UNL A   1      32.363  27.838  26.512  1.00  0.00     0.338 C 
ATOM     79  O   UNL A   1      31.430  28.483  26.093  1.00  0.00    -0.246 OA
BRANCH  78  80
ATOM     80  C   UNL A   1      32.627  26.440  26.119  1.00  0.00     0.063 A 
ATOM     81  C   UNL A   1      31.634  25.460  26.170  1.00  0.00     0.017 A 
ATOM     82  C   UNL A   1      33.934  26.113  25.751  1.00  0.00     0.056 A 
ATOM     83  C   UNL A   1      31.943  24.160  25.767  1.00  0.00     0.024 A 
ATOM     84  C   UNL A   1      34.252  24.798  25.445  1.00  0.00     0.142 A 
ATOM     85  C   UNL A   1      33.253  23.841  25.377  1.00  0.00     0.103 A 
ATOM     86  F   UNL A   1      35.536  24.490  25.234  1.00  0.00    -0.206 F 
BRANCH  85  87
ATOM     87  S   UNL A   1      33.547  22.228  24.727  1.00  0.00     0.188 S 
ATOM     88  O   UNL A   1      33.934  22.462  23.342  1.00  0.00    -0.223 OA
ATOM     89  O   UNL A   1      34.511  21.593  25.614  1.00  0.00    -0.223 OA
BRANCH  87  90
ATOM     90  C   UNL A   1      32.104  21.234  24.677  1.00  0.00     0.219 C 
BRANCH  90  91
ATOM     91  C   UNL A   1      32.344  19.767  24.532  1.00  0.00     0.143 A 
ATOM     92  N   UNL A   1      32.523  19.108  25.699  1.00  0.00    -0.240 NA
ATOM     93  N   UNL A   1      32.489  19.188  23.328  1.00  0.00    -0.240 NA
ATOM     94  C   UNL A   1      32.918  17.823  25.630  1.00  0.00     0.115 A 
ATOM     95  C   UNL A   1      32.898  17.901  23.312  1.00  0.00     0.115 A 
ATOM     96  C   UNL A   1      33.140  17.166  24.446  1.00  0.00     0.040 A 
ENDBRANCH  90  91
ENDBRANCH  87  90
ENDBRANCH  85  87
ENDBRANCH  78  80
ENDBRANCH  77  78
ENDBRANCH  76  77
ENDBRANCH  75  76
ENDBRANCH   1  75
TORSDOF 20
ENDMDL
