MODEL 1
REMARK VINA RESULT:     -12.0      0.000      0.000
REMARK SMILES Cc1cc([N+](=O)[O-])ccc1NC(=O)[C@@H]1[C@@H](C(=O)OCCOCCOC(=O)c2ccc(-c3c4nc(c(-c5c(F)cc(S(=O)(=O)[O-])cc5F)c5ccc([nH]5)c(-c5c(F)cc(S(=O)(=O)[O-])cc5F)c5nc(c(-c6c(F)cc(S(=O)(=O)[O-])cc6F)c6ccc3[nH]6)C=C5)C=C4)cc2)[C@H]2C=C[C@@H]1C2
REMARK SMILES IDX 21 1 20 2 19 3 18 4 16 5 17 6 15 7 14 8 96 9 93 10 95 11
REMARK SMILES IDX 97 12 94 13 12 14 11 15 13 17 10 18 1 19 2 20 3 21 4 22 9 23
REMARK SMILES IDX 8 24 5 25 6 26 7 27 22 28 23 29 24 30 25 31 26 32 27 33
REMARK SMILES IDX 28 34 92 35 29 36 91 37 30 38 31 39 32 40 85 41 33 42 90 43
REMARK SMILES IDX 84 44 86 45 34 46 89 47 83 48 82 49 35 51 69 52 48 53 68 54
REMARK SMILES IDX 49 55 52 56 67 57 87 58 50 59 51 60 66 62 88 63 53 64 36 65
REMARK SMILES IDX 37 66 46 67 38 68 39 69 45 70 47 71 40 72 41 73 42 74 43 75
REMARK SMILES IDX 44 76 70 77 71 78 80 79 72 80 73 81 79 82 81 83 74 84 75 85
REMARK SMILES IDX 76 86 77 87 78 88 54 89 55 90 64 91 56 92 57 93 63 94 65 95
REMARK SMILES IDX 58 96 59 97 60 98 61 99 62 100
REMARK H PARENT 11 16 86 50 52 61
REMARK Flexibility Score: inf
ROOT
ATOM      1  O   UNL A   1      31.641  32.830  27.317  1.00  0.00    -0.374 OA
ENDROOT
BRANCH   1   2
ATOM      2  C   UNL A   1      31.378  31.670  26.538  1.00  0.00     0.202 C 
BRANCH   2   3
ATOM      3  C   UNL A   1      32.197  30.394  26.776  1.00  0.00     0.261 C 
BRANCH   3   4
ATOM      4  O   UNL A   1      33.167  30.115  25.773  1.00  0.00    -0.463 OA
BRANCH   4   5
ATOM      5  C   UNL A   1      33.306  28.795  25.474  1.00  0.00     0.310 C 
ATOM      6  O   UNL A   1      33.953  27.998  26.139  1.00  0.00    -0.252 OA
BRANCH   5   7
ATOM      7  C   UNL A   1      32.272  28.404  24.456  1.00  0.00     0.119 C 
ATOM      8  C   UNL A   1      32.380  26.861  24.389  1.00  0.00     0.100 C 
ATOM      9  C   UNL A   1      32.183  26.556  22.892  1.00  0.00     0.025 C 
ATOM     10  C   UNL A   1      32.432  28.793  22.972  1.00  0.00     0.027 C 
ATOM     11  C   UNL A   1      33.526  26.878  22.262  1.00  0.00    -0.027 C 
ATOM     12  C   UNL A   1      31.424  27.784  22.377  1.00  0.00     0.017 C 
ATOM     13  C   UNL A   1      33.682  28.211  22.341  1.00  0.00    -0.027 C 
BRANCH   8  14
ATOM     14  C   UNL A   1      31.506  26.154  25.399  1.00  0.00     0.228 C 
ATOM     15  N   UNL A   1      31.900  24.925  25.888  1.00  0.00    -0.326 N 
ATOM     16  H   UNL A   1      31.333  24.542  26.595  1.00  0.00     0.169 HD
ATOM     17  O   UNL A   1      30.419  26.615  25.751  1.00  0.00    -0.274 OA
BRANCH  15  18
ATOM     18  C   UNL A   1      33.013  24.147  25.502  1.00  0.00     0.044 A 
ATOM     19  C   UNL A   1      31.529  22.797  23.918  1.00  0.00     0.047 C 
ATOM     20  C   UNL A   1      32.866  23.214  24.464  1.00  0.00    -0.021 A 
ATOM     21  C   UNL A   1      34.023  22.647  23.896  1.00  0.00     0.091 A 
ATOM     22  C   UNL A   1      35.297  22.994  24.370  1.00  0.00     0.269 A 
ATOM     23  C   UNL A   1      34.281  24.334  26.078  1.00  0.00     0.033 A 
ATOM     24  C   UNL A   1      35.431  23.801  25.495  1.00  0.00     0.088 A 
BRANCH  22  25
ATOM     25  N   UNL A   1      36.488  22.554  23.634  1.00  0.00     0.062 N 
ATOM     26  O   UNL A   1      36.729  23.113  22.553  1.00  0.00    -0.258 OA
ATOM     27  O   UNL A   1      37.217  21.711  24.172  1.00  0.00    -0.258 OA
ENDBRANCH  22  25
ENDBRANCH  15  18
ENDBRANCH   8  14
ENDBRANCH   5   7
ENDBRANCH   4   5
ENDBRANCH   3   4
ENDBRANCH   2   3
ENDBRANCH   1   2
BRANCH   1  28
ATOM     28  C   UNL A   1      32.963  33.385  27.275  1.00  0.00     0.202 C 
BRANCH  28  29
ATOM     29  C   UNL A   1      33.880  33.173  28.490  1.00  0.00     0.261 C 
BRANCH  29  30
ATOM     30  O   UNL A   1      35.256  33.299  28.141  1.00  0.00    -0.460 OA
BRANCH  30  31
ATOM     31  C   UNL A   1      36.194  32.694  28.904  1.00  0.00     0.338 C 
ATOM     32  O   UNL A   1      37.307  33.157  29.124  1.00  0.00    -0.246 OA
BRANCH  31  33
ATOM     33  C   UNL A   1      35.704  31.287  29.157  1.00  0.00     0.060 A 
ATOM     34  C   UNL A   1      35.906  30.778  30.430  1.00  0.00     0.016 A 
ATOM     35  C   UNL A   1      35.803  30.405  28.087  1.00  0.00     0.016 A 
ATOM     36  C   UNL A   1      36.759  29.685  30.568  1.00  0.00     0.010 A 
ATOM     37  C   UNL A   1      36.767  29.414  28.195  1.00  0.00     0.010 A 
ATOM     38  C   UNL A   1      37.414  29.229  29.420  1.00  0.00    -0.014 A 
BRANCH  38  39
ATOM     39  C   UNL A   1      38.899  29.118  29.446  1.00  0.00     0.031 A 
ATOM     40  C   UNL A   1      39.667  27.940  28.957  1.00  0.00     0.074 A 
ATOM     41  C   UNL A   1      39.637  30.208  29.807  1.00  0.00     0.049 A 
ATOM     42  N   UNL A   1      40.746  27.495  29.526  1.00  0.00    -0.248 NA
ATOM     43  C   UNL A   1      39.331  27.211  27.737  1.00  0.00     0.031 C 
ATOM     44  C   UNL A   1      41.095  30.319  29.785  1.00  0.00     0.029 A 
ATOM     45  N   UNL A   1      39.251  31.430  30.376  1.00  0.00    -0.354 N 
ATOM     46  C   UNL A   1      41.371  26.645  28.636  1.00  0.00     0.074 A 
ATOM     47  C   UNL A   1      40.413  26.443  27.573  1.00  0.00     0.031 C 
ATOM     48  C   UNL A   1      41.473  31.367  30.531  1.00  0.00     0.029 A 
ATOM     49  C   UNL A   1      40.290  31.884  31.184  1.00  0.00     0.049 A 
ATOM     50  H   UNL A   1      38.392  31.888  30.229  1.00  0.00     0.167 HD
ATOM     51  C   UNL A   1      42.689  26.299  28.762  1.00  0.00     0.037 A 
ATOM     52  C   UNL A   1      40.173  32.105  32.524  1.00  0.00     0.037 A 
ATOM     53  C   UNL A   1      43.365  27.127  29.766  1.00  0.00     0.049 A 
ATOM     54  C   UNL A   1      41.111  31.169  33.268  1.00  0.00     0.074 A 
ATOM     55  C   UNL A   1      44.244  28.193  29.637  1.00  0.00     0.029 A 
ATOM     56  N   UNL A   1      42.956  27.128  31.103  1.00  0.00    -0.354 N 
ATOM     57  N   UNL A   1      41.585  30.069  32.736  1.00  0.00    -0.248 NA
ATOM     58  C   UNL A   1      41.654  31.408  34.602  1.00  0.00     0.031 C 
ATOM     59  C   UNL A   1      44.300  28.877  30.877  1.00  0.00     0.029 A 
ATOM     60  C   UNL A   1      43.483  28.216  31.780  1.00  0.00     0.049 A 
ATOM     61  H   UNL A   1      42.371  26.447  31.507  1.00  0.00     0.167 HD
ATOM     62  C   UNL A   1      42.517  29.515  33.561  1.00  0.00     0.074 A 
ATOM     63  C   UNL A   1      42.493  30.363  34.741  1.00  0.00     0.031 C 
ATOM     64  C   UNL A   1      43.267  28.429  33.208  1.00  0.00     0.037 A 
BRANCH  51  65
ATOM     65  C   UNL A   1      43.401  25.427  27.728  1.00  0.00     0.058 A 
ATOM     66  C   UNL A   1      43.916  25.931  26.513  1.00  0.00     0.135 A 
ATOM     67  C   UNL A   1      43.608  24.041  27.910  1.00  0.00     0.135 A 
ATOM     68  F   UNL A   1      43.925  27.243  26.249  1.00  0.00    -0.206 F 
ATOM     69  C   UNL A   1      44.451  25.110  25.509  1.00  0.00     0.059 A 
ATOM     70  C   UNL A   1      44.085  23.192  26.904  1.00  0.00     0.059 A 
ATOM     71  F   UNL A   1      43.365  23.459  29.096  1.00  0.00    -0.206 F 
ATOM     72  C   UNL A   1      44.493  23.734  25.695  1.00  0.00     0.060 A 
BRANCH  72  73
ATOM     73  S   UNL A   1      45.069  22.670  24.354  1.00  0.00     0.124 S 
ATOM     74  O   UNL A   1      43.876  22.539  23.523  1.00  0.00    -0.237 OA
ATOM     75  O   UNL A   1      46.160  23.453  23.786  1.00  0.00    -0.237 OA
ATOM     76  O   UNL A   1      45.471  21.446  25.044  1.00  0.00    -0.744 OA
ENDBRANCH  72  73
ENDBRANCH  51  65
BRANCH  52  77
ATOM     77  C   UNL A   1      38.860  32.664  32.963  1.00  0.00     0.058 A 
ATOM     78  C   UNL A   1      38.557  33.993  32.583  1.00  0.00     0.135 A 
ATOM     79  C   UNL A   1      37.786  31.880  33.400  1.00  0.00     0.135 A 
ATOM     80  F   UNL A   1      39.548  34.809  32.185  1.00  0.00    -0.206 F 
ATOM     81  C   UNL A   1      37.249  34.477  32.504  1.00  0.00     0.059 A 
ATOM     82  C   UNL A   1      36.465  32.355  33.358  1.00  0.00     0.059 A 
ATOM     83  F   UNL A   1      37.983  30.600  33.744  1.00  0.00    -0.206 F 
ATOM     84  C   UNL A   1      36.199  33.637  32.860  1.00  0.00     0.060 A 
BRANCH  84  85
ATOM     85  S   UNL A   1      34.483  34.123  32.464  1.00  0.00     0.124 S 
ATOM     86  O   UNL A   1      34.123  34.929  33.623  1.00  0.00    -0.237 OA
ATOM     87  O   UNL A   1      34.606  34.855  31.209  1.00  0.00    -0.237 OA
ATOM     88  O   UNL A   1      33.805  32.832  32.354  1.00  0.00    -0.744 OA
ENDBRANCH  84  85
ENDBRANCH  52  77
BRANCH  64  89
ATOM     89  C   UNL A   1      43.981  27.545  34.198  1.00  0.00     0.058 A 
ATOM     90  C   UNL A   1      43.347  26.460  34.827  1.00  0.00     0.135 A 
ATOM     91  C   UNL A   1      45.380  27.637  34.388  1.00  0.00     0.135 A 
ATOM     92  F   UNL A   1      42.040  26.215  34.648  1.00  0.00    -0.206 F 
ATOM     93  C   UNL A   1      44.039  25.548  35.620  1.00  0.00     0.059 A 
ATOM     94  C   UNL A   1      46.099  26.708  35.135  1.00  0.00     0.059 A 
ATOM     95  F   UNL A   1      46.100  28.620  33.828  1.00  0.00    -0.206 F 
ATOM     96  C   UNL A   1      45.418  25.673  35.761  1.00  0.00     0.060 A 
BRANCH  96  97
ATOM     97  S   UNL A   1      46.326  24.429  36.692  1.00  0.00     0.124 S 
ATOM     98  O   UNL A   1      47.704  24.871  36.501  1.00  0.00    -0.237 OA
ATOM     99  O   UNL A   1      45.797  24.586  38.045  1.00  0.00    -0.237 OA
ATOM    100  O   UNL A   1      45.961  23.182  36.027  1.00  0.00    -0.744 OA
ENDBRANCH  96  97
ENDBRANCH  64  89
ENDBRANCH  38  39
ENDBRANCH  31  33
ENDBRANCH  30  31
ENDBRANCH  29  30
ENDBRANCH  28  29
ENDBRANCH   1  28
TORSDOF 20
ENDMDL
MODEL 2
REMARK VINA RESULT:     -11.1      2.539      3.617
REMARK SMILES Cc1cc([N+](=O)[O-])ccc1NC(=O)[C@@H]1[C@@H](C(=O)OCCOCCOC(=O)c2ccc(-c3c4nc(c(-c5c(F)cc(S(=O)(=O)[O-])cc5F)c5ccc([nH]5)c(-c5c(F)cc(S(=O)(=O)[O-])cc5F)c5nc(c(-c6c(F)cc(S(=O)(=O)[O-])cc6F)c6ccc3[nH]6)C=C5)C=C4)cc2)[C@H]2C=C[C@@H]1C2
REMARK SMILES IDX 21 1 20 2 19 3 18 4 16 5 17 6 15 7 14 8 96 9 93 10 95 11
REMARK SMILES IDX 97 12 94 13 12 14 11 15 13 17 10 18 1 19 2 20 3 21 4 22 9 23
REMARK SMILES IDX 8 24 5 25 6 26 7 27 22 28 23 29 24 30 25 31 26 32 27 33
REMARK SMILES IDX 28 34 92 35 29 36 91 37 30 38 31 39 32 40 85 41 33 42 90 43
REMARK SMILES IDX 84 44 86 45 34 46 89 47 83 48 82 49 35 51 69 52 48 53 68 54
REMARK SMILES IDX 49 55 52 56 67 57 87 58 50 59 51 60 66 62 88 63 53 64 36 65
REMARK SMILES IDX 37 66 46 67 38 68 39 69 45 70 47 71 40 72 41 73 42 74 43 75
REMARK SMILES IDX 44 76 70 77 71 78 80 79 72 80 73 81 79 82 81 83 74 84 75 85
REMARK SMILES IDX 76 86 77 87 78 88 54 89 55 90 64 91 56 92 57 93 63 94 65 95
REMARK SMILES IDX 58 96 59 97 60 98 61 99 62 100
REMARK H PARENT 11 16 86 50 52 61
REMARK Flexibility Score: inf
ROOT
ATOM      1  O   UNL A   1      34.844  31.573  27.383  1.00  0.00    -0.374 OA
ENDROOT
BRANCH   1   2
ATOM      2  C   UNL A   1      33.557  31.033  27.650  1.00  0.00     0.202 C 
BRANCH   2   3
ATOM      3  C   UNL A   1      32.641  30.640  26.482  1.00  0.00     0.261 C 
BRANCH   3   4
ATOM      4  O   UNL A   1      31.819  29.505  26.727  1.00  0.00    -0.463 OA
BRANCH   4   5
ATOM      5  C   UNL A   1      31.682  28.667  25.665  1.00  0.00     0.310 C 
ATOM      6  O   UNL A   1      31.911  28.976  24.504  1.00  0.00    -0.252 OA
BRANCH   5   7
ATOM      7  C   UNL A   1      31.580  27.252  26.158  1.00  0.00     0.119 C 
ATOM      8  C   UNL A   1      32.542  26.464  25.236  1.00  0.00     0.100 C 
ATOM      9  C   UNL A   1      31.803  25.133  25.004  1.00  0.00     0.025 C 
ATOM     10  C   UNL A   1      30.271  26.449  26.003  1.00  0.00     0.027 C 
ATOM     11  C   UNL A   1      30.750  25.463  23.962  1.00  0.00    -0.027 C 
ATOM     12  C   UNL A   1      30.861  25.037  26.210  1.00  0.00     0.017 C 
ATOM     13  C   UNL A   1      29.856  26.273  24.554  1.00  0.00    -0.027 C 
BRANCH   8  14
ATOM     14  C   UNL A   1      33.965  26.430  25.742  1.00  0.00     0.228 C 
ATOM     15  N   UNL A   1      34.758  25.338  25.454  1.00  0.00    -0.326 N 
ATOM     16  H   UNL A   1      35.696  25.399  25.746  1.00  0.00     0.169 HD
ATOM     17  O   UNL A   1      34.419  27.324  26.460  1.00  0.00    -0.274 OA
BRANCH  15  18
ATOM     18  C   UNL A   1      34.393  24.144  24.796  1.00  0.00     0.044 A 
ATOM     19  C   UNL A   1      34.236  22.942  27.046  1.00  0.00     0.047 C 
ATOM     20  C   UNL A   1      34.016  23.030  25.562  1.00  0.00    -0.021 A 
ATOM     21  C   UNL A   1      33.392  21.946  24.916  1.00  0.00     0.091 A 
ATOM     22  C   UNL A   1      33.168  21.970  23.531  1.00  0.00     0.269 A 
ATOM     23  C   UNL A   1      34.327  24.064  23.395  1.00  0.00     0.033 A 
ATOM     24  C   UNL A   1      33.677  23.006  22.756  1.00  0.00     0.088 A 
BRANCH  22  25
ATOM     25  N   UNL A   1      32.337  20.929  22.914  1.00  0.00     0.062 N 
ATOM     26  O   UNL A   1      32.373  19.797  23.419  1.00  0.00    -0.258 OA
ATOM     27  O   UNL A   1      31.596  21.264  21.981  1.00  0.00    -0.258 OA
ENDBRANCH  22  25
ENDBRANCH  15  18
ENDBRANCH   8  14
ENDBRANCH   5   7
ENDBRANCH   4   5
ENDBRANCH   3   4
ENDBRANCH   2   3
ENDBRANCH   1   2
BRANCH   1  28
ATOM     28  C   UNL A   1      35.354  32.575  28.274  1.00  0.00     0.202 C 
BRANCH  28  29
ATOM     29  C   UNL A   1      36.877  32.745  28.383  1.00  0.00     0.261 C 
BRANCH  29  30
ATOM     30  O   UNL A   1      37.375  32.257  29.625  1.00  0.00    -0.460 OA
BRANCH  30  31
ATOM     31  C   UNL A   1      38.271  31.244  29.632  1.00  0.00     0.338 C 
ATOM     32  O   UNL A   1      39.476  31.389  29.460  1.00  0.00    -0.246 OA
BRANCH  31  33
ATOM     33  C   UNL A   1      37.474  29.961  29.603  1.00  0.00     0.060 A 
ATOM     34  C   UNL A   1      37.568  29.145  30.718  1.00  0.00     0.016 A 
ATOM     35  C   UNL A   1      37.356  29.345  28.362  1.00  0.00     0.016 A 
ATOM     36  C   UNL A   1      38.148  27.888  30.562  1.00  0.00     0.010 A 
ATOM     37  C   UNL A   1      38.068  28.167  28.191  1.00  0.00     0.010 A 
ATOM     38  C   UNL A   1      38.668  27.571  29.303  1.00  0.00    -0.014 A 
BRANCH  38  39
ATOM     39  C   UNL A   1      40.088  27.131  29.212  1.00  0.00     0.031 A 
ATOM     40  C   UNL A   1      40.535  25.834  28.633  1.00  0.00     0.074 A 
ATOM     41  C   UNL A   1      41.076  28.012  29.545  1.00  0.00     0.049 A 
ATOM     42  N   UNL A   1      41.522  25.135  29.104  1.00  0.00    -0.248 NA
ATOM     43  C   UNL A   1      39.961  25.254  27.422  1.00  0.00     0.031 C 
ATOM     44  C   UNL A   1      42.516  27.797  29.414  1.00  0.00     0.029 A 
ATOM     45  N   UNL A   1      41.015  29.262  30.177  1.00  0.00    -0.354 N 
ATOM     46  C   UNL A   1      41.877  24.208  28.145  1.00  0.00     0.074 A 
ATOM     47  C   UNL A   1      40.827  24.272  27.154  1.00  0.00     0.031 C 
ATOM     48  C   UNL A   1      43.171  28.700  30.158  1.00  0.00     0.029 A 
ATOM     49  C   UNL A   1      42.182  29.437  30.914  1.00  0.00     0.049 A 
ATOM     50  H   UNL A   1      40.274  29.907  30.109  1.00  0.00     0.167 HD
ATOM     51  C   UNL A   1      43.089  23.572  28.160  1.00  0.00     0.037 A 
ATOM     52  C   UNL A   1      42.211  29.620  32.265  1.00  0.00     0.037 A 
ATOM     53  C   UNL A   1      44.002  24.183  29.132  1.00  0.00     0.049 A 
ATOM     54  C   UNL A   1      42.963  28.466  32.908  1.00  0.00     0.074 A 
ATOM     55  C   UNL A   1      45.087  25.031  28.966  1.00  0.00     0.029 A 
ATOM     56  N   UNL A   1      43.696  24.215  30.495  1.00  0.00    -0.354 N 
ATOM     57  N   UNL A   1      43.139  27.313  32.311  1.00  0.00    -0.248 NA
ATOM     58  C   UNL A   1      43.636  28.518  34.203  1.00  0.00     0.031 C 
ATOM     59  C   UNL A   1      45.382  25.630  30.216  1.00  0.00     0.029 A 
ATOM     60  C   UNL A   1      44.500  25.127  31.160  1.00  0.00     0.049 A 
ATOM     61  H   UNL A   1      43.002  23.665  30.924  1.00  0.00     0.167 HD
ATOM     62  C   UNL A   1      43.976  26.529  33.046  1.00  0.00     0.074 A 
ATOM     63  C   UNL A   1      44.226  27.307  34.248  1.00  0.00     0.031 C 
ATOM     64  C   UNL A   1      44.436  25.319  32.607  1.00  0.00     0.037 A 
BRANCH  51  65
ATOM     65  C   UNL A   1      43.513  22.610  27.050  1.00  0.00     0.058 A 
ATOM     66  C   UNL A   1      42.850  21.392  26.787  1.00  0.00     0.135 A 
ATOM     67  C   UNL A   1      44.605  22.869  26.191  1.00  0.00     0.135 A 
ATOM     68  F   UNL A   1      41.716  21.063  27.419  1.00  0.00    -0.206 F 
ATOM     69  C   UNL A   1      43.318  20.450  25.859  1.00  0.00     0.059 A 
ATOM     70  C   UNL A   1      45.126  21.925  25.297  1.00  0.00     0.059 A 
ATOM     71  F   UNL A   1      45.200  24.072  26.178  1.00  0.00    -0.206 F 
ATOM     72  C   UNL A   1      44.482  20.706  25.146  1.00  0.00     0.060 A 
BRANCH  72  73
ATOM     73  S   UNL A   1      45.149  19.442  24.041  1.00  0.00     0.124 S 
ATOM     74  O   UNL A   1      44.767  18.204  24.714  1.00  0.00    -0.237 OA
ATOM     75  O   UNL A   1      44.455  19.729  22.791  1.00  0.00    -0.237 OA
ATOM     76  O   UNL A   1      46.584  19.719  24.038  1.00  0.00    -0.744 OA
ENDBRANCH  72  73
ENDBRANCH  51  65
BRANCH  52  77
ATOM     77  C   UNL A   1      41.091  30.437  32.819  1.00  0.00     0.058 A 
ATOM     78  C   UNL A   1      40.021  29.745  33.432  1.00  0.00     0.135 A 
ATOM     79  C   UNL A   1      41.186  31.806  33.091  1.00  0.00     0.135 A 
ATOM     80  F   UNL A   1      39.854  28.434  33.186  1.00  0.00    -0.206 F 
ATOM     81  C   UNL A   1      39.176  30.340  34.373  1.00  0.00     0.059 A 
ATOM     82  C   UNL A   1      40.330  32.433  34.011  1.00  0.00     0.059 A 
ATOM     83  F   UNL A   1      42.193  32.527  32.578  1.00  0.00    -0.206 F 
ATOM     84  C   UNL A   1      39.359  31.682  34.688  1.00  0.00     0.060 A 
BRANCH  84  85
ATOM     85  S   UNL A   1      38.496  32.396  36.130  1.00  0.00     0.124 S 
ATOM     86  O   UNL A   1      37.147  32.584  35.611  1.00  0.00    -0.237 OA
ATOM     87  O   UNL A   1      38.630  31.374  37.161  1.00  0.00    -0.237 OA
ATOM     88  O   UNL A   1      39.255  33.620  36.381  1.00  0.00    -0.744 OA
ENDBRANCH  84  85
ENDBRANCH  52  77
BRANCH  64  89
ATOM     89  C   UNL A   1      44.999  24.256  33.513  1.00  0.00     0.058 A 
ATOM     90  C   UNL A   1      44.296  23.076  33.811  1.00  0.00     0.135 A 
ATOM     91  C   UNL A   1      46.346  24.296  33.944  1.00  0.00     0.135 A 
ATOM     92  F   UNL A   1      43.041  22.883  33.377  1.00  0.00    -0.206 F 
ATOM     93  C   UNL A   1      44.869  22.023  34.519  1.00  0.00     0.059 A 
ATOM     94  C   UNL A   1      46.954  23.235  34.608  1.00  0.00     0.059 A 
ATOM     95  F   UNL A   1      47.126  25.362  33.707  1.00  0.00    -0.206 F 
ATOM     96  C   UNL A   1      46.203  22.106  34.905  1.00  0.00     0.060 A 
BRANCH  96  97
ATOM     97  S   UNL A   1      46.976  20.698  35.719  1.00  0.00     0.124 S 
ATOM     98  O   UNL A   1      46.339  19.579  35.032  1.00  0.00    -0.237 OA
ATOM     99  O   UNL A   1      48.394  20.892  35.426  1.00  0.00    -0.237 OA
ATOM    100  O   UNL A   1      46.605  20.878  37.119  1.00  0.00    -0.744 OA
ENDBRANCH  96  97
ENDBRANCH  64  89
ENDBRANCH  38  39
ENDBRANCH  31  33
ENDBRANCH  30  31
ENDBRANCH  29  30
ENDBRANCH  28  29
ENDBRANCH   1  28
TORSDOF 20
ENDMDL
MODEL 3
REMARK VINA RESULT:     -10.9      3.692      7.141
REMARK SMILES Cc1cc([N+](=O)[O-])ccc1NC(=O)[C@@H]1[C@@H](C(=O)OCCOCCOC(=O)c2ccc(-c3c4nc(c(-c5c(F)cc(S(=O)(=O)[O-])cc5F)c5ccc([nH]5)c(-c5c(F)cc(S(=O)(=O)[O-])cc5F)c5nc(c(-c6c(F)cc(S(=O)(=O)[O-])cc6F)c6ccc3[nH]6)C=C5)C=C4)cc2)[C@H]2C=C[C@@H]1C2
REMARK SMILES IDX 21 1 20 2 19 3 18 4 16 5 17 6 15 7 14 8 96 9 93 10 95 11
REMARK SMILES IDX 97 12 94 13 12 14 11 15 13 17 10 18 1 19 2 20 3 21 4 22 9 23
REMARK SMILES IDX 8 24 5 25 6 26 7 27 22 28 23 29 24 30 25 31 26 32 27 33
REMARK SMILES IDX 28 34 92 35 29 36 91 37 30 38 31 39 32 40 85 41 33 42 90 43
REMARK SMILES IDX 84 44 86 45 34 46 89 47 83 48 82 49 35 51 69 52 48 53 68 54
REMARK SMILES IDX 49 55 52 56 67 57 87 58 50 59 51 60 66 62 88 63 53 64 36 65
REMARK SMILES IDX 37 66 46 67 38 68 39 69 45 70 47 71 40 72 41 73 42 74 43 75
REMARK SMILES IDX 44 76 70 77 71 78 80 79 72 80 73 81 79 82 81 83 74 84 75 85
REMARK SMILES IDX 76 86 77 87 78 88 54 89 55 90 64 91 56 92 57 93 63 94 65 95
REMARK SMILES IDX 58 96 59 97 60 98 61 99 62 100
REMARK H PARENT 11 16 86 50 52 61
REMARK Flexibility Score: inf
ROOT
ATOM      1  O   UNL A   1      33.768  29.820  27.659  1.00  0.00    -0.374 OA
ENDROOT
BRANCH   1   2
ATOM      2  C   UNL A   1      32.828  30.402  26.765  1.00  0.00     0.202 C 
BRANCH   2   3
ATOM      3  C   UNL A   1      31.753  29.520  26.115  1.00  0.00     0.261 C 
BRANCH   3   4
ATOM      4  O   UNL A   1      31.559  28.259  26.744  1.00  0.00    -0.463 OA
BRANCH   4   5
ATOM      5  C   UNL A   1      32.040  27.197  26.043  1.00  0.00     0.310 C 
ATOM      6  O   UNL A   1      33.146  26.702  26.207  1.00  0.00    -0.252 OA
BRANCH   5   7
ATOM      7  C   UNL A   1      30.906  26.515  25.333  1.00  0.00     0.119 C 
ATOM      8  C   UNL A   1      31.371  25.043  25.216  1.00  0.00     0.100 C 
ATOM      9  C   UNL A   1      30.870  24.622  23.822  1.00  0.00     0.025 C 
ATOM     10  C   UNL A   1      30.569  26.853  23.866  1.00  0.00     0.027 C 
ATOM     11  C   UNL A   1      31.877  25.227  22.861  1.00  0.00    -0.027 C 
ATOM     12  C   UNL A   1      29.723  25.601  23.547  1.00  0.00     0.017 C 
ATOM     13  C   UNL A   1      31.714  26.559  22.915  1.00  0.00    -0.027 C 
BRANCH   8  14
ATOM     14  C   UNL A   1      30.996  24.198  26.412  1.00  0.00     0.228 C 
ATOM     15  N   UNL A   1      31.880  23.241  26.865  1.00  0.00    -0.326 N 
ATOM     16  H   UNL A   1      31.619  22.769  27.688  1.00  0.00     0.169 HD
ATOM     17  O   UNL A   1      29.894  24.297  26.956  1.00  0.00    -0.274 OA
BRANCH  15  18
ATOM     18  C   UNL A   1      33.113  22.851  26.296  1.00  0.00     0.044 A 
ATOM     19  C   UNL A   1      31.920  21.052  24.927  1.00  0.00     0.047 C 
ATOM     20  C   UNL A   1      33.118  21.892  25.272  1.00  0.00    -0.021 A 
ATOM     21  C   UNL A   1      34.295  21.710  24.522  1.00  0.00     0.091 A 
ATOM     22  C   UNL A   1      35.447  22.461  24.804  1.00  0.00     0.269 A 
ATOM     23  C   UNL A   1      34.324  23.451  26.677  1.00  0.00     0.033 A 
ATOM     24  C   UNL A   1      35.483  23.299  25.914  1.00  0.00     0.088 A 
BRANCH  22  25
ATOM     25  N   UNL A   1      36.590  22.407  23.886  1.00  0.00     0.062 N 
ATOM     26  O   UNL A   1      37.590  21.772  24.257  1.00  0.00    -0.258 OA
ATOM     27  O   UNL A   1      36.458  22.930  22.772  1.00  0.00    -0.258 OA
ENDBRANCH  22  25
ENDBRANCH  15  18
ENDBRANCH   8  14
ENDBRANCH   5   7
ENDBRANCH   4   5
ENDBRANCH   3   4
ENDBRANCH   2   3
ENDBRANCH   1   2
BRANCH   1  28
ATOM     28  C   UNL A   1      35.132  29.713  27.228  1.00  0.00     0.202 C 
BRANCH  28  29
ATOM     29  C   UNL A   1      36.110  30.830  27.623  1.00  0.00     0.261 C 
BRANCH  29  30
ATOM     30  O   UNL A   1      36.596  30.661  28.951  1.00  0.00    -0.460 OA
BRANCH  30  31
ATOM     31  C   UNL A   1      37.862  30.229  29.147  1.00  0.00     0.338 C 
ATOM     32  O   UNL A   1      38.853  30.753  28.651  1.00  0.00    -0.246 OA
BRANCH  31  33
ATOM     33  C   UNL A   1      37.760  28.881  29.819  1.00  0.00     0.060 A 
ATOM     34  C   UNL A   1      37.159  28.851  31.067  1.00  0.00     0.016 A 
ATOM     35  C   UNL A   1      38.816  28.005  29.592  1.00  0.00     0.016 A 
ATOM     36  C   UNL A   1      37.939  28.481  32.160  1.00  0.00     0.010 A 
ATOM     37  C   UNL A   1      39.663  27.773  30.666  1.00  0.00     0.010 A 
ATOM     38  C   UNL A   1      39.298  28.242  31.930  1.00  0.00    -0.014 A 
BRANCH  38  39
ATOM     39  C   UNL A   1      40.298  28.990  32.742  1.00  0.00     0.031 A 
ATOM     40  C   UNL A   1      41.081  28.405  33.866  1.00  0.00     0.074 A 
ATOM     41  C   UNL A   1      40.642  30.256  32.365  1.00  0.00     0.049 A 
ATOM     42  N   UNL A   1      41.383  29.053  34.949  1.00  0.00    -0.248 NA
ATOM     43  C   UNL A   1      41.662  27.066  33.829  1.00  0.00     0.031 C 
ATOM     44  C   UNL A   1      41.676  31.094  32.970  1.00  0.00     0.029 A 
ATOM     45  N   UNL A   1      40.069  31.120  31.421  1.00  0.00    -0.354 N 
ATOM     46  C   UNL A   1      42.382  28.353  35.595  1.00  0.00     0.074 A 
ATOM     47  C   UNL A   1      42.464  27.088  34.899  1.00  0.00     0.031 C 
ATOM     48  C   UNL A   1      41.492  32.369  32.597  1.00  0.00     0.029 A 
ATOM     49  C   UNL A   1      40.248  32.428  31.860  1.00  0.00     0.049 A 
ATOM     50  H   UNL A   1      39.619  30.847  30.589  1.00  0.00     0.167 HD
ATOM     51  C   UNL A   1      43.175  28.929  36.549  1.00  0.00     0.037 A 
ATOM     52  C   UNL A   1      39.225  33.290  32.126  1.00  0.00     0.037 A 
ATOM     53  C   UNL A   1      42.993  30.383  36.591  1.00  0.00     0.049 A 
ATOM     54  C   UNL A   1      39.263  33.670  33.597  1.00  0.00     0.074 A 
ATOM     55  C   UNL A   1      43.784  31.422  36.119  1.00  0.00     0.029 A 
ATOM     56  N   UNL A   1      41.752  30.952  36.889  1.00  0.00    -0.354 N 
ATOM     57  N   UNL A   1      39.879  32.949  34.501  1.00  0.00    -0.248 NA
ATOM     58  C   UNL A   1      38.702  34.893  34.164  1.00  0.00     0.031 C 
ATOM     59  C   UNL A   1      42.992  32.595  36.062  1.00  0.00     0.029 A 
ATOM     60  C   UNL A   1      41.723  32.291  36.531  1.00  0.00     0.049 A 
ATOM     61  H   UNL A   1      41.000  30.467  37.299  1.00  0.00     0.167 HD
ATOM     62  C   UNL A   1      39.887  33.604  35.696  1.00  0.00     0.074 A 
ATOM     63  C   UNL A   1      39.096  34.798  35.449  1.00  0.00     0.031 C 
ATOM     64  C   UNL A   1      40.568  33.146  36.788  1.00  0.00     0.037 A 
BRANCH  51  65
ATOM     65  C   UNL A   1      44.336  28.176  37.201  1.00  0.00     0.058 A 
ATOM     66  C   UNL A   1      44.157  27.068  38.057  1.00  0.00     0.135 A 
ATOM     67  C   UNL A   1      45.688  28.528  36.990  1.00  0.00     0.135 A 
ATOM     68  F   UNL A   1      42.949  26.523  38.251  1.00  0.00    -0.206 F 
ATOM     69  C   UNL A   1      45.210  26.462  38.757  1.00  0.00     0.059 A 
ATOM     70  C   UNL A   1      46.752  27.979  37.717  1.00  0.00     0.059 A 
ATOM     71  F   UNL A   1      46.028  29.418  36.044  1.00  0.00    -0.206 F 
ATOM     72  C   UNL A   1      46.502  26.951  38.614  1.00  0.00     0.060 A 
BRANCH  72  73
ATOM     73  S   UNL A   1      47.838  26.249  39.607  1.00  0.00     0.124 S 
ATOM     74  O   UNL A   1      47.475  26.663  40.958  1.00  0.00    -0.237 OA
ATOM     75  O   UNL A   1      47.717  24.824  39.321  1.00  0.00    -0.237 OA
ATOM     76  O   UNL A   1      49.034  26.895  39.069  1.00  0.00    -0.744 OA
ENDBRANCH  72  73
ENDBRANCH  51  65
BRANCH  52  77
ATOM     77  C   UNL A   1      38.049  33.179  31.214  1.00  0.00     0.058 A 
ATOM     78  C   UNL A   1      36.827  32.740  31.776  1.00  0.00     0.135 A 
ATOM     79  C   UNL A   1      37.971  33.800  29.961  1.00  0.00     0.135 A 
ATOM     80  F   UNL A   1      36.835  32.106  32.961  1.00  0.00    -0.206 F 
ATOM     81  C   UNL A   1      35.585  33.024  31.202  1.00  0.00     0.059 A 
ATOM     82  C   UNL A   1      36.737  34.070  29.351  1.00  0.00     0.059 A 
ATOM     83  F   UNL A   1      39.080  34.277  29.377  1.00  0.00    -0.206 F 
ATOM     84  C   UNL A   1      35.544  33.725  30.001  1.00  0.00     0.060 A 
BRANCH  84  85
ATOM     85  S   UNL A   1      33.953  34.387  29.398  1.00  0.00     0.124 S 
ATOM     86  O   UNL A   1      33.215  34.577  30.640  1.00  0.00    -0.237 OA
ATOM     87  O   UNL A   1      34.323  35.612  28.700  1.00  0.00    -0.237 OA
ATOM     88  O   UNL A   1      33.470  33.313  28.532  1.00  0.00    -0.744 OA
ENDBRANCH  84  85
ENDBRANCH  52  77
BRANCH  64  89
ATOM     89  C   UNL A   1      40.278  33.582  38.200  1.00  0.00     0.058 A 
ATOM     90  C   UNL A   1      41.047  34.561  38.854  1.00  0.00     0.135 A 
ATOM     91  C   UNL A   1      39.096  33.181  38.865  1.00  0.00     0.135 A 
ATOM     92  F   UNL A   1      42.140  35.087  38.283  1.00  0.00    -0.206 F 
ATOM     93  C   UNL A   1      40.693  35.081  40.097  1.00  0.00     0.059 A 
ATOM     94  C   UNL A   1      38.698  33.724  40.083  1.00  0.00     0.059 A 
ATOM     95  F   UNL A   1      38.272  32.264  38.337  1.00  0.00    -0.206 F 
ATOM     96  C   UNL A   1      39.511  34.665  40.701  1.00  0.00     0.060 A 
BRANCH  96  97
ATOM     97  S   UNL A   1      38.997  35.421  42.252  1.00  0.00     0.124 S 
ATOM     98  O   UNL A   1      39.454  36.795  42.071  1.00  0.00    -0.237 OA
ATOM     99  O   UNL A   1      37.549  35.232  42.241  1.00  0.00    -0.237 OA
ATOM    100  O   UNL A   1      39.713  34.640  43.256  1.00  0.00    -0.744 OA
ENDBRANCH  96  97
ENDBRANCH  64  89
ENDBRANCH  38  39
ENDBRANCH  31  33
ENDBRANCH  30  31
ENDBRANCH  29  30
ENDBRANCH  28  29
ENDBRANCH   1  28
TORSDOF 20
ENDMDL
