MODEL 1
REMARK VINA RESULT:     -10.9      0.000      0.000
REMARK SMILES O=C(OCCOCCOC(=O)c1cccc(N[C@H]2CCCC[C@@H]2O)c1)c1ccc(-c2c3nc(c(-c4c(F)cc(S(=O)(=O)[O-])cc4F)c4ccc([nH]4)c(-c4c(F)cc(S(=O)(=O)[O-])cc4F)c4nc(c(-c5c(F)cc(S(=O)(=O)[O-])cc5F)c5ccc2[nH]5)C=C4)C=C3)cc1
REMARK SMILES IDX 6 1 5 2 4 3 3 4 2 5 1 6 26 7 27 8 91 9 28 10 90 11 29 12
REMARK SMILES IDX 30 13 31 14 84 15 32 16 89 17 83 18 85 19 33 20 88 21 82 22
REMARK SMILES IDX 81 23 34 25 68 26 47 27 67 28 48 29 51 30 66 31 86 32 49 33
REMARK SMILES IDX 50 34 65 36 87 37 52 38 35 39 36 40 45 41 37 42 38 43 44 44
REMARK SMILES IDX 46 45 39 46 40 47 41 48 42 49 43 50 69 51 70 52 79 53 71 54
REMARK SMILES IDX 72 55 78 56 80 57 73 58 74 59 75 60 76 61 77 62 53 63 54 64
REMARK SMILES IDX 63 65 55 66 56 67 62 68 64 69 57 70 58 71 59 72 60 73 61 74
REMARK SMILES IDX 7 75 8 76 9 77 10 78 11 79 12 80 13 81 25 82 14 83 16 84
REMARK SMILES IDX 15 85 17 86 18 88 19 89 23 90 20 91 22 92 21 93 24 94
REMARK H PARENT 85 24 51 35 17 87 24 95
REMARK Flexibility Score: inf
ROOT
ATOM      1  O   UNL A   1      39.611  21.320  26.017  1.00  0.00    -0.374 OA
ENDROOT
BRANCH   1   2
ATOM      2  C   UNL A   1      40.820  21.835  26.568  1.00  0.00     0.202 C 
BRANCH   2   3
ATOM      3  C   UNL A   1      40.706  23.234  27.176  1.00  0.00     0.261 C 
BRANCH   3   4
ATOM      4  O   UNL A   1      41.499  24.171  26.431  1.00  0.00    -0.460 OA
BRANCH   4   5
ATOM      5  C   UNL A   1      41.279  25.498  26.278  1.00  0.00     0.338 C 
ATOM      6  O   UNL A   1      41.312  25.974  25.144  1.00  0.00    -0.246 OA
BRANCH   5   7
ATOM      7  C   UNL A   1      41.016  26.425  27.421  1.00  0.00     0.060 A 
ATOM      8  C   UNL A   1      40.061  26.203  28.413  1.00  0.00     0.016 A 
ATOM      9  C   UNL A   1      41.873  27.528  27.567  1.00  0.00     0.016 A 
ATOM     10  C   UNL A   1      39.931  27.040  29.505  1.00  0.00     0.010 A 
ATOM     11  C   UNL A   1      41.779  28.358  28.688  1.00  0.00     0.010 A 
ATOM     12  C   UNL A   1      40.812  28.099  29.663  1.00  0.00    -0.014 A 
BRANCH  12  13
ATOM     13  C   UNL A   1      40.652  28.926  30.867  1.00  0.00     0.031 A 
ATOM     14  C   UNL A   1      39.548  29.929  30.896  1.00  0.00     0.074 A 
ATOM     15  C   UNL A   1      41.419  28.659  31.941  1.00  0.00     0.049 A 
ATOM     16  N   UNL A   1      39.265  30.808  31.812  1.00  0.00    -0.248 NA
ATOM     17  C   UNL A   1      38.628  29.933  29.744  1.00  0.00     0.031 C 
ATOM     18  C   UNL A   1      42.421  27.590  32.018  1.00  0.00     0.029 A 
ATOM     19  N   UNL A   1      41.465  29.243  33.177  1.00  0.00    -0.354 N 
ATOM     20  C   UNL A   1      38.164  31.502  31.333  1.00  0.00     0.074 A 
ATOM     21  C   UNL A   1      37.812  30.930  30.054  1.00  0.00     0.031 C 
ATOM     22  C   UNL A   1      42.981  27.596  33.238  1.00  0.00     0.029 A 
ATOM     23  C   UNL A   1      42.439  28.717  33.995  1.00  0.00     0.049 A 
ATOM     24  H   UNL A   1      40.860  29.967  33.457  1.00  0.00     0.167 HD
ATOM     25  C   UNL A   1      37.530  32.539  31.920  1.00  0.00     0.037 A 
ATOM     26  C   UNL A   1      42.878  29.144  35.194  1.00  0.00     0.037 A 
ATOM     27  C   UNL A   1      37.914  33.062  33.202  1.00  0.00     0.049 A 
ATOM     28  C   UNL A   1      42.214  30.365  35.774  1.00  0.00     0.074 A 
ATOM     29  C   UNL A   1      37.372  34.126  33.897  1.00  0.00     0.029 A 
ATOM     30  N   UNL A   1      38.948  32.555  33.980  1.00  0.00    -0.354 N 
ATOM     31  N   UNL A   1      41.193  31.047  35.302  1.00  0.00    -0.248 NA
ATOM     32  C   UNL A   1      42.766  30.893  37.026  1.00  0.00     0.031 C 
ATOM     33  C   UNL A   1      38.118  34.300  35.065  1.00  0.00     0.029 A 
ATOM     34  C   UNL A   1      39.088  33.308  35.129  1.00  0.00     0.049 A 
ATOM     35  H   UNL A   1      39.500  31.774  33.745  1.00  0.00     0.167 HD
ATOM     36  C   UNL A   1      40.978  32.080  36.204  1.00  0.00     0.074 A 
ATOM     37  C   UNL A   1      41.953  31.912  37.264  1.00  0.00     0.031 C 
ATOM     38  C   UNL A   1      40.071  33.088  36.160  1.00  0.00     0.037 A 
BRANCH  25  39
ATOM     39  C   UNL A   1      36.436  33.218  31.152  1.00  0.00     0.058 A 
ATOM     40  C   UNL A   1      35.086  33.125  31.522  1.00  0.00     0.135 A 
ATOM     41  C   UNL A   1      36.758  34.006  30.035  1.00  0.00     0.135 A 
ATOM     42  F   UNL A   1      34.720  32.352  32.557  1.00  0.00    -0.206 F 
ATOM     43  C   UNL A   1      34.093  33.796  30.815  1.00  0.00     0.059 A 
ATOM     44  C   UNL A   1      35.785  34.703  29.327  1.00  0.00     0.059 A 
ATOM     45  F   UNL A   1      38.032  34.106  29.624  1.00  0.00    -0.206 F 
ATOM     46  C   UNL A   1      34.455  34.592  29.725  1.00  0.00     0.060 A 
BRANCH  46  47
ATOM     47  S   UNL A   1      33.161  35.500  28.852  1.00  0.00     0.124 S 
ATOM     48  O   UNL A   1      32.527  34.437  28.080  1.00  0.00    -0.237 OA
ATOM     49  O   UNL A   1      32.371  36.044  29.951  1.00  0.00    -0.237 OA
ATOM     50  O   UNL A   1      33.904  36.484  28.070  1.00  0.00    -0.744 OA
ENDBRANCH  46  47
ENDBRANCH  25  39
BRANCH  26  51
ATOM     51  C   UNL A   1      44.047  28.501  35.858  1.00  0.00     0.058 A 
ATOM     52  C   UNL A   1      43.886  27.470  36.796  1.00  0.00     0.135 A 
ATOM     53  C   UNL A   1      45.357  28.944  35.605  1.00  0.00     0.135 A 
ATOM     54  F   UNL A   1      42.659  27.010  37.082  1.00  0.00    -0.206 F 
ATOM     55  C   UNL A   1      44.970  26.933  37.487  1.00  0.00     0.059 A 
ATOM     56  C   UNL A   1      46.460  28.400  36.255  1.00  0.00     0.059 A 
ATOM     57  F   UNL A   1      45.579  29.921  34.711  1.00  0.00    -0.206 F 
ATOM     58  C   UNL A   1      46.254  27.412  37.215  1.00  0.00     0.060 A 
BRANCH  58  59
ATOM     59  S   UNL A   1      47.652  26.732  38.133  1.00  0.00     0.124 S 
ATOM     60  O   UNL A   1      47.715  27.633  39.278  1.00  0.00    -0.237 OA
ATOM     61  O   UNL A   1      47.205  25.371  38.414  1.00  0.00    -0.237 OA
ATOM     62  O   UNL A   1      48.759  26.838  37.187  1.00  0.00    -0.744 OA
ENDBRANCH  58  59
ENDBRANCH  26  51
BRANCH  38  63
ATOM     63  C   UNL A   1      40.089  34.064  37.298  1.00  0.00     0.058 A 
ATOM     64  C   UNL A   1      40.806  35.268  37.215  1.00  0.00     0.135 A 
ATOM     65  C   UNL A   1      39.319  33.827  38.447  1.00  0.00     0.135 A 
ATOM     66  F   UNL A   1      41.564  35.533  36.141  1.00  0.00    -0.206 F 
ATOM     67  C   UNL A   1      40.768  36.201  38.244  1.00  0.00     0.059 A 
ATOM     68  C   UNL A   1      39.240  34.761  39.471  1.00  0.00     0.059 A 
ATOM     69  F   UNL A   1      38.609  32.694  38.564  1.00  0.00    -0.206 F 
ATOM     70  C   UNL A   1      39.975  35.941  39.363  1.00  0.00     0.060 A 
BRANCH  70  71
ATOM     71  S   UNL A   1      39.885  37.190  40.662  1.00  0.00     0.124 S 
ATOM     72  O   UNL A   1      38.835  36.647  41.518  1.00  0.00    -0.237 OA
ATOM     73  O   UNL A   1      41.235  37.159  41.216  1.00  0.00    -0.237 OA
ATOM     74  O   UNL A   1      39.538  38.409  39.938  1.00  0.00    -0.744 OA
ENDBRANCH  70  71
ENDBRANCH  38  63
ENDBRANCH  12  13
ENDBRANCH   5   7
ENDBRANCH   4   5
ENDBRANCH   3   4
ENDBRANCH   2   3
ENDBRANCH   1   2
BRANCH   1  75
ATOM     75  C   UNL A   1      38.498  22.217  25.939  1.00  0.00     0.202 C 
BRANCH  75  76
ATOM     76  C   UNL A   1      37.633  21.828  24.733  1.00  0.00     0.261 C 
BRANCH  76  77
ATOM     77  O   UNL A   1      36.929  23.000  24.296  1.00  0.00    -0.460 OA
BRANCH  77  78
ATOM     78  C   UNL A   1      35.817  23.286  25.031  1.00  0.00     0.338 C 
ATOM     79  O   UNL A   1      35.742  23.955  26.036  1.00  0.00    -0.246 OA
BRANCH  78  80
ATOM     80  C   UNL A   1      34.651  22.830  24.242  1.00  0.00     0.062 A 
ATOM     81  C   UNL A   1      34.326  23.506  23.065  1.00  0.00     0.016 A 
ATOM     82  C   UNL A   1      33.929  21.699  24.633  1.00  0.00     0.041 A 
ATOM     83  C   UNL A   1      33.300  23.020  22.264  1.00  0.00     0.003 A 
ATOM     84  C   UNL A   1      32.854  21.233  23.876  1.00  0.00     0.035 A 
ATOM     85  C   UNL A   1      32.576  21.895  22.673  1.00  0.00     0.026 A 
BRANCH  84  86
ATOM     86  N   UNL A   1      32.107  20.192  24.400  1.00  0.00    -0.380 N 
ATOM     87  H   UNL A   1      31.286  20.431  24.887  1.00  0.00     0.160 HD
BRANCH  86  88
ATOM     88  C   UNL A   1      32.429  18.766  24.293  1.00  0.00     0.107 C 
ATOM     89  C   UNL A   1      32.947  18.383  22.900  1.00  0.00     0.027 C 
ATOM     90  C   UNL A   1      33.319  18.322  25.473  1.00  0.00     0.136 C 
ATOM     91  C   UNL A   1      33.426  16.938  22.840  1.00  0.00     0.002 C 
ATOM     92  C   UNL A   1      33.790  16.881  25.324  1.00  0.00     0.034 C 
ATOM     93  C   UNL A   1      34.421  16.642  23.958  1.00  0.00     0.003 C 
BRANCH  90  94
ATOM     94  O   UNL A   1      32.576  18.446  26.694  1.00  0.00    -0.391 OA
ATOM     95  H   UNL A   1      31.757  18.936  26.526  1.00  0.00     0.211 HD
ENDBRANCH  90  94
ENDBRANCH  86  88
ENDBRANCH  84  86
ENDBRANCH  78  80
ENDBRANCH  77  78
ENDBRANCH  76  77
ENDBRANCH  75  76
ENDBRANCH   1  75
TORSDOF 20
ENDMDL
MODEL 2
REMARK VINA RESULT:     -10.7      5.388     10.160
REMARK SMILES O=C(OCCOCCOC(=O)c1cccc(N[C@H]2CCCC[C@@H]2O)c1)c1ccc(-c2c3nc(c(-c4c(F)cc(S(=O)(=O)[O-])cc4F)c4ccc([nH]4)c(-c4c(F)cc(S(=O)(=O)[O-])cc4F)c4nc(c(-c5c(F)cc(S(=O)(=O)[O-])cc5F)c5ccc2[nH]5)C=C4)C=C3)cc1
REMARK SMILES IDX 6 1 5 2 4 3 3 4 2 5 1 6 26 7 27 8 91 9 28 10 90 11 29 12
REMARK SMILES IDX 30 13 31 14 84 15 32 16 89 17 83 18 85 19 33 20 88 21 82 22
REMARK SMILES IDX 81 23 34 25 68 26 47 27 67 28 48 29 51 30 66 31 86 32 49 33
REMARK SMILES IDX 50 34 65 36 87 37 52 38 35 39 36 40 45 41 37 42 38 43 44 44
REMARK SMILES IDX 46 45 39 46 40 47 41 48 42 49 43 50 69 51 70 52 79 53 71 54
REMARK SMILES IDX 72 55 78 56 80 57 73 58 74 59 75 60 76 61 77 62 53 63 54 64
REMARK SMILES IDX 63 65 55 66 56 67 62 68 64 69 57 70 58 71 59 72 60 73 61 74
REMARK SMILES IDX 7 75 8 76 9 77 10 78 11 79 12 80 13 81 25 82 14 83 16 84
REMARK SMILES IDX 15 85 17 86 18 88 19 89 23 90 20 91 22 92 21 93 24 94
REMARK H PARENT 85 24 51 35 17 87 24 95
REMARK Flexibility Score: inf
ROOT
ATOM      1  O   UNL A   1      31.078  29.161  25.095  1.00  0.00    -0.374 OA
ENDROOT
BRANCH   1   2
ATOM      2  C   UNL A   1      31.989  30.083  25.688  1.00  0.00     0.202 C 
BRANCH   2   3
ATOM      3  C   UNL A   1      33.291  29.464  26.199  1.00  0.00     0.261 C 
BRANCH   3   4
ATOM      4  O   UNL A   1      33.500  29.800  27.579  1.00  0.00    -0.460 OA
BRANCH   4   5
ATOM      5  C   UNL A   1      34.498  30.550  28.102  1.00  0.00     0.338 C 
ATOM      6  O   UNL A   1      34.244  31.698  28.466  1.00  0.00    -0.246 OA
BRANCH   5   7
ATOM      7  C   UNL A   1      35.904  30.064  28.243  1.00  0.00     0.060 A 
ATOM      8  C   UNL A   1      36.876  30.161  27.247  1.00  0.00     0.016 A 
ATOM      9  C   UNL A   1      36.300  29.591  29.504  1.00  0.00     0.016 A 
ATOM     10  C   UNL A   1      38.189  29.791  27.466  1.00  0.00     0.010 A 
ATOM     11  C   UNL A   1      37.634  29.253  29.751  1.00  0.00     0.010 A 
ATOM     12  C   UNL A   1      38.579  29.368  28.728  1.00  0.00    -0.014 A 
BRANCH  12  13
ATOM     13  C   UNL A   1      39.997  29.032  28.911  1.00  0.00     0.031 A 
ATOM     14  C   UNL A   1      40.903  30.069  29.484  1.00  0.00     0.074 A 
ATOM     15  C   UNL A   1      40.397  27.767  28.678  1.00  0.00     0.049 A 
ATOM     16  N   UNL A   1      42.191  30.021  29.666  1.00  0.00    -0.248 NA
ATOM     17  C   UNL A   1      40.273  31.325  29.930  1.00  0.00     0.031 C 
ATOM     18  C   UNL A   1      39.520  26.670  28.251  1.00  0.00     0.029 A 
ATOM     19  N   UNL A   1      41.627  27.180  28.787  1.00  0.00    -0.354 N 
ATOM     20  C   UNL A   1      42.536  31.251  30.203  1.00  0.00     0.074 A 
ATOM     21  C   UNL A   1      41.322  32.021  30.342  1.00  0.00     0.031 C 
ATOM     22  C   UNL A   1      40.243  25.546  28.135  1.00  0.00     0.029 A 
ATOM     23  C   UNL A   1      41.641  25.861  28.397  1.00  0.00     0.049 A 
ATOM     24  H   UNL A   1      42.426  27.655  29.113  1.00  0.00     0.167 HD
ATOM     25  C   UNL A   1      43.773  31.688  30.526  1.00  0.00     0.037 A 
ATOM     26  C   UNL A   1      42.684  25.029  28.215  1.00  0.00     0.037 A 
ATOM     27  C   UNL A   1      44.948  30.874  30.379  1.00  0.00     0.049 A 
ATOM     28  C   UNL A   1      44.059  25.580  28.490  1.00  0.00     0.074 A 
ATOM     29  C   UNL A   1      46.263  31.203  30.645  1.00  0.00     0.029 A 
ATOM     30  N   UNL A   1      44.944  29.563  29.918  1.00  0.00    -0.354 N 
ATOM     31  N   UNL A   1      44.391  26.761  28.964  1.00  0.00    -0.248 NA
ATOM     32  C   UNL A   1      45.199  24.709  28.187  1.00  0.00     0.031 C 
ATOM     33  C   UNL A   1      47.059  30.112  30.286  1.00  0.00     0.029 A 
ATOM     34  C   UNL A   1      46.236  29.080  29.852  1.00  0.00     0.049 A 
ATOM     35  H   UNL A   1      44.137  29.053  29.674  1.00  0.00     0.167 HD
ATOM     36  C   UNL A   1      45.778  26.771  29.022  1.00  0.00     0.074 A 
ATOM     37  C   UNL A   1      46.219  25.466  28.566  1.00  0.00     0.031 C 
ATOM     38  C   UNL A   1      46.618  27.766  29.400  1.00  0.00     0.037 A 
BRANCH  25  39
ATOM     39  C   UNL A   1      43.920  33.110  30.974  1.00  0.00     0.058 A 
ATOM     40  C   UNL A   1      43.995  34.181  30.072  1.00  0.00     0.135 A 
ATOM     41  C   UNL A   1      43.954  33.404  32.347  1.00  0.00     0.135 A 
ATOM     42  F   UNL A   1      44.008  33.952  28.749  1.00  0.00    -0.206 F 
ATOM     43  C   UNL A   1      44.092  35.496  30.515  1.00  0.00     0.059 A 
ATOM     44  C   UNL A   1      44.029  34.712  32.813  1.00  0.00     0.059 A 
ATOM     45  F   UNL A   1      43.912  32.413  33.252  1.00  0.00    -0.206 F 
ATOM     46  C   UNL A   1      44.098  35.752  31.889  1.00  0.00     0.060 A 
BRANCH  46  47
ATOM     47  S   UNL A   1      44.168  37.467  32.448  1.00  0.00     0.124 S 
ATOM     48  O   UNL A   1      43.092  37.498  33.433  1.00  0.00    -0.237 OA
ATOM     49  O   UNL A   1      45.521  37.561  32.985  1.00  0.00    -0.237 OA
ATOM     50  O   UNL A   1      43.925  38.233  31.230  1.00  0.00    -0.744 OA
ENDBRANCH  46  47
ENDBRANCH  25  39
BRANCH  26  51
ATOM     51  C   UNL A   1      42.488  23.662  27.656  1.00  0.00     0.058 A 
ATOM     52  C   UNL A   1      42.303  22.546  28.486  1.00  0.00     0.135 A 
ATOM     53  C   UNL A   1      42.536  23.433  26.270  1.00  0.00     0.135 A 
ATOM     54  F   UNL A   1      42.254  22.702  29.817  1.00  0.00    -0.206 F 
ATOM     55  C   UNL A   1      42.214  21.255  27.968  1.00  0.00     0.059 A 
ATOM     56  C   UNL A   1      42.414  22.159  25.726  1.00  0.00     0.059 A 
ATOM     57  F   UNL A   1      42.701  24.461  25.421  1.00  0.00    -0.206 F 
ATOM     58  C   UNL A   1      42.280  21.072  26.586  1.00  0.00     0.060 A 
BRANCH  58  59
ATOM     59  S   UNL A   1      42.193  19.394  25.922  1.00  0.00     0.124 S 
ATOM     60  O   UNL A   1      40.756  19.232  25.729  1.00  0.00    -0.237 OA
ATOM     61  O   UNL A   1      42.993  19.501  24.706  1.00  0.00    -0.237 OA
ATOM     62  O   UNL A   1      42.782  18.582  26.982  1.00  0.00    -0.744 OA
ENDBRANCH  58  59
ENDBRANCH  26  51
BRANCH  38  63
ATOM     63  C   UNL A   1      48.086  27.467  29.350  1.00  0.00     0.058 A 
ATOM     64  C   UNL A   1      48.880  27.888  28.271  1.00  0.00     0.135 A 
ATOM     65  C   UNL A   1      48.716  26.825  30.427  1.00  0.00     0.135 A 
ATOM     66  F   UNL A   1      48.319  28.496  27.215  1.00  0.00    -0.206 F 
ATOM     67  C   UNL A   1      50.251  27.668  28.257  1.00  0.00     0.059 A 
ATOM     68  C   UNL A   1      50.090  26.626  30.449  1.00  0.00     0.059 A 
ATOM     69  F   UNL A   1      47.998  26.416  31.485  1.00  0.00    -0.206 F 
ATOM     70  C   UNL A   1      50.847  27.044  29.355  1.00  0.00     0.060 A 
BRANCH  70  71
ATOM     71  S   UNL A   1      52.637  26.823  29.351  1.00  0.00     0.124 S 
ATOM     72  O   UNL A   1      52.859  26.203  30.653  1.00  0.00    -0.237 OA
ATOM     73  O   UNL A   1      52.841  25.958  28.193  1.00  0.00    -0.237 OA
ATOM     74  O   UNL A   1      53.148  28.183  29.207  1.00  0.00    -0.744 OA
ENDBRANCH  70  71
ENDBRANCH  38  63
ENDBRANCH  12  13
ENDBRANCH   5   7
ENDBRANCH   4   5
ENDBRANCH   3   4
ENDBRANCH   2   3
ENDBRANCH   1   2
BRANCH   1  75
ATOM     75  C   UNL A   1      30.580  29.486  23.792  1.00  0.00     0.202 C 
BRANCH  75  76
ATOM     76  C   UNL A   1      31.198  28.522  22.772  1.00  0.00     0.261 C 
BRANCH  76  77
ATOM     77  O   UNL A   1      32.026  27.592  23.485  1.00  0.00    -0.460 OA
BRANCH  77  78
ATOM     78  C   UNL A   1      31.940  26.310  23.029  1.00  0.00     0.338 C 
ATOM     79  O   UNL A   1      32.127  25.908  21.903  1.00  0.00    -0.246 OA
BRANCH  78  80
ATOM     80  C   UNL A   1      31.813  25.438  24.218  1.00  0.00     0.062 A 
ATOM     81  C   UNL A   1      30.824  25.721  25.160  1.00  0.00     0.016 A 
ATOM     82  C   UNL A   1      32.625  24.309  24.359  1.00  0.00     0.041 A 
ATOM     83  C   UNL A   1      30.628  24.848  26.222  1.00  0.00     0.003 A 
ATOM     84  C   UNL A   1      32.487  23.454  25.452  1.00  0.00     0.035 A 
ATOM     85  C   UNL A   1      31.455  23.728  26.360  1.00  0.00     0.026 A 
BRANCH  84  86
ATOM     86  N   UNL A   1      33.415  22.437  25.590  1.00  0.00    -0.380 N 
ATOM     87  H   UNL A   1      33.117  21.617  26.045  1.00  0.00     0.160 HD
BRANCH  86  88
ATOM     88  C   UNL A   1      34.804  22.473  25.119  1.00  0.00     0.107 C 
ATOM     89  C   UNL A   1      35.556  23.721  25.601  1.00  0.00     0.027 C 
ATOM     90  C   UNL A   1      35.506  21.129  25.403  1.00  0.00     0.136 C 
ATOM     91  C   UNL A   1      37.034  23.677  25.241  1.00  0.00     0.002 C 
ATOM     92  C   UNL A   1      36.989  21.173  25.055  1.00  0.00     0.034 C 
ATOM     93  C   UNL A   1      37.674  22.371  25.701  1.00  0.00     0.003 C 
BRANCH  90  94
ATOM     94  O   UNL A   1      34.877  20.097  24.630  1.00  0.00    -0.391 OA
ATOM     95  H   UNL A   1      33.914  20.200  24.676  1.00  0.00     0.211 HD
ENDBRANCH  90  94
ENDBRANCH  86  88
ENDBRANCH  84  86
ENDBRANCH  78  80
ENDBRANCH  77  78
ENDBRANCH  76  77
ENDBRANCH  75  76
ENDBRANCH   1  75
TORSDOF 20
ENDMDL
MODEL 3
REMARK VINA RESULT:     -10.6      3.480      8.574
REMARK SMILES O=C(OCCOCCOC(=O)c1cccc(N[C@H]2CCCC[C@@H]2O)c1)c1ccc(-c2c3nc(c(-c4c(F)cc(S(=O)(=O)[O-])cc4F)c4ccc([nH]4)c(-c4c(F)cc(S(=O)(=O)[O-])cc4F)c4nc(c(-c5c(F)cc(S(=O)(=O)[O-])cc5F)c5ccc2[nH]5)C=C4)C=C3)cc1
REMARK SMILES IDX 6 1 5 2 4 3 3 4 2 5 1 6 26 7 27 8 91 9 28 10 90 11 29 12
REMARK SMILES IDX 30 13 31 14 84 15 32 16 89 17 83 18 85 19 33 20 88 21 82 22
REMARK SMILES IDX 81 23 34 25 68 26 47 27 67 28 48 29 51 30 66 31 86 32 49 33
REMARK SMILES IDX 50 34 65 36 87 37 52 38 35 39 36 40 45 41 37 42 38 43 44 44
REMARK SMILES IDX 46 45 39 46 40 47 41 48 42 49 43 50 69 51 70 52 79 53 71 54
REMARK SMILES IDX 72 55 78 56 80 57 73 58 74 59 75 60 76 61 77 62 53 63 54 64
REMARK SMILES IDX 63 65 55 66 56 67 62 68 64 69 57 70 58 71 59 72 60 73 61 74
REMARK SMILES IDX 7 75 8 76 9 77 10 78 11 79 12 80 13 81 25 82 14 83 16 84
REMARK SMILES IDX 15 85 17 86 18 88 19 89 23 90 20 91 22 92 21 93 24 94
REMARK H PARENT 85 24 51 35 17 87 24 95
REMARK Flexibility Score: inf
ROOT
ATOM      1  O   UNL A   1      33.059  27.077  25.767  1.00  0.00    -0.374 OA
ENDROOT
BRANCH   1   2
ATOM      2  C   UNL A   1      33.095  27.873  26.948  1.00  0.00     0.202 C 
BRANCH   2   3
ATOM      3  C   UNL A   1      32.614  29.314  26.769  1.00  0.00     0.261 C 
BRANCH   3   4
ATOM      4  O   UNL A   1      33.722  30.184  26.497  1.00  0.00    -0.460 OA
BRANCH   4   5
ATOM      5  C   UNL A   1      34.458  30.885  27.392  1.00  0.00     0.338 C 
ATOM      6  O   UNL A   1      34.044  31.982  27.763  1.00  0.00    -0.246 OA
BRANCH   5   7
ATOM      7  C   UNL A   1      35.763  30.406  27.940  1.00  0.00     0.060 A 
ATOM      8  C   UNL A   1      37.010  30.901  27.556  1.00  0.00     0.016 A 
ATOM      9  C   UNL A   1      35.719  29.482  28.996  1.00  0.00     0.016 A 
ATOM     10  C   UNL A   1      38.179  30.495  28.170  1.00  0.00     0.010 A 
ATOM     11  C   UNL A   1      36.891  29.096  29.653  1.00  0.00     0.010 A 
ATOM     12  C   UNL A   1      38.120  29.618  29.242  1.00  0.00    -0.014 A 
BRANCH  12  13
ATOM     13  C   UNL A   1      39.393  29.260  29.882  1.00  0.00     0.031 A 
ATOM     14  C   UNL A   1      39.807  30.008  31.104  1.00  0.00     0.074 A 
ATOM     15  C   UNL A   1      40.069  28.190  29.422  1.00  0.00     0.049 A 
ATOM     16  N   UNL A   1      40.911  29.914  31.786  1.00  0.00    -0.248 NA
ATOM     17  C   UNL A   1      38.841  30.984  31.641  1.00  0.00     0.031 C 
ATOM     18  C   UNL A   1      39.636  27.330  28.314  1.00  0.00     0.029 A 
ATOM     19  N   UNL A   1      41.246  27.627  29.834  1.00  0.00    -0.354 N 
ATOM     20  C   UNL A   1      40.798  30.846  32.807  1.00  0.00     0.074 A 
ATOM     21  C   UNL A   1      39.508  31.483  32.672  1.00  0.00     0.031 C 
ATOM     22  C   UNL A   1      40.535  26.350  28.137  1.00  0.00     0.029 A 
ATOM     23  C   UNL A   1      41.643  26.561  29.059  1.00  0.00     0.049 A 
ATOM     24  H   UNL A   1      41.758  27.951  30.610  1.00  0.00     0.167 HD
ATOM     25  C   UNL A   1      41.714  31.143  33.752  1.00  0.00     0.037 A 
ATOM     26  C   UNL A   1      42.805  25.882  29.064  1.00  0.00     0.037 A 
ATOM     27  C   UNL A   1      42.979  30.468  33.849  1.00  0.00     0.049 A 
ATOM     28  C   UNL A   1      43.845  26.305  30.068  1.00  0.00     0.074 A 
ATOM     29  C   UNL A   1      44.008  30.690  34.743  1.00  0.00     0.029 A 
ATOM     30  N   UNL A   1      43.387  29.438  33.010  1.00  0.00    -0.354 N 
ATOM     31  N   UNL A   1      43.753  27.216  31.012  1.00  0.00    -0.248 NA
ATOM     32  C   UNL A   1      45.150  25.638  29.998  1.00  0.00     0.031 C 
ATOM     33  C   UNL A   1      45.061  29.836  34.406  1.00  0.00     0.029 A 
ATOM     34  C   UNL A   1      44.668  29.040  33.338  1.00  0.00     0.049 A 
ATOM     35  H   UNL A   1      42.842  29.050  32.287  1.00  0.00     0.167 HD
ATOM     36  C   UNL A   1      44.984  27.225  31.653  1.00  0.00     0.074 A 
ATOM     37  C   UNL A   1      45.791  26.206  31.009  1.00  0.00     0.031 C 
ATOM     38  C   UNL A   1      45.422  28.009  32.669  1.00  0.00     0.037 A 
BRANCH  25  39
ATOM     39  C   UNL A   1      41.421  32.283  34.680  1.00  0.00     0.058 A 
ATOM     40  C   UNL A   1      41.781  33.606  34.385  1.00  0.00     0.135 A 
ATOM     41  C   UNL A   1      40.733  32.041  35.880  1.00  0.00     0.135 A 
ATOM     42  F   UNL A   1      42.476  33.887  33.271  1.00  0.00    -0.206 F 
ATOM     43  C   UNL A   1      41.463  34.653  35.246  1.00  0.00     0.059 A 
ATOM     44  C   UNL A   1      40.385  33.073  36.744  1.00  0.00     0.059 A 
ATOM     45  F   UNL A   1      40.389  30.789  36.221  1.00  0.00    -0.206 F 
ATOM     46  C   UNL A   1      40.755  34.377  36.419  1.00  0.00     0.060 A 
BRANCH  46  47
ATOM     47  S   UNL A   1      40.301  35.752  37.497  1.00  0.00     0.124 S 
ATOM     48  O   UNL A   1      41.603  36.156  38.019  1.00  0.00    -0.237 OA
ATOM     49  O   UNL A   1      39.676  36.682  36.564  1.00  0.00    -0.237 OA
ATOM     50  O   UNL A   1      39.400  35.140  38.468  1.00  0.00    -0.744 OA
ENDBRANCH  46  47
ENDBRANCH  25  39
BRANCH  26  51
ATOM     51  C   UNL A   1      43.088  24.835  28.041  1.00  0.00     0.058 A 
ATOM     52  C   UNL A   1      42.812  23.480  28.280  1.00  0.00     0.135 A 
ATOM     53  C   UNL A   1      43.693  25.164  26.816  1.00  0.00     0.135 A 
ATOM     54  F   UNL A   1      42.239  23.105  29.433  1.00  0.00    -0.206 F 
ATOM     55  C   UNL A   1      43.161  22.490  27.364  1.00  0.00     0.059 A 
ATOM     56  C   UNL A   1      44.019  24.198  25.870  1.00  0.00     0.059 A 
ATOM     57  F   UNL A   1      43.974  26.444  26.524  1.00  0.00    -0.206 F 
ATOM     58  C   UNL A   1      43.774  22.860  26.164  1.00  0.00     0.060 A 
BRANCH  58  59
ATOM     59  S   UNL A   1      44.250  21.570  24.993  1.00  0.00     0.124 S 
ATOM     60  O   UNL A   1      43.256  20.541  25.273  1.00  0.00    -0.237 OA
ATOM     61  O   UNL A   1      44.118  22.254  23.710  1.00  0.00    -0.237 OA
ATOM     62  O   UNL A   1      45.618  21.247  25.385  1.00  0.00    -0.744 OA
ENDBRANCH  58  59
ENDBRANCH  26  51
BRANCH  38  63
ATOM     63  C   UNL A   1      46.823  27.777  33.148  1.00  0.00     0.058 A 
ATOM     64  C   UNL A   1      47.904  28.501  32.622  1.00  0.00     0.135 A 
ATOM     65  C   UNL A   1      47.074  26.879  34.198  1.00  0.00     0.135 A 
ATOM     66  F   UNL A   1      47.713  29.363  31.611  1.00  0.00    -0.206 F 
ATOM     67  C   UNL A   1      49.192  28.332  33.113  1.00  0.00     0.059 A 
ATOM     68  C   UNL A   1      48.348  26.719  34.725  1.00  0.00     0.059 A 
ATOM     69  F   UNL A   1      46.068  26.173  34.739  1.00  0.00    -0.206 F 
ATOM     70  C   UNL A   1      49.401  27.445  34.171  1.00  0.00     0.060 A 
BRANCH  70  71
ATOM     71  S   UNL A   1      51.069  27.283  34.840  1.00  0.00     0.124 S 
ATOM     72  O   UNL A   1      51.023  25.945  35.419  1.00  0.00    -0.237 OA
ATOM     73  O   UNL A   1      51.897  27.430  33.648  1.00  0.00    -0.237 OA
ATOM     74  O   UNL A   1      51.159  28.380  35.799  1.00  0.00    -0.744 OA
ENDBRANCH  70  71
ENDBRANCH  38  63
ENDBRANCH  12  13
ENDBRANCH   5   7
ENDBRANCH   4   5
ENDBRANCH   3   4
ENDBRANCH   2   3
ENDBRANCH   1   2
BRANCH   1  75
ATOM     75  C   UNL A   1      32.059  26.054  25.703  1.00  0.00     0.202 C 
BRANCH  75  76
ATOM     76  C   UNL A   1      32.071  25.437  24.298  1.00  0.00     0.261 C 
BRANCH  76  77
ATOM     77  O   UNL A   1      32.944  24.299  24.321  1.00  0.00    -0.460 OA
BRANCH  77  78
ATOM     78  C   UNL A   1      34.031  24.417  23.506  1.00  0.00     0.338 C 
ATOM     79  O   UNL A   1      34.302  25.328  22.758  1.00  0.00    -0.246 OA
BRANCH  78  80
ATOM     80  C   UNL A   1      34.965  23.330  23.874  1.00  0.00     0.062 A 
ATOM     81  C   UNL A   1      36.325  23.489  23.604  1.00  0.00     0.016 A 
ATOM     82  C   UNL A   1      34.503  22.194  24.543  1.00  0.00     0.041 A 
ATOM     83  C   UNL A   1      37.222  22.523  24.041  1.00  0.00     0.003 A 
ATOM     84  C   UNL A   1      35.379  21.181  24.934  1.00  0.00     0.035 A 
ATOM     85  C   UNL A   1      36.746  21.383  24.699  1.00  0.00     0.026 A 
BRANCH  84  86
ATOM     86  N   UNL A   1      34.828  20.030  25.468  1.00  0.00    -0.380 N 
ATOM     87  H   UNL A   1      34.927  19.895  26.438  1.00  0.00     0.160 HD
BRANCH  86  88
ATOM     88  C   UNL A   1      34.111  18.994  24.719  1.00  0.00     0.107 C 
ATOM     89  C   UNL A   1      35.035  17.862  24.249  1.00  0.00     0.027 C 
ATOM     90  C   UNL A   1      32.852  18.541  25.489  1.00  0.00     0.136 C 
ATOM     91  C   UNL A   1      34.263  16.716  23.609  1.00  0.00     0.002 C 
ATOM     92  C   UNL A   1      32.156  17.368  24.811  1.00  0.00     0.034 C 
ATOM     93  C   UNL A   1      33.135  16.237  24.517  1.00  0.00     0.003 C 
BRANCH  90  94
ATOM     94  O   UNL A   1      31.935  19.640  25.577  1.00  0.00    -0.391 OA
ATOM     95  H   UNL A   1      32.228  20.252  26.270  1.00  0.00     0.211 HD
ENDBRANCH  90  94
ENDBRANCH  86  88
ENDBRANCH  84  86
ENDBRANCH  78  80
ENDBRANCH  77  78
ENDBRANCH  76  77
ENDBRANCH  75  76
ENDBRANCH   1  75
TORSDOF 20
ENDMDL
