MODEL 1
REMARK VINA RESULT:     -11.1      0.000      0.000
REMARK SMILES O=C(OCCOCCOC(=O)c1ccc(-c2c3nc(c(-c4c(F)cc(S(=O)(=O)[O-])cc4F)c4ccc([nH]4)c(-c4c(F)cc(S(=O)(=O)[O-])cc4F)c4nc(c(-c5c(F)cc(S(=O)(=O)[O-])cc5F)c5ccc2[nH]5)C=C4)C=C3)cc1)C1=Cc2c(ccc(Cl)c2Cl)O[C@H]1C(F)(F)F
REMARK SMILES IDX 7 1 6 2 5 3 4 4 3 5 2 6 1 7 78 8 79 9 89 10 80 11 88 12
REMARK SMILES IDX 81 13 86 14 82 15 84 16 87 17 83 18 85 19 90 20 91 21 92 22
REMARK SMILES IDX 93 23 8 24 9 25 10 26 11 27 12 28 13 29 77 30 14 31 76 32
REMARK SMILES IDX 15 33 16 34 17 35 70 36 18 37 75 38 69 39 71 40 19 41 74 42
REMARK SMILES IDX 68 43 67 44 20 46 54 47 33 48 53 49 34 50 37 51 52 52 72 53
REMARK SMILES IDX 35 54 36 55 51 57 73 58 38 59 21 60 22 61 31 62 23 63 24 64
REMARK SMILES IDX 30 65 32 66 25 67 26 68 27 69 28 70 29 71 55 72 56 73 65 74
REMARK SMILES IDX 57 75 58 76 64 77 66 78 59 79 60 80 61 81 62 82 63 83 39 84
REMARK SMILES IDX 40 85 49 86 41 87 42 88 48 89 50 90 43 91 44 92 45 93 46 94
REMARK SMILES IDX 47 95
REMARK H PARENT 71 45 37 56
REMARK Flexibility Score: inf
ROOT
ATOM      1  C   UNL A   1      31.880  30.123  25.787  1.00  0.00     0.202 C 
ENDROOT
BRANCH   1   2
ATOM      2  O   UNL A   1      32.821  29.403  24.999  1.00  0.00    -0.374 OA
BRANCH   2   3
ATOM      3  C   UNL A   1      32.310  29.017  23.721  1.00  0.00     0.202 C 
BRANCH   3   4
ATOM      4  C   UNL A   1      33.440  28.711  22.735  1.00  0.00     0.261 C 
BRANCH   4   5
ATOM      5  O   UNL A   1      34.050  27.421  22.962  1.00  0.00    -0.460 OA
BRANCH   5   6
ATOM      6  C   UNL A   1      33.618  26.220  22.509  1.00  0.00     0.338 C 
ATOM      7  O   UNL A   1      33.502  26.038  21.299  1.00  0.00    -0.246 OA
BRANCH   6   8
ATOM      8  C   UNL A   1      33.496  25.049  23.408  1.00  0.00     0.087 C 
ATOM      9  C   UNL A   1      34.399  24.622  24.292  1.00  0.00     0.029 C 
ATOM     10  C   UNL A   1      32.130  24.389  23.441  1.00  0.00     0.316 C 
ATOM     11  C   UNL A   1      34.476  23.193  24.501  1.00  0.00     0.037 A 
ATOM     12  O   UNL A   1      32.085  23.105  24.154  1.00  0.00    -0.475 OA
ATOM     13  C   UNL A   1      33.279  22.490  24.423  1.00  0.00     0.129 A 
ATOM     14  C   UNL A   1      35.702  22.505  24.640  1.00  0.00     0.070 A 
ATOM     15  C   UNL A   1      33.276  21.114  24.610  1.00  0.00     0.049 A 
ATOM     16  C   UNL A   1      35.697  21.117  24.799  1.00  0.00     0.060 A 
ATOM     17  Cl  UNL A   1      37.212  23.345  24.491  1.00  0.00    -0.082 Cl
ATOM     18  C   UNL A   1      34.482  20.429  24.800  1.00  0.00     0.026 A 
ATOM     19  Cl  UNL A   1      37.149  20.198  24.977  1.00  0.00    -0.083 Cl
BRANCH  10  20
ATOM     20  C   UNL A   1      31.076  25.354  24.069  1.00  0.00     0.430 C 
ATOM     21  F   UNL A   1      30.545  26.233  23.183  1.00  0.00    -0.167 F 
ATOM     22  F   UNL A   1      30.046  24.668  24.623  1.00  0.00    -0.167 F 
ATOM     23  F   UNL A   1      31.609  26.112  25.062  1.00  0.00    -0.167 F 
ENDBRANCH  10  20
ENDBRANCH   6   8
ENDBRANCH   5   6
ENDBRANCH   4   5
ENDBRANCH   3   4
ENDBRANCH   2   3
ENDBRANCH   1   2
BRANCH   1  24
ATOM     24  C   UNL A   1      32.425  30.511  27.164  1.00  0.00     0.261 C 
BRANCH  24  25
ATOM     25  O   UNL A   1      33.800  30.115  27.330  1.00  0.00    -0.460 OA
BRANCH  25  26
ATOM     26  C   UNL A   1      34.550  30.880  28.166  1.00  0.00     0.338 C 
ATOM     27  O   UNL A   1      34.165  31.873  28.776  1.00  0.00    -0.246 OA
BRANCH  26  28
ATOM     28  C   UNL A   1      35.911  30.298  28.343  1.00  0.00     0.060 A 
ATOM     29  C   UNL A   1      36.280  29.821  29.610  1.00  0.00     0.016 A 
ATOM     30  C   UNL A   1      36.820  30.192  27.283  1.00  0.00     0.016 A 
ATOM     31  C   UNL A   1      37.542  29.245  29.818  1.00  0.00     0.010 A 
ATOM     32  C   UNL A   1      38.080  29.619  27.493  1.00  0.00     0.010 A 
ATOM     33  C   UNL A   1      38.459  29.155  28.764  1.00  0.00    -0.014 A 
BRANCH  33  34
ATOM     34  C   UNL A   1      39.875  28.766  29.004  1.00  0.00     0.031 A 
ATOM     35  C   UNL A   1      40.815  29.816  29.535  1.00  0.00     0.074 A 
ATOM     36  C   UNL A   1      40.346  27.538  28.713  1.00  0.00     0.049 A 
ATOM     37  N   UNL A   1      42.103  29.751  29.749  1.00  0.00    -0.248 NA
ATOM     38  C   UNL A   1      40.214  31.121  29.857  1.00  0.00     0.031 C 
ATOM     39  C   UNL A   1      39.550  26.424  28.206  1.00  0.00     0.029 A 
ATOM     40  N   UNL A   1      41.624  27.032  28.788  1.00  0.00    -0.354 N 
ATOM     41  C   UNL A   1      42.470  31.004  30.226  1.00  0.00     0.074 A 
ATOM     42  C   UNL A   1      41.273  31.818  30.238  1.00  0.00     0.031 C 
ATOM     43  C   UNL A   1      40.360  25.369  27.998  1.00  0.00     0.029 A 
ATOM     44  C   UNL A   1      41.737  25.738  28.329  1.00  0.00     0.049 A 
ATOM     45  H   UNL A   1      42.386  27.546  29.138  1.00  0.00     0.167 HD
ATOM     46  C   UNL A   1      43.689  31.440  30.622  1.00  0.00     0.037 A 
ATOM     47  C   UNL A   1      42.826  24.954  28.174  1.00  0.00     0.037 A 
ATOM     48  C   UNL A   1      44.887  30.643  30.583  1.00  0.00     0.049 A 
ATOM     49  C   UNL A   1      44.190  25.483  28.558  1.00  0.00     0.074 A 
ATOM     50  C   UNL A   1      46.165  30.997  30.976  1.00  0.00     0.029 A 
ATOM     51  N   UNL A   1      44.961  29.343  30.105  1.00  0.00    -0.354 N 
ATOM     52  N   UNL A   1      44.514  26.653  29.057  1.00  0.00    -0.248 NA
ATOM     53  C   UNL A   1      45.339  24.585  28.358  1.00  0.00     0.031 C 
ATOM     54  C   UNL A   1      47.024  29.935  30.677  1.00  0.00     0.029 A 
ATOM     55  C   UNL A   1      46.269  28.892  30.164  1.00  0.00     0.049 A 
ATOM     56  H   UNL A   1      44.196  28.819  29.774  1.00  0.00     0.167 HD
ATOM     57  C   UNL A   1      45.893  26.617  29.259  1.00  0.00     0.074 A 
ATOM     58  C   UNL A   1      46.342  25.308  28.837  1.00  0.00     0.031 C 
ATOM     59  C   UNL A   1      46.711  27.581  29.753  1.00  0.00     0.037 A 
BRANCH  46  60
ATOM     60  C   UNL A   1      43.789  32.863  31.095  1.00  0.00     0.058 A 
ATOM     61  C   UNL A   1      44.145  33.908  30.226  1.00  0.00     0.135 A 
ATOM     62  C   UNL A   1      43.520  33.187  32.434  1.00  0.00     0.135 A 
ATOM     63  F   UNL A   1      44.432  33.651  28.940  1.00  0.00    -0.206 F 
ATOM     64  C   UNL A   1      44.268  35.218  30.678  1.00  0.00     0.059 A 
ATOM     65  C   UNL A   1      43.605  34.496  32.900  1.00  0.00     0.059 A 
ATOM     66  F   UNL A   1      43.178  32.227  33.308  1.00  0.00    -0.206 F 
ATOM     67  C   UNL A   1      43.997  35.501  32.018  1.00  0.00     0.060 A 
BRANCH  67  68
ATOM     68  S   UNL A   1      44.178  37.202  32.590  1.00  0.00     0.124 S 
ATOM     69  O   UNL A   1      43.785  37.952  31.401  1.00  0.00    -0.237 OA
ATOM     70  O   UNL A   1      43.242  37.254  33.709  1.00  0.00    -0.237 OA
ATOM     71  O   UNL A   1      45.589  37.293  32.950  1.00  0.00    -0.744 OA
ENDBRANCH  67  68
ENDBRANCH  46  60
BRANCH  47  72
ATOM     72  C   UNL A   1      42.689  23.578  27.612  1.00  0.00     0.058 A 
ATOM     73  C   UNL A   1      42.418  22.476  28.439  1.00  0.00     0.135 A 
ATOM     74  C   UNL A   1      42.853  23.332  26.239  1.00  0.00     0.135 A 
ATOM     75  F   UNL A   1      42.276  22.650  29.762  1.00  0.00    -0.206 F 
ATOM     76  C   UNL A   1      42.329  21.183  27.931  1.00  0.00     0.059 A 
ATOM     77  C   UNL A   1      42.738  22.053  25.703  1.00  0.00     0.059 A 
ATOM     78  F   UNL A   1      43.114  24.347  25.401  1.00  0.00    -0.206 F 
ATOM     79  C   UNL A   1      42.484  20.982  26.558  1.00  0.00     0.060 A 
BRANCH  79  80
ATOM     80  S   UNL A   1      42.310  19.307  25.902  1.00  0.00     0.124 S 
ATOM     81  O   UNL A   1      42.844  18.503  26.996  1.00  0.00    -0.237 OA
ATOM     82  O   UNL A   1      40.870  19.213  25.684  1.00  0.00    -0.237 OA
ATOM     83  O   UNL A   1      43.120  19.336  24.687  1.00  0.00    -0.744 OA
ENDBRANCH  79  80
ENDBRANCH  47  72
BRANCH  59  84
ATOM     84  C   UNL A   1      48.175  27.259  29.913  1.00  0.00     0.058 A 
ATOM     85  C   UNL A   1      49.143  27.714  29.004  1.00  0.00     0.135 A 
ATOM     86  C   UNL A   1      48.624  26.552  31.043  1.00  0.00     0.135 A 
ATOM     87  F   UNL A   1      48.773  28.390  27.906  1.00  0.00    -0.206 F 
ATOM     88  C   UNL A   1      50.499  27.467  29.200  1.00  0.00     0.059 A 
ATOM     89  C   UNL A   1      49.977  26.321  31.275  1.00  0.00     0.059 A 
ATOM     90  F   UNL A   1      47.744  26.103  31.952  1.00  0.00    -0.206 F 
ATOM     91  C   UNL A   1      50.908  26.776  30.343  1.00  0.00     0.060 A 
BRANCH  91  92
ATOM     92  S   UNL A   1      52.674  26.507  30.609  1.00  0.00     0.124 S 
ATOM     93  O   UNL A   1      52.664  25.495  31.660  1.00  0.00    -0.237 OA
ATOM     94  O   UNL A   1      53.120  26.053  29.295  1.00  0.00    -0.237 OA
ATOM     95  O   UNL A   1      53.163  27.823  31.010  1.00  0.00    -0.744 OA
ENDBRANCH  91  92
ENDBRANCH  59  84
ENDBRANCH  33  34
ENDBRANCH  26  28
ENDBRANCH  25  26
ENDBRANCH  24  25
ENDBRANCH   1  24
TORSDOF 18
ENDMDL
MODEL 2
REMARK VINA RESULT:     -10.8      2.572      3.354
REMARK SMILES O=C(OCCOCCOC(=O)c1ccc(-c2c3nc(c(-c4c(F)cc(S(=O)(=O)[O-])cc4F)c4ccc([nH]4)c(-c4c(F)cc(S(=O)(=O)[O-])cc4F)c4nc(c(-c5c(F)cc(S(=O)(=O)[O-])cc5F)c5ccc2[nH]5)C=C4)C=C3)cc1)C1=Cc2c(ccc(Cl)c2Cl)O[C@H]1C(F)(F)F
REMARK SMILES IDX 7 1 6 2 5 3 4 4 3 5 2 6 1 7 78 8 79 9 89 10 80 11 88 12
REMARK SMILES IDX 81 13 86 14 82 15 84 16 87 17 83 18 85 19 90 20 91 21 92 22
REMARK SMILES IDX 93 23 8 24 9 25 10 26 11 27 12 28 13 29 77 30 14 31 76 32
REMARK SMILES IDX 15 33 16 34 17 35 70 36 18 37 75 38 69 39 71 40 19 41 74 42
REMARK SMILES IDX 68 43 67 44 20 46 54 47 33 48 53 49 34 50 37 51 52 52 72 53
REMARK SMILES IDX 35 54 36 55 51 57 73 58 38 59 21 60 22 61 31 62 23 63 24 64
REMARK SMILES IDX 30 65 32 66 25 67 26 68 27 69 28 70 29 71 55 72 56 73 65 74
REMARK SMILES IDX 57 75 58 76 64 77 66 78 59 79 60 80 61 81 62 82 63 83 39 84
REMARK SMILES IDX 40 85 49 86 41 87 42 88 48 89 50 90 43 91 44 92 45 93 46 94
REMARK SMILES IDX 47 95
REMARK H PARENT 71 45 37 56
REMARK Flexibility Score: inf
ROOT
ATOM      1  C   UNL A   1      33.327  28.885  27.227  1.00  0.00     0.202 C 
ENDROOT
BRANCH   1   2
ATOM      2  O   UNL A   1      33.054  29.022  25.837  1.00  0.00    -0.374 OA
BRANCH   2   3
ATOM      3  C   UNL A   1      34.045  28.414  25.004  1.00  0.00     0.202 C 
BRANCH   3   4
ATOM      4  C   UNL A   1      33.405  27.626  23.859  1.00  0.00     0.261 C 
BRANCH   4   5
ATOM      5  O   UNL A   1      33.239  26.224  24.164  1.00  0.00    -0.460 OA
BRANCH   5   6
ATOM      6  C   UNL A   1      33.747  25.171  23.480  1.00  0.00     0.338 C 
ATOM      7  O   UNL A   1      33.969  25.285  22.276  1.00  0.00    -0.246 OA
BRANCH   6   8
ATOM      8  C   UNL A   1      34.255  23.965  24.175  1.00  0.00     0.087 C 
ATOM      9  C   UNL A   1      35.037  23.934  25.254  1.00  0.00     0.029 C 
ATOM     10  C   UNL A   1      33.669  22.647  23.707  1.00  0.00     0.316 C 
ATOM     11  C   UNL A   1      35.985  22.844  25.336  1.00  0.00     0.037 A 
ATOM     12  O   UNL A   1      34.339  21.452  24.239  1.00  0.00    -0.475 OA
ATOM     13  C   UNL A   1      35.572  21.624  24.812  1.00  0.00     0.129 A 
ATOM     14  C   UNL A   1      37.311  23.015  25.789  1.00  0.00     0.070 A 
ATOM     15  C   UNL A   1      36.430  20.532  24.854  1.00  0.00     0.049 A 
ATOM     16  C   UNL A   1      38.180  21.922  25.803  1.00  0.00     0.060 A 
ATOM     17  Cl  UNL A   1      37.907  24.588  26.212  1.00  0.00    -0.082 Cl
ATOM     18  C   UNL A   1      37.730  20.680  25.350  1.00  0.00     0.026 A 
ATOM     19  Cl  UNL A   1      39.817  22.042  26.343  1.00  0.00    -0.083 Cl
BRANCH  10  20
ATOM     20  C   UNL A   1      32.149  22.572  24.058  1.00  0.00     0.430 C 
ATOM     21  F   UNL A   1      31.788  23.379  25.086  1.00  0.00    -0.167 F 
ATOM     22  F   UNL A   1      31.379  22.906  22.993  1.00  0.00    -0.167 F 
ATOM     23  F   UNL A   1      31.774  21.320  24.425  1.00  0.00    -0.167 F 
ENDBRANCH  10  20
ENDBRANCH   6   8
ENDBRANCH   5   6
ENDBRANCH   4   5
ENDBRANCH   3   4
ENDBRANCH   2   3
ENDBRANCH   1   2
BRANCH   1  24
ATOM     24  C   UNL A   1      34.334  29.917  27.744  1.00  0.00     0.261 C 
BRANCH  24  25
ATOM     25  O   UNL A   1      35.464  29.293  28.382  1.00  0.00    -0.460 OA
BRANCH  25  26
ATOM     26  C   UNL A   1      36.242  30.099  29.151  1.00  0.00     0.338 C 
ATOM     27  O   UNL A   1      35.842  30.919  29.972  1.00  0.00    -0.246 OA
BRANCH  26  28
ATOM     28  C   UNL A   1      37.688  29.795  28.947  1.00  0.00     0.060 A 
ATOM     29  C   UNL A   1      38.170  29.663  27.636  1.00  0.00     0.016 A 
ATOM     30  C   UNL A   1      38.580  29.663  30.018  1.00  0.00     0.016 A 
ATOM     31  C   UNL A   1      39.527  29.400  27.396  1.00  0.00     0.010 A 
ATOM     32  C   UNL A   1      39.933  29.398  29.778  1.00  0.00     0.010 A 
ATOM     33  C   UNL A   1      40.416  29.249  28.467  1.00  0.00    -0.014 A 
BRANCH  33  34
ATOM     34  C   UNL A   1      41.800  28.744  28.254  1.00  0.00     0.031 A 
ATOM     35  C   UNL A   1      42.924  29.746  28.249  1.00  0.00     0.074 A 
ATOM     36  C   UNL A   1      42.066  27.445  28.017  1.00  0.00     0.049 A 
ATOM     37  N   UNL A   1      44.197  29.572  28.006  1.00  0.00    -0.248 NA
ATOM     38  C   UNL A   1      42.552  31.140  28.549  1.00  0.00     0.031 C 
ATOM     39  C   UNL A   1      41.082  26.367  28.005  1.00  0.00     0.029 A 
ATOM     40  N   UNL A   1      43.255  26.818  27.719  1.00  0.00    -0.354 N 
ATOM     41  C   UNL A   1      44.778  30.828  28.118  1.00  0.00     0.074 A 
ATOM     42  C   UNL A   1      43.713  31.762  28.418  1.00  0.00     0.031 C 
ATOM     43  C   UNL A   1      41.704  25.213  27.697  1.00  0.00     0.029 A 
ATOM     44  C   UNL A   1      43.124  25.472  27.462  1.00  0.00     0.049 A 
ATOM     45  H   UNL A   1      44.119  27.288  27.694  1.00  0.00     0.167 HD
ATOM     46  C   UNL A   1      46.080  31.178  27.988  1.00  0.00     0.037 A 
ATOM     47  C   UNL A   1      44.039  24.562  27.063  1.00  0.00     0.037 A 
ATOM     48  C   UNL A   1      47.137  30.260  27.660  1.00  0.00     0.049 A 
ATOM     49  C   UNL A   1      45.477  24.986  26.856  1.00  0.00     0.074 A 
ATOM     50  C   UNL A   1      48.488  30.522  27.518  1.00  0.00     0.029 A 
ATOM     51  N   UNL A   1      46.962  28.908  27.400  1.00  0.00    -0.354 N 
ATOM     52  N   UNL A   1      46.022  26.169  27.017  1.00  0.00    -0.248 NA
ATOM     53  C   UNL A   1      46.425  23.951  26.412  1.00  0.00     0.031 C 
ATOM     54  C   UNL A   1      49.121  29.343  27.111  1.00  0.00     0.029 A 
ATOM     55  C   UNL A   1      48.177  28.331  27.068  1.00  0.00     0.049 A 
ATOM     56  H   UNL A   1      46.103  28.430  27.445  1.00  0.00     0.167 HD
ATOM     57  C   UNL A   1      47.376  26.011  26.726  1.00  0.00     0.074 A 
ATOM     58  C   UNL A   1      47.571  24.618  26.388  1.00  0.00     0.031 C 
ATOM     59  C   UNL A   1      48.368  26.937  26.743  1.00  0.00     0.037 A 
BRANCH  46  60
ATOM     60  C   UNL A   1      46.421  32.632  28.163  1.00  0.00     0.058 A 
ATOM     61  C   UNL A   1      46.861  33.144  29.396  1.00  0.00     0.135 A 
ATOM     62  C   UNL A   1      46.310  33.524  27.085  1.00  0.00     0.135 A 
ATOM     63  F   UNL A   1      46.966  32.339  30.465  1.00  0.00    -0.206 F 
ATOM     64  C   UNL A   1      47.143  34.496  29.560  1.00  0.00     0.059 A 
ATOM     65  C   UNL A   1      46.618  34.874  27.220  1.00  0.00     0.059 A 
ATOM     66  F   UNL A   1      45.891  33.088  25.887  1.00  0.00    -0.206 F 
ATOM     67  C   UNL A   1      47.017  35.353  28.466  1.00  0.00     0.060 A 
BRANCH  67  68
ATOM     68  S   UNL A   1      47.370  37.107  28.703  1.00  0.00     0.124 S 
ATOM     69  O   UNL A   1      48.131  37.084  29.948  1.00  0.00    -0.237 OA
ATOM     70  O   UNL A   1      48.131  37.435  27.502  1.00  0.00    -0.237 OA
ATOM     71  O   UNL A   1      46.045  37.712  28.789  1.00  0.00    -0.744 OA
ENDBRANCH  67  68
ENDBRANCH  46  60
BRANCH  47  72
ATOM     72  C   UNL A   1      43.634  23.148  26.811  1.00  0.00     0.058 A 
ATOM     73  C   UNL A   1      43.328  22.277  27.870  1.00  0.00     0.135 A 
ATOM     74  C   UNL A   1      43.570  22.628  25.508  1.00  0.00     0.135 A 
ATOM     75  F   UNL A   1      43.396  22.712  29.137  1.00  0.00    -0.206 F 
ATOM     76  C   UNL A   1      42.989  20.944  27.648  1.00  0.00     0.059 A 
ATOM     77  C   UNL A   1      43.204  21.309  25.259  1.00  0.00     0.059 A 
ATOM     78  F   UNL A   1      43.852  23.414  24.457  1.00  0.00    -0.206 F 
ATOM     79  C   UNL A   1      42.922  20.471  26.337  1.00  0.00     0.060 A 
BRANCH  79  80
ATOM     80  S   UNL A   1      42.426  18.756  26.058  1.00  0.00     0.124 S 
ATOM     81  O   UNL A   1      42.649  18.165  27.373  1.00  0.00    -0.237 OA
ATOM     82  O   UNL A   1      41.032  18.904  25.652  1.00  0.00    -0.237 OA
ATOM     83  O   UNL A   1      43.334  18.310  25.004  1.00  0.00    -0.744 OA
ENDBRANCH  79  80
ENDBRANCH  47  72
BRANCH  59  84
ATOM     84  C   UNL A   1      49.771  26.483  26.430  1.00  0.00     0.058 A 
ATOM     85  C   UNL A   1      50.317  26.581  25.140  1.00  0.00     0.135 A 
ATOM     86  C   UNL A   1      50.611  26.019  27.458  1.00  0.00     0.135 A 
ATOM     87  F   UNL A   1      49.562  27.013  24.118  1.00  0.00    -0.206 F 
ATOM     88  C   UNL A   1      51.637  26.221  24.879  1.00  0.00     0.059 A 
ATOM     89  C   UNL A   1      51.942  25.683  27.225  1.00  0.00     0.059 A 
ATOM     90  F   UNL A   1      50.146  25.916  28.714  1.00  0.00    -0.206 F 
ATOM     91  C   UNL A   1      52.444  25.780  25.930  1.00  0.00     0.060 A 
BRANCH  91  92
ATOM     92  S   UNL A   1      54.168  25.365  25.584  1.00  0.00     0.124 S 
ATOM     93  O   UNL A   1      54.336  25.897  24.236  1.00  0.00    -0.237 OA
ATOM     94  O   UNL A   1      54.877  26.079  26.642  1.00  0.00    -0.237 OA
ATOM     95  O   UNL A   1      54.195  23.909  25.692  1.00  0.00    -0.744 OA
ENDBRANCH  91  92
ENDBRANCH  59  84
ENDBRANCH  33  34
ENDBRANCH  26  28
ENDBRANCH  25  26
ENDBRANCH  24  25
ENDBRANCH   1  24
TORSDOF 18
ENDMDL
MODEL 3
REMARK VINA RESULT:     -10.8      5.140     10.752
REMARK SMILES O=C(OCCOCCOC(=O)c1ccc(-c2c3nc(c(-c4c(F)cc(S(=O)(=O)[O-])cc4F)c4ccc([nH]4)c(-c4c(F)cc(S(=O)(=O)[O-])cc4F)c4nc(c(-c5c(F)cc(S(=O)(=O)[O-])cc5F)c5ccc2[nH]5)C=C4)C=C3)cc1)C1=Cc2c(ccc(Cl)c2Cl)O[C@H]1C(F)(F)F
REMARK SMILES IDX 7 1 6 2 5 3 4 4 3 5 2 6 1 7 78 8 79 9 89 10 80 11 88 12
REMARK SMILES IDX 81 13 86 14 82 15 84 16 87 17 83 18 85 19 90 20 91 21 92 22
REMARK SMILES IDX 93 23 8 24 9 25 10 26 11 27 12 28 13 29 77 30 14 31 76 32
REMARK SMILES IDX 15 33 16 34 17 35 70 36 18 37 75 38 69 39 71 40 19 41 74 42
REMARK SMILES IDX 68 43 67 44 20 46 54 47 33 48 53 49 34 50 37 51 52 52 72 53
REMARK SMILES IDX 35 54 36 55 51 57 73 58 38 59 21 60 22 61 31 62 23 63 24 64
REMARK SMILES IDX 30 65 32 66 25 67 26 68 27 69 28 70 29 71 55 72 56 73 65 74
REMARK SMILES IDX 57 75 58 76 64 77 66 78 59 79 60 80 61 81 62 82 63 83 39 84
REMARK SMILES IDX 40 85 49 86 41 87 42 88 48 89 50 90 43 91 44 92 45 93 46 94
REMARK SMILES IDX 47 95
REMARK H PARENT 71 45 37 56
REMARK Flexibility Score: inf
ROOT
ATOM      1  C   UNL A   1      39.790  21.835  26.760  1.00  0.00     0.202 C 
ENDROOT
BRANCH   1   2
ATOM      2  O   UNL A   1      39.025  21.507  25.605  1.00  0.00    -0.374 OA
BRANCH   2   3
ATOM      3  C   UNL A   1      37.642  21.845  25.730  1.00  0.00     0.202 C 
BRANCH   3   4
ATOM      4  C   UNL A   1      37.313  23.141  24.985  1.00  0.00     0.261 C 
BRANCH   4   5
ATOM      5  O   UNL A   1      36.413  23.999  25.719  1.00  0.00    -0.460 OA
BRANCH   5   6
ATOM      6  C   UNL A   1      35.081  23.832  25.891  1.00  0.00     0.338 C 
ATOM      7  O   UNL A   1      34.671  23.245  26.890  1.00  0.00    -0.246 OA
BRANCH   6   8
ATOM      8  C   UNL A   1      34.093  24.527  25.033  1.00  0.00     0.087 C 
ATOM      9  C   UNL A   1      34.154  25.789  24.605  1.00  0.00     0.029 C 
ATOM     10  C   UNL A   1      33.004  23.649  24.446  1.00  0.00     0.316 C 
ATOM     11  C   UNL A   1      32.894  26.485  24.460  1.00  0.00     0.037 A 
ATOM     12  O   UNL A   1      31.911  24.380  23.790  1.00  0.00    -0.475 OA
ATOM     13  C   UNL A   1      31.809  25.722  24.044  1.00  0.00     0.129 A 
ATOM     14  C   UNL A   1      32.715  27.832  24.846  1.00  0.00     0.070 A 
ATOM     15  C   UNL A   1      30.567  26.323  23.885  1.00  0.00     0.049 A 
ATOM     16  C   UNL A   1      31.458  28.424  24.712  1.00  0.00     0.060 A 
ATOM     17  Cl  UNL A   1      34.004  28.717  25.596  1.00  0.00    -0.082 Cl
ATOM     18  C   UNL A   1      30.392  27.672  24.217  1.00  0.00     0.026 A 
ATOM     19  Cl  UNL A   1      31.152  30.066  25.158  1.00  0.00    -0.083 Cl
BRANCH  10  20
ATOM     20  C   UNL A   1      33.615  22.633  23.429  1.00  0.00     0.430 C 
ATOM     21  F   UNL A   1      34.677  23.123  22.741  1.00  0.00    -0.167 F 
ATOM     22  F   UNL A   1      34.025  21.499  24.049  1.00  0.00    -0.167 F 
ATOM     23  F   UNL A   1      32.713  22.252  22.488  1.00  0.00    -0.167 F 
ENDBRANCH  10  20
ENDBRANCH   6   8
ENDBRANCH   5   6
ENDBRANCH   4   5
ENDBRANCH   3   4
ENDBRANCH   2   3
ENDBRANCH   1   2
BRANCH   1  24
ATOM     24  C   UNL A   1      40.804  22.954  26.508  1.00  0.00     0.261 C 
BRANCH  24  25
ATOM     25  O   UNL A   1      40.164  24.236  26.356  1.00  0.00    -0.460 OA
BRANCH  25  26
ATOM     26  C   UNL A   1      40.986  25.300  26.165  1.00  0.00     0.338 C 
ATOM     27  O   UNL A   1      41.621  25.547  25.144  1.00  0.00    -0.246 OA
BRANCH  26  28
ATOM     28  C   UNL A   1      40.951  26.218  27.339  1.00  0.00     0.060 A 
ATOM     29  C   UNL A   1      39.940  26.047  28.297  1.00  0.00     0.016 A 
ATOM     30  C   UNL A   1      41.905  27.225  27.527  1.00  0.00     0.016 A 
ATOM     31  C   UNL A   1      39.881  26.873  29.430  1.00  0.00     0.010 A 
ATOM     32  C   UNL A   1      41.844  28.049  28.657  1.00  0.00     0.010 A 
ATOM     33  C   UNL A   1      40.824  27.892  29.610  1.00  0.00    -0.014 A 
BRANCH  33  34
ATOM     34  C   UNL A   1      40.654  28.922  30.670  1.00  0.00     0.031 A 
ATOM     35  C   UNL A   1      41.503  28.809  31.908  1.00  0.00     0.074 A 
ATOM     36  C   UNL A   1      39.738  29.907  30.579  1.00  0.00     0.049 A 
ATOM     37  N   UNL A   1      41.485  29.527  33.001  1.00  0.00    -0.248 NA
ATOM     38  C   UNL A   1      42.500  27.725  31.913  1.00  0.00     0.031 C 
ATOM     39  C   UNL A   1      38.859  30.144  29.438  1.00  0.00     0.029 A 
ATOM     40  N   UNL A   1      39.385  30.883  31.483  1.00  0.00    -0.354 N 
ATOM     41  C   UNL A   1      42.463  28.983  33.825  1.00  0.00     0.074 A 
ATOM     42  C   UNL A   1      43.031  27.854  33.119  1.00  0.00     0.031 C 
ATOM     43  C   UNL A   1      38.055  31.187  29.716  1.00  0.00     0.029 A 
ATOM     44  C   UNL A   1      38.340  31.676  31.066  1.00  0.00     0.049 A 
ATOM     45  H   UNL A   1      39.839  31.004  32.348  1.00  0.00     0.167 HD
ATOM     46  C   UNL A   1      42.857  29.386  35.056  1.00  0.00     0.037 A 
ATOM     47  C   UNL A   1      37.679  32.664  31.706  1.00  0.00     0.037 A 
ATOM     48  C   UNL A   1      42.276  30.488  35.774  1.00  0.00     0.049 A 
ATOM     49  C   UNL A   1      38.089  33.055  33.108  1.00  0.00     0.074 A 
ATOM     50  C   UNL A   1      42.619  30.976  37.022  1.00  0.00     0.029 A 
ATOM     51  N   UNL A   1      41.216  31.260  35.320  1.00  0.00    -0.354 N 
ATOM     52  N   UNL A   1      39.051  32.565  33.856  1.00  0.00    -0.248 NA
ATOM     53  C   UNL A   1      37.324  34.132  33.757  1.00  0.00     0.031 C 
ATOM     54  C   UNL A   1      41.727  32.002  37.350  1.00  0.00     0.029 A 
ATOM     55  C   UNL A   1      40.873  32.200  36.278  1.00  0.00     0.049 A 
ATOM     56  H   UNL A   1      40.773  31.155  34.447  1.00  0.00     0.167 HD
ATOM     57  C   UNL A   1      39.025  33.295  35.043  1.00  0.00     0.074 A 
ATOM     58  C   UNL A   1      37.960  34.266  34.913  1.00  0.00     0.031 C 
ATOM     59  C   UNL A   1      39.816  33.175  36.139  1.00  0.00     0.037 A 
BRANCH  46  60
ATOM     60  C   UNL A   1      43.951  28.595  35.719  1.00  0.00     0.058 A 
ATOM     61  C   UNL A   1      43.669  27.522  36.580  1.00  0.00     0.135 A 
ATOM     62  C   UNL A   1      45.299  28.912  35.486  1.00  0.00     0.135 A 
ATOM     63  F   UNL A   1      42.398  27.189  36.854  1.00  0.00    -0.206 F 
ATOM     64  C   UNL A   1      44.685  26.816  37.216  1.00  0.00     0.059 A 
ATOM     65  C   UNL A   1      46.331  28.198  36.086  1.00  0.00     0.059 A 
ATOM     66  F   UNL A   1      45.624  29.930  34.673  1.00  0.00    -0.206 F 
ATOM     67  C   UNL A   1      46.013  27.163  36.964  1.00  0.00     0.060 A 
BRANCH  67  68
ATOM     68  S   UNL A   1      47.317  26.248  37.810  1.00  0.00     0.124 S 
ATOM     69  O   UNL A   1      47.132  24.906  37.265  1.00  0.00    -0.237 OA
ATOM     70  O   UNL A   1      48.521  26.948  37.374  1.00  0.00    -0.237 OA
ATOM     71  O   UNL A   1      46.980  26.402  39.222  1.00  0.00    -0.744 OA
ENDBRANCH  67  68
ENDBRANCH  46  60
BRANCH  47  72
ATOM     72  C   UNL A   1      36.537  33.359  31.041  1.00  0.00     0.058 A 
ATOM     73  C   UNL A   1      36.743  34.233  29.962  1.00  0.00     0.135 A 
ATOM     74  C   UNL A   1      35.217  33.185  31.489  1.00  0.00     0.135 A 
ATOM     75  F   UNL A   1      37.986  34.456  29.508  1.00  0.00    -0.206 F 
ATOM     76  C   UNL A   1      35.690  34.918  29.361  1.00  0.00     0.059 A 
ATOM     77  C   UNL A   1      34.144  33.834  30.885  1.00  0.00     0.059 A 
ATOM     78  F   UNL A   1      34.959  32.361  32.517  1.00  0.00    -0.206 F 
ATOM     79  C   UNL A   1      34.391  34.706  29.826  1.00  0.00     0.060 A 
BRANCH  79  80
ATOM     80  S   UNL A   1      33.026  35.556  29.002  1.00  0.00     0.124 S 
ATOM     81  O   UNL A   1      32.491  34.502  28.149  1.00  0.00    -0.237 OA
ATOM     82  O   UNL A   1      32.188  35.952  30.130  1.00  0.00    -0.237 OA
ATOM     83  O   UNL A   1      33.687  36.657  28.305  1.00  0.00    -0.744 OA
ENDBRANCH  79  80
ENDBRANCH  47  72
BRANCH  59  84
ATOM     84  C   UNL A   1      39.604  34.136  37.280  1.00  0.00     0.058 A 
ATOM     85  C   UNL A   1      38.974  33.750  38.474  1.00  0.00     0.135 A 
ATOM     86  C   UNL A   1      40.115  35.444  37.208  1.00  0.00     0.135 A 
ATOM     87  F   UNL A   1      38.462  32.516  38.599  1.00  0.00    -0.206 F 
ATOM     88  C   UNL A   1      38.843  34.629  39.546  1.00  0.00     0.059 A 
ATOM     89  C   UNL A   1      40.024  36.329  38.279  1.00  0.00     0.059 A 
ATOM     90  F   UNL A   1      40.739  35.865  36.096  1.00  0.00    -0.206 F 
ATOM     91  C   UNL A   1      39.379  35.915  39.442  1.00  0.00     0.060 A 
BRANCH  91  92
ATOM     92  S   UNL A   1      39.247  37.027  40.859  1.00  0.00     0.124 S 
ATOM     93  O   UNL A   1      40.650  37.274  41.173  1.00  0.00    -0.237 OA
ATOM     94  O   UNL A   1      38.513  38.158  40.299  1.00  0.00    -0.237 OA
ATOM     95  O   UNL A   1      38.514  36.237  41.845  1.00  0.00    -0.744 OA
ENDBRANCH  91  92
ENDBRANCH  59  84
ENDBRANCH  33  34
ENDBRANCH  26  28
ENDBRANCH  25  26
ENDBRANCH  24  25
ENDBRANCH   1  24
TORSDOF 18
ENDMDL
