MODEL 1
REMARK VINA RESULT:     -11.2      0.000      0.000
REMARK SMILES Cc1cc(C)n(CC(=O)N[C@H]2C=C[C@@H](C(=O)OCCOCCOC(=O)c3ccc(-c4c5nc(c(-c6c(F)cc(S(=O)(=O)[O-])cc6F)c6ccc([nH]6)c(-c6c(F)cc(S(=O)(=O)[O-])cc6F)c6nc(c(-c7c(F)cc(S(=O)(=O)[O-])cc7F)c7ccc4[nH]7)C=C6)C=C5)cc3)C2)n1
REMARK SMILES IDX 20 1 19 2 18 3 17 4 15 5 16 6 14 7 11 8 12 9 92 10 13 11
REMARK SMILES IDX 10 12 8 13 9 14 7 16 6 17 1 18 2 19 3 20 93 21 4 22 5 23
REMARK SMILES IDX 21 24 22 25 23 26 24 27 25 28 26 29 27 30 91 31 28 32 90 33
REMARK SMILES IDX 29 34 30 35 31 36 84 37 32 38 89 39 83 40 85 41 33 42 88 43
REMARK SMILES IDX 82 44 81 45 34 47 68 48 47 49 67 50 48 51 51 52 66 53 86 54
REMARK SMILES IDX 49 55 50 56 65 58 87 59 52 60 35 61 36 62 45 63 37 64 38 65
REMARK SMILES IDX 44 66 46 67 39 68 40 69 41 70 42 71 43 72 69 73 70 74 79 75
REMARK SMILES IDX 71 76 72 77 78 78 80 79 73 80 74 81 75 82 76 83 77 84 53 85
REMARK SMILES IDX 54 86 63 87 55 88 56 89 62 90 64 91 57 92 58 93 59 94 60 95
REMARK SMILES IDX 61 96
REMARK H PARENT 10 15 85 46 51 57
REMARK Flexibility Score: inf
ROOT
ATOM      1  O   UNL A   1      40.206  20.190  26.114  1.00  0.00    -0.374 OA
ENDROOT
BRANCH   1   2
ATOM      2  C   UNL A   1      39.253  21.240  25.933  1.00  0.00     0.202 C 
BRANCH   2   3
ATOM      3  C   UNL A   1      38.015  20.902  25.102  1.00  0.00     0.261 C 
BRANCH   3   4
ATOM      4  O   UNL A   1      37.449  22.081  24.515  1.00  0.00    -0.463 OA
BRANCH   4   5
ATOM      5  C   UNL A   1      36.107  22.242  24.648  1.00  0.00     0.312 C 
ATOM      6  O   UNL A   1      35.335  21.383  25.062  1.00  0.00    -0.252 OA
BRANCH   5   7
ATOM      7  C   UNL A   1      35.638  23.636  24.248  1.00  0.00     0.124 C 
ATOM      8  C   UNL A   1      33.611  24.854  23.571  1.00  0.00     0.106 C 
ATOM      9  C   UNL A   1      33.928  25.035  25.024  1.00  0.00    -0.006 C 
ATOM     10  C   UNL A   1      34.553  23.712  23.170  1.00  0.00     0.048 C 
ATOM     11  C   UNL A   1      35.023  24.366  25.398  1.00  0.00    -0.014 C 
BRANCH   8  12
ATOM     12  N   UNL A   1      32.203  24.535  23.460  1.00  0.00    -0.348 N 
ATOM     13  C   UNL A   1      31.140  25.378  23.313  1.00  0.00     0.242 C 
ATOM     14  O   UNL A   1      30.009  24.892  23.383  1.00  0.00    -0.273 OA
ATOM     15  H   UNL A   1      31.982  23.576  23.496  1.00  0.00     0.164 HD
BRANCH  13  16
ATOM     16  C   UNL A   1      31.337  26.827  22.962  1.00  0.00     0.244 C 
BRANCH  16  17
ATOM     17  N   UNL A   1      31.818  27.649  24.046  1.00  0.00    -0.260 N 
ATOM     18  C   UNL A   1      31.604  28.401  27.489  1.00  0.00     0.069 C 
ATOM     19  C   UNL A   1      31.957  28.300  26.056  1.00  0.00     0.060 A 
ATOM     20  C   UNL A   1      32.961  28.986  25.335  1.00  0.00     0.048 A 
ATOM     21  N   UNL A   1      31.274  27.471  25.266  1.00  0.00    -0.178 NA
ATOM     22  C   UNL A   1      32.869  28.520  24.041  1.00  0.00     0.036 A 
ATOM     23  C   UNL A   1      33.675  28.813  22.828  1.00  0.00     0.066 C 
ENDBRANCH  16  17
ENDBRANCH  13  16
ENDBRANCH   8  12
ENDBRANCH   5   7
ENDBRANCH   4   5
ENDBRANCH   3   4
ENDBRANCH   2   3
ENDBRANCH   1   2
BRANCH   1  24
ATOM     24  C   UNL A   1      41.290  20.397  27.015  1.00  0.00     0.202 C 
BRANCH  24  25
ATOM     25  C   UNL A   1      42.665  19.905  26.583  1.00  0.00     0.261 C 
BRANCH  25  26
ATOM     26  O   UNL A   1      42.979  20.303  25.255  1.00  0.00    -0.460 OA
BRANCH  26  27
ATOM     27  C   UNL A   1      44.287  20.585  25.017  1.00  0.00     0.338 C 
ATOM     28  O   UNL A   1      45.179  19.796  24.787  1.00  0.00    -0.246 OA
BRANCH  27  29
ATOM     29  C   UNL A   1      44.477  22.027  25.243  1.00  0.00     0.060 A 
ATOM     30  C   UNL A   1      45.393  22.442  26.204  1.00  0.00     0.016 A 
ATOM     31  C   UNL A   1      43.548  22.919  24.699  1.00  0.00     0.016 A 
ATOM     32  C   UNL A   1      45.195  23.675  26.793  1.00  0.00     0.010 A 
ATOM     33  C   UNL A   1      43.332  24.132  25.291  1.00  0.00     0.010 A 
ATOM     34  C   UNL A   1      44.090  24.444  26.404  1.00  0.00    -0.014 A 
BRANCH  34  35
ATOM     35  C   UNL A   1      43.792  25.680  27.086  1.00  0.00     0.031 A 
ATOM     36  C   UNL A   1      44.799  26.707  26.763  1.00  0.00     0.074 A 
ATOM     37  C   UNL A   1      42.658  25.882  27.785  1.00  0.00     0.049 A 
ATOM     38  N   UNL A   1      45.861  26.977  27.445  1.00  0.00    -0.248 NA
ATOM     39  C   UNL A   1      44.801  27.280  25.405  1.00  0.00     0.031 C 
ATOM     40  C   UNL A   1      41.472  25.022  27.861  1.00  0.00     0.029 A 
ATOM     41  N   UNL A   1      42.295  26.964  28.528  1.00  0.00    -0.354 N 
ATOM     42  C   UNL A   1      46.477  28.000  26.739  1.00  0.00     0.074 A 
ATOM     43  C   UNL A   1      45.978  27.911  25.395  1.00  0.00     0.031 C 
ATOM     44  C   UNL A   1      40.450  25.711  28.423  1.00  0.00     0.029 A 
ATOM     45  C   UNL A   1      40.947  26.999  28.880  1.00  0.00     0.049 A 
ATOM     46  H   UNL A   1      42.934  27.664  28.796  1.00  0.00     0.167 HD
ATOM     47  C   UNL A   1      47.010  29.059  27.407  1.00  0.00     0.037 A 
ATOM     48  C   UNL A   1      40.308  28.048  29.460  1.00  0.00     0.037 A 
ATOM     49  C   UNL A   1      47.067  28.780  28.822  1.00  0.00     0.049 A 
ATOM     50  C   UNL A   1      41.359  28.866  30.122  1.00  0.00     0.074 A 
ATOM     51  C   UNL A   1      47.790  27.952  29.651  1.00  0.00     0.029 A 
ATOM     52  N   UNL A   1      45.923  29.136  29.492  1.00  0.00    -0.354 N 
ATOM     53  N   UNL A   1      42.080  28.435  31.125  1.00  0.00    -0.248 NA
ATOM     54  C   UNL A   1      41.911  30.015  29.413  1.00  0.00     0.031 C 
ATOM     55  C   UNL A   1      46.941  27.670  30.763  1.00  0.00     0.029 A 
ATOM     56  C   UNL A   1      45.747  28.377  30.615  1.00  0.00     0.049 A 
ATOM     57  H   UNL A   1      45.307  29.847  29.201  1.00  0.00     0.167 HD
ATOM     58  C   UNL A   1      43.339  28.965  30.906  1.00  0.00     0.074 A 
ATOM     59  C   UNL A   1      43.137  30.041  29.942  1.00  0.00     0.031 C 
ATOM     60  C   UNL A   1      44.459  28.273  31.275  1.00  0.00     0.037 A 
BRANCH  47  61
ATOM     61  C   UNL A   1      46.982  30.488  26.905  1.00  0.00     0.058 A 
ATOM     62  C   UNL A   1      48.166  31.249  26.963  1.00  0.00     0.135 A 
ATOM     63  C   UNL A   1      45.803  31.223  26.642  1.00  0.00     0.135 A 
ATOM     64  F   UNL A   1      49.341  30.660  27.237  1.00  0.00    -0.206 F 
ATOM     65  C   UNL A   1      48.173  32.636  26.810  1.00  0.00     0.059 A 
ATOM     66  C   UNL A   1      45.795  32.596  26.429  1.00  0.00     0.059 A 
ATOM     67  F   UNL A   1      44.584  30.676  26.673  1.00  0.00    -0.206 F 
ATOM     68  C   UNL A   1      46.979  33.300  26.545  1.00  0.00     0.060 A 
BRANCH  68  69
ATOM     69  S   UNL A   1      46.972  35.091  26.384  1.00  0.00     0.124 S 
ATOM     70  O   UNL A   1      48.018  35.300  25.388  1.00  0.00    -0.237 OA
ATOM     71  O   UNL A   1      45.605  35.346  25.941  1.00  0.00    -0.237 OA
ATOM     72  O   UNL A   1      47.282  35.552  27.734  1.00  0.00    -0.744 OA
ENDBRANCH  68  69
ENDBRANCH  47  61
BRANCH  48  73
ATOM     73  C   UNL A   1      38.950  28.589  29.162  1.00  0.00     0.058 A 
ATOM     74  C   UNL A   1      37.998  28.786  30.182  1.00  0.00     0.135 A 
ATOM     75  C   UNL A   1      38.670  29.211  27.931  1.00  0.00     0.135 A 
ATOM     76  F   UNL A   1      38.188  28.243  31.395  1.00  0.00    -0.206 F 
ATOM     77  C   UNL A   1      36.871  29.602  30.010  1.00  0.00     0.059 A 
ATOM     78  C   UNL A   1      37.552  30.024  27.734  1.00  0.00     0.059 A 
ATOM     79  F   UNL A   1      39.528  29.125  26.902  1.00  0.00    -0.206 F 
ATOM     80  C   UNL A   1      36.670  30.238  28.787  1.00  0.00     0.060 A 
BRANCH  80  81
ATOM     81  S   UNL A   1      35.323  31.435  28.608  1.00  0.00     0.124 S 
ATOM     82  O   UNL A   1      35.959  32.492  27.830  1.00  0.00    -0.237 OA
ATOM     83  O   UNL A   1      34.305  30.655  27.912  1.00  0.00    -0.237 OA
ATOM     84  O   UNL A   1      34.998  31.787  29.988  1.00  0.00    -0.744 OA
ENDBRANCH  80  81
ENDBRANCH  48  73
BRANCH  60  85
ATOM     85  C   UNL A   1      44.323  27.250  32.367  1.00  0.00     0.058 A 
ATOM     86  C   UNL A   1      44.168  25.867  32.179  1.00  0.00     0.135 A 
ATOM     87  C   UNL A   1      44.463  27.708  33.686  1.00  0.00     0.135 A 
ATOM     88  F   UNL A   1      44.109  25.341  30.946  1.00  0.00    -0.206 F 
ATOM     89  C   UNL A   1      44.124  24.983  33.262  1.00  0.00     0.059 A 
ATOM     90  C   UNL A   1      44.455  26.847  34.774  1.00  0.00     0.059 A 
ATOM     91  F   UNL A   1      44.660  29.016  33.925  1.00  0.00    -0.206 F 
ATOM     92  C   UNL A   1      44.270  25.485  34.557  1.00  0.00     0.060 A 
BRANCH  92  93
ATOM     93  S   UNL A   1      44.271  24.346  35.958  1.00  0.00     0.124 S 
ATOM     94  O   UNL A   1      43.524  25.095  36.964  1.00  0.00    -0.237 OA
ATOM     95  O   UNL A   1      43.598  23.171  35.411  1.00  0.00    -0.237 OA
ATOM     96  O   UNL A   1      45.691  24.160  36.248  1.00  0.00    -0.744 OA
ENDBRANCH  92  93
ENDBRANCH  60  85
ENDBRANCH  34  35
ENDBRANCH  27  29
ENDBRANCH  26  27
ENDBRANCH  25  26
ENDBRANCH  24  25
ENDBRANCH   1  24
TORSDOF 20
ENDMDL
MODEL 2
REMARK VINA RESULT:     -10.9      3.150     10.068
REMARK SMILES Cc1cc(C)n(CC(=O)N[C@H]2C=C[C@@H](C(=O)OCCOCCOC(=O)c3ccc(-c4c5nc(c(-c6c(F)cc(S(=O)(=O)[O-])cc6F)c6ccc([nH]6)c(-c6c(F)cc(S(=O)(=O)[O-])cc6F)c6nc(c(-c7c(F)cc(S(=O)(=O)[O-])cc7F)c7ccc4[nH]7)C=C6)C=C5)cc3)C2)n1
REMARK SMILES IDX 20 1 19 2 18 3 17 4 15 5 16 6 14 7 11 8 12 9 92 10 13 11
REMARK SMILES IDX 10 12 8 13 9 14 7 16 6 17 1 18 2 19 3 20 93 21 4 22 5 23
REMARK SMILES IDX 21 24 22 25 23 26 24 27 25 28 26 29 27 30 91 31 28 32 90 33
REMARK SMILES IDX 29 34 30 35 31 36 84 37 32 38 89 39 83 40 85 41 33 42 88 43
REMARK SMILES IDX 82 44 81 45 34 47 68 48 47 49 67 50 48 51 51 52 66 53 86 54
REMARK SMILES IDX 49 55 50 56 65 58 87 59 52 60 35 61 36 62 45 63 37 64 38 65
REMARK SMILES IDX 44 66 46 67 39 68 40 69 41 70 42 71 43 72 69 73 70 74 79 75
REMARK SMILES IDX 71 76 72 77 78 78 80 79 73 80 74 81 75 82 76 83 77 84 53 85
REMARK SMILES IDX 54 86 63 87 55 88 56 89 62 90 64 91 57 92 58 93 59 94 60 95
REMARK SMILES IDX 61 96
REMARK H PARENT 10 15 85 46 51 57
REMARK Flexibility Score: inf
ROOT
ATOM      1  O   UNL A   1      32.400  35.555  30.142  1.00  0.00    -0.374 OA
ENDROOT
BRANCH   1   2
ATOM      2  C   UNL A   1      33.040  35.888  28.908  1.00  0.00     0.202 C 
BRANCH   2   3
ATOM      3  C   UNL A   1      34.195  34.986  28.474  1.00  0.00     0.261 C 
BRANCH   3   4
ATOM      4  O   UNL A   1      33.749  33.638  28.269  1.00  0.00    -0.463 OA
BRANCH   4   5
ATOM      5  C   UNL A   1      34.703  32.724  27.956  1.00  0.00     0.312 C 
ATOM      6  O   UNL A   1      35.858  32.994  27.640  1.00  0.00    -0.252 OA
BRANCH   5   7
ATOM      7  C   UNL A   1      34.200  31.289  28.062  1.00  0.00     0.124 C 
ATOM      8  C   UNL A   1      33.587  29.366  26.655  1.00  0.00     0.106 C 
ATOM      9  C   UNL A   1      34.976  29.251  27.206  1.00  0.00    -0.006 C 
ATOM     10  C   UNL A   1      33.226  30.821  26.976  1.00  0.00     0.048 C 
ATOM     11  C   UNL A   1      35.316  30.301  27.962  1.00  0.00    -0.014 C 
BRANCH   8  12
ATOM     12  N   UNL A   1      33.644  29.060  25.241  1.00  0.00    -0.348 N 
ATOM     13  C   UNL A   1      33.146  27.979  24.575  1.00  0.00     0.242 C 
ATOM     14  O   UNL A   1      33.437  27.856  23.383  1.00  0.00    -0.273 OA
ATOM     15  H   UNL A   1      34.107  29.726  24.683  1.00  0.00     0.164 HD
BRANCH  13  16
ATOM     16  C   UNL A   1      32.182  27.032  25.236  1.00  0.00     0.244 C 
BRANCH  16  17
ATOM     17  N   UNL A   1      31.765  25.925  24.408  1.00  0.00    -0.260 N 
ATOM     18  C   UNL A   1      32.485  22.661  23.274  1.00  0.00     0.069 C 
ATOM     19  C   UNL A   1      31.888  23.977  23.588  1.00  0.00     0.060 A 
ATOM     20  C   UNL A   1      30.646  24.513  23.179  1.00  0.00     0.048 A 
ATOM     21  N   UNL A   1      32.559  24.838  24.354  1.00  0.00    -0.178 NA
ATOM     22  C   UNL A   1      30.577  25.765  23.753  1.00  0.00     0.036 A 
ATOM     23  C   UNL A   1      29.509  26.797  23.744  1.00  0.00     0.066 C 
ENDBRANCH  16  17
ENDBRANCH  13  16
ENDBRANCH   8  12
ENDBRANCH   5   7
ENDBRANCH   4   5
ENDBRANCH   3   4
ENDBRANCH   2   3
ENDBRANCH   1   2
BRANCH   1  24
ATOM     24  C   UNL A   1      32.812  36.225  31.330  1.00  0.00     0.202 C 
BRANCH  24  25
ATOM     25  C   UNL A   1      33.245  35.362  32.508  1.00  0.00     0.261 C 
BRANCH  25  26
ATOM     26  O   UNL A   1      34.241  34.418  32.138  1.00  0.00    -0.460 OA
BRANCH  26  27
ATOM     27  C   UNL A   1      35.489  34.656  32.622  1.00  0.00     0.338 C 
ATOM     28  O   UNL A   1      35.804  35.450  33.482  1.00  0.00    -0.246 OA
BRANCH  27  29
ATOM     29  C   UNL A   1      36.436  33.885  31.800  1.00  0.00     0.060 A 
ATOM     30  C   UNL A   1      36.044  32.645  31.308  1.00  0.00     0.016 A 
ATOM     31  C   UNL A   1      37.776  34.283  31.771  1.00  0.00     0.016 A 
ATOM     32  C   UNL A   1      37.032  31.719  31.033  1.00  0.00     0.010 A 
ATOM     33  C   UNL A   1      38.759  33.366  31.522  1.00  0.00     0.010 A 
ATOM     34  C   UNL A   1      38.369  32.065  31.265  1.00  0.00    -0.014 A 
BRANCH  34  35
ATOM     35  C   UNL A   1      39.411  31.079  31.101  1.00  0.00     0.031 A 
ATOM     36  C   UNL A   1      40.069  30.799  32.390  1.00  0.00     0.074 A 
ATOM     37  C   UNL A   1      39.619  30.411  29.949  1.00  0.00     0.049 A 
ATOM     38  N   UNL A   1      41.138  31.364  32.841  1.00  0.00    -0.248 NA
ATOM     39  C   UNL A   1      39.313  30.052  33.412  1.00  0.00     0.031 C 
ATOM     40  C   UNL A   1      38.787  30.402  28.741  1.00  0.00     0.029 A 
ATOM     41  N   UNL A   1      40.604  29.522  29.646  1.00  0.00    -0.354 N 
ATOM     42  C   UNL A   1      41.349  30.772  34.077  1.00  0.00     0.074 A 
ATOM     43  C   UNL A   1      40.076  30.250  34.490  1.00  0.00     0.031 C 
ATOM     44  C   UNL A   1      39.181  29.390  27.931  1.00  0.00     0.029 A 
ATOM     45  C   UNL A   1      40.378  28.780  28.487  1.00  0.00     0.049 A 
ATOM     46  H   UNL A   1      41.411  29.411  30.199  1.00  0.00     0.167 HD
ATOM     47  C   UNL A   1      42.607  30.410  34.449  1.00  0.00     0.037 A 
ATOM     48  C   UNL A   1      41.115  27.718  28.071  1.00  0.00     0.037 A 
ATOM     49  C   UNL A   1      43.578  30.975  33.544  1.00  0.00     0.049 A 
ATOM     50  C   UNL A   1      42.444  27.846  28.728  1.00  0.00     0.074 A 
ATOM     51  C   UNL A   1      44.073  32.228  33.262  1.00  0.00     0.029 A 
ATOM     52  N   UNL A   1      43.839  30.175  32.460  1.00  0.00    -0.354 N 
ATOM     53  N   UNL A   1      43.273  28.827  28.486  1.00  0.00    -0.248 NA
ATOM     54  C   UNL A   1      42.692  27.118  29.967  1.00  0.00     0.031 C 
ATOM     55  C   UNL A   1      44.463  32.197  31.889  1.00  0.00     0.029 A 
ATOM     56  C   UNL A   1      44.252  30.913  31.385  1.00  0.00     0.049 A 
ATOM     57  H   UNL A   1      43.741  29.196  32.455  1.00  0.00     0.167 HD
ATOM     58  C   UNL A   1      43.856  29.106  29.710  1.00  0.00     0.074 A 
ATOM     59  C   UNL A   1      43.582  27.935  30.536  1.00  0.00     0.031 C 
ATOM     60  C   UNL A   1      44.216  30.384  30.035  1.00  0.00     0.037 A 
BRANCH  47  61
ATOM     61  C   UNL A   1      42.935  29.170  35.254  1.00  0.00     0.058 A 
ATOM     62  C   UNL A   1      43.774  29.296  36.380  1.00  0.00     0.135 A 
ATOM     63  C   UNL A   1      42.705  27.844  34.817  1.00  0.00     0.135 A 
ATOM     64  F   UNL A   1      44.086  30.509  36.864  1.00  0.00    -0.206 F 
ATOM     65  C   UNL A   1      44.368  28.195  36.998  1.00  0.00     0.059 A 
ATOM     66  C   UNL A   1      43.240  26.731  35.453  1.00  0.00     0.059 A 
ATOM     67  F   UNL A   1      42.035  27.556  33.698  1.00  0.00    -0.206 F 
ATOM     68  C   UNL A   1      44.095  26.915  36.524  1.00  0.00     0.060 A 
BRANCH  68  69
ATOM     69  S   UNL A   1      44.885  25.493  37.290  1.00  0.00     0.124 S 
ATOM     70  O   UNL A   1      44.324  24.392  36.514  1.00  0.00    -0.237 OA
ATOM     71  O   UNL A   1      46.299  25.780  37.067  1.00  0.00    -0.237 OA
ATOM     72  O   UNL A   1      44.448  25.574  38.681  1.00  0.00    -0.744 OA
ENDBRANCH  68  69
ENDBRANCH  47  61
BRANCH  48  73
ATOM     73  C   UNL A   1      40.641  26.434  27.479  1.00  0.00     0.058 A 
ATOM     74  C   UNL A   1      41.317  25.828  26.401  1.00  0.00     0.135 A 
ATOM     75  C   UNL A   1      39.710  25.622  28.154  1.00  0.00     0.135 A 
ATOM     76  F   UNL A   1      42.235  26.521  25.707  1.00  0.00    -0.206 F 
ATOM     77  C   UNL A   1      41.128  24.483  26.055  1.00  0.00     0.059 A 
ATOM     78  C   UNL A   1      39.500  24.282  27.825  1.00  0.00     0.059 A 
ATOM     79  F   UNL A   1      39.040  26.081  29.222  1.00  0.00    -0.206 F 
ATOM     80  C   UNL A   1      40.232  23.710  26.791  1.00  0.00     0.060 A 
BRANCH  80  81
ATOM     81  S   UNL A   1      40.112  21.931  26.475  1.00  0.00     0.124 S 
ATOM     82  O   UNL A   1      38.813  21.827  25.820  1.00  0.00    -0.237 OA
ATOM     83  O   UNL A   1      41.275  21.687  25.628  1.00  0.00    -0.237 OA
ATOM     84  O   UNL A   1      40.184  21.343  27.811  1.00  0.00    -0.744 OA
ENDBRANCH  80  81
ENDBRANCH  48  73
BRANCH  60  85
ATOM     85  C   UNL A   1      44.486  31.343  28.910  1.00  0.00     0.058 A 
ATOM     86  C   UNL A   1      43.616  32.353  28.469  1.00  0.00     0.135 A 
ATOM     87  C   UNL A   1      45.758  31.285  28.319  1.00  0.00     0.135 A 
ATOM     88  F   UNL A   1      42.414  32.527  29.039  1.00  0.00    -0.206 F 
ATOM     89  C   UNL A   1      43.988  33.248  27.459  1.00  0.00     0.059 A 
ATOM     90  C   UNL A   1      46.161  32.181  27.339  1.00  0.00     0.059 A 
ATOM     91  F   UNL A   1      46.649  30.368  28.733  1.00  0.00    -0.206 F 
ATOM     92  C   UNL A   1      45.265  33.153  26.903  1.00  0.00     0.060 A 
BRANCH  92  93
ATOM     93  S   UNL A   1      45.776  34.338  25.639  1.00  0.00     0.124 S 
ATOM     94  O   UNL A   1      44.902  33.992  24.522  1.00  0.00    -0.237 OA
ATOM     95  O   UNL A   1      45.506  35.621  26.282  1.00  0.00    -0.237 OA
ATOM     96  O   UNL A   1      47.191  34.037  25.438  1.00  0.00    -0.744 OA
ENDBRANCH  92  93
ENDBRANCH  60  85
ENDBRANCH  34  35
ENDBRANCH  27  29
ENDBRANCH  26  27
ENDBRANCH  25  26
ENDBRANCH  24  25
ENDBRANCH   1  24
TORSDOF 20
ENDMDL
MODEL 3
REMARK VINA RESULT:     -10.6      2.526      9.550
REMARK SMILES Cc1cc(C)n(CC(=O)N[C@H]2C=C[C@@H](C(=O)OCCOCCOC(=O)c3ccc(-c4c5nc(c(-c6c(F)cc(S(=O)(=O)[O-])cc6F)c6ccc([nH]6)c(-c6c(F)cc(S(=O)(=O)[O-])cc6F)c6nc(c(-c7c(F)cc(S(=O)(=O)[O-])cc7F)c7ccc4[nH]7)C=C6)C=C5)cc3)C2)n1
REMARK SMILES IDX 20 1 19 2 18 3 17 4 15 5 16 6 14 7 11 8 12 9 92 10 13 11
REMARK SMILES IDX 10 12 8 13 9 14 7 16 6 17 1 18 2 19 3 20 93 21 4 22 5 23
REMARK SMILES IDX 21 24 22 25 23 26 24 27 25 28 26 29 27 30 91 31 28 32 90 33
REMARK SMILES IDX 29 34 30 35 31 36 84 37 32 38 89 39 83 40 85 41 33 42 88 43
REMARK SMILES IDX 82 44 81 45 34 47 68 48 47 49 67 50 48 51 51 52 66 53 86 54
REMARK SMILES IDX 49 55 50 56 65 58 87 59 52 60 35 61 36 62 45 63 37 64 38 65
REMARK SMILES IDX 44 66 46 67 39 68 40 69 41 70 42 71 43 72 69 73 70 74 79 75
REMARK SMILES IDX 71 76 72 77 78 78 80 79 73 80 74 81 75 82 76 83 77 84 53 85
REMARK SMILES IDX 54 86 63 87 55 88 56 89 62 90 64 91 57 92 58 93 59 94 60 95
REMARK SMILES IDX 61 96
REMARK H PARENT 10 15 85 46 51 57
REMARK Flexibility Score: inf
ROOT
ATOM      1  O   UNL A   1      33.447  31.939  27.467  1.00  0.00    -0.374 OA
ENDROOT
BRANCH   1   2
ATOM      2  C   UNL A   1      33.703  30.583  27.098  1.00  0.00     0.202 C 
BRANCH   2   3
ATOM      3  C   UNL A   1      32.849  30.012  25.965  1.00  0.00     0.261 C 
BRANCH   3   4
ATOM      4  O   UNL A   1      31.646  29.418  26.473  1.00  0.00    -0.463 OA
BRANCH   4   5
ATOM      5  C   UNL A   1      31.746  28.147  26.938  1.00  0.00     0.312 C 
ATOM      6  O   UNL A   1      31.461  27.792  28.078  1.00  0.00    -0.252 OA
BRANCH   5   7
ATOM      7  C   UNL A   1      32.233  27.168  25.876  1.00  0.00     0.124 C 
ATOM      8  C   UNL A   1      33.185  24.911  25.645  1.00  0.00     0.106 C 
ATOM      9  C   UNL A   1      31.708  24.937  25.392  1.00  0.00    -0.006 C 
ATOM     10  C   UNL A   1      33.439  26.299  26.245  1.00  0.00     0.048 C 
ATOM     11  C   UNL A   1      31.185  26.160  25.528  1.00  0.00    -0.014 C 
BRANCH   8  12
ATOM     12  N   UNL A   1      33.462  23.809  26.543  1.00  0.00    -0.348 N 
ATOM     13  C   UNL A   1      34.253  22.716  26.343  1.00  0.00     0.242 C 
ATOM     14  O   UNL A   1      34.231  21.828  27.198  1.00  0.00    -0.273 OA
ATOM     15  H   UNL A   1      33.017  23.857  27.420  1.00  0.00     0.164 HD
BRANCH  13  16
ATOM     16  C   UNL A   1      35.208  22.646  25.183  1.00  0.00     0.244 C 
BRANCH  16  17
ATOM     17  N   UNL A   1      36.598  22.809  25.538  1.00  0.00    -0.260 N 
ATOM     18  C   UNL A   1      39.023  24.864  27.076  1.00  0.00     0.069 C 
ATOM     19  C   UNL A   1      38.262  23.779  26.418  1.00  0.00     0.060 A 
ATOM     20  C   UNL A   1      38.712  22.510  25.986  1.00  0.00     0.048 A 
ATOM     21  N   UNL A   1      36.965  23.948  26.158  1.00  0.00    -0.178 NA
ATOM     22  C   UNL A   1      37.603  21.890  25.448  1.00  0.00     0.036 A 
ATOM     23  C   UNL A   1      37.414  20.532  24.877  1.00  0.00     0.066 C 
ENDBRANCH  16  17
ENDBRANCH  13  16
ENDBRANCH   8  12
ENDBRANCH   5   7
ENDBRANCH   4   5
ENDBRANCH   3   4
ENDBRANCH   2   3
ENDBRANCH   1   2
BRANCH   1  24
ATOM     24  C   UNL A   1      34.515  32.718  27.999  1.00  0.00     0.202 C 
BRANCH  24  25
ATOM     25  C   UNL A   1      34.407  33.160  29.452  1.00  0.00     0.261 C 
BRANCH  25  26
ATOM     26  O   UNL A   1      34.620  32.082  30.353  1.00  0.00    -0.460 OA
BRANCH  26  27
ATOM     27  C   UNL A   1      35.749  32.156  31.106  1.00  0.00     0.338 C 
ATOM     28  O   UNL A   1      35.924  32.823  32.104  1.00  0.00    -0.246 OA
BRANCH  27  29
ATOM     29  C   UNL A   1      36.798  31.398  30.405  1.00  0.00     0.060 A 
ATOM     30  C   UNL A   1      36.760  30.008  30.438  1.00  0.00     0.016 A 
ATOM     31  C   UNL A   1      37.941  32.078  29.973  1.00  0.00     0.016 A 
ATOM     32  C   UNL A   1      37.951  29.326  30.284  1.00  0.00     0.010 A 
ATOM     33  C   UNL A   1      39.128  31.413  29.841  1.00  0.00     0.010 A 
ATOM     34  C   UNL A   1      39.134  30.057  30.110  1.00  0.00    -0.014 A 
BRANCH  34  35
ATOM     35  C   UNL A   1      40.405  29.376  30.067  1.00  0.00     0.031 A 
ATOM     36  C   UNL A   1      40.929  29.168  31.430  1.00  0.00     0.074 A 
ATOM     37  C   UNL A   1      40.934  28.872  28.935  1.00  0.00     0.049 A 
ATOM     38  N   UNL A   1      41.745  29.944  32.061  1.00  0.00    -0.248 NA
ATOM     39  C   UNL A   1      40.257  28.179  32.293  1.00  0.00     0.031 C 
ATOM     40  C   UNL A   1      40.307  28.751  27.615  1.00  0.00     0.029 A 
ATOM     41  N   UNL A   1      42.146  28.281  28.750  1.00  0.00    -0.354 N 
ATOM     42  C   UNL A   1      41.929  29.328  33.290  1.00  0.00     0.074 A 
ATOM     43  C   UNL A   1      40.788  28.475  33.482  1.00  0.00     0.031 C 
ATOM     44  C   UNL A   1      41.055  27.935  26.834  1.00  0.00     0.029 A 
ATOM     45  C   UNL A   1      42.280  27.600  27.541  1.00  0.00     0.049 A 
ATOM     46  H   UNL A   1      42.871  28.331  29.415  1.00  0.00     0.167 HD
ATOM     47  C   UNL A   1      43.174  29.260  33.835  1.00  0.00     0.037 A 
ATOM     48  C   UNL A   1      43.315  26.789  27.200  1.00  0.00     0.037 A 
ATOM     49  C   UNL A   1      44.083  30.117  33.112  1.00  0.00     0.049 A 
ATOM     50  C   UNL A   1      44.463  27.190  28.057  1.00  0.00     0.074 A 
ATOM     51  C   UNL A   1      44.273  31.472  32.960  1.00  0.00     0.029 A 
ATOM     52  N   UNL A   1      44.687  29.495  32.049  1.00  0.00    -0.354 N 
ATOM     53  N   UNL A   1      45.038  28.363  27.984  1.00  0.00    -0.248 NA
ATOM     54  C   UNL A   1      44.717  26.452  29.288  1.00  0.00     0.031 C 
ATOM     55  C   UNL A   1      44.843  31.645  31.663  1.00  0.00     0.029 A 
ATOM     56  C   UNL A   1      45.040  30.393  31.081  1.00  0.00     0.049 A 
ATOM     57  H   UNL A   1      44.845  28.525  31.990  1.00  0.00     0.167 HD
ATOM     58  C   UNL A   1      45.355  28.680  29.293  1.00  0.00     0.074 A 
ATOM     59  C   UNL A   1      45.280  27.417  30.020  1.00  0.00     0.031 C 
ATOM     60  C   UNL A   1      45.327  29.978  29.721  1.00  0.00     0.037 A 
BRANCH  47  61
ATOM     61  C   UNL A   1      43.696  28.081  34.630  1.00  0.00     0.058 A 
ATOM     62  C   UNL A   1      44.247  28.316  35.905  1.00  0.00     0.135 A 
ATOM     63  C   UNL A   1      43.939  26.796  34.093  1.00  0.00     0.135 A 
ATOM     64  F   UNL A   1      44.105  29.512  36.499  1.00  0.00    -0.206 F 
ATOM     65  C   UNL A   1      45.012  27.362  36.577  1.00  0.00     0.059 A 
ATOM     66  C   UNL A   1      44.649  25.812  34.769  1.00  0.00     0.059 A 
ATOM     67  F   UNL A   1      43.592  26.451  32.849  1.00  0.00    -0.206 F 
ATOM     68  C   UNL A   1      45.208  26.111  35.998  1.00  0.00     0.060 A 
BRANCH  68  69
ATOM     69  S   UNL A   1      46.224  24.888  36.839  1.00  0.00     0.124 S 
ATOM     70  O   UNL A   1      46.872  25.700  37.863  1.00  0.00    -0.237 OA
ATOM     71  O   UNL A   1      45.220  23.940  37.310  1.00  0.00    -0.237 OA
ATOM     72  O   UNL A   1      47.097  24.391  35.780  1.00  0.00    -0.744 OA
ENDBRANCH  68  69
ENDBRANCH  47  61
BRANCH  48  73
ATOM     73  C   UNL A   1      43.273  25.478  26.491  1.00  0.00     0.058 A 
ATOM     74  C   UNL A   1      44.001  25.260  25.304  1.00  0.00     0.135 A 
ATOM     75  C   UNL A   1      42.772  24.324  27.124  1.00  0.00     0.135 A 
ATOM     76  F   UNL A   1      44.529  26.300  24.639  1.00  0.00    -0.206 F 
ATOM     77  C   UNL A   1      44.271  23.975  24.812  1.00  0.00     0.059 A 
ATOM     78  C   UNL A   1      43.023  23.035  26.651  1.00  0.00     0.059 A 
ATOM     79  F   UNL A   1      42.100  24.409  28.283  1.00  0.00    -0.206 F 
ATOM     80  C   UNL A   1      43.796  22.866  25.509  1.00  0.00     0.060 A 
BRANCH  80  81
ATOM     81  S   UNL A   1      44.289  21.202  24.989  1.00  0.00     0.124 S 
ATOM     82  O   UNL A   1      44.508  21.385  23.559  1.00  0.00    -0.237 OA
ATOM     83  O   UNL A   1      45.483  20.967  25.793  1.00  0.00    -0.237 OA
ATOM     84  O   UNL A   1      43.133  20.381  25.342  1.00  0.00    -0.744 OA
ENDBRANCH  80  81
ENDBRANCH  48  73
BRANCH  60  85
ATOM     85  C   UNL A   1      45.494  31.059  28.690  1.00  0.00     0.058 A 
ATOM     86  C   UNL A   1      44.453  31.699  27.998  1.00  0.00     0.135 A 
ATOM     87  C   UNL A   1      46.797  31.537  28.477  1.00  0.00     0.135 A 
ATOM     88  F   UNL A   1      43.173  31.356  28.207  1.00  0.00    -0.206 F 
ATOM     89  C   UNL A   1      44.704  32.749  27.109  1.00  0.00     0.059 A 
ATOM     90  C   UNL A   1      47.067  32.598  27.625  1.00  0.00     0.059 A 
ATOM     91  F   UNL A   1      47.829  30.994  29.147  1.00  0.00    -0.206 F 
ATOM     92  C   UNL A   1      46.017  33.191  26.931  1.00  0.00     0.060 A 
BRANCH  92  93
ATOM     93  S   UNL A   1      46.345  34.583  25.828  1.00  0.00     0.124 S 
ATOM     94  O   UNL A   1      46.071  35.729  26.689  1.00  0.00    -0.237 OA
ATOM     95  O   UNL A   1      47.746  34.378  25.469  1.00  0.00    -0.237 OA
ATOM     96  O   UNL A   1      45.396  34.385  24.735  1.00  0.00    -0.744 OA
ENDBRANCH  92  93
ENDBRANCH  60  85
ENDBRANCH  34  35
ENDBRANCH  27  29
ENDBRANCH  26  27
ENDBRANCH  25  26
ENDBRANCH  24  25
ENDBRANCH   1  24
TORSDOF 20
ENDMDL
