MODEL 1
REMARK VINA RESULT:     -11.1      0.000      0.000
REMARK SMILES CCc1ccc(N(C)C(=O)N2CC[C@@H](C(=O)OCCOCCOC(=O)c3ccc(-c4c5nc(c(-c6c(F)cc(S(=O)(=O)[O-])cc6F)c6ccc([nH]6)c(-c6c(F)cc(S(=O)(=O)[O-])cc6F)c6nc(c(-c7c(F)cc(S(=O)(=O)[O-])cc7F)c7ccc4[nH]7)C=C6)C=C5)cc3)[C@@H]2C)cc1
REMARK SMILES IDX 19 1 18 2 17 3 15 4 16 5 14 6 11 7 12 8 92 9 13 10 93 11
REMARK SMILES IDX 9 12 10 13 7 14 8 15 6 16 3 17 4 18 95 19 5 20 94 21 2 22
REMARK SMILES IDX 1 23 20 24 21 25 22 26 23 27 24 28 25 29 26 30 27 31 91 32
REMARK SMILES IDX 28 33 90 34 29 35 30 36 31 37 84 38 32 39 89 40 83 41 85 42
REMARK SMILES IDX 33 43 88 44 82 45 81 46 34 48 68 49 47 50 67 51 48 52 51 53
REMARK SMILES IDX 66 54 86 55 49 56 50 57 65 59 87 60 52 61 35 62 36 63 45 64
REMARK SMILES IDX 37 65 38 66 44 67 46 68 39 69 40 70 41 71 42 72 43 73 69 74
REMARK SMILES IDX 70 75 79 76 71 77 72 78 78 79 80 80 73 81 74 82 75 83 76 84
REMARK SMILES IDX 77 85 53 86 54 87 63 88 55 89 56 90 62 91 64 92 57 93 58 94
REMARK SMILES IDX 59 95 60 96 61 97
REMARK H PARENT 85 47 51 58
REMARK Flexibility Score: inf
ROOT
ATOM      1  C   UNL A   1      38.364  21.868  25.673  1.00  0.00     0.202 C 
ENDROOT
BRANCH   1   2
ATOM      2  C   UNL A   1      37.419  21.179  24.684  1.00  0.00     0.261 C 
BRANCH   2   3
ATOM      3  O   UNL A   1      36.449  20.363  25.366  1.00  0.00    -0.463 OA
BRANCH   3   4
ATOM      4  C   UNL A   1      35.154  20.761  25.275  1.00  0.00     0.311 C 
ATOM      5  O   UNL A   1      34.331  20.306  24.489  1.00  0.00    -0.252 OA
BRANCH   4   6
ATOM      6  C   UNL A   1      34.814  21.885  26.228  1.00  0.00     0.123 C 
ATOM      7  N   UNL A   1      33.016  23.440  26.537  1.00  0.00    -0.321 N 
ATOM      8  C   UNL A   1      33.140  22.631  27.737  1.00  0.00     0.122 C 
ATOM      9  C   UNL A   1      34.139  23.145  25.625  1.00  0.00     0.098 C 
ATOM     10  C   UNL A   1      33.829  21.371  27.271  1.00  0.00     0.039 C 
ATOM     11  C   UNL A   1      35.126  24.315  25.579  1.00  0.00     0.032 C 
BRANCH   7  12
ATOM     12  C   UNL A   1      32.043  24.428  26.541  1.00  0.00     0.324 C 
ATOM     13  O   UNL A   1      31.131  24.308  27.365  1.00  0.00    -0.248 OA
BRANCH  12  14
ATOM     14  N   UNL A   1      32.112  25.479  25.617  1.00  0.00    -0.297 N 
ATOM     15  C   UNL A   1      31.545  25.316  24.281  1.00  0.00     0.155 C 
BRANCH  14  16
ATOM     16  C   UNL A   1      32.450  26.846  26.020  1.00  0.00     0.045 A 
ATOM     17  C   UNL A   1      33.144  29.445  27.035  1.00  0.00    -0.048 A 
ATOM     18  C   UNL A   1      31.837  28.968  27.116  1.00  0.00     0.006 A 
ATOM     19  C   UNL A   1      34.081  28.653  26.372  1.00  0.00     0.006 A 
ATOM     20  C   UNL A   1      31.497  27.700  26.610  1.00  0.00     0.027 A 
ATOM     21  C   UNL A   1      33.733  27.391  25.862  1.00  0.00     0.027 A 
BRANCH  17  22
ATOM     22  C   UNL A   1      33.540  30.782  27.610  1.00  0.00     0.032 C 
ATOM     23  C   UNL A   1      35.043  30.940  27.802  1.00  0.00     0.009 C 
ENDBRANCH  17  22
ENDBRANCH  14  16
ENDBRANCH  12  14
ENDBRANCH   7  12
ENDBRANCH   4   6
ENDBRANCH   3   4
ENDBRANCH   2   3
ENDBRANCH   1   2
BRANCH   1  24
ATOM     24  O   UNL A   1      39.601  21.197  25.926  1.00  0.00    -0.374 OA
BRANCH  24  25
ATOM     25  C   UNL A   1      40.384  21.664  27.021  1.00  0.00     0.202 C 
BRANCH  25  26
ATOM     26  C   UNL A   1      41.611  22.514  26.672  1.00  0.00     0.261 C 
BRANCH  26  27
ATOM     27  O   UNL A   1      41.282  23.905  26.510  1.00  0.00    -0.460 OA
BRANCH  27  28
ATOM     28  C   UNL A   1      42.243  24.754  26.948  1.00  0.00     0.338 C 
ATOM     29  O   UNL A   1      43.420  24.771  26.599  1.00  0.00    -0.246 OA
BRANCH  28  30
ATOM     30  C   UNL A   1      41.671  25.805  27.807  1.00  0.00     0.060 A 
ATOM     31  C   UNL A   1      42.460  26.938  28.032  1.00  0.00     0.016 A 
ATOM     32  C   UNL A   1      40.441  25.657  28.458  1.00  0.00     0.016 A 
ATOM     33  C   UNL A   1      42.058  27.895  28.959  1.00  0.00     0.010 A 
ATOM     34  C   UNL A   1      40.037  26.625  29.388  1.00  0.00     0.010 A 
ATOM     35  C   UNL A   1      40.867  27.724  29.677  1.00  0.00    -0.014 A 
BRANCH  35  36
ATOM     36  C   UNL A   1      40.596  28.634  30.819  1.00  0.00     0.031 A 
ATOM     37  C   UNL A   1      41.457  28.548  32.052  1.00  0.00     0.074 A 
ATOM     38  C   UNL A   1      39.657  29.593  30.719  1.00  0.00     0.049 A 
ATOM     39  N   UNL A   1      41.472  29.321  33.108  1.00  0.00    -0.248 NA
ATOM     40  C   UNL A   1      42.432  27.447  32.099  1.00  0.00     0.031 C 
ATOM     41  C   UNL A   1      38.769  29.788  29.573  1.00  0.00     0.029 A 
ATOM     42  N   UNL A   1      39.309  30.595  31.589  1.00  0.00    -0.354 N 
ATOM     43  C   UNL A   1      42.460  28.807  33.941  1.00  0.00     0.074 A 
ATOM     44  C   UNL A   1      42.993  27.631  33.287  1.00  0.00     0.031 C 
ATOM     45  C   UNL A   1      37.985  30.855  29.807  1.00  0.00     0.029 A 
ATOM     46  C   UNL A   1      38.307  31.409  31.120  1.00  0.00     0.049 A 
ATOM     47  H   UNL A   1      39.737  30.718  32.468  1.00  0.00     0.167 HD
ATOM     48  C   UNL A   1      42.897  29.280  35.133  1.00  0.00     0.037 A 
ATOM     49  C   UNL A   1      37.721  32.484  31.682  1.00  0.00     0.037 A 
ATOM     50  C   UNL A   1      42.369  30.452  35.783  1.00  0.00     0.049 A 
ATOM     51  C   UNL A   1      38.207  32.978  33.019  1.00  0.00     0.074 A 
ATOM     52  C   UNL A   1      42.759  31.022  36.983  1.00  0.00     0.029 A 
ATOM     53  N   UNL A   1      41.334  31.232  35.289  1.00  0.00    -0.354 N 
ATOM     54  N   UNL A   1      39.167  32.502  33.775  1.00  0.00    -0.248 NA
ATOM     55  C   UNL A   1      37.541  34.167  33.568  1.00  0.00     0.031 C 
ATOM     56  C   UNL A   1      41.933  32.125  37.234  1.00  0.00     0.029 A 
ATOM     57  C   UNL A   1      41.059  32.267  36.169  1.00  0.00     0.049 A 
ATOM     58  H   UNL A   1      40.864  31.074  34.439  1.00  0.00     0.167 HD
ATOM     59  C   UNL A   1      39.233  33.344  34.881  1.00  0.00     0.074 A 
ATOM     60  C   UNL A   1      38.229  34.371  34.683  1.00  0.00     0.031 C 
ATOM     61  C   UNL A   1      40.050  33.276  35.963  1.00  0.00     0.037 A 
BRANCH  48  62
ATOM     62  C   UNL A   1      43.995  28.515  35.821  1.00  0.00     0.058 A 
ATOM     63  C   UNL A   1      45.349  28.831  35.622  1.00  0.00     0.135 A 
ATOM     64  C   UNL A   1      43.689  27.469  36.706  1.00  0.00     0.135 A 
ATOM     65  F   UNL A   1      45.697  29.810  34.772  1.00  0.00    -0.206 F 
ATOM     66  C   UNL A   1      46.363  28.118  36.255  1.00  0.00     0.059 A 
ATOM     67  C   UNL A   1      44.687  26.759  37.369  1.00  0.00     0.059 A 
ATOM     68  F   UNL A   1      42.412  27.125  36.930  1.00  0.00    -0.206 F 
ATOM     69  C   UNL A   1      46.021  27.081  37.125  1.00  0.00     0.060 A 
BRANCH  69  70
ATOM     70  S   UNL A   1      47.345  26.161  37.936  1.00  0.00     0.124 S 
ATOM     71  O   UNL A   1      48.306  27.223  38.218  1.00  0.00    -0.237 OA
ATOM     72  O   UNL A   1      46.668  25.595  39.098  1.00  0.00    -0.237 OA
ATOM     73  O   UNL A   1      47.758  25.194  36.923  1.00  0.00    -0.744 OA
ENDBRANCH  69  70
ENDBRANCH  48  62
BRANCH  49  74
ATOM     74  C   UNL A   1      36.614  33.179  30.973  1.00  0.00     0.058 A 
ATOM     75  C   UNL A   1      35.273  32.951  31.316  1.00  0.00     0.135 A 
ATOM     76  C   UNL A   1      36.880  34.091  29.941  1.00  0.00     0.135 A 
ATOM     77  F   UNL A   1      34.969  32.081  32.290  1.00  0.00    -0.206 F 
ATOM     78  C   UNL A   1      34.233  33.593  30.651  1.00  0.00     0.059 A 
ATOM     79  C   UNL A   1      35.858  34.763  29.278  1.00  0.00     0.059 A 
ATOM     80  F   UNL A   1      38.147  34.352  29.584  1.00  0.00    -0.206 F 
ATOM     81  C   UNL A   1      34.536  34.501  29.635  1.00  0.00     0.060 A 
BRANCH  81  82
ATOM     82  S   UNL A   1      33.184  35.375  28.818  1.00  0.00     0.124 S 
ATOM     83  O   UNL A   1      32.471  35.944  29.957  1.00  0.00    -0.237 OA
ATOM     84  O   UNL A   1      33.899  36.326  27.972  1.00  0.00    -0.237 OA
ATOM     85  O   UNL A   1      32.485  34.314  28.100  1.00  0.00    -0.744 OA
ENDBRANCH  81  82
ENDBRANCH  49  74
BRANCH  61  86
ATOM     86  C   UNL A   1      39.900  34.354  37.001  1.00  0.00     0.058 A 
ATOM     87  C   UNL A   1      39.019  34.215  38.086  1.00  0.00     0.135 A 
ATOM     88  C   UNL A   1      40.647  35.540  36.912  1.00  0.00     0.135 A 
ATOM     89  F   UNL A   1      38.280  33.103  38.218  1.00  0.00    -0.206 F 
ATOM     90  C   UNL A   1      38.848  35.234  39.018  1.00  0.00     0.059 A 
ATOM     91  C   UNL A   1      40.512  36.560  37.848  1.00  0.00     0.059 A 
ATOM     92  F   UNL A   1      41.515  35.717  35.904  1.00  0.00    -0.206 F 
ATOM     93  C   UNL A   1      39.592  36.407  38.884  1.00  0.00     0.060 A 
BRANCH  93  94
ATOM     94  S   UNL A   1      39.353  37.732  40.088  1.00  0.00     0.124 S 
ATOM     95  O   UNL A   1      38.177  38.407  39.549  1.00  0.00    -0.237 OA
ATOM     96  O   UNL A   1      39.147  36.997  41.332  1.00  0.00    -0.237 OA
ATOM     97  O   UNL A   1      40.601  38.487  40.013  1.00  0.00    -0.744 OA
ENDBRANCH  93  94
ENDBRANCH  61  86
ENDBRANCH  35  36
ENDBRANCH  28  30
ENDBRANCH  27  28
ENDBRANCH  26  27
ENDBRANCH  25  26
ENDBRANCH  24  25
ENDBRANCH   1  24
TORSDOF 21
ENDMDL
MODEL 2
REMARK VINA RESULT:     -10.5      1.537      2.236
REMARK SMILES CCc1ccc(N(C)C(=O)N2CC[C@@H](C(=O)OCCOCCOC(=O)c3ccc(-c4c5nc(c(-c6c(F)cc(S(=O)(=O)[O-])cc6F)c6ccc([nH]6)c(-c6c(F)cc(S(=O)(=O)[O-])cc6F)c6nc(c(-c7c(F)cc(S(=O)(=O)[O-])cc7F)c7ccc4[nH]7)C=C6)C=C5)cc3)[C@@H]2C)cc1
REMARK SMILES IDX 19 1 18 2 17 3 15 4 16 5 14 6 11 7 12 8 92 9 13 10 93 11
REMARK SMILES IDX 9 12 10 13 7 14 8 15 6 16 3 17 4 18 95 19 5 20 94 21 2 22
REMARK SMILES IDX 1 23 20 24 21 25 22 26 23 27 24 28 25 29 26 30 27 31 91 32
REMARK SMILES IDX 28 33 90 34 29 35 30 36 31 37 84 38 32 39 89 40 83 41 85 42
REMARK SMILES IDX 33 43 88 44 82 45 81 46 34 48 68 49 47 50 67 51 48 52 51 53
REMARK SMILES IDX 66 54 86 55 49 56 50 57 65 59 87 60 52 61 35 62 36 63 45 64
REMARK SMILES IDX 37 65 38 66 44 67 46 68 39 69 40 70 41 71 42 72 43 73 69 74
REMARK SMILES IDX 70 75 79 76 71 77 72 78 78 79 80 80 73 81 74 82 75 83 76 84
REMARK SMILES IDX 77 85 53 86 54 87 63 88 55 89 56 90 62 91 64 92 57 93 58 94
REMARK SMILES IDX 59 95 60 96 61 97
REMARK H PARENT 85 47 51 58
REMARK Flexibility Score: inf
ROOT
ATOM      1  C   UNL A   1      38.477  21.736  25.768  1.00  0.00     0.202 C 
ENDROOT
BRANCH   1   2
ATOM      2  C   UNL A   1      37.332  21.175  24.919  1.00  0.00     0.261 C 
BRANCH   2   3
ATOM      3  O   UNL A   1      36.081  21.222  25.630  1.00  0.00    -0.463 OA
BRANCH   3   4
ATOM      4  C   UNL A   1      35.419  22.407  25.610  1.00  0.00     0.311 C 
ATOM      5  O   UNL A   1      35.543  23.297  26.443  1.00  0.00    -0.252 OA
BRANCH   4   6
ATOM      6  C   UNL A   1      34.450  22.521  24.454  1.00  0.00     0.123 C 
ATOM      7  N   UNL A   1      32.433  23.721  23.969  1.00  0.00    -0.321 N 
ATOM      8  C   UNL A   1      33.441  24.096  22.992  1.00  0.00     0.122 C 
ATOM      9  C   UNL A   1      32.941  22.614  24.803  1.00  0.00     0.098 C 
ATOM     10  C   UNL A   1      34.753  23.794  23.674  1.00  0.00     0.039 C 
ATOM     11  C   UNL A   1      32.227  21.302  24.463  1.00  0.00     0.032 C 
BRANCH   7  12
ATOM     12  C   UNL A   1      31.176  24.292  23.828  1.00  0.00     0.324 C 
ATOM     13  O   UNL A   1      30.400  23.742  23.040  1.00  0.00    -0.248 OA
BRANCH  12  14
ATOM     14  N   UNL A   1      30.854  25.454  24.541  1.00  0.00    -0.297 N 
ATOM     15  C   UNL A   1      31.547  25.761  25.789  1.00  0.00     0.155 C 
BRANCH  14  16
ATOM     16  C   UNL A   1      30.073  26.540  23.944  1.00  0.00     0.045 A 
ATOM     17  C   UNL A   1      28.519  28.765  22.996  1.00  0.00    -0.048 A 
ATOM     18  C   UNL A   1      27.902  27.623  23.504  1.00  0.00     0.006 A 
ATOM     19  C   UNL A   1      29.908  28.755  22.887  1.00  0.00     0.006 A 
ATOM     20  C   UNL A   1      28.664  26.531  23.959  1.00  0.00     0.027 A 
ATOM     21  C   UNL A   1      30.663  27.658  23.336  1.00  0.00     0.027 A 
BRANCH  17  22
ATOM     22  C   UNL A   1      27.723  29.964  22.543  1.00  0.00     0.032 C 
ATOM     23  C   UNL A   1      27.695  31.095  23.564  1.00  0.00     0.009 C 
ENDBRANCH  17  22
ENDBRANCH  14  16
ENDBRANCH  12  14
ENDBRANCH   7  12
ENDBRANCH   4   6
ENDBRANCH   3   4
ENDBRANCH   2   3
ENDBRANCH   1   2
BRANCH   1  24
ATOM     24  O   UNL A   1      39.591  20.863  25.969  1.00  0.00    -0.374 OA
BRANCH  24  25
ATOM     25  C   UNL A   1      40.864  21.468  26.182  1.00  0.00     0.202 C 
BRANCH  25  26
ATOM     26  C   UNL A   1      40.920  22.601  27.213  1.00  0.00     0.261 C 
BRANCH  26  27
ATOM     27  O   UNL A   1      41.148  23.883  26.602  1.00  0.00    -0.460 OA
BRANCH  27  28
ATOM     28  C   UNL A   1      42.166  24.585  27.156  1.00  0.00     0.338 C 
ATOM     29  O   UNL A   1      43.364  24.444  26.928  1.00  0.00    -0.246 OA
BRANCH  28  30
ATOM     30  C   UNL A   1      41.657  25.694  27.982  1.00  0.00     0.060 A 
ATOM     31  C   UNL A   1      42.579  26.676  28.361  1.00  0.00     0.016 A 
ATOM     32  C   UNL A   1      40.343  25.736  28.458  1.00  0.00     0.016 A 
ATOM     33  C   UNL A   1      42.213  27.662  29.271  1.00  0.00     0.010 A 
ATOM     34  C   UNL A   1      39.975  26.733  29.371  1.00  0.00     0.010 A 
ATOM     35  C   UNL A   1      40.922  27.673  29.818  1.00  0.00    -0.014 A 
BRANCH  35  36
ATOM     36  C   UNL A   1      40.646  28.586  30.956  1.00  0.00     0.031 A 
ATOM     37  C   UNL A   1      41.503  28.505  32.192  1.00  0.00     0.074 A 
ATOM     38  C   UNL A   1      39.708  29.544  30.849  1.00  0.00     0.049 A 
ATOM     39  N   UNL A   1      41.514  29.280  33.246  1.00  0.00    -0.248 NA
ATOM     40  C   UNL A   1      42.478  27.404  32.247  1.00  0.00     0.031 C 
ATOM     41  C   UNL A   1      38.824  29.736  29.699  1.00  0.00     0.029 A 
ATOM     42  N   UNL A   1      39.356  30.550  31.715  1.00  0.00    -0.354 N 
ATOM     43  C   UNL A   1      42.498  28.769  34.085  1.00  0.00     0.074 A 
ATOM     44  C   UNL A   1      43.034  27.591  33.436  1.00  0.00     0.031 C 
ATOM     45  C   UNL A   1      38.039  30.803  29.927  1.00  0.00     0.029 A 
ATOM     46  C   UNL A   1      38.356  31.362  31.239  1.00  0.00     0.049 A 
ATOM     47  H   UNL A   1      39.781  30.676  32.594  1.00  0.00     0.167 HD
ATOM     48  C   UNL A   1      42.931  29.246  35.277  1.00  0.00     0.037 A 
ATOM     49  C   UNL A   1      37.767  32.438  31.795  1.00  0.00     0.037 A 
ATOM     50  C   UNL A   1      42.399  30.420  35.922  1.00  0.00     0.049 A 
ATOM     51  C   UNL A   1      38.248  32.937  33.132  1.00  0.00     0.074 A 
ATOM     52  C   UNL A   1      42.784  30.995  37.121  1.00  0.00     0.029 A 
ATOM     53  N   UNL A   1      41.366  31.199  35.421  1.00  0.00    -0.354 N 
ATOM     54  N   UNL A   1      39.205  32.463  33.894  1.00  0.00    -0.248 NA
ATOM     55  C   UNL A   1      37.579  34.127  33.675  1.00  0.00     0.031 C 
ATOM     56  C   UNL A   1      41.957  32.098  37.365  1.00  0.00     0.029 A 
ATOM     57  C   UNL A   1      41.087  32.236  36.296  1.00  0.00     0.049 A 
ATOM     58  H   UNL A   1      40.900  31.037  34.570  1.00  0.00     0.167 HD
ATOM     59  C   UNL A   1      39.266  33.308  34.998  1.00  0.00     0.074 A 
ATOM     60  C   UNL A   1      38.263  34.334  34.792  1.00  0.00     0.031 C 
ATOM     61  C   UNL A   1      40.079  33.244  36.083  1.00  0.00     0.037 A 
BRANCH  48  62
ATOM     62  C   UNL A   1      44.026  28.484  35.972  1.00  0.00     0.058 A 
ATOM     63  C   UNL A   1      45.378  28.827  35.812  1.00  0.00     0.135 A 
ATOM     64  C   UNL A   1      43.719  27.412  36.824  1.00  0.00     0.135 A 
ATOM     65  F   UNL A   1      45.728  29.833  34.993  1.00  0.00    -0.206 F 
ATOM     66  C   UNL A   1      46.390  28.117  36.451  1.00  0.00     0.059 A 
ATOM     67  C   UNL A   1      44.713  26.703  37.493  1.00  0.00     0.059 A 
ATOM     68  F   UNL A   1      42.443  27.040  37.010  1.00  0.00    -0.206 F 
ATOM     69  C   UNL A   1      46.047  27.054  37.287  1.00  0.00     0.060 A 
BRANCH  69  70
ATOM     70  S   UNL A   1      47.368  26.137  38.107  1.00  0.00     0.124 S 
ATOM     71  O   UNL A   1      48.555  26.764  37.534  1.00  0.00    -0.237 OA
ATOM     72  O   UNL A   1      47.120  26.421  39.516  1.00  0.00    -0.237 OA
ATOM     73  O   UNL A   1      47.129  24.756  37.697  1.00  0.00    -0.744 OA
ENDBRANCH  69  70
ENDBRANCH  48  62
BRANCH  49  74
ATOM     74  C   UNL A   1      36.663  33.131  31.080  1.00  0.00     0.058 A 
ATOM     75  C   UNL A   1      36.910  33.915  29.943  1.00  0.00     0.135 A 
ATOM     76  C   UNL A   1      35.335  33.014  31.518  1.00  0.00     0.135 A 
ATOM     77  F   UNL A   1      38.164  34.063  29.492  1.00  0.00    -0.206 F 
ATOM     78  C   UNL A   1      35.882  34.570  29.274  1.00  0.00     0.059 A 
ATOM     79  C   UNL A   1      34.288  33.641  30.852  1.00  0.00     0.059 A 
ATOM     80  F   UNL A   1      35.046  32.266  32.594  1.00  0.00    -0.206 F 
ATOM     81  C   UNL A   1      34.572  34.425  29.734  1.00  0.00     0.060 A 
BRANCH  81  82
ATOM     82  S   UNL A   1      33.236  35.229  28.825  1.00  0.00     0.124 S 
ATOM     83  O   UNL A   1      32.375  35.686  29.910  1.00  0.00    -0.237 OA
ATOM     84  O   UNL A   1      33.948  36.271  28.091  1.00  0.00    -0.237 OA
ATOM     85  O   UNL A   1      32.697  34.152  28.001  1.00  0.00    -0.744 OA
ENDBRANCH  81  82
ENDBRANCH  49  74
BRANCH  61  86
ATOM     86  C   UNL A   1      39.924  34.325  37.117  1.00  0.00     0.058 A 
ATOM     87  C   UNL A   1      39.112  34.152  38.249  1.00  0.00     0.135 A 
ATOM     88  C   UNL A   1      40.599  35.549  36.976  1.00  0.00     0.135 A 
ATOM     89  F   UNL A   1      38.444  33.002  38.431  1.00  0.00    -0.206 F 
ATOM     90  C   UNL A   1      38.934  35.172  39.179  1.00  0.00     0.059 A 
ATOM     91  C   UNL A   1      40.457  36.573  37.908  1.00  0.00     0.059 A 
ATOM     92  F   UNL A   1      41.400  35.762  35.921  1.00  0.00    -0.206 F 
ATOM     93  C   UNL A   1      39.604  36.382  38.994  1.00  0.00     0.060 A 
BRANCH  93  94
ATOM     94  S   UNL A   1      39.355  37.707  40.196  1.00  0.00     0.124 S 
ATOM     95  O   UNL A   1      38.257  38.451  39.587  1.00  0.00    -0.237 OA
ATOM     96  O   UNL A   1      39.025  36.973  41.413  1.00  0.00    -0.237 OA
ATOM     97  O   UNL A   1      40.644  38.392  40.215  1.00  0.00    -0.744 OA
ENDBRANCH  93  94
ENDBRANCH  61  86
ENDBRANCH  35  36
ENDBRANCH  28  30
ENDBRANCH  27  28
ENDBRANCH  26  27
ENDBRANCH  25  26
ENDBRANCH  24  25
ENDBRANCH   1  24
TORSDOF 21
ENDMDL
MODEL 3
REMARK VINA RESULT:     -10.3      6.149     12.170
REMARK SMILES CCc1ccc(N(C)C(=O)N2CC[C@@H](C(=O)OCCOCCOC(=O)c3ccc(-c4c5nc(c(-c6c(F)cc(S(=O)(=O)[O-])cc6F)c6ccc([nH]6)c(-c6c(F)cc(S(=O)(=O)[O-])cc6F)c6nc(c(-c7c(F)cc(S(=O)(=O)[O-])cc7F)c7ccc4[nH]7)C=C6)C=C5)cc3)[C@@H]2C)cc1
REMARK SMILES IDX 19 1 18 2 17 3 15 4 16 5 14 6 11 7 12 8 92 9 13 10 93 11
REMARK SMILES IDX 9 12 10 13 7 14 8 15 6 16 3 17 4 18 95 19 5 20 94 21 2 22
REMARK SMILES IDX 1 23 20 24 21 25 22 26 23 27 24 28 25 29 26 30 27 31 91 32
REMARK SMILES IDX 28 33 90 34 29 35 30 36 31 37 84 38 32 39 89 40 83 41 85 42
REMARK SMILES IDX 33 43 88 44 82 45 81 46 34 48 68 49 47 50 67 51 48 52 51 53
REMARK SMILES IDX 66 54 86 55 49 56 50 57 65 59 87 60 52 61 35 62 36 63 45 64
REMARK SMILES IDX 37 65 38 66 44 67 46 68 39 69 40 70 41 71 42 72 43 73 69 74
REMARK SMILES IDX 70 75 79 76 71 77 72 78 78 79 80 80 73 81 74 82 75 83 76 84
REMARK SMILES IDX 77 85 53 86 54 87 63 88 55 89 56 90 62 91 64 92 57 93 58 94
REMARK SMILES IDX 59 95 60 96 61 97
REMARK H PARENT 85 47 51 58
REMARK Flexibility Score: inf
ROOT
ATOM      1  C   UNL A   1      34.850  32.107  28.033  1.00  0.00     0.202 C 
ENDROOT
BRANCH   1   2
ATOM      2  C   UNL A   1      34.450  30.643  27.830  1.00  0.00     0.261 C 
BRANCH   2   3
ATOM      3  O   UNL A   1      33.457  30.509  26.794  1.00  0.00    -0.463 OA
BRANCH   3   4
ATOM      4  C   UNL A   1      32.800  29.323  26.738  1.00  0.00     0.311 C 
ATOM      5  O   UNL A   1      31.960  28.944  27.546  1.00  0.00    -0.252 OA
BRANCH   4   6
ATOM      6  C   UNL A   1      33.240  28.459  25.577  1.00  0.00     0.123 C 
ATOM      7  N   UNL A   1      32.232  26.875  24.088  1.00  0.00    -0.321 N 
ATOM      8  C   UNL A   1      32.762  27.977  23.302  1.00  0.00     0.122 C 
ATOM      9  C   UNL A   1      32.649  27.028  25.495  1.00  0.00     0.098 C 
ATOM     10  C   UNL A   1      32.828  29.131  24.273  1.00  0.00     0.039 C 
ATOM     11  C   UNL A   1      33.707  25.985  25.867  1.00  0.00     0.032 C 
BRANCH   7  12
ATOM     12  C   UNL A   1      31.636  25.834  23.391  1.00  0.00     0.324 C 
ATOM     13  O   UNL A   1      30.425  25.666  23.569  1.00  0.00    -0.248 OA
BRANCH  12  14
ATOM     14  N   UNL A   1      32.412  25.017  22.559  1.00  0.00    -0.297 N 
ATOM     15  C   UNL A   1      32.709  25.439  21.192  1.00  0.00     0.155 C 
BRANCH  14  16
ATOM     16  C   UNL A   1      33.202  23.901  23.083  1.00  0.00     0.045 A 
ATOM     17  C   UNL A   1      34.787  21.842  24.314  1.00  0.00    -0.048 A 
ATOM     18  C   UNL A   1      35.387  22.890  23.616  1.00  0.00     0.006 A 
ATOM     19  C   UNL A   1      33.395  21.784  24.322  1.00  0.00     0.006 A 
ATOM     20  C   UNL A   1      34.609  23.891  23.006  1.00  0.00     0.027 A 
ATOM     21  C   UNL A   1      32.624  22.784  23.704  1.00  0.00     0.027 A 
BRANCH  17  22
ATOM     22  C   UNL A   1      35.602  20.782  25.011  1.00  0.00     0.032 C 
ATOM     23  C   UNL A   1      37.104  21.039  24.962  1.00  0.00     0.009 C 
ENDBRANCH  17  22
ENDBRANCH  14  16
ENDBRANCH  12  14
ENDBRANCH   7  12
ENDBRANCH   4   6
ENDBRANCH   3   4
ENDBRANCH   2   3
ENDBRANCH   1   2
BRANCH   1  24
ATOM     24  O   UNL A   1      34.086  32.835  28.997  1.00  0.00    -0.374 OA
BRANCH  24  25
ATOM     25  C   UNL A   1      34.791  33.749  29.834  1.00  0.00     0.202 C 
BRANCH  25  26
ATOM     26  C   UNL A   1      35.437  33.164  31.094  1.00  0.00     0.261 C 
BRANCH  26  27
ATOM     27  O   UNL A   1      36.806  32.780  30.878  1.00  0.00    -0.460 OA
BRANCH  27  28
ATOM     28  C   UNL A   1      37.196  31.700  31.596  1.00  0.00     0.338 C 
ATOM     29  O   UNL A   1      36.693  31.292  32.640  1.00  0.00    -0.246 OA
BRANCH  28  30
ATOM     30  C   UNL A   1      38.233  30.935  30.883  1.00  0.00     0.060 A 
ATOM     31  C   UNL A   1      39.278  30.413  31.653  1.00  0.00     0.016 A 
ATOM     32  C   UNL A   1      38.248  30.806  29.490  1.00  0.00     0.016 A 
ATOM     33  C   UNL A   1      40.374  29.823  31.033  1.00  0.00     0.010 A 
ATOM     34  C   UNL A   1      39.352  30.206  28.868  1.00  0.00     0.010 A 
ATOM     35  C   UNL A   1      40.441  29.754  29.635  1.00  0.00    -0.014 A 
BRANCH  35  36
ATOM     36  C   UNL A   1      41.723  29.340  29.010  1.00  0.00     0.031 A 
ATOM     37  C   UNL A   1      42.859  30.326  28.931  1.00  0.00     0.074 A 
ATOM     38  C   UNL A   1      41.906  28.069  28.609  1.00  0.00     0.049 A 
ATOM     39  N   UNL A   1      44.093  30.140  28.539  1.00  0.00    -0.248 NA
ATOM     40  C   UNL A   1      42.565  31.705  29.353  1.00  0.00     0.031 C 
ATOM     41  C   UNL A   1      40.891  27.017  28.647  1.00  0.00     0.029 A 
ATOM     42  N   UNL A   1      43.020  27.443  28.108  1.00  0.00    -0.354 N 
ATOM     43  C   UNL A   1      44.725  31.371  28.672  1.00  0.00     0.074 A 
ATOM     44  C   UNL A   1      43.727  32.308  29.142  1.00  0.00     0.031 C 
ATOM     45  C   UNL A   1      41.433  25.871  28.199  1.00  0.00     0.029 A 
ATOM     46  C   UNL A   1      42.827  26.111  27.834  1.00  0.00     0.049 A 
ATOM     47  H   UNL A   1      43.877  27.905  27.959  1.00  0.00     0.167 HD
ATOM     48  C   UNL A   1      46.022  31.690  28.443  1.00  0.00     0.037 A 
ATOM     49  C   UNL A   1      43.680  25.187  27.349  1.00  0.00     0.037 A 
ATOM     50  C   UNL A   1      47.017  30.757  27.978  1.00  0.00     0.049 A 
ATOM     51  C   UNL A   1      45.111  25.570  27.079  1.00  0.00     0.074 A 
ATOM     52  C   UNL A   1      48.361  30.980  27.735  1.00  0.00     0.029 A 
ATOM     53  N   UNL A   1      46.774  29.424  27.684  1.00  0.00    -0.354 N 
ATOM     54  N   UNL A   1      45.701  26.730  27.246  1.00  0.00    -0.248 NA
ATOM     55  C   UNL A   1      45.995  24.513  26.571  1.00  0.00     0.031 C 
ATOM     56  C   UNL A   1      48.923  29.790  27.255  1.00  0.00     0.029 A 
ATOM     57  C   UNL A   1      47.939  28.816  27.242  1.00  0.00     0.049 A 
ATOM     58  H   UNL A   1      45.903  28.975  27.774  1.00  0.00     0.167 HD
ATOM     59  C   UNL A   1      47.030  26.537  26.882  1.00  0.00     0.074 A 
ATOM     60  C   UNL A   1      47.160  25.143  26.507  1.00  0.00     0.031 C 
ATOM     61  C   UNL A   1      48.051  27.430  26.862  1.00  0.00     0.037 A 
BRANCH  48  62
ATOM     62  C   UNL A   1      46.436  33.117  28.678  1.00  0.00     0.058 A 
ATOM     63  C   UNL A   1      46.848  33.566  29.943  1.00  0.00     0.135 A 
ATOM     64  C   UNL A   1      46.441  34.041  27.621  1.00  0.00     0.135 A 
ATOM     65  F   UNL A   1      46.845  32.728  30.993  1.00  0.00    -0.206 F 
ATOM     66  C   UNL A   1      47.225  34.888  30.159  1.00  0.00     0.059 A 
ATOM     67  C   UNL A   1      46.838  35.363  27.809  1.00  0.00     0.059 A 
ATOM     68  F   UNL A   1      46.054  33.665  26.393  1.00  0.00    -0.206 F 
ATOM     69  C   UNL A   1      47.213  35.780  29.085  1.00  0.00     0.060 A 
BRANCH  69  70
ATOM     70  S   UNL A   1      47.700  37.493  29.379  1.00  0.00     0.124 S 
ATOM     71  O   UNL A   1      47.686  38.035  28.023  1.00  0.00    -0.237 OA
ATOM     72  O   UNL A   1      46.643  37.973  30.263  1.00  0.00    -0.237 OA
ATOM     73  O   UNL A   1      49.019  37.372  29.993  1.00  0.00    -0.744 OA
ENDBRANCH  69  70
ENDBRANCH  48  62
BRANCH  49  74
ATOM     74  C   UNL A   1      43.206  23.800  27.101  1.00  0.00     0.058 A 
ATOM     75  C   UNL A   1      42.939  23.343  25.801  1.00  0.00     0.135 A 
ATOM     76  C   UNL A   1      43.017  22.902  28.162  1.00  0.00     0.135 A 
ATOM     77  F   UNL A   1      43.096  24.168  24.756  1.00  0.00    -0.206 F 
ATOM     78  C   UNL A   1      42.489  22.048  25.564  1.00  0.00     0.059 A 
ATOM     79  C   UNL A   1      42.591  21.596  27.947  1.00  0.00     0.059 A 
ATOM     80  F   UNL A   1      43.270  23.288  29.422  1.00  0.00    -0.206 F 
ATOM     81  C   UNL A   1      42.321  21.180  26.644  1.00  0.00     0.060 A 
BRANCH  81  82
ATOM     82  S   UNL A   1      41.794  19.483  26.322  1.00  0.00     0.124 S 
ATOM     83  O   UNL A   1      42.486  19.193  25.072  1.00  0.00    -0.237 OA
ATOM     84  O   UNL A   1      42.284  18.780  27.503  1.00  0.00    -0.237 OA
ATOM     85  O   UNL A   1      40.342  19.596  26.230  1.00  0.00    -0.744 OA
ENDBRANCH  81  82
ENDBRANCH  49  74
BRANCH  61  86
ATOM     86  C   UNL A   1      49.399  26.917  26.436  1.00  0.00     0.058 A 
ATOM     87  C   UNL A   1      49.870  27.080  25.123  1.00  0.00     0.135 A 
ATOM     88  C   UNL A   1      50.233  26.255  27.352  1.00  0.00     0.135 A 
ATOM     89  F   UNL A   1      49.112  27.704  24.207  1.00  0.00    -0.206 F 
ATOM     90  C   UNL A   1      51.097  26.563  24.721  1.00  0.00     0.059 A 
ATOM     91  C   UNL A   1      51.476  25.753  26.978  1.00  0.00     0.059 A 
ATOM     92  F   UNL A   1      49.839  26.085  28.624  1.00  0.00    -0.206 F 
ATOM     93  C   UNL A   1      51.888  25.891  25.654  1.00  0.00     0.060 A 
BRANCH  93  94
ATOM     94  S   UNL A   1      53.472  25.207  25.120  1.00  0.00     0.124 S 
ATOM     95  O   UNL A   1      54.401  25.890  26.015  1.00  0.00    -0.237 OA
ATOM     96  O   UNL A   1      53.297  23.778  25.359  1.00  0.00    -0.237 OA
ATOM     97  O   UNL A   1      53.552  25.596  23.715  1.00  0.00    -0.744 OA
ENDBRANCH  93  94
ENDBRANCH  61  86
ENDBRANCH  35  36
ENDBRANCH  28  30
ENDBRANCH  27  28
ENDBRANCH  26  27
ENDBRANCH  25  26
ENDBRANCH  24  25
ENDBRANCH   1  24
TORSDOF 21
ENDMDL
