MODEL 1
REMARK VINA RESULT:      -8.8      0.000      0.000
REMARK SMILES O=Cc1[nH]nc2cc(C(=O)OCCOCCOC(=O)c3ccc(-c4c5nc(c(-c6c(F)cc(S(=O)(=O)[O-])cc6F)c6ccc([nH]6)c(-c6c(F)cc(S(=O)(=O)[O-])cc6F)c6nc(c(-c7c(F)cc(S(=O)(=O)[O-])cc7F)c7ccc4[nH]7)C=C6)C=C5)cc3)ccc12
REMARK SMILES IDX 15 1 14 2 13 3 12 4 11 5 9 6 10 7 8 8 3 9 4 10 88 11 5 12
REMARK SMILES IDX 6 14 87 15 7 16 86 17 2 18 1 19 16 20 17 21 18 22 19 23
REMARK SMILES IDX 20 24 21 25 85 26 22 27 84 28 23 29 24 30 25 31 78 32 26 33
REMARK SMILES IDX 83 34 77 35 79 36 27 37 82 38 76 39 75 40 28 42 62 43 41 44
REMARK SMILES IDX 61 45 42 46 45 47 60 48 80 49 43 50 44 51 59 53 81 54 46 55
REMARK SMILES IDX 29 56 30 57 39 58 31 59 32 60 38 61 40 62 33 63 34 64 35 65
REMARK SMILES IDX 36 66 37 67 63 68 64 69 73 70 65 71 66 72 72 73 74 74 67 75
REMARK SMILES IDX 68 76 69 77 70 78 71 79 47 80 48 81 57 82 49 83 50 84 56 85
REMARK SMILES IDX 58 86 51 87 52 88 53 89 54 90 55 91
REMARK H PARENT 4 13 79 41 45 52
REMARK Flexibility Score: inf
ROOT
ATOM      1  C   UNL A   1      45.385  19.215  25.381  1.00  0.00     0.202 C 
ENDROOT
BRANCH   1   2
ATOM      2  O   UNL A   1      45.627  20.021  24.226  1.00  0.00    -0.374 OA
BRANCH   2   3
ATOM      3  C   UNL A   1      46.072  21.359  24.456  1.00  0.00     0.202 C 
BRANCH   3   4
ATOM      4  C   UNL A   1      45.655  21.984  25.790  1.00  0.00     0.261 C 
BRANCH   4   5
ATOM      5  O   UNL A   1      46.485  23.109  26.122  1.00  0.00    -0.460 OA
BRANCH   5   6
ATOM      6  C   UNL A   1      46.518  24.090  25.192  1.00  0.00     0.338 C 
ATOM      7  O   UNL A   1      47.064  24.047  24.097  1.00  0.00    -0.246 OA
BRANCH   6   8
ATOM      8  C   UNL A   1      45.648  25.220  25.596  1.00  0.00     0.062 A 
ATOM      9  C   UNL A   1      43.147  28.350  26.312  1.00  0.00     0.105 A 
ATOM     10  N   UNL A   1      42.132  27.884  25.519  1.00  0.00    -0.274 N 
ATOM     11  C   UNL A   1      44.100  27.360  26.246  1.00  0.00     0.030 A 
ATOM     12  N   UNL A   1      42.370  26.705  24.923  1.00  0.00    -0.175 NA
ATOM     13  H   UNL A   1      41.289  28.378  25.394  1.00  0.00     0.190 HD
ATOM     14  C   UNL A   1      43.602  26.362  25.330  1.00  0.00     0.094 A 
ATOM     15  C   UNL A   1      45.334  27.342  26.897  1.00  0.00     0.013 A 
ATOM     16  C   UNL A   1      44.375  25.251  24.978  1.00  0.00     0.046 A 
ATOM     17  C   UNL A   1      46.099  26.209  26.532  1.00  0.00     0.016 A 
BRANCH   9  18
ATOM     18  C   UNL A   1      43.108  29.621  26.981  1.00  0.00     0.280 C 
ATOM     19  O   UNL A   1      43.283  29.804  28.180  1.00  0.00    -0.296 OA
ENDBRANCH   9  18
ENDBRANCH   6   8
ENDBRANCH   5   6
ENDBRANCH   4   5
ENDBRANCH   3   4
ENDBRANCH   2   3
ENDBRANCH   1   2
BRANCH   1  20
ATOM     20  C   UNL A   1      43.948  18.712  25.567  1.00  0.00     0.261 C 
BRANCH  20  21
ATOM     21  O   UNL A   1      42.984  19.615  24.999  1.00  0.00    -0.460 OA
BRANCH  21  22
ATOM     22  C   UNL A   1      41.823  19.717  25.690  1.00  0.00     0.338 C 
ATOM     23  O   UNL A   1      40.987  18.840  25.859  1.00  0.00    -0.246 OA
BRANCH  22  24
ATOM     24  C   UNL A   1      41.766  21.013  26.393  1.00  0.00     0.060 A 
ATOM     25  C   UNL A   1      42.227  22.142  25.703  1.00  0.00     0.016 A 
ATOM     26  C   UNL A   1      41.330  21.119  27.715  1.00  0.00     0.016 A 
ATOM     27  C   UNL A   1      42.304  23.373  26.351  1.00  0.00     0.010 A 
ATOM     28  C   UNL A   1      41.415  22.356  28.367  1.00  0.00     0.010 A 
ATOM     29  C   UNL A   1      41.934  23.479  27.698  1.00  0.00    -0.014 A 
BRANCH  29  30
ATOM     30  C   UNL A   1      42.228  24.729  28.441  1.00  0.00     0.031 A 
ATOM     31  C   UNL A   1      41.180  25.808  28.498  1.00  0.00     0.074 A 
ATOM     32  C   UNL A   1      43.400  24.890  29.082  1.00  0.00     0.049 A 
ATOM     33  N   UNL A   1      41.229  26.983  29.069  1.00  0.00    -0.248 NA
ATOM     34  C   UNL A   1      39.906  25.521  27.818  1.00  0.00     0.031 C 
ATOM     35  C   UNL A   1      44.476  23.903  29.130  1.00  0.00     0.029 A 
ATOM     36  N   UNL A   1      43.879  25.948  29.812  1.00  0.00    -0.354 N 
ATOM     37  C   UNL A   1      39.999  27.579  28.816  1.00  0.00     0.074 A 
ATOM     38  C   UNL A   1      39.236  26.648  28.012  1.00  0.00     0.031 C 
ATOM     39  C   UNL A   1      45.496  24.406  29.848  1.00  0.00     0.029 A 
ATOM     40  C   UNL A   1      45.155  25.759  30.283  1.00  0.00     0.049 A 
ATOM     41  H   UNL A   1      43.357  26.766  29.981  1.00  0.00     0.167 HD
ATOM     42  C   UNL A   1      39.542  28.787  29.224  1.00  0.00     0.037 A 
ATOM     43  C   UNL A   1      45.961  26.590  30.974  1.00  0.00     0.037 A 
ATOM     44  C   UNL A   1      40.306  29.711  30.022  1.00  0.00     0.049 A 
ATOM     45  C   UNL A   1      45.457  27.956  31.362  1.00  0.00     0.074 A 
ATOM     46  C   UNL A   1      39.928  30.953  30.499  1.00  0.00     0.029 A 
ATOM     47  N   UNL A   1      41.608  29.497  30.453  1.00  0.00    -0.354 N 
ATOM     48  N   UNL A   1      44.285  28.498  31.133  1.00  0.00    -0.248 NA
ATOM     49  C   UNL A   1      46.386  28.821  32.102  1.00  0.00     0.031 C 
ATOM     50  C   UNL A   1      41.017  31.510  31.180  1.00  0.00     0.029 A 
ATOM     51  C   UNL A   1      42.056  30.594  31.170  1.00  0.00     0.049 A 
ATOM     52  H   UNL A   1      42.134  28.685  30.274  1.00  0.00     0.167 HD
ATOM     53  C   UNL A   1      44.326  29.757  31.724  1.00  0.00     0.074 A 
ATOM     54  C   UNL A   1      45.636  29.892  32.327  1.00  0.00     0.031 C 
ATOM     55  C   UNL A   1      43.363  30.712  31.768  1.00  0.00     0.037 A 
BRANCH  42  56
ATOM     56  C   UNL A   1      38.159  29.186  28.789  1.00  0.00     0.058 A 
ATOM     57  C   UNL A   1      37.891  29.617  27.479  1.00  0.00     0.135 A 
ATOM     58  C   UNL A   1      37.084  29.128  29.691  1.00  0.00     0.135 A 
ATOM     59  F   UNL A   1      38.885  29.708  26.581  1.00  0.00    -0.206 F 
ATOM     60  C   UNL A   1      36.614  30.007  27.089  1.00  0.00     0.059 A 
ATOM     61  C   UNL A   1      35.795  29.489  29.316  1.00  0.00     0.059 A 
ATOM     62  F   UNL A   1      37.284  28.724  30.956  1.00  0.00    -0.206 F 
ATOM     63  C   UNL A   1      35.573  29.945  28.017  1.00  0.00     0.060 A 
BRANCH  63  64
ATOM     64  S   UNL A   1      33.923  30.471  27.502  1.00  0.00     0.124 S 
ATOM     65  O   UNL A   1      33.089  29.427  28.090  1.00  0.00    -0.237 OA
ATOM     66  O   UNL A   1      33.811  31.791  28.114  1.00  0.00    -0.237 OA
ATOM     67  O   UNL A   1      34.004  30.463  26.046  1.00  0.00    -0.744 OA
ENDBRANCH  63  64
ENDBRANCH  42  56
BRANCH  43  68
ATOM     68  C   UNL A   1      47.332  26.149  31.344  1.00  0.00     0.058 A 
ATOM     69  C   UNL A   1      47.593  25.563  32.589  1.00  0.00     0.135 A 
ATOM     70  C   UNL A   1      48.405  26.292  30.450  1.00  0.00     0.135 A 
ATOM     71  F   UNL A   1      46.602  25.416  33.482  1.00  0.00    -0.206 F 
ATOM     72  C   UNL A   1      48.870  25.137  32.941  1.00  0.00     0.059 A 
ATOM     73  C   UNL A   1      49.686  25.853  30.769  1.00  0.00     0.059 A 
ATOM     74  F   UNL A   1      48.206  26.840  29.241  1.00  0.00    -0.206 F 
ATOM     75  C   UNL A   1      49.910  25.281  32.021  1.00  0.00     0.060 A 
BRANCH  75  76
ATOM     76  S   UNL A   1      51.549  24.665  32.461  1.00  0.00     0.124 S 
ATOM     77  O   UNL A   1      51.383  23.229  32.279  1.00  0.00    -0.237 OA
ATOM     78  O   UNL A   1      52.401  25.339  31.486  1.00  0.00    -0.237 OA
ATOM     79  O   UNL A   1      51.716  25.113  33.841  1.00  0.00    -0.744 OA
ENDBRANCH  75  76
ENDBRANCH  43  68
BRANCH  55  80
ATOM     80  C   UNL A   1      43.676  31.979  32.518  1.00  0.00     0.058 A 
ATOM     81  C   UNL A   1      44.213  33.105  31.877  1.00  0.00     0.135 A 
ATOM     82  C   UNL A   1      43.382  32.082  33.887  1.00  0.00     0.135 A 
ATOM     83  F   UNL A   1      44.518  33.056  30.571  1.00  0.00    -0.206 F 
ATOM     84  C   UNL A   1      44.469  34.283  32.572  1.00  0.00     0.059 A 
ATOM     85  C   UNL A   1      43.605  33.259  34.596  1.00  0.00     0.059 A 
ATOM     86  F   UNL A   1      42.856  31.038  34.547  1.00  0.00    -0.206 F 
ATOM     87  C   UNL A   1      44.160  34.351  33.931  1.00  0.00     0.060 A 
BRANCH  87  88
ATOM     88  S   UNL A   1      44.465  35.897  34.814  1.00  0.00     0.124 S 
ATOM     89  O   UNL A   1      44.810  35.411  36.146  1.00  0.00    -0.237 OA
ATOM     90  O   UNL A   1      45.561  36.483  34.050  1.00  0.00    -0.237 OA
ATOM     91  O   UNL A   1      43.191  36.602  34.713  1.00  0.00    -0.744 OA
ENDBRANCH  87  88
ENDBRANCH  55  80
ENDBRANCH  29  30
ENDBRANCH  22  24
ENDBRANCH  21  22
ENDBRANCH  20  21
ENDBRANCH   1  20
TORSDOF 18
ENDMDL
MODEL 2
REMARK VINA RESULT:      -8.7      3.318     10.835
REMARK SMILES O=Cc1[nH]nc2cc(C(=O)OCCOCCOC(=O)c3ccc(-c4c5nc(c(-c6c(F)cc(S(=O)(=O)[O-])cc6F)c6ccc([nH]6)c(-c6c(F)cc(S(=O)(=O)[O-])cc6F)c6nc(c(-c7c(F)cc(S(=O)(=O)[O-])cc7F)c7ccc4[nH]7)C=C6)C=C5)cc3)ccc12
REMARK SMILES IDX 15 1 14 2 13 3 12 4 11 5 9 6 10 7 8 8 3 9 4 10 88 11 5 12
REMARK SMILES IDX 6 14 87 15 7 16 86 17 2 18 1 19 16 20 17 21 18 22 19 23
REMARK SMILES IDX 20 24 21 25 85 26 22 27 84 28 23 29 24 30 25 31 78 32 26 33
REMARK SMILES IDX 83 34 77 35 79 36 27 37 82 38 76 39 75 40 28 42 62 43 41 44
REMARK SMILES IDX 61 45 42 46 45 47 60 48 80 49 43 50 44 51 59 53 81 54 46 55
REMARK SMILES IDX 29 56 30 57 39 58 31 59 32 60 38 61 40 62 33 63 34 64 35 65
REMARK SMILES IDX 36 66 37 67 63 68 64 69 73 70 65 71 66 72 72 73 74 74 67 75
REMARK SMILES IDX 68 76 69 77 70 78 71 79 47 80 48 81 57 82 49 83 50 84 56 85
REMARK SMILES IDX 58 86 51 87 52 88 53 89 54 90 55 91
REMARK H PARENT 4 13 79 41 45 52
REMARK Flexibility Score: inf
ROOT
ATOM      1  C   UNL A   1      33.831  34.100  28.169  1.00  0.00     0.202 C 
ENDROOT
BRANCH   1   2
ATOM      2  O   UNL A   1      34.284  35.400  28.554  1.00  0.00    -0.374 OA
BRANCH   2   3
ATOM      3  C   UNL A   1      33.287  36.327  28.985  1.00  0.00     0.202 C 
BRANCH   3   4
ATOM      4  C   UNL A   1      32.599  36.002  30.314  1.00  0.00     0.261 C 
BRANCH   4   5
ATOM      5  O   UNL A   1      33.553  35.909  31.386  1.00  0.00    -0.460 OA
BRANCH   5   6
ATOM      6  C   UNL A   1      33.155  35.163  32.442  1.00  0.00     0.338 C 
ATOM      7  O   UNL A   1      32.009  35.008  32.842  1.00  0.00    -0.246 OA
BRANCH   6   8
ATOM      8  C   UNL A   1      34.295  34.393  32.994  1.00  0.00     0.062 A 
ATOM      9  C   UNL A   1      37.222  31.939  34.399  1.00  0.00     0.105 A 
ATOM     10  N   UNL A   1      37.197  31.086  33.327  1.00  0.00    -0.274 N 
ATOM     11  C   UNL A   1      36.306  32.911  34.070  1.00  0.00     0.030 A 
ATOM     12  N   UNL A   1      36.318  31.407  32.365  1.00  0.00    -0.175 NA
ATOM     13  H   UNL A   1      37.780  30.295  33.268  1.00  0.00     0.190 HD
ATOM     14  C   UNL A   1      35.723  32.524  32.808  1.00  0.00     0.094 A 
ATOM     15  C   UNL A   1      35.966  34.031  34.830  1.00  0.00     0.013 A 
ATOM     16  C   UNL A   1      34.688  33.268  32.230  1.00  0.00     0.046 A 
ATOM     17  C   UNL A   1      34.922  34.772  34.227  1.00  0.00     0.016 A 
BRANCH   9  18
ATOM     18  C   UNL A   1      38.048  31.730  35.556  1.00  0.00     0.280 C 
ATOM     19  O   UNL A   1      37.644  31.511  36.693  1.00  0.00    -0.296 OA
ENDBRANCH   9  18
ENDBRANCH   6   8
ENDBRANCH   5   6
ENDBRANCH   4   5
ENDBRANCH   3   4
ENDBRANCH   2   3
ENDBRANCH   1   2
BRANCH   1  20
ATOM     20  C   UNL A   1      34.912  33.020  28.027  1.00  0.00     0.261 C 
BRANCH  20  21
ATOM     21  O   UNL A   1      34.646  31.880  28.862  1.00  0.00    -0.460 OA
BRANCH  21  22
ATOM     22  C   UNL A   1      34.639  30.690  28.216  1.00  0.00     0.338 C 
ATOM     23  O   UNL A   1      33.741  30.237  27.518  1.00  0.00    -0.246 OA
BRANCH  22  24
ATOM     24  C   UNL A   1      35.967  30.054  28.312  1.00  0.00     0.060 A 
ATOM     25  C   UNL A   1      36.322  29.486  29.542  1.00  0.00     0.016 A 
ATOM     26  C   UNL A   1      36.870  30.064  27.247  1.00  0.00     0.016 A 
ATOM     27  C   UNL A   1      37.604  28.971  29.729  1.00  0.00     0.010 A 
ATOM     28  C   UNL A   1      38.160  29.553  27.440  1.00  0.00     0.010 A 
ATOM     29  C   UNL A   1      38.542  29.036  28.691  1.00  0.00    -0.014 A 
BRANCH  29  30
ATOM     30  C   UNL A   1      39.960  28.696  28.964  1.00  0.00     0.031 A 
ATOM     31  C   UNL A   1      40.841  29.716  29.634  1.00  0.00     0.074 A 
ATOM     32  C   UNL A   1      40.450  27.483  28.648  1.00  0.00     0.049 A 
ATOM     33  N   UNL A   1      42.107  29.641  29.947  1.00  0.00    -0.248 NA
ATOM     34  C   UNL A   1      40.204  30.993  29.997  1.00  0.00     0.031 C 
ATOM     35  C   UNL A   1      39.686  26.400  28.032  1.00  0.00     0.029 A 
ATOM     36  N   UNL A   1      41.710  26.964  28.801  1.00  0.00    -0.354 N 
ATOM     37  C   UNL A   1      42.423  30.859  30.540  1.00  0.00     0.074 A 
ATOM     38  C   UNL A   1      41.222  31.666  30.512  1.00  0.00     0.031 C 
ATOM     39  C   UNL A   1      40.497  25.343  27.852  1.00  0.00     0.029 A 
ATOM     40  C   UNL A   1      41.841  25.686  28.313  1.00  0.00     0.049 A 
ATOM     41  H   UNL A   1      42.450  27.460  29.219  1.00  0.00     0.167 HD
ATOM     42  C   UNL A   1      43.604  31.263  31.067  1.00  0.00     0.037 A 
ATOM     43  C   UNL A   1      42.927  24.891  28.233  1.00  0.00     0.037 A 
ATOM     44  C   UNL A   1      44.797  30.457  31.089  1.00  0.00     0.049 A 
ATOM     45  C   UNL A   1      44.247  25.386  28.766  1.00  0.00     0.074 A 
ATOM     46  C   UNL A   1      46.038  30.770  31.613  1.00  0.00     0.029 A 
ATOM     47  N   UNL A   1      44.899  29.180  30.555  1.00  0.00    -0.354 N 
ATOM     48  N   UNL A   1      44.527  26.531  29.341  1.00  0.00    -0.248 NA
ATOM     49  C   UNL A   1      45.396  24.479  28.640  1.00  0.00     0.031 C 
ATOM     50  C   UNL A   1      46.904  29.700  31.356  1.00  0.00     0.029 A 
ATOM     51  C   UNL A   1      46.189  28.701  30.716  1.00  0.00     0.049 A 
ATOM     52  H   UNL A   1      44.163  28.687  30.126  1.00  0.00     0.167 HD
ATOM     53  C   UNL A   1      45.877  26.472  29.670  1.00  0.00     0.074 A 
ATOM     54  C   UNL A   1      46.355  25.176  29.236  1.00  0.00     0.031 C 
ATOM     55  C   UNL A   1      46.650  27.405  30.281  1.00  0.00     0.037 A 
BRANCH  42  56
ATOM     56  C   UNL A   1      43.665  32.652  31.639  1.00  0.00     0.058 A 
ATOM     57  C   UNL A   1      43.310  32.920  32.972  1.00  0.00     0.135 A 
ATOM     58  C   UNL A   1      44.092  33.730  30.847  1.00  0.00     0.135 A 
ATOM     59  F   UNL A   1      42.879  31.929  33.768  1.00  0.00    -0.206 F 
ATOM     60  C   UNL A   1      43.346  34.211  33.489  1.00  0.00     0.059 A 
ATOM     61  C   UNL A   1      44.160  35.025  31.350  1.00  0.00     0.059 A 
ATOM     62  F   UNL A   1      44.441  33.531  29.566  1.00  0.00    -0.206 F 
ATOM     63  C   UNL A   1      43.767  35.259  32.668  1.00  0.00     0.060 A 
BRANCH  63  64
ATOM     64  S   UNL A   1      43.792  36.933  33.346  1.00  0.00     0.124 S 
ATOM     65  O   UNL A   1      43.930  37.734  32.134  1.00  0.00    -0.237 OA
ATOM     66  O   UNL A   1      42.499  37.017  34.018  1.00  0.00    -0.237 OA
ATOM     67  O   UNL A   1      44.954  36.925  34.227  1.00  0.00    -0.744 OA
ENDBRANCH  63  64
ENDBRANCH  42  56
BRANCH  43  68
ATOM     68  C   UNL A   1      42.809  23.540  27.622  1.00  0.00     0.058 A 
ATOM     69  C   UNL A   1      43.025  23.343  26.252  1.00  0.00     0.135 A 
ATOM     70  C   UNL A   1      42.495  22.417  28.404  1.00  0.00     0.135 A 
ATOM     71  F   UNL A   1      43.316  24.388  25.462  1.00  0.00    -0.206 F 
ATOM     72  C   UNL A   1      42.929  22.082  25.673  1.00  0.00     0.059 A 
ATOM     73  C   UNL A   1      42.416  21.142  27.853  1.00  0.00     0.059 A 
ATOM     74  F   UNL A   1      42.288  22.552  29.723  1.00  0.00    -0.206 F 
ATOM     75  C   UNL A   1      42.629  20.985  26.484  1.00  0.00     0.060 A 
BRANCH  75  76
ATOM     76  S   UNL A   1      42.571  19.343  25.735  1.00  0.00     0.124 S 
ATOM     77  O   UNL A   1      43.511  19.490  24.631  1.00  0.00    -0.237 OA
ATOM     78  O   UNL A   1      43.007  18.490  26.836  1.00  0.00    -0.237 OA
ATOM     79  O   UNL A   1      41.168  19.196  25.357  1.00  0.00    -0.744 OA
ENDBRANCH  75  76
ENDBRANCH  43  68
BRANCH  55  80
ATOM     80  C   UNL A   1      48.088  27.050  30.546  1.00  0.00     0.058 A 
ATOM     81  C   UNL A   1      49.114  27.414  29.661  1.00  0.00     0.135 A 
ATOM     82  C   UNL A   1      48.447  26.385  31.729  1.00  0.00     0.135 A 
ATOM     83  F   UNL A   1      48.824  28.046  28.513  1.00  0.00    -0.206 F 
ATOM     84  C   UNL A   1      50.446  27.110  29.929  1.00  0.00     0.059 A 
ATOM     85  C   UNL A   1      49.775  26.095  32.030  1.00  0.00     0.059 A 
ATOM     86  F   UNL A   1      47.506  26.025  32.615  1.00  0.00    -0.206 F 
ATOM     87  C   UNL A   1      50.767  26.452  31.118  1.00  0.00     0.060 A 
BRANCH  87  88
ATOM     88  S   UNL A   1      52.501  26.094  31.471  1.00  0.00     0.124 S 
ATOM     89  O   UNL A   1      52.835  27.159  32.412  1.00  0.00    -0.237 OA
ATOM     90  O   UNL A   1      52.435  24.749  32.033  1.00  0.00    -0.237 OA
ATOM     91  O   UNL A   1      53.141  26.189  30.162  1.00  0.00    -0.744 OA
ENDBRANCH  87  88
ENDBRANCH  55  80
ENDBRANCH  29  30
ENDBRANCH  22  24
ENDBRANCH  21  22
ENDBRANCH  20  21
ENDBRANCH   1  20
TORSDOF 18
ENDMDL
MODEL 3
REMARK VINA RESULT:      -8.7      3.088     10.524
REMARK SMILES O=Cc1[nH]nc2cc(C(=O)OCCOCCOC(=O)c3ccc(-c4c5nc(c(-c6c(F)cc(S(=O)(=O)[O-])cc6F)c6ccc([nH]6)c(-c6c(F)cc(S(=O)(=O)[O-])cc6F)c6nc(c(-c7c(F)cc(S(=O)(=O)[O-])cc7F)c7ccc4[nH]7)C=C6)C=C5)cc3)ccc12
REMARK SMILES IDX 15 1 14 2 13 3 12 4 11 5 9 6 10 7 8 8 3 9 4 10 88 11 5 12
REMARK SMILES IDX 6 14 87 15 7 16 86 17 2 18 1 19 16 20 17 21 18 22 19 23
REMARK SMILES IDX 20 24 21 25 85 26 22 27 84 28 23 29 24 30 25 31 78 32 26 33
REMARK SMILES IDX 83 34 77 35 79 36 27 37 82 38 76 39 75 40 28 42 62 43 41 44
REMARK SMILES IDX 61 45 42 46 45 47 60 48 80 49 43 50 44 51 59 53 81 54 46 55
REMARK SMILES IDX 29 56 30 57 39 58 31 59 32 60 38 61 40 62 33 63 34 64 35 65
REMARK SMILES IDX 36 66 37 67 63 68 64 69 73 70 65 71 66 72 72 73 74 74 67 75
REMARK SMILES IDX 68 76 69 77 70 78 71 79 47 80 48 81 57 82 49 83 50 84 56 85
REMARK SMILES IDX 58 86 51 87 52 88 53 89 54 90 55 91
REMARK H PARENT 4 13 79 41 45 52
REMARK Flexibility Score: inf
ROOT
ATOM      1  C   UNL A   1      33.305  34.346  28.837  1.00  0.00     0.202 C 
ENDROOT
BRANCH   1   2
ATOM      2  O   UNL A   1      33.908  35.562  29.285  1.00  0.00    -0.374 OA
BRANCH   2   3
ATOM      3  C   UNL A   1      33.270  36.235  30.371  1.00  0.00     0.202 C 
BRANCH   3   4
ATOM      4  C   UNL A   1      33.310  35.515  31.722  1.00  0.00     0.261 C 
BRANCH   4   5
ATOM      5  O   UNL A   1      34.621  34.993  31.997  1.00  0.00    -0.460 OA
BRANCH   5   6
ATOM      6  C   UNL A   1      34.660  33.675  32.299  1.00  0.00     0.338 C 
ATOM      7  O   UNL A   1      33.771  32.854  32.120  1.00  0.00    -0.246 OA
BRANCH   6   8
ATOM      8  C   UNL A   1      36.017  33.285  32.750  1.00  0.00     0.062 A 
ATOM      9  C   UNL A   1      39.887  32.409  33.655  1.00  0.00     0.105 A 
ATOM     10  N   UNL A   1      40.372  33.654  33.352  1.00  0.00    -0.274 N 
ATOM     11  C   UNL A   1      38.531  32.527  33.462  1.00  0.00     0.030 A 
ATOM     12  N   UNL A   1      39.451  34.541  32.946  1.00  0.00    -0.175 NA
ATOM     13  H   UNL A   1      41.328  33.881  33.425  1.00  0.00     0.190 HD
ATOM     14  C   UNL A   1      38.293  33.864  32.973  1.00  0.00     0.094 A 
ATOM     15  C   UNL A   1      37.570  31.533  33.652  1.00  0.00     0.013 A 
ATOM     16  C   UNL A   1      37.011  34.282  32.600  1.00  0.00     0.046 A 
ATOM     17  C   UNL A   1      36.280  31.976  33.275  1.00  0.00     0.016 A 
BRANCH   9  18
ATOM     18  C   UNL A   1      40.724  31.308  34.044  1.00  0.00     0.280 C 
ATOM     19  O   UNL A   1      41.211  30.476  33.287  1.00  0.00    -0.296 OA
ENDBRANCH   9  18
ENDBRANCH   6   8
ENDBRANCH   5   6
ENDBRANCH   4   5
ENDBRANCH   3   4
ENDBRANCH   2   3
ENDBRANCH   1   2
BRANCH   1  20
ATOM     20  C   UNL A   1      34.245  33.322  28.189  1.00  0.00     0.261 C 
BRANCH  20  21
ATOM     21  O   UNL A   1      34.519  32.213  29.064  1.00  0.00    -0.460 OA
BRANCH  21  22
ATOM     22  C   UNL A   1      34.471  30.996  28.472  1.00  0.00     0.338 C 
ATOM     23  O   UNL A   1      33.537  30.519  27.843  1.00  0.00    -0.246 OA
BRANCH  22  24
ATOM     24  C   UNL A   1      35.800  30.356  28.528  1.00  0.00     0.060 A 
ATOM     25  C   UNL A   1      36.290  29.997  29.790  1.00  0.00     0.016 A 
ATOM     26  C   UNL A   1      36.577  30.163  27.384  1.00  0.00     0.016 A 
ATOM     27  C   UNL A   1      37.582  29.492  29.920  1.00  0.00     0.010 A 
ATOM     28  C   UNL A   1      37.878  29.662  27.517  1.00  0.00     0.010 A 
ATOM     29  C   UNL A   1      38.398  29.358  28.788  1.00  0.00    -0.014 A 
BRANCH  29  30
ATOM     30  C   UNL A   1      39.836  29.036  28.957  1.00  0.00     0.031 A 
ATOM     31  C   UNL A   1      40.764  30.096  29.486  1.00  0.00     0.074 A 
ATOM     32  C   UNL A   1      40.304  27.808  28.671  1.00  0.00     0.049 A 
ATOM     33  N   UNL A   1      42.054  30.041  29.692  1.00  0.00    -0.248 NA
ATOM     34  C   UNL A   1      40.153  31.391  29.827  1.00  0.00     0.031 C 
ATOM     35  C   UNL A   1      39.497  26.689  28.188  1.00  0.00     0.029 A 
ATOM     36  N   UNL A   1      41.577  27.300  28.744  1.00  0.00    -0.354 N 
ATOM     37  C   UNL A   1      42.412  31.292  30.182  1.00  0.00     0.074 A 
ATOM     38  C   UNL A   1      41.208  32.094  30.212  1.00  0.00     0.031 C 
ATOM     39  C   UNL A   1      40.297  25.624  28.001  1.00  0.00     0.029 A 
ATOM     40  C   UNL A   1      41.674  25.996  28.323  1.00  0.00     0.049 A 
ATOM     41  H   UNL A   1      42.347  27.821  29.067  1.00  0.00     0.167 HD
ATOM     42  C   UNL A   1      43.631  31.728  30.581  1.00  0.00     0.037 A 
ATOM     43  C   UNL A   1      42.753  25.199  28.195  1.00  0.00     0.037 A 
ATOM     44  C   UNL A   1      44.827  30.927  30.546  1.00  0.00     0.049 A 
ATOM     45  C   UNL A   1      44.111  25.726  28.582  1.00  0.00     0.074 A 
ATOM     46  C   UNL A   1      46.107  31.272  30.941  1.00  0.00     0.029 A 
ATOM     47  N   UNL A   1      44.891  29.621  30.082  1.00  0.00    -0.354 N 
ATOM     48  N   UNL A   1      44.432  26.904  29.063  1.00  0.00    -0.248 NA
ATOM     49  C   UNL A   1      45.251  24.815  28.410  1.00  0.00     0.031 C 
ATOM     50  C   UNL A   1      46.954  30.190  30.673  1.00  0.00     0.029 A 
ATOM     51  C   UNL A   1      46.193  29.154  30.158  1.00  0.00     0.049 A 
ATOM     52  H   UNL A   1      44.123  29.103  29.747  1.00  0.00     0.167 HD
ATOM     53  C   UNL A   1      45.806  26.867  29.275  1.00  0.00     0.074 A 
ATOM     54  C   UNL A   1      46.254  25.547  28.879  1.00  0.00     0.031 C 
ATOM     55  C   UNL A   1      46.623  27.835  29.761  1.00  0.00     0.037 A 
BRANCH  42  56
ATOM     56  C   UNL A   1      43.732  33.149  31.063  1.00  0.00     0.058 A 
ATOM     57  C   UNL A   1      43.815  34.230  30.169  1.00  0.00     0.135 A 
ATOM     58  C   UNL A   1      43.737  33.436  32.438  1.00  0.00     0.135 A 
ATOM     59  F   UNL A   1      43.832  34.011  28.845  1.00  0.00    -0.206 F 
ATOM     60  C   UNL A   1      43.932  35.540  30.622  1.00  0.00     0.059 A 
ATOM     61  C   UNL A   1      43.827  34.740  32.912  1.00  0.00     0.059 A 
ATOM     62  F   UNL A   1      43.661  32.441  33.336  1.00  0.00    -0.206 F 
ATOM     63  C   UNL A   1      43.943  35.785  31.996  1.00  0.00     0.060 A 
BRANCH  63  64
ATOM     64  S   UNL A   1      44.114  37.489  32.569  1.00  0.00     0.124 S 
ATOM     65  O   UNL A   1      43.090  37.549  33.609  1.00  0.00    -0.237 OA
ATOM     66  O   UNL A   1      45.495  37.525  33.037  1.00  0.00    -0.237 OA
ATOM     67  O   UNL A   1      43.839  38.279  31.374  1.00  0.00    -0.744 OA
ENDBRANCH  63  64
ENDBRANCH  42  56
BRANCH  43  68
ATOM     68  C   UNL A   1      42.592  23.814  27.678  1.00  0.00     0.058 A 
ATOM     69  C   UNL A   1      42.512  22.720  28.550  1.00  0.00     0.135 A 
ATOM     70  C   UNL A   1      42.498  23.562  26.300  1.00  0.00     0.135 A 
ATOM     71  F   UNL A   1      42.609  22.910  29.876  1.00  0.00    -0.206 F 
ATOM     72  C   UNL A   1      42.350  21.422  28.078  1.00  0.00     0.059 A 
ATOM     73  C   UNL A   1      42.313  22.275  25.805  1.00  0.00     0.059 A 
ATOM     74  F   UNL A   1      42.561  24.576  25.425  1.00  0.00    -0.206 F 
ATOM     75  C   UNL A   1      42.246  21.210  26.702  1.00  0.00     0.060 A 
BRANCH  75  76
ATOM     76  S   UNL A   1      41.969  19.529  26.102  1.00  0.00     0.124 S 
ATOM     77  O   UNL A   1      42.848  19.483  24.940  1.00  0.00    -0.237 OA
ATOM     78  O   UNL A   1      42.381  18.724  27.247  1.00  0.00    -0.237 OA
ATOM     79  O   UNL A   1      40.538  19.507  25.814  1.00  0.00    -0.744 OA
ENDBRANCH  75  76
ENDBRANCH  43  68
BRANCH  55  80
ATOM     80  C   UNL A   1      48.081  27.499  29.921  1.00  0.00     0.058 A 
ATOM     81  C   UNL A   1      49.028  27.834  28.942  1.00  0.00     0.135 A 
ATOM     82  C   UNL A   1      48.541  26.882  31.095  1.00  0.00     0.135 A 
ATOM     83  F   UNL A   1      48.640  28.419  27.798  1.00  0.00    -0.206 F 
ATOM     84  C   UNL A   1      50.380  27.548  29.111  1.00  0.00     0.059 A 
ATOM     85  C   UNL A   1      49.892  26.610  31.297  1.00  0.00     0.059 A 
ATOM     86  F   UNL A   1      47.678  26.550  32.068  1.00  0.00    -0.206 F 
ATOM     87  C   UNL A   1      50.802  26.937  30.293  1.00  0.00     0.060 A 
BRANCH  87  88
ATOM     88  S   UNL A   1      52.563  26.603  30.517  1.00  0.00     0.124 S 
ATOM     89  O   UNL A   1      52.532  25.465  31.430  1.00  0.00    -0.237 OA
ATOM     90  O   UNL A   1      53.001  26.312  29.156  1.00  0.00    -0.237 OA
ATOM     91  O   UNL A   1      53.076  27.848  31.081  1.00  0.00    -0.744 OA
ENDBRANCH  87  88
ENDBRANCH  55  80
ENDBRANCH  29  30
ENDBRANCH  22  24
ENDBRANCH  21  22
ENDBRANCH  20  21
ENDBRANCH   1  20
TORSDOF 18
ENDMDL
