MODEL 1
REMARK VINA RESULT:     -11.6      0.000      0.000
REMARK SMILES CCN(CC)c1ccc([C@@H]2[NH2+][C@@H](C(=O)OCCOCCOC(=O)c3ccc(-c4c5nc(c(-c6c(F)cc(S(=O)(=O)[O-])cc6F)c6ccc([nH]6)c(-c6c(F)cc(S(=O)(=O)[O-])cc6F)c6nc(c(-c7c(F)cc(S(=O)(=O)[O-])cc7F)c7ccc4[nH]7)C=C6)C=C5)cc3)Cc3c2[nH]c2ccccc32)cc1
REMARK SMILES IDX 18 1 17 2 16 3 15 4 13 5 14 6 12 7 10 8 11 9 92 10 91 13
REMARK SMILES IDX 93 14 90 15 99 16 94 17 98 19 95 20 97 21 96 22 9 23 6 24
REMARK SMILES IDX 7 25 101 26 8 27 100 28 3 29 2 30 1 31 4 32 5 33 19 34 20 35
REMARK SMILES IDX 21 36 22 37 23 38 24 39 25 40 89 41 26 42 88 43 27 44 28 45
REMARK SMILES IDX 29 46 82 47 30 48 87 49 81 50 83 51 31 52 86 53 80 54 79 55
REMARK SMILES IDX 32 57 66 58 45 59 65 60 46 61 49 62 64 63 84 64 47 65 48 66
REMARK SMILES IDX 63 68 85 69 50 70 33 71 34 72 43 73 35 74 36 75 42 76 44 77
REMARK SMILES IDX 37 78 38 79 39 80 40 81 41 82 67 83 68 84 77 85 69 86 70 87
REMARK SMILES IDX 76 88 78 89 71 90 72 91 73 92 74 93 75 94 51 95 52 96 61 97
REMARK SMILES IDX 53 98 54 99 60 100 62 101 55 102 56 103 57 104 58 105 59 106
REMARK H PARENT 11 11 11 12 93 18 83 56 49 67
REMARK Flexibility Score: inf
ROOT
ATOM      1  O   UNL A   1      35.170  33.306  27.776  1.00  0.00    -0.374 OA
ENDROOT
BRANCH   1   2
ATOM      2  C   UNL A   1      35.508  31.931  27.690  1.00  0.00     0.202 C 
BRANCH   2   3
ATOM      3  C   UNL A   1      34.448  30.840  27.885  1.00  0.00     0.261 C 
BRANCH   3   4
ATOM      4  O   UNL A   1      33.826  30.290  26.716  1.00  0.00    -0.459 OA
BRANCH   4   5
ATOM      5  C   UNL A   1      33.346  29.032  26.931  1.00  0.00     0.365 C 
ATOM      6  O   UNL A   1      33.022  28.596  28.035  1.00  0.00    -0.245 OA
BRANCH   5   7
ATOM      7  C   UNL A   1      33.440  28.128  25.709  1.00  0.00     0.298 C 
ATOM      8  C   UNL A   1      31.084  27.459  24.957  1.00  0.00     0.262 C 
ATOM      9  N   UNL A   1      32.252  28.388  24.889  1.00  0.00    -0.323 N 
ATOM     10  C   UNL A   1      31.600  26.062  25.126  1.00  0.00     0.083 A 
ATOM     11  H   UNL A   1      31.909  29.312  25.149  1.00  0.00     0.347 HD
ATOM     12  H   UNL A   1      32.593  28.267  23.936  1.00  0.00     0.347 HD
ATOM     13  C   UNL A   1      32.932  25.723  25.255  1.00  0.00    -0.006 A 
ATOM     14  N   UNL A   1      30.937  24.874  24.932  1.00  0.00    -0.353 N 
ATOM     15  C   UNL A   1      33.892  26.670  25.889  1.00  0.00     0.115 C 
ATOM     16  C   UNL A   1      33.054  24.710  24.259  1.00  0.00     0.003 A 
ATOM     17  C   UNL A   1      31.805  24.078  24.196  1.00  0.00     0.046 A 
ATOM     18  H   UNL A   1      30.036  24.636  25.249  1.00  0.00     0.166 HD
ATOM     19  C   UNL A   1      34.033  24.344  23.314  1.00  0.00     0.010 A 
ATOM     20  C   UNL A   1      31.544  22.977  23.375  1.00  0.00     0.026 A 
ATOM     21  C   UNL A   1      33.724  23.357  22.366  1.00  0.00     0.001 A 
ATOM     22  C   UNL A   1      32.521  22.652  22.431  1.00  0.00     0.002 A 
BRANCH   8  23
ATOM     23  C   UNL A   1      30.432  27.753  23.565  1.00  0.00     0.016 A 
ATOM     24  C   UNL A   1      29.075  29.787  22.135  1.00  0.00     0.037 A 
ATOM     25  C   UNL A   1      30.430  29.543  21.921  1.00  0.00     0.026 A 
ATOM     26  C   UNL A   1      28.370  28.828  22.874  1.00  0.00     0.026 A 
ATOM     27  C   UNL A   1      31.103  28.531  22.611  1.00  0.00     0.012 A 
ATOM     28  C   UNL A   1      29.026  27.790  23.548  1.00  0.00     0.012 A 
BRANCH  24  29
ATOM     29  N   UNL A   1      28.464  30.966  21.726  1.00  0.00    -0.372 N 
BRANCH  29  30
ATOM     30  C   UNL A   1      27.981  31.051  20.337  1.00  0.00     0.113 C 
ATOM     31  C   UNL A   1      27.658  32.470  19.899  1.00  0.00     0.027 C 
ENDBRANCH  29  30
BRANCH  29  32
ATOM     32  C   UNL A   1      27.896  31.882  22.713  1.00  0.00     0.113 C 
ATOM     33  C   UNL A   1      28.844  32.996  23.141  1.00  0.00     0.027 C 
ENDBRANCH  29  32
ENDBRANCH  24  29
ENDBRANCH   8  23
ENDBRANCH   5   7
ENDBRANCH   4   5
ENDBRANCH   3   4
ENDBRANCH   2   3
ENDBRANCH   1   2
BRANCH   1  34
ATOM     34  C   UNL A   1      35.621  34.069  28.882  1.00  0.00     0.202 C 
BRANCH  34  35
ATOM     35  C   UNL A   1      35.794  33.419  30.263  1.00  0.00     0.261 C 
BRANCH  35  36
ATOM     36  O   UNL A   1      37.119  32.996  30.593  1.00  0.00    -0.460 OA
BRANCH  36  37
ATOM     37  C   UNL A   1      37.170  31.747  31.126  1.00  0.00     0.338 C 
ATOM     38  O   UNL A   1      36.380  31.254  31.912  1.00  0.00    -0.246 OA
BRANCH  37  39
ATOM     39  C   UNL A   1      38.274  30.974  30.523  1.00  0.00     0.060 A 
ATOM     40  C   UNL A   1      39.311  30.571  31.372  1.00  0.00     0.016 A 
ATOM     41  C   UNL A   1      38.346  30.728  29.149  1.00  0.00     0.016 A 
ATOM     42  C   UNL A   1      40.452  29.976  30.842  1.00  0.00     0.010 A 
ATOM     43  C   UNL A   1      39.496  30.131  28.618  1.00  0.00     0.010 A 
ATOM     44  C   UNL A   1      40.570  29.788  29.457  1.00  0.00    -0.014 A 
BRANCH  44  45
ATOM     45  C   UNL A   1      41.872  29.337  28.906  1.00  0.00     0.031 A 
ATOM     46  C   UNL A   1      43.027  30.299  28.845  1.00  0.00     0.074 A 
ATOM     47  C   UNL A   1      42.040  28.055  28.532  1.00  0.00     0.049 A 
ATOM     48  N   UNL A   1      44.266  30.082  28.489  1.00  0.00    -0.248 NA
ATOM     49  C   UNL A   1      42.749  31.689  29.238  1.00  0.00     0.031 C 
ATOM     50  C   UNL A   1      41.000  27.026  28.554  1.00  0.00     0.029 A 
ATOM     51  N   UNL A   1      43.153  27.400  28.072  1.00  0.00    -0.354 N 
ATOM     52  C   UNL A   1      44.921  31.302  28.622  1.00  0.00     0.074 A 
ATOM     53  C   UNL A   1      43.930  32.265  29.055  1.00  0.00     0.031 C 
ATOM     54  C   UNL A   1      41.529  25.865  28.132  1.00  0.00     0.029 A 
ATOM     55  C   UNL A   1      42.937  26.071  27.800  1.00  0.00     0.049 A 
ATOM     56  H   UNL A   1      44.026  27.839  27.949  1.00  0.00     0.167 HD
ATOM     57  C   UNL A   1      46.228  31.590  28.417  1.00  0.00     0.037 A 
ATOM     58  C   UNL A   1      43.779  25.126  27.338  1.00  0.00     0.037 A 
ATOM     59  C   UNL A   1      47.214  30.632  27.985  1.00  0.00     0.049 A 
ATOM     60  C   UNL A   1      45.222  25.477  27.094  1.00  0.00     0.074 A 
ATOM     61  C   UNL A   1      48.569  30.823  27.774  1.00  0.00     0.029 A 
ATOM     62  N   UNL A   1      46.950  29.301  27.695  1.00  0.00    -0.354 N 
ATOM     63  N   UNL A   1      45.833  26.626  27.263  1.00  0.00    -0.248 NA
ATOM     64  C   UNL A   1      46.094  24.397  26.611  1.00  0.00     0.031 C 
ATOM     65  C   UNL A   1      49.116  29.618  27.316  1.00  0.00     0.029 A 
ATOM     66  C   UNL A   1      48.112  28.666  27.285  1.00  0.00     0.049 A 
ATOM     67  H   UNL A   1      46.068  28.871  27.768  1.00  0.00     0.167 HD
ATOM     68  C   UNL A   1      47.163  26.403  26.923  1.00  0.00     0.074 A 
ATOM     69  C   UNL A   1      47.272  25.004  26.560  1.00  0.00     0.031 C 
ATOM     70  C   UNL A   1      48.202  27.275  26.913  1.00  0.00     0.037 A 
BRANCH  57  71
ATOM     71  C   UNL A   1      46.669  33.010  28.646  1.00  0.00     0.058 A 
ATOM     72  C   UNL A   1      47.133  33.444  29.898  1.00  0.00     0.135 A 
ATOM     73  C   UNL A   1      46.660  33.938  27.592  1.00  0.00     0.135 A 
ATOM     74  F   UNL A   1      47.147  32.602  30.943  1.00  0.00    -0.206 F 
ATOM     75  C   UNL A   1      47.549  34.756  30.103  1.00  0.00     0.059 A 
ATOM     76  C   UNL A   1      47.093  35.249  27.769  1.00  0.00     0.059 A 
ATOM     77  F   UNL A   1      46.224  33.574  26.376  1.00  0.00    -0.206 F 
ATOM     78  C   UNL A   1      47.524  35.652  29.033  1.00  0.00     0.060 A 
BRANCH  78  79
ATOM     79  S   UNL A   1      48.071  37.350  29.312  1.00  0.00     0.124 S 
ATOM     80  O   UNL A   1      46.842  37.977  29.786  1.00  0.00    -0.237 OA
ATOM     81  O   UNL A   1      49.122  37.181  30.310  1.00  0.00    -0.237 OA
ATOM     82  O   UNL A   1      48.528  37.780  27.994  1.00  0.00    -0.744 OA
ENDBRANCH  78  79
ENDBRANCH  57  71
BRANCH  58  83
ATOM     83  C   UNL A   1      43.279  23.750  27.084  1.00  0.00     0.058 A 
ATOM     84  C   UNL A   1      43.060  23.285  25.779  1.00  0.00     0.135 A 
ATOM     85  C   UNL A   1      43.016  22.871  28.146  1.00  0.00     0.135 A 
ATOM     86  F   UNL A   1      43.288  24.094  24.733  1.00  0.00    -0.206 F 
ATOM     87  C   UNL A   1      42.582  22.002  25.534  1.00  0.00     0.059 A 
ATOM     88  C   UNL A   1      42.561  21.576  27.926  1.00  0.00     0.059 A 
ATOM     89  F   UNL A   1      43.223  23.265  29.412  1.00  0.00    -0.206 F 
ATOM     90  C   UNL A   1      42.338  21.153  26.616  1.00  0.00     0.060 A 
BRANCH  90  91
ATOM     91  S   UNL A   1      41.771  19.470  26.290  1.00  0.00     0.124 S 
ATOM     92  O   UNL A   1      42.414  19.186  25.013  1.00  0.00    -0.237 OA
ATOM     93  O   UNL A   1      42.291  18.741  27.443  1.00  0.00    -0.237 OA
ATOM     94  O   UNL A   1      40.319  19.610  26.252  1.00  0.00    -0.744 OA
ENDBRANCH  90  91
ENDBRANCH  58  83
BRANCH  70  95
ATOM     95  C   UNL A   1      49.545  26.732  26.508  1.00  0.00     0.058 A 
ATOM     96  C   UNL A   1      50.383  26.080  27.426  1.00  0.00     0.135 A 
ATOM     97  C   UNL A   1      50.000  26.867  25.186  1.00  0.00     0.135 A 
ATOM     98  F   UNL A   1      49.996  25.928  28.703  1.00  0.00    -0.206 F 
ATOM     99  C   UNL A   1      51.645  25.621  27.062  1.00  0.00     0.059 A 
ATOM    100  C   UNL A   1      51.248  26.391  24.792  1.00  0.00     0.059 A 
ATOM    101  F   UNL A   1      49.234  27.468  24.264  1.00  0.00    -0.206 F 
ATOM    102  C   UNL A   1      52.072  25.790  25.744  1.00  0.00     0.060 A 
BRANCH 102 103
ATOM    103  S   UNL A   1      53.717  25.207  25.281  1.00  0.00     0.124 S 
ATOM    104  O   UNL A   1      54.550  25.851  26.291  1.00  0.00    -0.237 OA
ATOM    105  O   UNL A   1      53.585  23.758  25.396  1.00  0.00    -0.237 OA
ATOM    106  O   UNL A   1      53.882  25.708  23.919  1.00  0.00    -0.744 OA
ENDBRANCH 102 103
ENDBRANCH  70  95
ENDBRANCH  44  45
ENDBRANCH  37  39
ENDBRANCH  36  37
ENDBRANCH  35  36
ENDBRANCH  34  35
ENDBRANCH   1  34
TORSDOF 21
ENDMDL
MODEL 2
REMARK VINA RESULT:     -11.3      4.470      9.585
REMARK SMILES CCN(CC)c1ccc([C@@H]2[NH2+][C@@H](C(=O)OCCOCCOC(=O)c3ccc(-c4c5nc(c(-c6c(F)cc(S(=O)(=O)[O-])cc6F)c6ccc([nH]6)c(-c6c(F)cc(S(=O)(=O)[O-])cc6F)c6nc(c(-c7c(F)cc(S(=O)(=O)[O-])cc7F)c7ccc4[nH]7)C=C6)C=C5)cc3)Cc3c2[nH]c2ccccc32)cc1
REMARK SMILES IDX 18 1 17 2 16 3 15 4 13 5 14 6 12 7 10 8 11 9 92 10 91 13
REMARK SMILES IDX 93 14 90 15 99 16 94 17 98 19 95 20 97 21 96 22 9 23 6 24
REMARK SMILES IDX 7 25 101 26 8 27 100 28 3 29 2 30 1 31 4 32 5 33 19 34 20 35
REMARK SMILES IDX 21 36 22 37 23 38 24 39 25 40 89 41 26 42 88 43 27 44 28 45
REMARK SMILES IDX 29 46 82 47 30 48 87 49 81 50 83 51 31 52 86 53 80 54 79 55
REMARK SMILES IDX 32 57 66 58 45 59 65 60 46 61 49 62 64 63 84 64 47 65 48 66
REMARK SMILES IDX 63 68 85 69 50 70 33 71 34 72 43 73 35 74 36 75 42 76 44 77
REMARK SMILES IDX 37 78 38 79 39 80 40 81 41 82 67 83 68 84 77 85 69 86 70 87
REMARK SMILES IDX 76 88 78 89 71 90 72 91 73 92 74 93 75 94 51 95 52 96 61 97
REMARK SMILES IDX 53 98 54 99 60 100 62 101 55 102 56 103 57 104 58 105 59 106
REMARK H PARENT 11 11 11 12 93 18 83 56 49 67
REMARK Flexibility Score: inf
ROOT
ATOM      1  O   UNL A   1      36.029  21.433  26.096  1.00  0.00    -0.374 OA
ENDROOT
BRANCH   1   2
ATOM      2  C   UNL A   1      35.190  21.097  25.003  1.00  0.00     0.202 C 
BRANCH   2   3
ATOM      3  C   UNL A   1      33.756  21.633  24.911  1.00  0.00     0.261 C 
BRANCH   3   4
ATOM      4  O   UNL A   1      33.058  21.899  26.135  1.00  0.00    -0.459 OA
BRANCH   4   5
ATOM      5  C   UNL A   1      31.736  22.165  25.928  1.00  0.00     0.365 C 
ATOM      6  O   UNL A   1      30.932  21.354  25.474  1.00  0.00    -0.245 OA
BRANCH   5   7
ATOM      7  C   UNL A   1      31.376  23.633  26.111  1.00  0.00     0.298 C 
ATOM      8  C   UNL A   1      31.848  24.907  23.938  1.00  0.00     0.262 C 
ATOM      9  N   UNL A   1      30.916  24.130  24.809  1.00  0.00    -0.323 N 
ATOM     10  C   UNL A   1      32.712  25.762  24.815  1.00  0.00     0.083 A 
ATOM     11  H   UNL A   1      30.618  23.317  24.272  1.00  0.00     0.347 HD
ATOM     12  H   UNL A   1      30.201  24.814  25.058  1.00  0.00     0.347 HD
ATOM     13  C   UNL A   1      32.676  25.768  26.195  1.00  0.00    -0.006 A 
ATOM     14  N   UNL A   1      33.483  26.845  24.465  1.00  0.00    -0.353 N 
ATOM     15  C   UNL A   1      32.303  24.534  26.944  1.00  0.00     0.115 C 
ATOM     16  C   UNL A   1      32.544  27.162  26.460  1.00  0.00     0.003 A 
ATOM     17  C   UNL A   1      33.215  27.818  25.419  1.00  0.00     0.046 A 
ATOM     18  H   UNL A   1      34.098  26.916  23.700  1.00  0.00     0.166 HD
ATOM     19  C   UNL A   1      31.824  27.945  27.384  1.00  0.00     0.010 A 
ATOM     20  C   UNL A   1      33.366  29.206  25.359  1.00  0.00     0.026 A 
ATOM     21  C   UNL A   1      31.822  29.340  27.234  1.00  0.00     0.001 A 
ATOM     22  C   UNL A   1      32.621  29.959  26.271  1.00  0.00     0.002 A 
BRANCH   8  23
ATOM     23  C   UNL A   1      30.807  25.696  23.076  1.00  0.00     0.016 A 
ATOM     24  C   UNL A   1      29.446  28.178  22.963  1.00  0.00     0.037 A 
ATOM     25  C   UNL A   1      30.557  27.932  22.158  1.00  0.00     0.026 A 
ATOM     26  C   UNL A   1      28.885  27.074  23.618  1.00  0.00     0.026 A 
ATOM     27  C   UNL A   1      31.224  26.705  22.196  1.00  0.00     0.012 A 
ATOM     28  C   UNL A   1      29.526  25.828  23.642  1.00  0.00     0.012 A 
BRANCH  24  29
ATOM     29  N   UNL A   1      28.970  29.463  23.191  1.00  0.00    -0.372 N 
BRANCH  29  30
ATOM     30  C   UNL A   1      29.910  30.468  23.714  1.00  0.00     0.113 C 
ATOM     31  C   UNL A   1      29.225  31.732  24.210  1.00  0.00     0.027 C 
ENDBRANCH  29  30
BRANCH  29  32
ATOM     32  C   UNL A   1      27.763  29.932  22.513  1.00  0.00     0.113 C 
ATOM     33  C   UNL A   1      28.019  30.524  21.132  1.00  0.00     0.027 C 
ENDBRANCH  29  32
ENDBRANCH  24  29
ENDBRANCH   8  23
ENDBRANCH   5   7
ENDBRANCH   4   5
ENDBRANCH   3   4
ENDBRANCH   2   3
ENDBRANCH   1   2
BRANCH   1  34
ATOM     34  C   UNL A   1      36.143  22.786  26.501  1.00  0.00     0.202 C 
BRANCH  34  35
ATOM     35  C   UNL A   1      36.926  23.795  25.647  1.00  0.00     0.261 C 
BRANCH  35  36
ATOM     36  O   UNL A   1      38.259  23.414  25.296  1.00  0.00    -0.460 OA
BRANCH  36  37
ATOM     37  C   UNL A   1      39.072  23.243  26.373  1.00  0.00     0.338 C 
ATOM     38  O   UNL A   1      39.658  22.224  26.693  1.00  0.00    -0.246 OA
BRANCH  37  39
ATOM     39  C   UNL A   1      39.271  24.526  27.076  1.00  0.00     0.060 A 
ATOM     40  C   UNL A   1      40.048  25.495  26.432  1.00  0.00     0.016 A 
ATOM     41  C   UNL A   1      38.792  24.746  28.371  1.00  0.00     0.016 A 
ATOM     42  C   UNL A   1      40.401  26.662  27.103  1.00  0.00     0.010 A 
ATOM     43  C   UNL A   1      39.151  25.920  29.044  1.00  0.00     0.010 A 
ATOM     44  C   UNL A   1      39.988  26.865  28.428  1.00  0.00    -0.014 A 
BRANCH  44  45
ATOM     45  C   UNL A   1      40.542  28.019  29.179  1.00  0.00     0.031 A 
ATOM     46  C   UNL A   1      39.687  29.236  29.407  1.00  0.00     0.074 A 
ATOM     47  C   UNL A   1      41.774  27.948  29.716  1.00  0.00     0.049 A 
ATOM     48  N   UNL A   1      39.946  30.307  30.112  1.00  0.00    -0.248 NA
ATOM     49  C   UNL A   1      38.368  29.248  28.757  1.00  0.00     0.031 C 
ATOM     50  C   UNL A   1      42.693  26.819  29.572  1.00  0.00     0.029 A 
ATOM     51  N   UNL A   1      42.457  28.843  30.499  1.00  0.00    -0.354 N 
ATOM     52  C   UNL A   1      38.821  31.118  30.000  1.00  0.00     0.074 A 
ATOM     53  C   UNL A   1      37.894  30.430  29.126  1.00  0.00     0.031 C 
ATOM     54  C   UNL A   1      43.820  27.087  30.254  1.00  0.00     0.029 A 
ATOM     55  C   UNL A   1      43.707  28.408  30.869  1.00  0.00     0.049 A 
ATOM     56  H   UNL A   1      42.088  29.714  30.772  1.00  0.00     0.167 HD
ATOM     57  C   UNL A   1      38.577  32.316  30.582  1.00  0.00     0.037 A 
ATOM     58  C   UNL A   1      44.652  29.005  31.622  1.00  0.00     0.037 A 
ATOM     59  C   UNL A   1      39.500  33.001  31.451  1.00  0.00     0.049 A 
ATOM     60  C   UNL A   1      44.366  30.349  32.237  1.00  0.00     0.074 A 
ATOM     61  C   UNL A   1      39.333  34.207  32.109  1.00  0.00     0.029 A 
ATOM     62  N   UNL A   1      40.767  32.540  31.781  1.00  0.00    -0.354 N 
ATOM     63  N   UNL A   1      43.282  31.083  32.152  1.00  0.00    -0.248 NA
ATOM     64  C   UNL A   1      45.429  30.937  33.064  1.00  0.00     0.031 C 
ATOM     65  C   UNL A   1      40.515  34.496  32.804  1.00  0.00     0.029 A 
ATOM     66  C   UNL A   1      41.400  33.449  32.615  1.00  0.00     0.049 A 
ATOM     67  H   UNL A   1      41.158  31.693  31.469  1.00  0.00     0.167 HD
ATOM     68  C   UNL A   1      43.526  32.211  32.928  1.00  0.00     0.074 A 
ATOM     69  C   UNL A   1      44.852  32.052  33.491  1.00  0.00     0.031 C 
ATOM     70  C   UNL A   1      42.726  33.283  33.156  1.00  0.00     0.037 A 
BRANCH  57  71
ATOM     71  C   UNL A   1      37.258  32.975  30.286  1.00  0.00     0.058 A 
ATOM     72  C   UNL A   1      36.163  32.855  31.157  1.00  0.00     0.135 A 
ATOM     73  C   UNL A   1      37.096  33.763  29.135  1.00  0.00     0.135 A 
ATOM     74  F   UNL A   1      36.259  32.101  32.264  1.00  0.00    -0.206 F 
ATOM     75  C   UNL A   1      34.947  33.473  30.885  1.00  0.00     0.059 A 
ATOM     76  C   UNL A   1      35.895  34.409  28.855  1.00  0.00     0.059 A 
ATOM     77  F   UNL A   1      38.110  33.908  28.268  1.00  0.00    -0.206 F 
ATOM     78  C   UNL A   1      34.822  34.247  29.730  1.00  0.00     0.060 A 
BRANCH  78  79
ATOM     79  S   UNL A   1      33.239  35.049  29.392  1.00  0.00     0.124 S 
ATOM     80  O   UNL A   1      32.587  34.965  30.695  1.00  0.00    -0.237 OA
ATOM     81  O   UNL A   1      33.647  36.385  28.972  1.00  0.00    -0.237 OA
ATOM     82  O   UNL A   1      32.656  34.218  28.343  1.00  0.00    -0.744 OA
ENDBRANCH  78  79
ENDBRANCH  57  71
BRANCH  58  83
ATOM     83  C   UNL A   1      45.956  28.330  31.843  1.00  0.00     0.058 A 
ATOM     84  C   UNL A   1      46.158  27.476  32.937  1.00  0.00     0.135 A 
ATOM     85  C   UNL A   1      47.027  28.525  30.957  1.00  0.00     0.135 A 
ATOM     86  F   UNL A   1      45.165  27.267  33.815  1.00  0.00    -0.206 F 
ATOM     87  C   UNL A   1      47.380  26.848  33.155  1.00  0.00     0.059 A 
ATOM     88  C   UNL A   1      48.251  27.891  31.141  1.00  0.00     0.059 A 
ATOM     89  F   UNL A   1      46.880  29.323  29.889  1.00  0.00    -0.206 F 
ATOM     90  C   UNL A   1      48.421  27.061  32.249  1.00  0.00     0.060 A 
BRANCH  90  91
ATOM     91  S   UNL A   1      49.988  26.201  32.506  1.00  0.00     0.124 S 
ATOM     92  O   UNL A   1      49.891  25.829  33.912  1.00  0.00    -0.237 OA
ATOM     93  O   UNL A   1      49.898  25.104  31.547  1.00  0.00    -0.237 OA
ATOM     94  O   UNL A   1      50.983  27.220  32.187  1.00  0.00    -0.744 OA
ENDBRANCH  90  91
ENDBRANCH  58  83
BRANCH  70  95
ATOM     95  C   UNL A   1      43.264  34.355  34.063  1.00  0.00     0.058 A 
ATOM     96  C   UNL A   1      43.059  34.317  35.451  1.00  0.00     0.135 A 
ATOM     97  C   UNL A   1      43.992  35.436  33.538  1.00  0.00     0.135 A 
ATOM     98  F   UNL A   1      42.367  33.307  36.004  1.00  0.00    -0.206 F 
ATOM     99  C   UNL A   1      43.515  35.335  36.283  1.00  0.00     0.059 A 
ATOM    100  C   UNL A   1      44.481  36.452  34.355  1.00  0.00     0.059 A 
ATOM    101  F   UNL A   1      44.230  35.515  32.220  1.00  0.00    -0.206 F 
ATOM    102  C   UNL A   1      44.218  36.403  35.724  1.00  0.00     0.060 A 
BRANCH 102 103
ATOM    103  S   UNL A   1      44.793  37.728  36.806  1.00  0.00     0.124 S 
ATOM    104  O   UNL A   1      46.240  37.556  36.735  1.00  0.00    -0.237 OA
ATOM    105  O   UNL A   1      44.264  38.922  36.153  1.00  0.00    -0.237 OA
ATOM    106  O   UNL A   1      44.183  37.404  38.092  1.00  0.00    -0.744 OA
ENDBRANCH 102 103
ENDBRANCH  70  95
ENDBRANCH  44  45
ENDBRANCH  37  39
ENDBRANCH  36  37
ENDBRANCH  35  36
ENDBRANCH  34  35
ENDBRANCH   1  34
TORSDOF 21
ENDMDL
MODEL 3
REMARK VINA RESULT:     -11.3      6.240     12.188
REMARK SMILES CCN(CC)c1ccc([C@@H]2[NH2+][C@@H](C(=O)OCCOCCOC(=O)c3ccc(-c4c5nc(c(-c6c(F)cc(S(=O)(=O)[O-])cc6F)c6ccc([nH]6)c(-c6c(F)cc(S(=O)(=O)[O-])cc6F)c6nc(c(-c7c(F)cc(S(=O)(=O)[O-])cc7F)c7ccc4[nH]7)C=C6)C=C5)cc3)Cc3c2[nH]c2ccccc32)cc1
REMARK SMILES IDX 18 1 17 2 16 3 15 4 13 5 14 6 12 7 10 8 11 9 92 10 91 13
REMARK SMILES IDX 93 14 90 15 99 16 94 17 98 19 95 20 97 21 96 22 9 23 6 24
REMARK SMILES IDX 7 25 101 26 8 27 100 28 3 29 2 30 1 31 4 32 5 33 19 34 20 35
REMARK SMILES IDX 21 36 22 37 23 38 24 39 25 40 89 41 26 42 88 43 27 44 28 45
REMARK SMILES IDX 29 46 82 47 30 48 87 49 81 50 83 51 31 52 86 53 80 54 79 55
REMARK SMILES IDX 32 57 66 58 45 59 65 60 46 61 49 62 64 63 84 64 47 65 48 66
REMARK SMILES IDX 63 68 85 69 50 70 33 71 34 72 43 73 35 74 36 75 42 76 44 77
REMARK SMILES IDX 37 78 38 79 39 80 40 81 41 82 67 83 68 84 77 85 69 86 70 87
REMARK SMILES IDX 76 88 78 89 71 90 72 91 73 92 74 93 75 94 51 95 52 96 61 97
REMARK SMILES IDX 53 98 54 99 60 100 62 101 55 102 56 103 57 104 58 105 59 106
REMARK H PARENT 11 11 11 12 93 18 83 56 49 67
REMARK Flexibility Score: inf
ROOT
ATOM      1  O   UNL A   1      41.078  21.940  25.928  1.00  0.00    -0.374 OA
ENDROOT
BRANCH   1   2
ATOM      2  C   UNL A   1      40.230  22.608  26.847  1.00  0.00     0.202 C 
BRANCH   2   3
ATOM      3  C   UNL A   1      39.090  23.512  26.361  1.00  0.00     0.261 C 
BRANCH   3   4
ATOM      4  O   UNL A   1      37.747  23.027  26.487  1.00  0.00    -0.459 OA
BRANCH   4   5
ATOM      5  C   UNL A   1      36.969  23.380  25.423  1.00  0.00     0.365 C 
ATOM      6  O   UNL A   1      37.408  23.643  24.305  1.00  0.00    -0.245 OA
BRANCH   5   7
ATOM      7  C   UNL A   1      35.513  23.628  25.791  1.00  0.00     0.298 C 
ATOM      8  C   UNL A   1      33.991  22.436  24.109  1.00  0.00     0.262 C 
ATOM      9  N   UNL A   1      34.758  22.435  25.392  1.00  0.00    -0.323 N 
ATOM     10  C   UNL A   1      33.414  23.804  23.905  1.00  0.00     0.083 A 
ATOM     11  H   UNL A   1      35.427  21.668  25.335  1.00  0.00     0.347 HD
ATOM     12  H   UNL A   1      34.029  22.369  26.102  1.00  0.00     0.347 HD
ATOM     13  C   UNL A   1      33.621  24.882  24.742  1.00  0.00    -0.006 A 
ATOM     14  N   UNL A   1      32.408  24.191  23.052  1.00  0.00    -0.353 N 
ATOM     15  C   UNL A   1      34.893  25.006  25.508  1.00  0.00     0.115 C 
ATOM     16  C   UNL A   1      32.282  25.309  24.974  1.00  0.00     0.003 A 
ATOM     17  C   UNL A   1      31.570  25.000  23.807  1.00  0.00     0.046 A 
ATOM     18  H   UNL A   1      32.304  23.947  22.104  1.00  0.00     0.166 HD
ATOM     19  C   UNL A   1      31.561  25.799  26.082  1.00  0.00     0.010 A 
ATOM     20  C   UNL A   1      30.224  25.329  23.620  1.00  0.00     0.026 A 
ATOM     21  C   UNL A   1      30.174  25.970  25.966  1.00  0.00     0.001 A 
ATOM     22  C   UNL A   1      29.528  25.788  24.742  1.00  0.00     0.002 A 
BRANCH   8  23
ATOM     23  C   UNL A   1      32.939  21.323  24.432  1.00  0.00     0.016 A 
ATOM     24  C   UNL A   1      32.690  18.513  24.695  1.00  0.00     0.037 A 
ATOM     25  C   UNL A   1      32.793  19.332  25.818  1.00  0.00     0.026 A 
ATOM     26  C   UNL A   1      32.451  19.150  23.470  1.00  0.00     0.026 A 
ATOM     27  C   UNL A   1      32.900  20.720  25.697  1.00  0.00     0.012 A 
ATOM     28  C   UNL A   1      32.526  20.543  23.338  1.00  0.00     0.012 A 
BRANCH  24  29
ATOM     29  N   UNL A   1      32.911  17.143  24.758  1.00  0.00    -0.372 N 
BRANCH  29  30
ATOM     30  C   UNL A   1      34.225  16.632  24.333  1.00  0.00     0.113 C 
ATOM     31  C   UNL A   1      34.407  16.623  22.823  1.00  0.00     0.027 C 
ENDBRANCH  29  30
BRANCH  29  32
ATOM     32  C   UNL A   1      32.093  16.306  25.634  1.00  0.00     0.113 C 
ATOM     33  C   UNL A   1      32.463  14.827  25.598  1.00  0.00     0.027 C 
ENDBRANCH  29  32
ENDBRANCH  24  29
ENDBRANCH   8  23
ENDBRANCH   5   7
ENDBRANCH   4   5
ENDBRANCH   3   4
ENDBRANCH   2   3
ENDBRANCH   1   2
BRANCH   1  34
ATOM     34  C   UNL A   1      42.431  22.345  25.802  1.00  0.00     0.202 C 
BRANCH  34  35
ATOM     35  C   UNL A   1      43.005  23.444  26.708  1.00  0.00     0.261 C 
BRANCH  35  36
ATOM     36  O   UNL A   1      43.379  24.660  26.055  1.00  0.00    -0.460 OA
BRANCH  36  37
ATOM     37  C   UNL A   1      42.387  25.590  26.039  1.00  0.00     0.338 C 
ATOM     38  O   UNL A   1      41.590  25.796  25.141  1.00  0.00    -0.246 OA
BRANCH  37  39
ATOM     39  C   UNL A   1      42.304  26.275  27.345  1.00  0.00     0.060 A 
ATOM     40  C   UNL A   1      41.218  25.954  28.167  1.00  0.00     0.016 A 
ATOM     41  C   UNL A   1      43.206  27.273  27.720  1.00  0.00     0.016 A 
ATOM     42  C   UNL A   1      40.996  26.672  29.339  1.00  0.00     0.010 A 
ATOM     43  C   UNL A   1      42.980  27.997  28.898  1.00  0.00     0.010 A 
ATOM     44  C   UNL A   1      41.853  27.726  29.692  1.00  0.00    -0.014 A 
BRANCH  44  45
ATOM     45  C   UNL A   1      41.480  28.596  30.834  1.00  0.00     0.031 A 
ATOM     46  C   UNL A   1      42.269  28.523  32.113  1.00  0.00     0.074 A 
ATOM     47  C   UNL A   1      40.490  29.498  30.702  1.00  0.00     0.049 A 
ATOM     48  N   UNL A   1      42.167  29.257  33.191  1.00  0.00    -0.248 NA
ATOM     49  C   UNL A   1      43.310  27.486  32.187  1.00  0.00     0.031 C 
ATOM     50  C   UNL A   1      39.660  29.672  29.510  1.00  0.00     0.029 A 
ATOM     51  N   UNL A   1      40.024  30.445  31.578  1.00  0.00    -0.354 N 
ATOM     52  C   UNL A   1      43.134  28.780  34.069  1.00  0.00     0.074 A 
ATOM     53  C   UNL A   1      43.786  27.667  33.412  1.00  0.00     0.031 C 
ATOM     54  C   UNL A   1      38.790  30.672  29.727  1.00  0.00     0.029 A 
ATOM     55  C   UNL A   1      38.992  31.200  31.075  1.00  0.00     0.049 A 
ATOM     56  H   UNL A   1      40.394  30.572  32.481  1.00  0.00     0.167 HD
ATOM     57  C   UNL A   1      43.459  29.236  35.302  1.00  0.00     0.037 A 
ATOM     58  C   UNL A   1      38.292  32.205  31.637  1.00  0.00     0.037 A 
ATOM     59  C   UNL A   1      42.809  30.344  35.957  1.00  0.00     0.049 A 
ATOM     60  C   UNL A   1      38.655  32.677  33.019  1.00  0.00     0.074 A 
ATOM     61  C   UNL A   1      43.085  30.896  37.196  1.00  0.00     0.029 A 
ATOM     62  N   UNL A   1      41.751  31.067  35.426  1.00  0.00    -0.354 N 
ATOM     63  N   UNL A   1      39.599  32.241  33.820  1.00  0.00    -0.248 NA
ATOM     64  C   UNL A   1      37.868  33.790  33.566  1.00  0.00     0.031 C 
ATOM     65  C   UNL A   1      42.165  31.926  37.432  1.00  0.00     0.029 A 
ATOM     66  C   UNL A   1      41.347  32.044  36.322  1.00  0.00     0.049 A 
ATOM     67  H   UNL A   1      41.345  30.908  34.543  1.00  0.00     0.167 HD
ATOM     68  C   UNL A   1      39.529  33.036  34.958  1.00  0.00     0.074 A 
ATOM     69  C   UNL A   1      38.464  33.994  34.733  1.00  0.00     0.031 C 
ATOM     70  C   UNL A   1      40.277  32.982  36.089  1.00  0.00     0.037 A 
BRANCH  57  71
ATOM     71  C   UNL A   1      44.563  28.526  36.036  1.00  0.00     0.058 A 
ATOM     72  C   UNL A   1      44.302  27.446  36.893  1.00  0.00     0.135 A 
ATOM     73  C   UNL A   1      45.902  28.909  35.853  1.00  0.00     0.135 A 
ATOM     74  F   UNL A   1      43.039  27.049  37.116  1.00  0.00    -0.206 F 
ATOM     75  C   UNL A   1      45.327  26.785  37.563  1.00  0.00     0.059 A 
ATOM     76  C   UNL A   1      46.945  28.248  36.495  1.00  0.00     0.059 A 
ATOM     77  F   UNL A   1      46.206  29.938  35.046  1.00  0.00    -0.206 F 
ATOM     78  C   UNL A   1      46.646  27.194  37.358  1.00  0.00     0.060 A 
BRANCH  78  79
ATOM     79  S   UNL A   1      47.967  26.325  38.230  1.00  0.00     0.124 S 
ATOM     80  O   UNL A   1      47.265  25.841  39.414  1.00  0.00    -0.237 OA
ATOM     81  O   UNL A   1      48.361  25.303  37.265  1.00  0.00    -0.237 OA
ATOM     82  O   UNL A   1      48.960  27.369  38.470  1.00  0.00    -0.744 OA
ENDBRANCH  78  79
ENDBRANCH  57  71
BRANCH  58  83
ATOM     83  C   UNL A   1      37.178  32.839  30.886  1.00  0.00     0.058 A 
ATOM     84  C   UNL A   1      37.427  33.735  29.835  1.00  0.00     0.135 A 
ATOM     85  C   UNL A   1      35.841  32.556  31.203  1.00  0.00     0.135 A 
ATOM     86  F   UNL A   1      38.690  34.043  29.502  1.00  0.00    -0.206 F 
ATOM     87  C   UNL A   1      36.389  34.340  29.134  1.00  0.00     0.059 A 
ATOM     88  C   UNL A   1      34.787  33.130  30.502  1.00  0.00     0.059 A 
ATOM     89  F   UNL A   1      35.552  31.696  32.191  1.00  0.00    -0.206 F 
ATOM     90  C   UNL A   1      35.071  34.029  29.474  1.00  0.00     0.060 A 
BRANCH  90  91
ATOM     91  S   UNL A   1      33.728  34.775  28.525  1.00  0.00     0.124 S 
ATOM     92  O   UNL A   1      33.685  33.913  27.350  1.00  0.00    -0.237 OA
ATOM     93  O   UNL A   1      32.600  34.660  29.443  1.00  0.00    -0.237 OA
ATOM     94  O   UNL A   1      34.200  36.137  28.295  1.00  0.00    -0.744 OA
ENDBRANCH  90  91
ENDBRANCH  58  83
BRANCH  70  95
ATOM     95  C   UNL A   1      39.974  33.997  37.156  1.00  0.00     0.058 A 
ATOM     96  C   UNL A   1      40.507  35.295  37.111  1.00  0.00     0.135 A 
ATOM     97  C   UNL A   1      39.143  33.667  38.240  1.00  0.00     0.135 A 
ATOM     98  F   UNL A   1      41.310  35.660  36.098  1.00  0.00    -0.206 F 
ATOM     99  C   UNL A   1      40.266  36.217  38.125  1.00  0.00     0.059 A 
ATOM    100  C   UNL A   1      38.865  34.583  39.252  1.00  0.00     0.059 A 
ATOM    101  F   UNL A   1      38.595  32.446  38.325  1.00  0.00    -0.206 F 
ATOM    102  C   UNL A   1      39.450  35.848  39.196  1.00  0.00     0.060 A 
BRANCH 102 103
ATOM    103  S   UNL A   1      39.154  37.042  40.516  1.00  0.00     0.124 S 
ATOM    104  O   UNL A   1      40.516  37.376  40.920  1.00  0.00    -0.237 OA
ATOM    105  O   UNL A   1      38.419  38.100  39.829  1.00  0.00    -0.237 OA
ATOM    106  O   UNL A   1      38.378  36.283  41.492  1.00  0.00    -0.744 OA
ENDBRANCH 102 103
ENDBRANCH  70  95
ENDBRANCH  44  45
ENDBRANCH  37  39
ENDBRANCH  36  37
ENDBRANCH  35  36
ENDBRANCH  34  35
ENDBRANCH   1  34
TORSDOF 21
ENDMDL
