MODEL 1
REMARK VINA RESULT:     -11.9      0.000      0.000
REMARK SMILES O=C(OCCOCCOC(=O)c1ccc(-c2c3nc(c(-c4c(F)cc(S(=O)(=O)[O-])cc4F)c4ccc([nH]4)c(-c4c(F)cc(S(=O)(=O)[O-])cc4F)c4nc(c(-c5c(F)cc(S(=O)(=O)[O-])cc5F)c5ccc2[nH]5)C=C4)C=C3)cc1)c1ccc(NC(=O)[C@@H]2CC=CC[C@H]2C(=O)Nc2cccc([N+](=O)[O-])c2)cc1
REMARK SMILES IDX 5 1 4 2 3 3 2 4 1 5 78 6 79 7 104 8 80 9 103 10 81 11 82 12
REMARK SMILES IDX 83 13 84 15 85 16 86 17 90 18 87 19 89 20 88 21 91 22 92 23
REMARK SMILES IDX 93 24 94 26 95 27 102 28 96 29 98 30 97 31 99 32 100 33
REMARK SMILES IDX 101 34 6 35 7 36 8 37 9 38 10 39 11 40 12 41 13 42 77 43
REMARK SMILES IDX 14 44 76 45 15 46 16 47 17 48 70 49 18 50 75 51 69 52 71 53
REMARK SMILES IDX 19 54 74 55 68 56 67 57 20 59 54 60 33 61 53 62 34 63 37 64
REMARK SMILES IDX 52 65 72 66 35 67 36 68 51 70 73 71 38 72 21 73 22 74 31 75
REMARK SMILES IDX 23 76 24 77 30 78 32 79 25 80 26 81 27 82 28 83 29 84 55 85
REMARK SMILES IDX 56 86 65 87 57 88 58 89 64 90 66 91 59 92 60 93 61 94 62 95
REMARK SMILES IDX 63 96 39 97 40 98 49 99 41 100 42 101 48 102 50 103 43 104
REMARK SMILES IDX 44 105 45 106 46 107 47 108
REMARK H PARENT 82 14 93 25 71 58 37 69
REMARK Flexibility Score: inf
ROOT
ATOM      1  C   UNL A   1      33.660  32.347  27.877  1.00  0.00     0.202 C 
ENDROOT
BRANCH   1   2
ATOM      2  C   UNL A   1      34.420  31.079  27.499  1.00  0.00     0.261 C 
BRANCH   2   3
ATOM      3  O   UNL A   1      33.533  29.933  27.479  1.00  0.00    -0.460 OA
BRANCH   3   4
ATOM      4  C   UNL A   1      32.980  29.418  26.349  1.00  0.00     0.338 C 
ATOM      5  O   UNL A   1      32.756  30.092  25.352  1.00  0.00    -0.246 OA
BRANCH   4   6
ATOM      6  C   UNL A   1      32.632  27.989  26.363  1.00  0.00     0.060 A 
ATOM      7  C   UNL A   1      33.622  27.040  26.125  1.00  0.00     0.018 A 
ATOM      8  C   UNL A   1      31.311  27.591  26.564  1.00  0.00     0.018 A 
ATOM      9  C   UNL A   1      33.271  25.712  25.912  1.00  0.00     0.027 A 
ATOM     10  C   UNL A   1      30.973  26.246  26.389  1.00  0.00     0.027 A 
ATOM     11  C   UNL A   1      31.939  25.324  25.963  1.00  0.00     0.041 A 
BRANCH  11  12
ATOM     12  N   UNL A   1      31.523  24.030  25.642  1.00  0.00    -0.326 N 
ATOM     13  C   UNL A   1      32.213  22.884  25.376  1.00  0.00     0.228 C 
ATOM     14  H   UNL A   1      30.545  23.925  25.600  1.00  0.00     0.169 HD
ATOM     15  O   UNL A   1      31.546  21.843  25.310  1.00  0.00    -0.274 OA
BRANCH  13  16
ATOM     16  C   UNL A   1      33.705  22.820  25.022  1.00  0.00     0.095 C 
ATOM     17  C   UNL A   1      34.664  22.966  26.211  1.00  0.00     0.041 C 
ATOM     18  C   UNL A   1      34.131  23.574  23.751  1.00  0.00     0.095 C 
ATOM     19  C   UNL A   1      36.103  23.072  25.803  1.00  0.00    -0.030 C 
ATOM     20  C   UNL A   1      35.597  23.311  23.361  1.00  0.00     0.041 C 
ATOM     21  C   UNL A   1      36.519  23.215  24.537  1.00  0.00    -0.030 C 
BRANCH  18  22
ATOM     22  C   UNL A   1      33.166  23.457  22.557  1.00  0.00     0.228 C 
ATOM     23  O   UNL A   1      32.901  22.335  22.104  1.00  0.00    -0.274 OA
ATOM     24  N   UNL A   1      32.479  24.491  21.987  1.00  0.00    -0.326 N 
ATOM     25  H   UNL A   1      31.892  24.227  21.242  1.00  0.00     0.169 HD
BRANCH  24  26
ATOM     26  C   UNL A   1      32.464  25.857  22.279  1.00  0.00     0.048 A 
ATOM     27  C   UNL A   1      33.694  26.515  22.355  1.00  0.00     0.026 A 
ATOM     28  C   UNL A   1      31.289  26.570  22.481  1.00  0.00     0.111 A 
ATOM     29  C   UNL A   1      33.742  27.907  22.470  1.00  0.00     0.009 A 
ATOM     30  C   UNL A   1      31.333  27.967  22.555  1.00  0.00     0.271 A 
ATOM     31  C   UNL A   1      32.559  28.643  22.536  1.00  0.00     0.086 A 
BRANCH  30  32
ATOM     32  N   UNL A   1      30.079  28.729  22.614  1.00  0.00     0.062 N 
ATOM     33  O   UNL A   1      29.505  28.808  23.710  1.00  0.00    -0.258 OA
ATOM     34  O   UNL A   1      29.670  29.250  21.569  1.00  0.00    -0.258 OA
ENDBRANCH  30  32
ENDBRANCH  24  26
ENDBRANCH  18  22
ENDBRANCH  13  16
ENDBRANCH  11  12
ENDBRANCH   4   6
ENDBRANCH   3   4
ENDBRANCH   2   3
ENDBRANCH   1   2
BRANCH   1  35
ATOM     35  O   UNL A   1      34.498  33.500  27.837  1.00  0.00    -0.374 OA
BRANCH  35  36
ATOM     36  C   UNL A   1      33.957  34.656  28.488  1.00  0.00     0.202 C 
BRANCH  36  37
ATOM     37  C   UNL A   1      33.965  34.399  29.999  1.00  0.00     0.261 C 
BRANCH  37  38
ATOM     38  O   UNL A   1      35.264  33.900  30.351  1.00  0.00    -0.460 OA
BRANCH  38  39
ATOM     39  C   UNL A   1      35.266  32.757  31.080  1.00  0.00     0.338 C 
ATOM     40  O   UNL A   1      34.346  32.308  31.740  1.00  0.00    -0.246 OA
BRANCH  39  41
ATOM     41  C   UNL A   1      36.528  32.032  30.795  1.00  0.00     0.060 A 
ATOM     42  C   UNL A   1      37.130  31.291  31.824  1.00  0.00     0.016 A 
ATOM     43  C   UNL A   1      37.089  32.036  29.513  1.00  0.00     0.016 A 
ATOM     44  C   UNL A   1      38.319  30.598  31.584  1.00  0.00     0.010 A 
ATOM     45  C   UNL A   1      38.263  31.335  29.270  1.00  0.00     0.010 A 
ATOM     46  C   UNL A   1      38.903  30.647  30.313  1.00  0.00    -0.014 A 
BRANCH  46  47
ATOM     47  C   UNL A   1      40.276  30.164  30.060  1.00  0.00     0.031 A 
ATOM     48  C   UNL A   1      41.372  31.189  30.019  1.00  0.00     0.074 A 
ATOM     49  C   UNL A   1      40.510  28.884  29.731  1.00  0.00     0.049 A 
ATOM     50  N   UNL A   1      42.593  31.084  29.570  1.00  0.00    -0.248 NA
ATOM     51  C   UNL A   1      41.023  32.529  30.521  1.00  0.00     0.031 C 
ATOM     52  C   UNL A   1      39.512  27.815  29.734  1.00  0.00     0.029 A 
ATOM     53  N   UNL A   1      41.655  28.281  29.278  1.00  0.00    -0.354 N 
ATOM     54  C   UNL A   1      43.146  32.353  29.695  1.00  0.00     0.074 A 
ATOM     55  C   UNL A   1      42.123  33.213  30.249  1.00  0.00     0.031 C 
ATOM     56  C   UNL A   1      40.080  26.692  29.260  1.00  0.00     0.029 A 
ATOM     57  C   UNL A   1      41.465  26.978  28.886  1.00  0.00     0.049 A 
ATOM     58  H   UNL A   1      42.526  28.736  29.238  1.00  0.00     0.167 HD
ATOM     59  C   UNL A   1      44.393  32.763  29.368  1.00  0.00     0.037 A 
ATOM     60  C   UNL A   1      42.303  26.130  28.257  1.00  0.00     0.037 A 
ATOM     61  C   UNL A   1      45.396  31.892  28.820  1.00  0.00     0.049 A 
ATOM     62  C   UNL A   1      43.691  26.596  27.910  1.00  0.00     0.074 A 
ATOM     63  C   UNL A   1      46.707  32.183  28.493  1.00  0.00     0.029 A 
ATOM     64  N   UNL A   1      45.189  30.555  28.509  1.00  0.00    -0.354 N 
ATOM     65  N   UNL A   1      44.223  27.786  28.071  1.00  0.00    -0.248 NA
ATOM     66  C   UNL A   1      44.593  25.610  27.302  1.00  0.00     0.031 C 
ATOM     67  C   UNL A   1      47.285  31.027  27.954  1.00  0.00     0.029 A 
ATOM     68  C   UNL A   1      46.345  30.007  27.983  1.00  0.00     0.049 A 
ATOM     69  H   UNL A   1      44.344  30.068  28.643  1.00  0.00     0.167 HD
ATOM     70  C   UNL A   1      45.529  27.686  27.605  1.00  0.00     0.074 A 
ATOM     71  C   UNL A   1      45.707  26.318  27.157  1.00  0.00     0.031 C 
ATOM     72  C   UNL A   1      46.496  28.636  27.558  1.00  0.00     0.037 A 
BRANCH  59  73
ATOM     73  C   UNL A   1      44.707  34.219  29.566  1.00  0.00     0.058 A 
ATOM     74  C   UNL A   1      45.176  34.714  30.795  1.00  0.00     0.135 A 
ATOM     75  C   UNL A   1      44.494  35.139  28.528  1.00  0.00     0.135 A 
ATOM     76  F   UNL A   1      45.375  33.879  31.828  1.00  0.00    -0.206 F 
ATOM     77  C   UNL A   1      45.371  36.075  31.004  1.00  0.00     0.059 A 
ATOM     78  C   UNL A   1      44.709  36.503  28.706  1.00  0.00     0.059 A 
ATOM     79  F   UNL A   1      44.044  34.721  27.335  1.00  0.00    -0.206 F 
ATOM     80  C   UNL A   1      45.122  36.963  29.956  1.00  0.00     0.060 A 
BRANCH  80  81
ATOM     81  S   UNL A   1      45.330  38.732  30.250  1.00  0.00     0.124 S 
ATOM     82  O   UNL A   1      44.072  39.064  30.910  1.00  0.00    -0.237 OA
ATOM     83  O   UNL A   1      46.519  38.774  31.096  1.00  0.00    -0.237 OA
ATOM     84  O   UNL A   1      45.501  39.280  28.908  1.00  0.00    -0.744 OA
ENDBRANCH  80  81
ENDBRANCH  59  73
BRANCH  60  85
ATOM     85  C   UNL A   1      41.834  24.761  27.924  1.00  0.00     0.058 A 
ATOM     86  C   UNL A   1      41.042  24.530  26.791  1.00  0.00     0.135 A 
ATOM     87  C   UNL A   1      42.236  23.650  28.682  1.00  0.00     0.135 A 
ATOM     88  F   UNL A   1      40.627  25.562  26.041  1.00  0.00    -0.206 F 
ATOM     89  C   UNL A   1      40.674  23.243  26.411  1.00  0.00     0.059 A 
ATOM     90  C   UNL A   1      41.896  22.352  28.312  1.00  0.00     0.059 A 
ATOM     91  F   UNL A   1      43.006  23.820  29.768  1.00  0.00    -0.206 F 
ATOM     92  C   UNL A   1      41.117  22.158  27.171  1.00  0.00     0.060 A 
BRANCH  92  93
ATOM     93  S   UNL A   1      40.731  20.488  26.601  1.00  0.00     0.124 S 
ATOM     94  O   UNL A   1      39.438  20.688  25.958  1.00  0.00    -0.237 OA
ATOM     95  O   UNL A   1      41.851  20.203  25.710  1.00  0.00    -0.237 OA
ATOM     96  O   UNL A   1      40.710  19.710  27.836  1.00  0.00    -0.744 OA
ENDBRANCH  92  93
ENDBRANCH  60  85
BRANCH  72  97
ATOM     97  C   UNL A   1      47.847  28.230  27.046  1.00  0.00     0.058 A 
ATOM     98  C   UNL A   1      48.871  27.819  27.913  1.00  0.00     0.135 A 
ATOM     99  C   UNL A   1      48.084  28.158  25.664  1.00  0.00     0.135 A 
ATOM    100  F   UNL A   1      48.694  27.875  29.242  1.00  0.00    -0.206 F 
ATOM    101  C   UNL A   1      50.087  27.353  27.425  1.00  0.00     0.059 A 
ATOM    102  C   UNL A   1      49.284  27.676  25.154  1.00  0.00     0.059 A 
ATOM    103  F   UNL A   1      47.130  28.531  24.795  1.00  0.00    -0.206 F 
ATOM    104  C   UNL A   1      50.282  27.279  26.044  1.00  0.00     0.060 A 
BRANCH 104 105
ATOM    105  S   UNL A   1      51.838  26.608  25.420  1.00  0.00     0.124 S 
ATOM    106  O   UNL A   1      52.810  27.519  26.016  1.00  0.00    -0.237 OA
ATOM    107  O   UNL A   1      51.832  25.250  25.954  1.00  0.00    -0.237 OA
ATOM    108  O   UNL A   1      51.692  26.706  23.971  1.00  0.00    -0.744 OA
ENDBRANCH 104 105
ENDBRANCH  72  97
ENDBRANCH  46  47
ENDBRANCH  39  41
ENDBRANCH  38  39
ENDBRANCH  37  38
ENDBRANCH  36  37
ENDBRANCH  35  36
ENDBRANCH   1  35
TORSDOF 22
ENDMDL
MODEL 2
REMARK VINA RESULT:     -11.7      5.759     10.144
REMARK SMILES O=C(OCCOCCOC(=O)c1ccc(-c2c3nc(c(-c4c(F)cc(S(=O)(=O)[O-])cc4F)c4ccc([nH]4)c(-c4c(F)cc(S(=O)(=O)[O-])cc4F)c4nc(c(-c5c(F)cc(S(=O)(=O)[O-])cc5F)c5ccc2[nH]5)C=C4)C=C3)cc1)c1ccc(NC(=O)[C@@H]2CC=CC[C@H]2C(=O)Nc2cccc([N+](=O)[O-])c2)cc1
REMARK SMILES IDX 5 1 4 2 3 3 2 4 1 5 78 6 79 7 104 8 80 9 103 10 81 11 82 12
REMARK SMILES IDX 83 13 84 15 85 16 86 17 90 18 87 19 89 20 88 21 91 22 92 23
REMARK SMILES IDX 93 24 94 26 95 27 102 28 96 29 98 30 97 31 99 32 100 33
REMARK SMILES IDX 101 34 6 35 7 36 8 37 9 38 10 39 11 40 12 41 13 42 77 43
REMARK SMILES IDX 14 44 76 45 15 46 16 47 17 48 70 49 18 50 75 51 69 52 71 53
REMARK SMILES IDX 19 54 74 55 68 56 67 57 20 59 54 60 33 61 53 62 34 63 37 64
REMARK SMILES IDX 52 65 72 66 35 67 36 68 51 70 73 71 38 72 21 73 22 74 31 75
REMARK SMILES IDX 23 76 24 77 30 78 32 79 25 80 26 81 27 82 28 83 29 84 55 85
REMARK SMILES IDX 56 86 65 87 57 88 58 89 64 90 66 91 59 92 60 93 61 94 62 95
REMARK SMILES IDX 63 96 39 97 40 98 49 99 41 100 42 101 48 102 50 103 43 104
REMARK SMILES IDX 44 105 45 106 46 107 47 108
REMARK H PARENT 82 14 93 25 71 58 37 69
REMARK Flexibility Score: inf
ROOT
ATOM      1  C   UNL A   1      31.771  30.695  26.372  1.00  0.00     0.202 C 
ENDROOT
BRANCH   1   2
ATOM      2  C   UNL A   1      31.957  29.670  25.257  1.00  0.00     0.261 C 
BRANCH   2   3
ATOM      3  O   UNL A   1      30.743  29.527  24.480  1.00  0.00    -0.460 OA
BRANCH   3   4
ATOM      4  C   UNL A   1      30.685  28.929  23.261  1.00  0.00     0.338 C 
ATOM      5  O   UNL A   1      30.317  29.515  22.251  1.00  0.00    -0.246 OA
BRANCH   4   6
ATOM      6  C   UNL A   1      31.072  27.512  23.188  1.00  0.00     0.060 A 
ATOM      7  C   UNL A   1      32.211  27.148  22.477  1.00  0.00     0.018 A 
ATOM      8  C   UNL A   1      30.276  26.537  23.787  1.00  0.00     0.018 A 
ATOM      9  C   UNL A   1      32.462  25.807  22.211  1.00  0.00     0.027 A 
ATOM     10  C   UNL A   1      30.560  25.188  23.548  1.00  0.00     0.027 A 
ATOM     11  C   UNL A   1      31.595  24.828  22.676  1.00  0.00     0.041 A 
BRANCH  11  12
ATOM     12  N   UNL A   1      31.738  23.480  22.339  1.00  0.00    -0.326 N 
ATOM     13  C   UNL A   1      32.524  22.486  22.842  1.00  0.00     0.228 C 
ATOM     14  H   UNL A   1      31.161  23.193  21.594  1.00  0.00     0.169 HD
ATOM     15  O   UNL A   1      32.281  21.338  22.446  1.00  0.00    -0.274 OA
BRANCH  13  16
ATOM     16  C   UNL A   1      33.751  22.706  23.737  1.00  0.00     0.095 C 
ATOM     17  C   UNL A   1      35.014  23.181  23.007  1.00  0.00     0.041 C 
ATOM     18  C   UNL A   1      33.992  21.647  24.826  1.00  0.00     0.095 C 
ATOM     19  C   UNL A   1      36.230  23.215  23.885  1.00  0.00    -0.030 C 
ATOM     20  C   UNL A   1      35.125  22.030  25.796  1.00  0.00     0.041 C 
ATOM     21  C   UNL A   1      36.277  22.715  25.127  1.00  0.00    -0.030 C 
BRANCH  18  22
ATOM     22  C   UNL A   1      32.731  21.144  25.551  1.00  0.00     0.228 C 
ATOM     23  O   UNL A   1      32.050  21.947  26.202  1.00  0.00    -0.274 OA
ATOM     24  N   UNL A   1      32.221  19.879  25.470  1.00  0.00    -0.326 N 
ATOM     25  H   UNL A   1      31.395  19.740  25.989  1.00  0.00     0.169 HD
BRANCH  24  26
ATOM     26  C   UNL A   1      32.666  18.750  24.780  1.00  0.00     0.048 A 
ATOM     27  C   UNL A   1      32.497  18.730  23.393  1.00  0.00     0.026 A 
ATOM     28  C   UNL A   1      33.271  17.671  25.415  1.00  0.00     0.111 A 
ATOM     29  C   UNL A   1      33.074  17.713  22.628  1.00  0.00     0.009 A 
ATOM     30  C   UNL A   1      33.884  16.674  24.647  1.00  0.00     0.271 A 
ATOM     31  C   UNL A   1      33.801  16.698  23.250  1.00  0.00     0.086 A 
BRANCH  30  32
ATOM     32  N   UNL A   1      34.654  15.617  25.315  1.00  0.00     0.062 N 
ATOM     33  O   UNL A   1      34.111  14.511  25.457  1.00  0.00    -0.258 OA
ATOM     34  O   UNL A   1      35.800  15.889  25.696  1.00  0.00    -0.258 OA
ENDBRANCH  30  32
ENDBRANCH  24  26
ENDBRANCH  18  22
ENDBRANCH  13  16
ENDBRANCH  11  12
ENDBRANCH   4   6
ENDBRANCH   3   4
ENDBRANCH   2   3
ENDBRANCH   1   2
BRANCH   1  35
ATOM     35  O   UNL A   1      32.675  30.474  27.453  1.00  0.00    -0.374 OA
BRANCH  35  36
ATOM     36  C   UNL A   1      34.053  30.698  27.135  1.00  0.00     0.202 C 
BRANCH  36  37
ATOM     37  C   UNL A   1      34.511  31.964  27.867  1.00  0.00     0.261 C 
BRANCH  37  38
ATOM     38  O   UNL A   1      33.413  32.887  27.873  1.00  0.00    -0.460 OA
BRANCH  38  39
ATOM     39  C   UNL A   1      33.550  33.944  28.712  1.00  0.00     0.338 C 
ATOM     40  O   UNL A   1      32.757  34.853  28.879  1.00  0.00    -0.246 OA
BRANCH  39  41
ATOM     41  C   UNL A   1      34.755  33.717  29.546  1.00  0.00     0.060 A 
ATOM     42  C   UNL A   1      35.970  34.293  29.148  1.00  0.00     0.016 A 
ATOM     43  C   UNL A   1      34.682  32.984  30.737  1.00  0.00     0.016 A 
ATOM     44  C   UNL A   1      37.123  34.097  29.914  1.00  0.00     0.010 A 
ATOM     45  C   UNL A   1      35.824  32.801  31.506  1.00  0.00     0.010 A 
ATOM     46  C   UNL A   1      37.054  33.321  31.078  1.00  0.00    -0.014 A 
BRANCH  46  47
ATOM     47  C   UNL A   1      38.266  32.857  31.785  1.00  0.00     0.031 A 
ATOM     48  C   UNL A   1      38.971  31.653  31.230  1.00  0.00     0.074 A 
ATOM     49  C   UNL A   1      38.633  33.397  32.958  1.00  0.00     0.049 A 
ATOM     50  N   UNL A   1      39.878  30.893  31.780  1.00  0.00    -0.248 NA
ATOM     51  C   UNL A   1      38.561  31.230  29.880  1.00  0.00     0.031 C 
ATOM     52  C   UNL A   1      38.008  34.561  33.583  1.00  0.00     0.029 A 
ATOM     53  N   UNL A   1      39.587  32.997  33.856  1.00  0.00    -0.354 N 
ATOM     54  C   UNL A   1      40.118  29.877  30.863  1.00  0.00     0.074 A 
ATOM     55  C   UNL A   1      39.253  30.111  29.728  1.00  0.00     0.031 C 
ATOM     56  C   UNL A   1      38.569  34.758  34.789  1.00  0.00     0.029 A 
ATOM     57  C   UNL A   1      39.561  33.710  35.031  1.00  0.00     0.049 A 
ATOM     58  H   UNL A   1      40.228  32.272  33.678  1.00  0.00     0.167 HD
ATOM     59  C   UNL A   1      40.979  28.839  30.965  1.00  0.00     0.037 A 
ATOM     60  C   UNL A   1      40.230  33.508  36.183  1.00  0.00     0.037 A 
ATOM     61  C   UNL A   1      41.833  28.625  32.101  1.00  0.00     0.049 A 
ATOM     62  C   UNL A   1      41.193  32.356  36.278  1.00  0.00     0.074 A 
ATOM     63  C   UNL A   1      42.778  27.635  32.297  1.00  0.00     0.029 A 
ATOM     64  N   UNL A   1      41.833  29.415  33.242  1.00  0.00    -0.354 N 
ATOM     65  N   UNL A   1      41.449  31.423  35.390  1.00  0.00    -0.248 NA
ATOM     66  C   UNL A   1      41.960  32.228  37.524  1.00  0.00     0.031 C 
ATOM     67  C   UNL A   1      43.329  27.809  33.572  1.00  0.00     0.029 A 
ATOM     68  C   UNL A   1      42.755  28.931  34.152  1.00  0.00     0.049 A 
ATOM     69  H   UNL A   1      41.262  30.205  33.382  1.00  0.00     0.167 HD
ATOM     70  C   UNL A   1      42.423  30.610  35.960  1.00  0.00     0.074 A 
ATOM     71  C   UNL A   1      42.711  31.163  37.270  1.00  0.00     0.031 C 
ATOM     72  C   UNL A   1      43.030  29.512  35.445  1.00  0.00     0.037 A 
BRANCH  59  73
ATOM     73  C   UNL A   1      40.998  27.853  29.831  1.00  0.00     0.058 A 
ATOM     74  C   UNL A   1      42.035  27.836  28.883  1.00  0.00     0.135 A 
ATOM     75  C   UNL A   1      39.942  26.944  29.663  1.00  0.00     0.135 A 
ATOM     76  F   UNL A   1      43.057  28.701  28.984  1.00  0.00    -0.206 F 
ATOM     77  C   UNL A   1      41.997  26.989  27.780  1.00  0.00     0.059 A 
ATOM     78  C   UNL A   1      39.898  26.067  28.583  1.00  0.00     0.059 A 
ATOM     79  F   UNL A   1      38.925  26.919  30.538  1.00  0.00    -0.206 F 
ATOM     80  C   UNL A   1      40.917  26.117  27.632  1.00  0.00     0.060 A 
BRANCH  80  81
ATOM     81  S   UNL A   1      40.852  25.056  26.173  1.00  0.00     0.124 S 
ATOM     82  O   UNL A   1      39.445  24.674  26.158  1.00  0.00    -0.237 OA
ATOM     83  O   UNL A   1      41.274  25.960  25.107  1.00  0.00    -0.237 OA
ATOM     84  O   UNL A   1      41.793  23.987  26.491  1.00  0.00    -0.744 OA
ENDBRANCH  80  81
ENDBRANCH  59  73
BRANCH  60  85
ATOM     85  C   UNL A   1      39.999  34.427  37.326  1.00  0.00     0.058 A 
ATOM     86  C   UNL A   1      39.004  34.155  38.276  1.00  0.00     0.135 A 
ATOM     87  C   UNL A   1      40.820  35.546  37.537  1.00  0.00     0.135 A 
ATOM     88  F   UNL A   1      38.190  33.102  38.111  1.00  0.00    -0.206 F 
ATOM     89  C   UNL A   1      38.838  34.954  39.403  1.00  0.00     0.059 A 
ATOM     90  C   UNL A   1      40.685  36.349  38.667  1.00  0.00     0.059 A 
ATOM     91  F   UNL A   1      41.795  35.839  36.663  1.00  0.00    -0.206 F 
ATOM     92  C   UNL A   1      39.692  36.041  39.597  1.00  0.00     0.060 A 
BRANCH  92  93
ATOM     93  S   UNL A   1      39.541  36.998  41.122  1.00  0.00     0.124 S 
ATOM     94  O   UNL A   1      38.732  36.111  41.948  1.00  0.00    -0.237 OA
ATOM     95  O   UNL A   1      40.935  37.152  41.525  1.00  0.00    -0.237 OA
ATOM     96  O   UNL A   1      38.885  38.227  40.682  1.00  0.00    -0.744 OA
ENDBRANCH  92  93
ENDBRANCH  60  85
BRANCH  72  97
ATOM     97  C   UNL A   1      44.095  28.853  36.272  1.00  0.00     0.058 A 
ATOM     98  C   UNL A   1      45.388  29.387  36.370  1.00  0.00     0.135 A 
ATOM     99  C   UNL A   1      43.785  27.728  37.053  1.00  0.00     0.135 A 
ATOM    100  F   UNL A   1      45.733  30.459  35.639  1.00  0.00    -0.206 F 
ATOM    101  C   UNL A   1      46.341  28.825  37.213  1.00  0.00     0.059 A 
ATOM    102  C   UNL A   1      44.715  27.162  37.917  1.00  0.00     0.059 A 
ATOM    103  F   UNL A   1      42.557  27.187  37.000  1.00  0.00    -0.206 F 
ATOM    104  C   UNL A   1      45.993  27.717  37.988  1.00  0.00     0.060 A 
BRANCH 104 105
ATOM    105  S   UNL A   1      47.214  27.036  39.130  1.00  0.00     0.124 S 
ATOM    106  O   UNL A   1      46.370  26.611  40.243  1.00  0.00    -0.237 OA
ATOM    107  O   UNL A   1      47.817  25.964  38.345  1.00  0.00    -0.237 OA
ATOM    108  O   UNL A   1      48.090  28.172  39.405  1.00  0.00    -0.744 OA
ENDBRANCH 104 105
ENDBRANCH  72  97
ENDBRANCH  46  47
ENDBRANCH  39  41
ENDBRANCH  38  39
ENDBRANCH  37  38
ENDBRANCH  36  37
ENDBRANCH  35  36
ENDBRANCH   1  35
TORSDOF 22
ENDMDL
MODEL 3
REMARK VINA RESULT:     -11.7      1.732      8.008
REMARK SMILES O=C(OCCOCCOC(=O)c1ccc(-c2c3nc(c(-c4c(F)cc(S(=O)(=O)[O-])cc4F)c4ccc([nH]4)c(-c4c(F)cc(S(=O)(=O)[O-])cc4F)c4nc(c(-c5c(F)cc(S(=O)(=O)[O-])cc5F)c5ccc2[nH]5)C=C4)C=C3)cc1)c1ccc(NC(=O)[C@@H]2CC=CC[C@H]2C(=O)Nc2cccc([N+](=O)[O-])c2)cc1
REMARK SMILES IDX 5 1 4 2 3 3 2 4 1 5 78 6 79 7 104 8 80 9 103 10 81 11 82 12
REMARK SMILES IDX 83 13 84 15 85 16 86 17 90 18 87 19 89 20 88 21 91 22 92 23
REMARK SMILES IDX 93 24 94 26 95 27 102 28 96 29 98 30 97 31 99 32 100 33
REMARK SMILES IDX 101 34 6 35 7 36 8 37 9 38 10 39 11 40 12 41 13 42 77 43
REMARK SMILES IDX 14 44 76 45 15 46 16 47 17 48 70 49 18 50 75 51 69 52 71 53
REMARK SMILES IDX 19 54 74 55 68 56 67 57 20 59 54 60 33 61 53 62 34 63 37 64
REMARK SMILES IDX 52 65 72 66 35 67 36 68 51 70 73 71 38 72 21 73 22 74 31 75
REMARK SMILES IDX 23 76 24 77 30 78 32 79 25 80 26 81 27 82 28 83 29 84 55 85
REMARK SMILES IDX 56 86 65 87 57 88 58 89 64 90 66 91 59 92 60 93 61 94 62 95
REMARK SMILES IDX 63 96 39 97 40 98 49 99 41 100 42 101 48 102 50 103 43 104
REMARK SMILES IDX 44 105 45 106 46 107 47 108
REMARK H PARENT 82 14 93 25 71 58 37 69
REMARK Flexibility Score: inf
ROOT
ATOM      1  C   UNL A   1      34.419  32.177  28.552  1.00  0.00     0.202 C 
ENDROOT
BRANCH   1   2
ATOM      2  C   UNL A   1      35.044  31.141  27.621  1.00  0.00     0.261 C 
BRANCH   2   3
ATOM      3  O   UNL A   1      34.264  29.920  27.611  1.00  0.00    -0.460 OA
BRANCH   3   4
ATOM      4  C   UNL A   1      33.343  29.613  26.659  1.00  0.00     0.338 C 
ATOM      5  O   UNL A   1      32.867  30.447  25.902  1.00  0.00    -0.246 OA
BRANCH   4   6
ATOM      6  C   UNL A   1      32.911  28.210  26.571  1.00  0.00     0.060 A 
ATOM      7  C   UNL A   1      33.823  27.233  26.181  1.00  0.00     0.018 A 
ATOM      8  C   UNL A   1      31.584  27.868  26.830  1.00  0.00     0.018 A 
ATOM      9  C   UNL A   1      33.378  25.952  25.877  1.00  0.00     0.027 A 
ATOM     10  C   UNL A   1      31.154  26.565  26.561  1.00  0.00     0.027 A 
ATOM     11  C   UNL A   1      32.032  25.635  25.988  1.00  0.00     0.041 A 
BRANCH  11  12
ATOM     12  N   UNL A   1      31.518  24.401  25.585  1.00  0.00    -0.326 N 
ATOM     13  C   UNL A   1      32.115  23.214  25.277  1.00  0.00     0.228 C 
ATOM     14  H   UNL A   1      30.536  24.384  25.507  1.00  0.00     0.169 HD
ATOM     15  O   UNL A   1      31.364  22.240  25.134  1.00  0.00    -0.274 OA
BRANCH  13  16
ATOM     16  C   UNL A   1      33.608  23.038  24.965  1.00  0.00     0.095 C 
ATOM     17  C   UNL A   1      34.545  23.163  26.173  1.00  0.00     0.041 C 
ATOM     18  C   UNL A   1      34.114  23.714  23.680  1.00  0.00     0.095 C 
ATOM     19  C   UNL A   1      35.998  23.158  25.800  1.00  0.00    -0.030 C 
ATOM     20  C   UNL A   1      35.569  23.340  23.339  1.00  0.00     0.041 C 
ATOM     21  C   UNL A   1      36.453  23.226  24.541  1.00  0.00    -0.030 C 
BRANCH  18  22
ATOM     22  C   UNL A   1      33.173  23.617  22.466  1.00  0.00     0.228 C 
ATOM     23  O   UNL A   1      32.978  22.512  21.941  1.00  0.00    -0.274 OA
ATOM     24  N   UNL A   1      32.436  24.645  21.949  1.00  0.00    -0.326 N 
ATOM     25  H   UNL A   1      31.874  24.396  21.180  1.00  0.00     0.169 HD
BRANCH  24  26
ATOM     26  C   UNL A   1      32.340  25.987  22.323  1.00  0.00     0.048 A 
ATOM     27  C   UNL A   1      33.517  26.741  22.337  1.00  0.00     0.026 A 
ATOM     28  C   UNL A   1      31.135  26.589  22.665  1.00  0.00     0.111 A 
ATOM     29  C   UNL A   1      33.466  28.123  22.532  1.00  0.00     0.009 A 
ATOM     30  C   UNL A   1      31.077  27.979  22.820  1.00  0.00     0.271 A 
ATOM     31  C   UNL A   1      32.239  28.754  22.740  1.00  0.00     0.086 A 
BRANCH  30  32
ATOM     32  N   UNL A   1      29.777  28.630  23.028  1.00  0.00     0.062 N 
ATOM     33  O   UNL A   1      28.820  27.913  23.357  1.00  0.00    -0.258 OA
ATOM     34  O   UNL A   1      29.712  29.856  22.868  1.00  0.00    -0.258 OA
ENDBRANCH  30  32
ENDBRANCH  24  26
ENDBRANCH  18  22
ENDBRANCH  13  16
ENDBRANCH  11  12
ENDBRANCH   4   6
ENDBRANCH   3   4
ENDBRANCH   2   3
ENDBRANCH   1   2
BRANCH   1  35
ATOM     35  O   UNL A   1      35.351  32.650  29.522  1.00  0.00    -0.374 OA
BRANCH  35  36
ATOM     36  C   UNL A   1      34.834  32.742  30.854  1.00  0.00     0.202 C 
BRANCH  36  37
ATOM     37  C   UNL A   1      35.603  31.748  31.733  1.00  0.00     0.261 C 
BRANCH  37  38
ATOM     38  O   UNL A   1      36.863  31.486  31.098  1.00  0.00    -0.460 OA
BRANCH  38  39
ATOM     39  C   UNL A   1      37.144  30.177  30.889  1.00  0.00     0.338 C 
ATOM     40  O   UNL A   1      36.394  29.231  31.055  1.00  0.00    -0.246 OA
BRANCH  39  41
ATOM     41  C   UNL A   1      38.474  30.090  30.240  1.00  0.00     0.060 A 
ATOM     42  C   UNL A   1      38.542  30.063  28.838  1.00  0.00     0.016 A 
ATOM     43  C   UNL A   1      39.650  30.085  30.999  1.00  0.00     0.016 A 
ATOM     44  C   UNL A   1      39.782  29.981  28.199  1.00  0.00     0.010 A 
ATOM     45  C   UNL A   1      40.883  30.018  30.364  1.00  0.00     0.010 A 
ATOM     46  C   UNL A   1      40.952  29.926  28.965  1.00  0.00    -0.014 A 
BRANCH  46  47
ATOM     47  C   UNL A   1      42.262  29.578  28.376  1.00  0.00     0.031 A 
ATOM     48  C   UNL A   1      42.473  28.151  27.957  1.00  0.00     0.074 A 
ATOM     49  C   UNL A   1      43.270  30.464  28.356  1.00  0.00     0.049 A 
ATOM     50  N   UNL A   1      43.580  27.526  27.662  1.00  0.00    -0.248 NA
ATOM     51  C   UNL A   1      41.266  27.309  27.902  1.00  0.00     0.031 C 
ATOM     52  C   UNL A   1      43.167  31.868  28.748  1.00  0.00     0.029 A 
ATOM     53  N   UNL A   1      44.592  30.293  28.040  1.00  0.00    -0.354 N 
ATOM     54  C   UNL A   1      43.211  26.207  27.429  1.00  0.00     0.074 A 
ATOM     55  C   UNL A   1      41.781  26.121  27.628  1.00  0.00     0.031 C 
ATOM     56  C   UNL A   1      44.390  32.424  28.692  1.00  0.00     0.029 A 
ATOM     57  C   UNL A   1      45.361  31.403  28.298  1.00  0.00     0.049 A 
ATOM     58  H   UNL A   1      44.956  29.459  27.667  1.00  0.00     0.167 HD
ATOM     59  C   UNL A   1      43.999  25.162  27.086  1.00  0.00     0.037 A 
ATOM     60  C   UNL A   1      46.699  31.559  28.261  1.00  0.00     0.037 A 
ATOM     61  C   UNL A   1      45.419  25.269  26.890  1.00  0.00     0.049 A 
ATOM     62  C   UNL A   1      47.562  30.391  27.867  1.00  0.00     0.074 A 
ATOM     63  C   UNL A   1      46.313  24.291  26.498  1.00  0.00     0.029 A 
ATOM     64  N   UNL A   1      46.152  26.431  27.085  1.00  0.00    -0.354 N 
ATOM     65  N   UNL A   1      47.203  29.156  27.605  1.00  0.00    -0.248 NA
ATOM     66  C   UNL A   1      49.006  30.634  27.761  1.00  0.00     0.031 C 
ATOM     67  C   UNL A   1      47.594  24.855  26.485  1.00  0.00     0.029 A 
ATOM     68  C   UNL A   1      47.491  26.195  26.831  1.00  0.00     0.049 A 
ATOM     69  H   UNL A   1      45.774  27.297  27.362  1.00  0.00     0.167 HD
ATOM     70  C   UNL A   1      48.373  28.479  27.279  1.00  0.00     0.074 A 
ATOM     71  C   UNL A   1      49.452  29.443  27.378  1.00  0.00     0.031 C 
ATOM     72  C   UNL A   1      48.541  27.181  26.924  1.00  0.00     0.037 A 
BRANCH  59  73
ATOM     73  C   UNL A   1      43.333  23.823  26.943  1.00  0.00     0.058 A 
ATOM     74  C   UNL A   1      43.161  22.961  28.040  1.00  0.00     0.135 A 
ATOM     75  C   UNL A   1      42.901  23.375  25.685  1.00  0.00     0.135 A 
ATOM     76  F   UNL A   1      43.577  23.332  29.262  1.00  0.00    -0.206 F 
ATOM     77  C   UNL A   1      42.634  21.684  27.885  1.00  0.00     0.059 A 
ATOM     78  C   UNL A   1      42.345  22.111  25.511  1.00  0.00     0.059 A 
ATOM     79  F   UNL A   1      43.044  24.156  24.603  1.00  0.00    -0.206 F 
ATOM     80  C   UNL A   1      42.241  21.263  26.613  1.00  0.00     0.060 A 
BRANCH  80  81
ATOM     81  S   UNL A   1      41.604  19.585  26.413  1.00  0.00     0.124 S 
ATOM     82  O   UNL A   1      41.893  19.010  27.723  1.00  0.00    -0.237 OA
ATOM     83  O   UNL A   1      40.193  19.815  26.121  1.00  0.00    -0.237 OA
ATOM     84  O   UNL A   1      42.392  19.055  25.305  1.00  0.00    -0.744 OA
ENDBRANCH  80  81
ENDBRANCH  59  73
BRANCH  60  85
ATOM     85  C   UNL A   1      47.285  32.878  28.611  1.00  0.00     0.058 A 
ATOM     86  C   UNL A   1      47.438  33.876  27.639  1.00  0.00     0.135 A 
ATOM     87  C   UNL A   1      47.625  33.194  29.936  1.00  0.00     0.135 A 
ATOM     88  F   UNL A   1      47.134  33.617  26.359  1.00  0.00    -0.206 F 
ATOM     89  C   UNL A   1      47.896  35.148  27.969  1.00  0.00     0.059 A 
ATOM     90  C   UNL A   1      48.069  34.464  30.294  1.00  0.00     0.059 A 
ATOM     91  F   UNL A   1      47.483  32.275  30.904  1.00  0.00    -0.206 F 
ATOM     92  C   UNL A   1      48.197  35.437  29.302  1.00  0.00     0.060 A 
BRANCH  92  93
ATOM     93  S   UNL A   1      48.678  37.123  29.734  1.00  0.00     0.124 S 
ATOM     94  O   UNL A   1      49.327  37.568  28.507  1.00  0.00    -0.237 OA
ATOM     95  O   UNL A   1      47.390  37.741  30.035  1.00  0.00    -0.237 OA
ATOM     96  O   UNL A   1      49.558  36.937  30.884  1.00  0.00    -0.744 OA
ENDBRANCH  92  93
ENDBRANCH  60  85
BRANCH  72  97
ATOM     97  C   UNL A   1      49.929  26.728  26.573  1.00  0.00     0.058 A 
ATOM     98  C   UNL A   1      50.803  26.214  27.542  1.00  0.00     0.135 A 
ATOM     99  C   UNL A   1      50.349  26.719  25.234  1.00  0.00     0.135 A 
ATOM    100  F   UNL A   1      50.447  26.206  28.837  1.00  0.00    -0.206 F 
ATOM    101  C   UNL A   1      52.051  25.708  27.194  1.00  0.00     0.059 A 
ATOM    102  C   UNL A   1      51.583  26.200  24.861  1.00  0.00     0.059 A 
ATOM    103  F   UNL A   1      49.542  27.192  24.270  1.00  0.00    -0.206 F 
ATOM    104  C   UNL A   1      52.429  25.699  25.850  1.00  0.00     0.060 A 
BRANCH 104 105
ATOM    105  S   UNL A   1      54.022  24.978  25.400  1.00  0.00     0.124 S 
ATOM    106  O   UNL A   1      53.617  23.680  24.868  1.00  0.00    -0.237 OA
ATOM    107  O   UNL A   1      54.535  25.932  24.421  1.00  0.00    -0.237 OA
ATOM    108  O   UNL A   1      54.746  24.940  26.667  1.00  0.00    -0.744 OA
ENDBRANCH 104 105
ENDBRANCH  72  97
ENDBRANCH  46  47
ENDBRANCH  39  41
ENDBRANCH  38  39
ENDBRANCH  37  38
ENDBRANCH  36  37
ENDBRANCH  35  36
ENDBRANCH   1  35
TORSDOF 22
ENDMDL
