MODEL 1
REMARK VINA RESULT:     -12.0      0.000      0.000
REMARK SMILES CCOc1ccc(-n2nnc(-c3nc(C)c(C(=O)OCCOCCOC(=O)c4ccc(-c5c6nc(c(-c7c(F)cc(S(=O)(=O)[O-])cc7F)c7ccc([nH]7)c(-c7c(F)cc(S(=O)(=O)[O-])cc7F)c7nc(c(-c8c(F)cc(S(=O)(=O)[O-])cc8F)c8ccc5[nH]8)C=C7)C=C6)cc4)s3)c2C)cc1
REMARK SMILES IDX 21 1 20 2 19 3 17 4 18 5 16 6 12 7 13 8 94 9 14 10 15 11
REMARK SMILES IDX 11 12 8 13 9 14 95 15 10 16 96 17 7 18 4 19 5 20 98 21 6 22
REMARK SMILES IDX 97 23 3 24 2 25 1 26 22 27 23 28 24 29 25 30 26 31 27 32
REMARK SMILES IDX 28 33 29 34 93 35 30 36 92 37 31 38 32 39 33 40 86 41 34 42
REMARK SMILES IDX 91 43 85 44 87 45 35 46 90 47 84 48 83 49 36 51 70 52 49 53
REMARK SMILES IDX 69 54 50 55 53 56 68 57 88 58 51 59 52 60 67 62 89 63 54 64
REMARK SMILES IDX 37 65 38 66 47 67 39 68 40 69 46 70 48 71 41 72 42 73 43 74
REMARK SMILES IDX 44 75 45 76 71 77 72 78 81 79 73 80 74 81 80 82 82 83 75 84
REMARK SMILES IDX 76 85 77 86 78 87 79 88 55 89 56 90 65 91 57 92 58 93 64 94
REMARK SMILES IDX 66 95 59 96 60 97 61 98 62 99 63 100
REMARK H PARENT 87 50 53 61
REMARK Flexibility Score: inf
ROOT
ATOM      1  C   UNL A   1      38.665  22.482  26.378  1.00  0.00     0.202 C 
ENDROOT
BRANCH   1   2
ATOM      2  C   UNL A   1      38.218  21.449  25.346  1.00  0.00     0.261 C 
BRANCH   2   3
ATOM      3  O   UNL A   1      36.848  21.652  24.990  1.00  0.00    -0.459 OA
BRANCH   3   4
ATOM      4  C   UNL A   1      36.044  20.547  25.015  1.00  0.00     0.350 C 
ATOM      5  O   UNL A   1      36.425  19.405  24.872  1.00  0.00    -0.245 OA
BRANCH   4   6
ATOM      6  C   UNL A   1      34.698  20.941  25.365  1.00  0.00     0.135 A 
ATOM      7  C   UNL A   1      32.755  22.236  25.926  1.00  0.00     0.146 A 
ATOM      8  N   UNL A   1      32.362  21.106  25.377  1.00  0.00    -0.239 NA
ATOM      9  S   UNL A   1      34.411  22.278  26.377  1.00  0.00    -0.105 S 
ATOM     10  C   UNL A   1      33.487  20.346  25.043  1.00  0.00     0.064 A 
ATOM     11  C   UNL A   1      33.290  19.026  24.381  1.00  0.00     0.068 C 
BRANCH   7  12
ATOM     12  C   UNL A   1      31.942  23.480  26.032  1.00  0.00     0.145 A 
ATOM     13  N   UNL A   1      31.022  25.371  25.498  1.00  0.00    -0.217 N 
ATOM     14  N   UNL A   1      30.996  25.261  26.845  1.00  0.00    -0.061 NA
ATOM     15  C   UNL A   1      31.650  24.277  24.938  1.00  0.00     0.072 A 
ATOM     16  N   UNL A   1      31.458  24.053  27.170  1.00  0.00    -0.127 NA
ATOM     17  C   UNL A   1      31.974  24.094  23.496  1.00  0.00     0.069 C 
BRANCH  13  18
ATOM     18  C   UNL A   1      30.476  26.471  24.810  1.00  0.00     0.067 A 
ATOM     19  C   UNL A   1      29.497  28.401  23.066  1.00  0.00     0.119 A 
ATOM     20  C   UNL A   1      30.771  28.548  23.626  1.00  0.00     0.048 A 
ATOM     21  C   UNL A   1      28.713  27.299  23.390  1.00  0.00     0.048 A 
ATOM     22  C   UNL A   1      31.262  27.590  24.524  1.00  0.00     0.032 A 
ATOM     23  C   UNL A   1      29.187  26.350  24.283  1.00  0.00     0.032 A 
BRANCH  19  24
ATOM     24  O   UNL A   1      29.101  29.274  22.091  1.00  0.00    -0.494 OA
BRANCH  24  25
ATOM     25  C   UNL A   1      27.805  29.842  22.315  1.00  0.00     0.226 C 
ATOM     26  C   UNL A   1      27.798  30.911  23.399  1.00  0.00     0.049 C 
ENDBRANCH  24  25
ENDBRANCH  19  24
ENDBRANCH  13  18
ENDBRANCH   7  12
ENDBRANCH   4   6
ENDBRANCH   3   4
ENDBRANCH   2   3
ENDBRANCH   1   2
BRANCH   1  27
ATOM     27  O   UNL A   1      40.063  22.579  26.657  1.00  0.00    -0.374 OA
BRANCH  27  28
ATOM     28  C   UNL A   1      40.699  21.643  27.521  1.00  0.00     0.202 C 
BRANCH  28  29
ATOM     29  C   UNL A   1      41.635  20.598  26.939  1.00  0.00     0.261 C 
BRANCH  29  30
ATOM     30  O   UNL A   1      42.002  20.902  25.607  1.00  0.00    -0.460 OA
BRANCH  30  31
ATOM     31  C   UNL A   1      43.342  20.956  25.428  1.00  0.00     0.338 C 
ATOM     32  O   UNL A   1      44.102  20.018  25.256  1.00  0.00    -0.246 OA
BRANCH  31  33
ATOM     33  C   UNL A   1      43.781  22.332  25.641  1.00  0.00     0.060 A 
ATOM     34  C   UNL A   1      44.648  22.531  26.718  1.00  0.00     0.016 A 
ATOM     35  C   UNL A   1      43.034  23.370  25.066  1.00  0.00     0.016 A 
ATOM     36  C   UNL A   1      44.562  23.718  27.398  1.00  0.00     0.010 A 
ATOM     37  C   UNL A   1      42.916  24.534  25.772  1.00  0.00     0.010 A 
ATOM     38  C   UNL A   1      43.616  24.653  26.971  1.00  0.00    -0.014 A 
BRANCH  38  39
ATOM     39  C   UNL A   1      43.472  25.880  27.719  1.00  0.00     0.031 A 
ATOM     40  C   UNL A   1      44.602  26.794  27.435  1.00  0.00     0.074 A 
ATOM     41  C   UNL A   1      42.344  26.131  28.414  1.00  0.00     0.049 A 
ATOM     42  N   UNL A   1      45.536  27.176  28.240  1.00  0.00    -0.248 NA
ATOM     43  C   UNL A   1      44.884  27.108  26.017  1.00  0.00     0.031 C 
ATOM     44  C   UNL A   1      41.129  25.310  28.477  1.00  0.00     0.029 A 
ATOM     45  N   UNL A   1      41.988  27.245  29.108  1.00  0.00    -0.354 N 
ATOM     46  C   UNL A   1      46.331  28.027  27.479  1.00  0.00     0.074 A 
ATOM     47  C   UNL A   1      46.074  27.701  26.107  1.00  0.00     0.031 C 
ATOM     48  C   UNL A   1      40.108  26.056  28.955  1.00  0.00     0.029 A 
ATOM     49  C   UNL A   1      40.613  27.361  29.334  1.00  0.00     0.049 A 
ATOM     50  H   UNL A   1      42.640  27.911  29.423  1.00  0.00     0.167 HD
ATOM     51  C   UNL A   1      46.818  29.175  28.021  1.00  0.00     0.037 A 
ATOM     52  C   UNL A   1      39.967  28.505  29.693  1.00  0.00     0.037 A 
ATOM     53  C   UNL A   1      46.849  29.078  29.461  1.00  0.00     0.049 A 
ATOM     54  C   UNL A   1      41.009  29.425  30.236  1.00  0.00     0.074 A 
ATOM     55  C   UNL A   1      47.429  28.197  30.354  1.00  0.00     0.029 A 
ATOM     56  N   UNL A   1      45.864  29.734  30.161  1.00  0.00    -0.354 N 
ATOM     57  N   UNL A   1      41.682  29.187  31.332  1.00  0.00    -0.248 NA
ATOM     58  C   UNL A   1      41.659  30.322  29.289  1.00  0.00     0.031 C 
ATOM     59  C   UNL A   1      46.466  28.032  31.391  1.00  0.00     0.029 A 
ATOM     60  C   UNL A   1      45.395  28.889  31.132  1.00  0.00     0.049 A 
ATOM     61  H   UNL A   1      45.551  30.653  29.994  1.00  0.00     0.167 HD
ATOM     62  C   UNL A   1      42.992  29.535  31.026  1.00  0.00     0.074 A 
ATOM     63  C   UNL A   1      42.905  30.277  29.769  1.00  0.00     0.031 C 
ATOM     64  C   UNL A   1      44.047  28.938  31.656  1.00  0.00     0.037 A 
BRANCH  51  65
ATOM     65  C   UNL A   1      46.817  30.501  27.287  1.00  0.00     0.058 A 
ATOM     66  C   UNL A   1      48.010  31.249  27.251  1.00  0.00     0.135 A 
ATOM     67  C   UNL A   1      45.658  31.200  26.868  1.00  0.00     0.135 A 
ATOM     68  F   UNL A   1      49.174  30.694  27.622  1.00  0.00    -0.206 F 
ATOM     69  C   UNL A   1      48.034  32.603  26.914  1.00  0.00     0.059 A 
ATOM     70  C   UNL A   1      45.669  32.531  26.480  1.00  0.00     0.059 A 
ATOM     71  F   UNL A   1      44.431  30.670  26.892  1.00  0.00    -0.206 F 
ATOM     72  C   UNL A   1      46.853  33.238  26.545  1.00  0.00     0.060 A 
BRANCH  72  73
ATOM     73  S   UNL A   1      46.860  35.001  26.190  1.00  0.00     0.124 S 
ATOM     74  O   UNL A   1      45.508  35.199  25.682  1.00  0.00    -0.237 OA
ATOM     75  O   UNL A   1      47.142  35.566  27.505  1.00  0.00    -0.237 OA
ATOM     76  O   UNL A   1      47.933  35.141  25.210  1.00  0.00    -0.744 OA
ENDBRANCH  72  73
ENDBRANCH  51  65
BRANCH  52  77
ATOM     77  C   UNL A   1      38.640  28.996  29.213  1.00  0.00     0.058 A 
ATOM     78  C   UNL A   1      37.562  29.182  30.101  1.00  0.00     0.135 A 
ATOM     79  C   UNL A   1      38.480  29.559  27.931  1.00  0.00     0.135 A 
ATOM     80  F   UNL A   1      37.629  28.702  31.352  1.00  0.00    -0.206 F 
ATOM     81  C   UNL A   1      36.420  29.920  29.753  1.00  0.00     0.059 A 
ATOM     82  C   UNL A   1      37.351  30.287  27.559  1.00  0.00     0.059 A 
ATOM     83  F   UNL A   1      39.462  29.500  27.020  1.00  0.00    -0.206 F 
ATOM     84  C   UNL A   1      36.333  30.488  28.483  1.00  0.00     0.060 A 
BRANCH  84  85
ATOM     85  S   UNL A   1      34.952  31.585  28.077  1.00  0.00     0.124 S 
ATOM     86  O   UNL A   1      34.408  31.887  29.397  1.00  0.00    -0.237 OA
ATOM     87  O   UNL A   1      35.622  32.688  27.397  1.00  0.00    -0.237 OA
ATOM     88  O   UNL A   1      34.099  30.758  27.227  1.00  0.00    -0.744 OA
ENDBRANCH  84  85
ENDBRANCH  52  77
BRANCH  64  89
ATOM     89  C   UNL A   1      43.777  28.115  32.890  1.00  0.00     0.058 A 
ATOM     90  C   UNL A   1      43.679  26.711  32.921  1.00  0.00     0.135 A 
ATOM     91  C   UNL A   1      43.781  28.782  34.122  1.00  0.00     0.135 A 
ATOM     92  F   UNL A   1      43.771  25.988  31.795  1.00  0.00    -0.206 F 
ATOM     93  C   UNL A   1      43.549  26.011  34.124  1.00  0.00     0.059 A 
ATOM     94  C   UNL A   1      43.688  28.104  35.332  1.00  0.00     0.059 A 
ATOM     95  F   UNL A   1      43.936  30.116  34.163  1.00  0.00    -0.206 F 
ATOM     96  C   UNL A   1      43.556  26.719  35.327  1.00  0.00     0.060 A 
BRANCH  96  97
ATOM     97  S   UNL A   1      43.444  25.821  36.890  1.00  0.00     0.124 S 
ATOM     98  O   UNL A   1      43.642  26.884  37.869  1.00  0.00    -0.237 OA
ATOM     99  O   UNL A   1      42.101  25.251  36.834  1.00  0.00    -0.237 OA
ATOM    100  O   UNL A   1      44.528  24.845  36.802  1.00  0.00    -0.744 OA
ENDBRANCH  96  97
ENDBRANCH  64  89
ENDBRANCH  38  39
ENDBRANCH  31  33
ENDBRANCH  30  31
ENDBRANCH  29  30
ENDBRANCH  28  29
ENDBRANCH  27  28
ENDBRANCH   1  27
TORSDOF 21
ENDMDL
MODEL 2
REMARK VINA RESULT:     -10.2      3.559     10.320
REMARK SMILES CCOc1ccc(-n2nnc(-c3nc(C)c(C(=O)OCCOCCOC(=O)c4ccc(-c5c6nc(c(-c7c(F)cc(S(=O)(=O)[O-])cc7F)c7ccc([nH]7)c(-c7c(F)cc(S(=O)(=O)[O-])cc7F)c7nc(c(-c8c(F)cc(S(=O)(=O)[O-])cc8F)c8ccc5[nH]8)C=C7)C=C6)cc4)s3)c2C)cc1
REMARK SMILES IDX 21 1 20 2 19 3 17 4 18 5 16 6 12 7 13 8 94 9 14 10 15 11
REMARK SMILES IDX 11 12 8 13 9 14 95 15 10 16 96 17 7 18 4 19 5 20 98 21 6 22
REMARK SMILES IDX 97 23 3 24 2 25 1 26 22 27 23 28 24 29 25 30 26 31 27 32
REMARK SMILES IDX 28 33 29 34 93 35 30 36 92 37 31 38 32 39 33 40 86 41 34 42
REMARK SMILES IDX 91 43 85 44 87 45 35 46 90 47 84 48 83 49 36 51 70 52 49 53
REMARK SMILES IDX 69 54 50 55 53 56 68 57 88 58 51 59 52 60 67 62 89 63 54 64
REMARK SMILES IDX 37 65 38 66 47 67 39 68 40 69 46 70 48 71 41 72 42 73 43 74
REMARK SMILES IDX 44 75 45 76 71 77 72 78 81 79 73 80 74 81 80 82 82 83 75 84
REMARK SMILES IDX 76 85 77 86 78 87 79 88 55 89 56 90 65 91 57 92 58 93 64 94
REMARK SMILES IDX 66 95 59 96 60 97 61 98 62 99 63 100
REMARK H PARENT 87 50 53 61
REMARK Flexibility Score: inf
ROOT
ATOM      1  C   UNL A   1      33.384  34.559  29.286  1.00  0.00     0.202 C 
ENDROOT
BRANCH   1   2
ATOM      2  C   UNL A   1      33.531  33.899  27.917  1.00  0.00     0.261 C 
BRANCH   2   3
ATOM      3  O   UNL A   1      32.905  32.613  27.907  1.00  0.00    -0.459 OA
BRANCH   3   4
ATOM      4  C   UNL A   1      33.727  31.539  27.709  1.00  0.00     0.350 C 
ATOM      5  O   UNL A   1      34.827  31.403  28.201  1.00  0.00    -0.245 OA
BRANCH   4   6
ATOM      6  C   UNL A   1      33.029  30.539  26.933  1.00  0.00     0.135 A 
ATOM      7  C   UNL A   1      32.142  28.455  26.135  1.00  0.00     0.146 A 
ATOM      8  N   UNL A   1      31.353  29.429  25.730  1.00  0.00    -0.239 NA
ATOM      9  S   UNL A   1      33.658  28.968  26.756  1.00  0.00    -0.105 S 
ATOM     10  C   UNL A   1      31.860  30.647  26.194  1.00  0.00     0.064 A 
ATOM     11  C   UNL A   1      31.116  31.898  25.879  1.00  0.00     0.068 C 
BRANCH   7  12
ATOM     12  C   UNL A   1      31.766  27.017  26.236  1.00  0.00     0.145 A 
ATOM     13  N   UNL A   1      31.642  24.901  25.775  1.00  0.00    -0.217 N 
ATOM     14  N   UNL A   1      30.618  25.208  26.601  1.00  0.00    -0.061 NA
ATOM     15  C   UNL A   1      32.380  26.030  25.484  1.00  0.00     0.072 A 
ATOM     16  N   UNL A   1      30.756  26.480  26.976  1.00  0.00    -0.127 NA
ATOM     17  C   UNL A   1      33.510  26.114  24.518  1.00  0.00     0.069 C 
BRANCH  13  18
ATOM     18  C   UNL A   1      31.877  23.596  25.300  1.00  0.00     0.067 A 
ATOM     19  C   UNL A   1      32.786  21.152  24.338  1.00  0.00     0.119 A 
ATOM     20  C   UNL A   1      32.187  22.067  23.465  1.00  0.00     0.048 A 
ATOM     21  C   UNL A   1      32.916  21.457  25.689  1.00  0.00     0.048 A 
ATOM     22  C   UNL A   1      31.706  23.292  23.947  1.00  0.00     0.032 A 
ATOM     23  C   UNL A   1      32.436  22.662  26.178  1.00  0.00     0.032 A 
BRANCH  19  24
ATOM     24  O   UNL A   1      33.370  20.030  23.819  1.00  0.00    -0.494 OA
BRANCH  24  25
ATOM     25  C   UNL A   1      33.499  18.957  24.760  1.00  0.00     0.226 C 
ATOM     26  C   UNL A   1      34.536  17.920  24.348  1.00  0.00     0.049 C 
ENDBRANCH  24  25
ENDBRANCH  19  24
ENDBRANCH  13  18
ENDBRANCH   7  12
ENDBRANCH   4   6
ENDBRANCH   3   4
ENDBRANCH   2   3
ENDBRANCH   1   2
BRANCH   1  27
ATOM     27  O   UNL A   1      32.811  35.867  29.334  1.00  0.00    -0.374 OA
BRANCH  27  28
ATOM     28  C   UNL A   1      33.288  36.836  30.262  1.00  0.00     0.202 C 
BRANCH  28  29
ATOM     29  C   UNL A   1      32.897  36.731  31.726  1.00  0.00     0.261 C 
BRANCH  29  30
ATOM     30  O   UNL A   1      33.921  36.142  32.505  1.00  0.00    -0.460 OA
BRANCH  30  31
ATOM     31  C   UNL A   1      33.654  34.861  32.847  1.00  0.00     0.338 C 
ATOM     32  O   UNL A   1      32.562  34.320  32.888  1.00  0.00    -0.246 OA
BRANCH  31  33
ATOM     33  C   UNL A   1      34.887  34.247  33.333  1.00  0.00     0.060 A 
ATOM     34  C   UNL A   1      36.000  35.089  33.391  1.00  0.00     0.016 A 
ATOM     35  C   UNL A   1      34.992  32.850  33.314  1.00  0.00     0.016 A 
ATOM     36  C   UNL A   1      37.233  34.537  33.152  1.00  0.00     0.010 A 
ATOM     37  C   UNL A   1      36.214  32.308  33.031  1.00  0.00     0.010 A 
ATOM     38  C   UNL A   1      37.297  33.172  32.869  1.00  0.00    -0.014 A 
BRANCH  38  39
ATOM     39  C   UNL A   1      38.582  32.592  32.553  1.00  0.00     0.031 A 
ATOM     40  C   UNL A   1      39.385  32.412  33.785  1.00  0.00     0.074 A 
ATOM     41  C   UNL A   1      38.848  32.152  31.307  1.00  0.00     0.049 A 
ATOM     42  N   UNL A   1      40.471  33.023  34.120  1.00  0.00    -0.248 NA
ATOM     43  C   UNL A   1      38.764  31.663  34.899  1.00  0.00     0.031 C 
ATOM     44  C   UNL A   1      37.937  32.116  30.156  1.00  0.00     0.029 A 
ATOM     45  N   UNL A   1      39.952  31.514  30.833  1.00  0.00    -0.354 N 
ATOM     46  C   UNL A   1      40.812  32.482  35.356  1.00  0.00     0.074 A 
ATOM     47  C   UNL A   1      39.610  31.918  35.896  1.00  0.00     0.031 C 
ATOM     48  C   UNL A   1      38.435  31.281  29.216  1.00  0.00     0.029 A 
ATOM     49  C   UNL A   1      39.739  30.814  29.642  1.00  0.00     0.049 A 
ATOM     50  H   UNL A   1      40.823  31.542  31.290  1.00  0.00     0.167 HD
ATOM     51  C   UNL A   1      42.109  32.193  35.642  1.00  0.00     0.037 A 
ATOM     52  C   UNL A   1      40.552  29.842  29.144  1.00  0.00     0.037 A 
ATOM     53  C   UNL A   1      42.994  32.966  34.803  1.00  0.00     0.049 A 
ATOM     54  C   UNL A   1      41.872  30.006  29.822  1.00  0.00     0.074 A 
ATOM     55  C   UNL A   1      43.158  34.318  34.565  1.00  0.00     0.029 A 
ATOM     56  N   UNL A   1      43.587  32.320  33.744  1.00  0.00    -0.354 N 
ATOM     57  N   UNL A   1      42.639  31.053  29.662  1.00  0.00    -0.248 NA
ATOM     58  C   UNL A   1      42.076  29.268  31.061  1.00  0.00     0.031 C 
ATOM     59  C   UNL A   1      43.414  34.420  33.167  1.00  0.00     0.029 A 
ATOM     60  C   UNL A   1      43.491  33.129  32.642  1.00  0.00     0.049 A 
ATOM     61  H   UNL A   1      44.008  31.430  33.773  1.00  0.00     0.167 HD
ATOM     62  C   UNL A   1      43.097  31.355  30.939  1.00  0.00     0.074 A 
ATOM     63  C   UNL A   1      42.757  30.188  31.751  1.00  0.00     0.031 C 
ATOM     64  C   UNL A   1      43.436  32.633  31.284  1.00  0.00     0.037 A 
BRANCH  51  65
ATOM     65  C   UNL A   1      42.540  30.911  36.327  1.00  0.00     0.058 A 
ATOM     66  C   UNL A   1      43.519  30.985  37.337  1.00  0.00     0.135 A 
ATOM     67  C   UNL A   1      42.257  29.603  35.861  1.00  0.00     0.135 A 
ATOM     68  F   UNL A   1      43.869  32.171  37.860  1.00  0.00    -0.206 F 
ATOM     69  C   UNL A   1      44.222  29.866  37.781  1.00  0.00     0.059 A 
ATOM     70  C   UNL A   1      42.908  28.471  36.326  1.00  0.00     0.059 A 
ATOM     71  F   UNL A   1      41.401  29.346  34.867  1.00  0.00    -0.206 F 
ATOM     72  C   UNL A   1      43.918  28.613  37.256  1.00  0.00     0.060 A 
BRANCH  72  73
ATOM     73  S   UNL A   1      44.876  27.178  37.761  1.00  0.00     0.124 S 
ATOM     74  O   UNL A   1      46.175  27.780  38.039  1.00  0.00    -0.237 OA
ATOM     75  O   UNL A   1      44.123  26.711  38.919  1.00  0.00    -0.237 OA
ATOM     76  O   UNL A   1      44.819  26.309  36.590  1.00  0.00    -0.744 OA
ENDBRANCH  72  73
ENDBRANCH  51  65
BRANCH  52  77
ATOM     77  C   UNL A   1      40.151  28.567  28.476  1.00  0.00     0.058 A 
ATOM     78  C   UNL A   1      40.628  28.228  27.195  1.00  0.00     0.135 A 
ATOM     79  C   UNL A   1      39.522  27.526  29.188  1.00  0.00     0.135 A 
ATOM     80  F   UNL A   1      41.262  29.145  26.448  1.00  0.00    -0.206 F 
ATOM     81  C   UNL A   1      40.528  26.929  26.673  1.00  0.00     0.059 A 
ATOM     82  C   UNL A   1      39.402  26.230  28.688  1.00  0.00     0.059 A 
ATOM     83  F   UNL A   1      39.082  27.710  30.442  1.00  0.00    -0.206 F 
ATOM     84  C   UNL A   1      39.930  25.929  27.439  1.00  0.00     0.060 A 
BRANCH  84  85
ATOM     85  S   UNL A   1      39.948  24.215  26.858  1.00  0.00     0.124 S 
ATOM     86  O   UNL A   1      40.154  23.477  28.098  1.00  0.00    -0.237 OA
ATOM     87  O   UNL A   1      38.629  24.081  26.248  1.00  0.00    -0.237 OA
ATOM     88  O   UNL A   1      41.069  24.185  25.922  1.00  0.00    -0.744 OA
ENDBRANCH  84  85
ENDBRANCH  52  77
BRANCH  64  89
ATOM     89  C   UNL A   1      43.591  33.658  30.189  1.00  0.00     0.058 A 
ATOM     90  C   UNL A   1      42.551  34.450  29.668  1.00  0.00     0.135 A 
ATOM     91  C   UNL A   1      44.895  33.957  29.768  1.00  0.00     0.135 A 
ATOM     92  F   UNL A   1      41.289  34.299  30.097  1.00  0.00    -0.206 F 
ATOM     93  C   UNL A   1      42.797  35.465  28.739  1.00  0.00     0.059 A 
ATOM     94  C   UNL A   1      45.166  34.984  28.871  1.00  0.00     0.059 A 
ATOM     95  F   UNL A   1      45.937  33.279  30.276  1.00  0.00    -0.206 F 
ATOM     96  C   UNL A   1      44.111  35.725  28.348  1.00  0.00     0.060 A 
BRANCH  96  97
ATOM     97  S   UNL A   1      44.446  37.070  27.190  1.00  0.00     0.124 S 
ATOM     98  O   UNL A   1      45.465  36.485  26.326  1.00  0.00    -0.237 OA
ATOM     99  O   UNL A   1      43.141  37.292  26.574  1.00  0.00    -0.237 OA
ATOM    100  O   UNL A   1      44.909  38.156  28.052  1.00  0.00    -0.744 OA
ENDBRANCH  96  97
ENDBRANCH  64  89
ENDBRANCH  38  39
ENDBRANCH  31  33
ENDBRANCH  30  31
ENDBRANCH  29  30
ENDBRANCH  28  29
ENDBRANCH  27  28
ENDBRANCH   1  27
TORSDOF 21
ENDMDL
MODEL 3
REMARK VINA RESULT:     -10.2      2.277      7.362
REMARK SMILES CCOc1ccc(-n2nnc(-c3nc(C)c(C(=O)OCCOCCOC(=O)c4ccc(-c5c6nc(c(-c7c(F)cc(S(=O)(=O)[O-])cc7F)c7ccc([nH]7)c(-c7c(F)cc(S(=O)(=O)[O-])cc7F)c7nc(c(-c8c(F)cc(S(=O)(=O)[O-])cc8F)c8ccc5[nH]8)C=C7)C=C6)cc4)s3)c2C)cc1
REMARK SMILES IDX 21 1 20 2 19 3 17 4 18 5 16 6 12 7 13 8 94 9 14 10 15 11
REMARK SMILES IDX 11 12 8 13 9 14 95 15 10 16 96 17 7 18 4 19 5 20 98 21 6 22
REMARK SMILES IDX 97 23 3 24 2 25 1 26 22 27 23 28 24 29 25 30 26 31 27 32
REMARK SMILES IDX 28 33 29 34 93 35 30 36 92 37 31 38 32 39 33 40 86 41 34 42
REMARK SMILES IDX 91 43 85 44 87 45 35 46 90 47 84 48 83 49 36 51 70 52 49 53
REMARK SMILES IDX 69 54 50 55 53 56 68 57 88 58 51 59 52 60 67 62 89 63 54 64
REMARK SMILES IDX 37 65 38 66 47 67 39 68 40 69 46 70 48 71 41 72 42 73 43 74
REMARK SMILES IDX 44 75 45 76 71 77 72 78 81 79 73 80 74 81 80 82 82 83 75 84
REMARK SMILES IDX 76 85 77 86 78 87 79 88 55 89 56 90 65 91 57 92 58 93 64 94
REMARK SMILES IDX 66 95 59 96 60 97 61 98 62 99 63 100
REMARK H PARENT 87 50 53 61
REMARK Flexibility Score: inf
ROOT
ATOM      1  C   UNL A   1      37.263  21.465  24.572  1.00  0.00     0.202 C 
ENDROOT
BRANCH   1   2
ATOM      2  C   UNL A   1      36.220  22.576  24.460  1.00  0.00     0.261 C 
BRANCH   2   3
ATOM      3  O   UNL A   1      35.542  22.757  25.706  1.00  0.00    -0.459 OA
BRANCH   3   4
ATOM      4  C   UNL A   1      34.443  21.973  25.918  1.00  0.00     0.350 C 
ATOM      5  O   UNL A   1      34.396  21.029  26.678  1.00  0.00    -0.245 OA
BRANCH   4   6
ATOM      6  C   UNL A   1      33.317  22.523  25.199  1.00  0.00     0.135 A 
ATOM      7  C   UNL A   1      31.794  24.036  24.121  1.00  0.00     0.146 A 
ATOM      8  N   UNL A   1      31.658  22.845  23.576  1.00  0.00    -0.239 NA
ATOM      9  S   UNL A   1      32.694  24.059  25.583  1.00  0.00    -0.105 S 
ATOM     10  C   UNL A   1      32.544  21.957  24.195  1.00  0.00     0.064 A 
ATOM     11  C   UNL A   1      32.587  20.545  23.724  1.00  0.00     0.068 C 
BRANCH   7  12
ATOM     12  C   UNL A   1      31.379  25.327  23.505  1.00  0.00     0.145 A 
ATOM     13  N   UNL A   1      30.292  27.174  23.168  1.00  0.00    -0.217 N 
ATOM     14  N   UNL A   1      30.934  26.854  22.023  1.00  0.00    -0.061 NA
ATOM     15  C   UNL A   1      30.515  26.209  24.130  1.00  0.00     0.072 A 
ATOM     16  N   UNL A   1      31.692  25.783  22.260  1.00  0.00    -0.127 NA
ATOM     17  C   UNL A   1      29.883  26.151  25.477  1.00  0.00     0.069 C 
BRANCH  13  18
ATOM     18  C   UNL A   1      29.511  28.337  23.309  1.00  0.00     0.067 A 
ATOM     19  C   UNL A   1      27.966  30.640  23.120  1.00  0.00     0.119 A 
ATOM     20  C   UNL A   1      29.336  30.738  23.388  1.00  0.00     0.048 A 
ATOM     21  C   UNL A   1      27.372  29.392  22.962  1.00  0.00     0.048 A 
ATOM     22  C   UNL A   1      30.116  29.580  23.506  1.00  0.00     0.032 A 
ATOM     23  C   UNL A   1      28.134  28.240  23.085  1.00  0.00     0.032 A 
BRANCH  19  24
ATOM     24  O   UNL A   1      27.258  31.783  22.872  1.00  0.00    -0.494 OA
BRANCH  24  25
ATOM     25  C   UNL A   1      28.017  32.799  22.205  1.00  0.00     0.226 C 
ATOM     26  C   UNL A   1      27.857  32.769  20.690  1.00  0.00     0.049 C 
ENDBRANCH  24  25
ENDBRANCH  19  24
ENDBRANCH  13  18
ENDBRANCH   7  12
ENDBRANCH   4   6
ENDBRANCH   3   4
ENDBRANCH   2   3
ENDBRANCH   1   2
BRANCH   1  27
ATOM     27  O   UNL A   1      37.941  21.316  25.820  1.00  0.00    -0.374 OA
BRANCH  27  28
ATOM     28  C   UNL A   1      39.362  21.240  25.872  1.00  0.00     0.202 C 
BRANCH  28  29
ATOM     29  C   UNL A   1      40.038  19.889  26.035  1.00  0.00     0.261 C 
BRANCH  29  30
ATOM     30  O   UNL A   1      41.204  19.975  26.832  1.00  0.00    -0.460 OA
BRANCH  30  31
ATOM     31  C   UNL A   1      42.270  20.465  26.157  1.00  0.00     0.338 C 
ATOM     32  O   UNL A   1      42.675  20.113  25.063  1.00  0.00    -0.246 OA
BRANCH  31  33
ATOM     33  C   UNL A   1      42.982  21.392  27.032  1.00  0.00     0.060 A 
ATOM     34  C   UNL A   1      42.489  21.494  28.335  1.00  0.00     0.016 A 
ATOM     35  C   UNL A   1      43.794  22.374  26.447  1.00  0.00     0.016 A 
ATOM     36  C   UNL A   1      42.582  22.711  28.960  1.00  0.00     0.010 A 
ATOM     37  C   UNL A   1      43.846  23.598  27.052  1.00  0.00     0.010 A 
ATOM     38  C   UNL A   1      43.165  23.768  28.258  1.00  0.00    -0.014 A 
BRANCH  38  39
ATOM     39  C   UNL A   1      43.211  25.070  28.881  1.00  0.00     0.031 A 
ATOM     40  C   UNL A   1      42.034  25.876  28.480  1.00  0.00     0.074 A 
ATOM     41  C   UNL A   1      44.140  25.352  29.815  1.00  0.00     0.049 A 
ATOM     42  N   UNL A   1      42.013  26.943  27.753  1.00  0.00    -0.248 NA
ATOM     43  C   UNL A   1      40.697  25.276  28.681  1.00  0.00     0.031 C 
ATOM     44  C   UNL A   1      45.148  24.444  30.379  1.00  0.00     0.029 A 
ATOM     45  N   UNL A   1      44.299  26.475  30.565  1.00  0.00    -0.354 N 
ATOM     46  C   UNL A   1      40.670  27.298  27.688  1.00  0.00     0.074 A 
ATOM     47  C   UNL A   1      39.923  26.113  27.990  1.00  0.00     0.031 C 
ATOM     48  C   UNL A   1      45.633  24.968  31.527  1.00  0.00     0.029 A 
ATOM     49  C   UNL A   1      45.061  26.286  31.723  1.00  0.00     0.049 A 
ATOM     50  H   UNL A   1      43.911  27.345  30.315  1.00  0.00     0.167 HD
ATOM     51  C   UNL A   1      40.301  28.603  27.785  1.00  0.00     0.037 A 
ATOM     52  C   UNL A   1      45.091  27.129  32.792  1.00  0.00     0.037 A 
ATOM     53  C   UNL A   1      41.405  29.465  27.434  1.00  0.00     0.049 A 
ATOM     54  C   UNL A   1      44.570  28.441  32.309  1.00  0.00     0.074 A 
ATOM     55  C   UNL A   1      42.214  29.588  26.320  1.00  0.00     0.029 A 
ATOM     56  N   UNL A   1      42.081  30.079  28.462  1.00  0.00    -0.354 N 
ATOM     57  N   UNL A   1      45.182  29.177  31.418  1.00  0.00    -0.248 NA
ATOM     58  C   UNL A   1      43.135  28.667  32.423  1.00  0.00     0.031 C 
ATOM     59  C   UNL A   1      43.518  29.844  26.834  1.00  0.00     0.029 A 
ATOM     60  C   UNL A   1      43.424  29.961  28.221  1.00  0.00     0.049 A 
ATOM     61  H   UNL A   1      41.670  30.527  29.237  1.00  0.00     0.167 HD
ATOM     62  C   UNL A   1      44.172  29.624  30.573  1.00  0.00     0.074 A 
ATOM     63  C   UNL A   1      42.927  29.317  31.275  1.00  0.00     0.031 C 
ATOM     64  C   UNL A   1      44.427  29.923  29.265  1.00  0.00     0.037 A 
BRANCH  51  65
ATOM     65  C   UNL A   1      39.129  29.071  28.623  1.00  0.00     0.058 A 
ATOM     66  C   UNL A   1      38.126  29.843  28.005  1.00  0.00     0.135 A 
ATOM     67  C   UNL A   1      39.078  29.046  30.040  1.00  0.00     0.135 A 
ATOM     68  F   UNL A   1      38.070  29.941  26.667  1.00  0.00    -0.206 F 
ATOM     69  C   UNL A   1      37.207  30.598  28.733  1.00  0.00     0.059 A 
ATOM     70  C   UNL A   1      38.140  29.748  30.781  1.00  0.00     0.059 A 
ATOM     71  F   UNL A   1      39.981  28.415  30.796  1.00  0.00    -0.206 F 
ATOM     72  C   UNL A   1      37.234  30.555  30.123  1.00  0.00     0.060 A 
BRANCH  72  73
ATOM     73  S   UNL A   1      36.108  31.589  31.070  1.00  0.00     0.124 S 
ATOM     74  O   UNL A   1      37.001  32.649  31.523  1.00  0.00    -0.237 OA
ATOM     75  O   UNL A   1      35.127  31.964  30.058  1.00  0.00    -0.237 OA
ATOM     76  O   UNL A   1      35.617  30.688  32.108  1.00  0.00    -0.744 OA
ENDBRANCH  72  73
ENDBRANCH  51  65
BRANCH  52  77
ATOM     77  C   UNL A   1      45.127  26.768  34.241  1.00  0.00     0.058 A 
ATOM     78  C   UNL A   1      44.156  25.923  34.811  1.00  0.00     0.135 A 
ATOM     79  C   UNL A   1      46.266  27.012  35.035  1.00  0.00     0.135 A 
ATOM     80  F   UNL A   1      43.046  25.612  34.124  1.00  0.00    -0.206 F 
ATOM     81  C   UNL A   1      44.325  25.322  36.068  1.00  0.00     0.059 A 
ATOM     82  C   UNL A   1      46.452  26.435  36.290  1.00  0.00     0.059 A 
ATOM     83  F   UNL A   1      47.287  27.751  34.576  1.00  0.00    -0.206 F 
ATOM     84  C   UNL A   1      45.490  25.568  36.792  1.00  0.00     0.060 A 
BRANCH  84  85
ATOM     85  S   UNL A   1      45.804  24.668  38.331  1.00  0.00     0.124 S 
ATOM     86  O   UNL A   1      47.240  24.854  38.504  1.00  0.00    -0.237 OA
ATOM     87  O   UNL A   1      44.950  25.374  39.282  1.00  0.00    -0.237 OA
ATOM     88  O   UNL A   1      45.386  23.304  38.018  1.00  0.00    -0.744 OA
ENDBRANCH  84  85
ENDBRANCH  52  77
BRANCH  64  89
ATOM     89  C   UNL A   1      45.862  30.048  28.820  1.00  0.00     0.058 A 
ATOM     90  C   UNL A   1      46.686  28.976  28.432  1.00  0.00     0.135 A 
ATOM     91  C   UNL A   1      46.365  31.343  28.628  1.00  0.00     0.135 A 
ATOM     92  F   UNL A   1      46.242  27.711  28.485  1.00  0.00    -0.206 F 
ATOM     93  C   UNL A   1      47.968  29.185  27.915  1.00  0.00     0.059 A 
ATOM     94  C   UNL A   1      47.623  31.576  28.084  1.00  0.00     0.059 A 
ATOM     95  F   UNL A   1      45.603  32.410  28.920  1.00  0.00    -0.206 F 
ATOM     96  C   UNL A   1      48.427  30.492  27.744  1.00  0.00     0.060 A 
BRANCH  96  97
ATOM     97  S   UNL A   1      50.059  30.776  27.026  1.00  0.00     0.124 S 
ATOM     98  O   UNL A   1      49.878  32.054  26.347  1.00  0.00    -0.237 OA
ATOM     99  O   UNL A   1      50.925  30.797  28.201  1.00  0.00    -0.237 OA
ATOM    100  O   UNL A   1      50.250  29.625  26.145  1.00  0.00    -0.744 OA
ENDBRANCH  96  97
ENDBRANCH  64  89
ENDBRANCH  38  39
ENDBRANCH  31  33
ENDBRANCH  30  31
ENDBRANCH  29  30
ENDBRANCH  28  29
ENDBRANCH  27  28
ENDBRANCH   1  27
TORSDOF 21
ENDMDL
