MODEL 1
REMARK VINA RESULT:      -9.7      0.000      0.000
REMARK SMILES C[C@H](C(=O)OCCOCCOC(=O)c1ccc(-c2c3nc(c(-c4c(F)cc(S(=O)(=O)[O-])cc4F)c4ccc([nH]4)c(-c4c(F)cc(S(=O)(=O)[O-])cc4F)c4nc(c(-c5c(F)cc(S(=O)(=O)[O-])cc5F)c5ccc2[nH]5)C=C4)C=C3)cc1)[C@H](C)c1ccoc1
REMARK SMILES IDX 9 1 8 2 7 3 6 4 5 5 3 6 4 7 2 8 1 9 80 10 81 11 82 12 83 13
REMARK SMILES IDX 86 14 84 15 85 16 10 17 11 18 12 19 13 20 14 21 15 22 79 23
REMARK SMILES IDX 16 24 78 25 17 26 18 27 19 28 72 29 20 30 77 31 71 32 73 33
REMARK SMILES IDX 21 34 76 35 70 36 69 37 22 39 56 40 35 41 55 42 36 43 39 44
REMARK SMILES IDX 54 45 74 46 37 47 38 48 53 50 75 51 40 52 23 53 24 54 33 55
REMARK SMILES IDX 25 56 26 57 32 58 34 59 27 60 28 61 29 62 30 63 31 64 57 65
REMARK SMILES IDX 58 66 67 67 59 68 60 69 66 70 68 71 61 72 62 73 63 74 64 75
REMARK SMILES IDX 65 76 41 77 42 78 51 79 43 80 44 81 50 82 52 83 45 84 46 85
REMARK SMILES IDX 47 86 48 87 49 88
REMARK H PARENT 73 38 39 49
REMARK Flexibility Score: inf
ROOT
ATOM      1  C   UNL A   1      35.555  32.521  28.579  1.00  0.00     0.202 C 
ENDROOT
BRANCH   1   2
ATOM      2  O   UNL A   1      34.933  31.895  27.464  1.00  0.00    -0.374 OA
BRANCH   2   3
ATOM      3  C   UNL A   1      34.794  30.470  27.525  1.00  0.00     0.202 C 
BRANCH   3   4
ATOM      4  C   UNL A   1      33.418  29.898  27.156  1.00  0.00     0.261 C 
BRANCH   4   5
ATOM      5  O   UNL A   1      33.416  28.458  27.237  1.00  0.00    -0.463 OA
BRANCH   5   6
ATOM      6  C   UNL A   1      32.215  27.825  27.076  1.00  0.00     0.309 C 
ATOM      7  O   UNL A   1      31.212  28.061  27.731  1.00  0.00    -0.252 OA
BRANCH   6   8
ATOM      8  C   UNL A   1      32.320  26.802  25.951  1.00  0.00     0.103 C 
ATOM      9  C   UNL A   1      31.726  25.480  26.431  1.00  0.00     0.020 C 
BRANCH   8  10
ATOM     10  C   UNL A   1      31.792  27.254  24.562  1.00  0.00     0.033 C 
ATOM     11  C   UNL A   1      30.265  27.239  24.449  1.00  0.00     0.014 C 
BRANCH  10  12
ATOM     12  C   UNL A   1      32.381  26.614  23.334  1.00  0.00    -0.006 A 
ATOM     13  C   UNL A   1      31.909  25.529  22.545  1.00  0.00     0.046 A 
ATOM     14  C   UNL A   1      33.504  27.073  22.667  1.00  0.00     0.198 A 
ATOM     15  C   UNL A   1      32.768  25.409  21.480  1.00  0.00     0.195 A 
ATOM     16  O   UNL A   1      33.743  26.347  21.548  1.00  0.00    -0.472 OA
ENDBRANCH  10  12
ENDBRANCH   8  10
ENDBRANCH   6   8
ENDBRANCH   5   6
ENDBRANCH   4   5
ENDBRANCH   3   4
ENDBRANCH   2   3
ENDBRANCH   1   2
BRANCH   1  17
ATOM     17  C   UNL A   1      35.276  31.943  29.972  1.00  0.00     0.261 C 
BRANCH  17  18
ATOM     18  O   UNL A   1      36.473  31.708  30.713  1.00  0.00    -0.460 OA
BRANCH  18  19
ATOM     19  C   UNL A   1      36.847  30.408  30.715  1.00  0.00     0.338 C 
ATOM     20  O   UNL A   1      36.139  29.431  30.905  1.00  0.00    -0.246 OA
BRANCH  19  21
ATOM     21  C   UNL A   1      38.242  30.311  30.274  1.00  0.00     0.060 A 
ATOM     22  C   UNL A   1      38.469  30.201  28.898  1.00  0.00     0.016 A 
ATOM     23  C   UNL A   1      39.299  30.281  31.188  1.00  0.00     0.016 A 
ATOM     24  C   UNL A   1      39.758  29.994  28.429  1.00  0.00     0.010 A 
ATOM     25  C   UNL A   1      40.593  30.069  30.716  1.00  0.00     0.010 A 
ATOM     26  C   UNL A   1      40.816  29.880  29.340  1.00  0.00    -0.014 A 
BRANCH  26  27
ATOM     27  C   UNL A   1      42.121  29.384  28.859  1.00  0.00     0.031 A 
ATOM     28  C   UNL A   1      43.272  30.347  28.798  1.00  0.00     0.074 A 
ATOM     29  C   UNL A   1      42.274  28.090  28.532  1.00  0.00     0.049 A 
ATOM     30  N   UNL A   1      44.502  30.144  28.406  1.00  0.00    -0.248 NA
ATOM     31  C   UNL A   1      43.001  31.728  29.236  1.00  0.00     0.031 C 
ATOM     32  C   UNL A   1      41.222  27.075  28.597  1.00  0.00     0.029 A 
ATOM     33  N   UNL A   1      43.373  27.409  28.081  1.00  0.00    -0.354 N 
ATOM     34  C   UNL A   1      45.147  31.368  28.541  1.00  0.00     0.074 A 
ATOM     35  C   UNL A   1      44.167  32.317  29.018  1.00  0.00     0.031 C 
ATOM     36  C   UNL A   1      41.729  25.897  28.198  1.00  0.00     0.029 A 
ATOM     37  C   UNL A   1      43.128  26.084  27.818  1.00  0.00     0.049 A 
ATOM     38  H   UNL A   1      44.254  27.830  27.958  1.00  0.00     0.167 HD
ATOM     39  C   UNL A   1      46.444  31.664  28.295  1.00  0.00     0.037 A 
ATOM     40  C   UNL A   1      43.941  25.139  27.309  1.00  0.00     0.037 A 
ATOM     41  C   UNL A   1      47.403  30.700  27.825  1.00  0.00     0.049 A 
ATOM     42  C   UNL A   1      45.367  25.510  26.989  1.00  0.00     0.074 A 
ATOM     43  C   UNL A   1      48.748  30.882  27.562  1.00  0.00     0.029 A 
ATOM     44  N   UNL A   1      47.113  29.373  27.539  1.00  0.00    -0.354 N 
ATOM     45  N   UNL A   1      45.973  26.663  27.144  1.00  0.00    -0.248 NA
ATOM     46  C   UNL A   1      46.217  24.452  26.429  1.00  0.00     0.031 C 
ATOM     47  C   UNL A   1      49.258  29.679  27.062  1.00  0.00     0.029 A 
ATOM     48  C   UNL A   1      48.247  28.730  27.073  1.00  0.00     0.049 A 
ATOM     49  H   UNL A   1      46.231  28.951  27.650  1.00  0.00     0.167 HD
ATOM     50  C   UNL A   1      47.286  26.462  26.729  1.00  0.00     0.074 A 
ATOM     51  C   UNL A   1      47.384  25.073  26.328  1.00  0.00     0.031 C 
ATOM     52  C   UNL A   1      48.318  27.342  26.687  1.00  0.00     0.037 A 
BRANCH  39  53
ATOM     53  C   UNL A   1      46.889  33.087  28.498  1.00  0.00     0.058 A 
ATOM     54  C   UNL A   1      46.831  34.041  27.470  1.00  0.00     0.135 A 
ATOM     55  C   UNL A   1      47.355  33.510  29.754  1.00  0.00     0.135 A 
ATOM     56  F   UNL A   1      46.415  33.688  26.242  1.00  0.00    -0.206 F 
ATOM     57  C   UNL A   1      47.239  35.356  27.672  1.00  0.00     0.059 A 
ATOM     58  C   UNL A   1      47.741  34.826  29.987  1.00  0.00     0.059 A 
ATOM     59  F   UNL A   1      47.440  32.639  30.772  1.00  0.00    -0.206 F 
ATOM     60  C   UNL A   1      47.692  35.739  28.935  1.00  0.00     0.060 A 
BRANCH  60  61
ATOM     61  S   UNL A   1      48.205  37.452  29.186  1.00  0.00     0.124 S 
ATOM     62  O   UNL A   1      49.172  37.627  28.107  1.00  0.00    -0.237 OA
ATOM     63  O   UNL A   1      46.948  38.179  29.034  1.00  0.00    -0.237 OA
ATOM     64  O   UNL A   1      48.763  37.448  30.534  1.00  0.00    -0.744 OA
ENDBRANCH  60  61
ENDBRANCH  39  53
BRANCH  40  65
ATOM     65  C   UNL A   1      43.428  23.764  27.070  1.00  0.00     0.058 A 
ATOM     66  C   UNL A   1      43.279  22.851  28.124  1.00  0.00     0.135 A 
ATOM     67  C   UNL A   1      43.068  23.338  25.782  1.00  0.00     0.135 A 
ATOM     68  F   UNL A   1      43.614  23.207  29.373  1.00  0.00    -0.206 F 
ATOM     69  C   UNL A   1      42.807  21.559  27.909  1.00  0.00     0.059 A 
ATOM     70  C   UNL A   1      42.569  22.061  25.545  1.00  0.00     0.059 A 
ATOM     71  F   UNL A   1      43.178  24.176  24.739  1.00  0.00    -0.206 F 
ATOM     72  C   UNL A   1      42.451  21.175  26.615  1.00  0.00     0.060 A 
BRANCH  72  73
ATOM     73  S   UNL A   1      41.799  19.512  26.354  1.00  0.00     0.124 S 
ATOM     74  O   UNL A   1      42.273  18.819  27.546  1.00  0.00    -0.237 OA
ATOM     75  O   UNL A   1      40.361  19.756  26.285  1.00  0.00    -0.237 OA
ATOM     76  O   UNL A   1      42.419  19.102  25.097  1.00  0.00    -0.744 OA
ENDBRANCH  72  73
ENDBRANCH  40  65
BRANCH  52  77
ATOM     77  C   UNL A   1      49.651  26.821  26.226  1.00  0.00     0.058 A 
ATOM     78  C   UNL A   1      50.083  26.965  24.898  1.00  0.00     0.135 A 
ATOM     79  C   UNL A   1      50.530  26.220  27.141  1.00  0.00     0.135 A 
ATOM     80  F   UNL A   1      49.279  27.527  23.982  1.00  0.00    -0.206 F 
ATOM     81  C   UNL A   1      51.331  26.507  24.489  1.00  0.00     0.059 A 
ATOM     82  C   UNL A   1      51.794  25.784  26.761  1.00  0.00     0.059 A 
ATOM     83  F   UNL A   1      50.171  26.069  28.426  1.00  0.00    -0.206 F 
ATOM     84  C   UNL A   1      52.181  25.922  25.429  1.00  0.00     0.060 A 
BRANCH  84  85
ATOM     85  S   UNL A   1      53.810  25.362  24.890  1.00  0.00     0.124 S 
ATOM     86  O   UNL A   1      53.958  26.066  23.622  1.00  0.00    -0.237 OA
ATOM     87  O   UNL A   1      54.672  25.822  25.975  1.00  0.00    -0.237 OA
ATOM     88  O   UNL A   1      53.658  23.914  24.791  1.00  0.00    -0.744 OA
ENDBRANCH  84  85
ENDBRANCH  52  77
ENDBRANCH  26  27
ENDBRANCH  19  21
ENDBRANCH  18  19
ENDBRANCH  17  18
ENDBRANCH   1  17
TORSDOF 19
ENDMDL
MODEL 2
REMARK VINA RESULT:      -9.6      6.928     12.457
REMARK SMILES C[C@H](C(=O)OCCOCCOC(=O)c1ccc(-c2c3nc(c(-c4c(F)cc(S(=O)(=O)[O-])cc4F)c4ccc([nH]4)c(-c4c(F)cc(S(=O)(=O)[O-])cc4F)c4nc(c(-c5c(F)cc(S(=O)(=O)[O-])cc5F)c5ccc2[nH]5)C=C4)C=C3)cc1)[C@H](C)c1ccoc1
REMARK SMILES IDX 9 1 8 2 7 3 6 4 5 5 3 6 4 7 2 8 1 9 80 10 81 11 82 12 83 13
REMARK SMILES IDX 86 14 84 15 85 16 10 17 11 18 12 19 13 20 14 21 15 22 79 23
REMARK SMILES IDX 16 24 78 25 17 26 18 27 19 28 72 29 20 30 77 31 71 32 73 33
REMARK SMILES IDX 21 34 76 35 70 36 69 37 22 39 56 40 35 41 55 42 36 43 39 44
REMARK SMILES IDX 54 45 74 46 37 47 38 48 53 50 75 51 40 52 23 53 24 54 33 55
REMARK SMILES IDX 25 56 26 57 32 58 34 59 27 60 28 61 29 62 30 63 31 64 57 65
REMARK SMILES IDX 58 66 67 67 59 68 60 69 66 70 68 71 61 72 62 73 63 74 64 75
REMARK SMILES IDX 65 76 41 77 42 78 51 79 43 80 44 81 50 82 52 83 45 84 46 85
REMARK SMILES IDX 47 86 48 87 49 88
REMARK H PARENT 73 38 39 49
REMARK Flexibility Score: inf
ROOT
ATOM      1  C   UNL A   1      38.778  21.793  25.883  1.00  0.00     0.202 C 
ENDROOT
BRANCH   1   2
ATOM      2  O   UNL A   1      37.815  22.762  25.490  1.00  0.00    -0.374 OA
BRANCH   2   3
ATOM      3  C   UNL A   1      36.549  22.262  25.040  1.00  0.00     0.202 C 
BRANCH   3   4
ATOM      4  C   UNL A   1      35.575  23.290  24.450  1.00  0.00     0.261 C 
BRANCH   4   5
ATOM      5  O   UNL A   1      35.477  24.456  25.295  1.00  0.00    -0.463 OA
BRANCH   5   6
ATOM      6  C   UNL A   1      34.234  24.792  25.753  1.00  0.00     0.309 C 
ATOM      7  O   UNL A   1      33.451  24.012  26.272  1.00  0.00    -0.252 OA
BRANCH   6   8
ATOM      8  C   UNL A   1      33.989  26.280  25.533  1.00  0.00     0.103 C 
ATOM      9  C   UNL A   1      33.651  26.510  24.062  1.00  0.00     0.020 C 
BRANCH   8  10
ATOM     10  C   UNL A   1      32.999  26.964  26.514  1.00  0.00     0.033 C 
ATOM     11  C   UNL A   1      31.530  26.620  26.247  1.00  0.00     0.014 C 
BRANCH  10  12
ATOM     12  C   UNL A   1      33.123  28.448  26.732  1.00  0.00    -0.006 A 
ATOM     13  C   UNL A   1      32.152  29.480  26.612  1.00  0.00     0.046 A 
ATOM     14  C   UNL A   1      34.255  29.082  27.213  1.00  0.00     0.198 A 
ATOM     15  C   UNL A   1      32.758  30.644  27.018  1.00  0.00     0.195 A 
ATOM     16  O   UNL A   1      34.040  30.409  27.386  1.00  0.00    -0.472 OA
ENDBRANCH  10  12
ENDBRANCH   8  10
ENDBRANCH   6   8
ENDBRANCH   5   6
ENDBRANCH   4   5
ENDBRANCH   3   4
ENDBRANCH   2   3
ENDBRANCH   1   2
BRANCH   1  17
ATOM     17  C   UNL A   1      40.074  22.293  26.532  1.00  0.00     0.261 C 
BRANCH  17  18
ATOM     18  O   UNL A   1      39.887  23.511  27.253  1.00  0.00    -0.460 OA
BRANCH  18  19
ATOM     19  C   UNL A   1      41.040  24.190  27.450  1.00  0.00     0.338 C 
ATOM     20  O   UNL A   1      42.139  23.944  26.976  1.00  0.00    -0.246 OA
BRANCH  19  21
ATOM     21  C   UNL A   1      40.751  25.413  28.207  1.00  0.00     0.060 A 
ATOM     22  C   UNL A   1      41.819  26.290  28.430  1.00  0.00     0.016 A 
ATOM     23  C   UNL A   1      39.480  25.671  28.725  1.00  0.00     0.016 A 
ATOM     24  C   UNL A   1      41.633  27.406  29.233  1.00  0.00     0.010 A 
ATOM     25  C   UNL A   1      39.297  26.790  29.535  1.00  0.00     0.010 A 
ATOM     26  C   UNL A   1      40.384  27.632  29.826  1.00  0.00    -0.014 A 
BRANCH  26  27
ATOM     27  C   UNL A   1      40.275  28.649  30.890  1.00  0.00     0.031 A 
ATOM     28  C   UNL A   1      41.188  28.542  32.079  1.00  0.00     0.074 A 
ATOM     29  C   UNL A   1      39.410  29.669  30.764  1.00  0.00     0.049 A 
ATOM     30  N   UNL A   1      41.270  29.309  33.132  1.00  0.00    -0.248 NA
ATOM     31  C   UNL A   1      42.136  27.413  32.081  1.00  0.00     0.031 C 
ATOM     32  C   UNL A   1      38.512  29.877  29.628  1.00  0.00     0.029 A 
ATOM     33  N   UNL A   1      39.145  30.721  31.600  1.00  0.00    -0.354 N 
ATOM     34  C   UNL A   1      42.268  28.754  33.925  1.00  0.00     0.074 A 
ATOM     35  C   UNL A   1      42.740  27.567  33.249  1.00  0.00     0.031 C 
ATOM     36  C   UNL A   1      37.792  30.991  29.840  1.00  0.00     0.029 A 
ATOM     37  C   UNL A   1      38.155  31.553  31.139  1.00  0.00     0.049 A 
ATOM     38  H   UNL A   1      39.620  30.867  32.449  1.00  0.00     0.167 HD
ATOM     39  C   UNL A   1      42.749  29.205  35.106  1.00  0.00     0.037 A 
ATOM     40  C   UNL A   1      37.595  32.634  31.716  1.00  0.00     0.037 A 
ATOM     41  C   UNL A   1      42.267  30.394  35.758  1.00  0.00     0.049 A 
ATOM     42  C   UNL A   1      38.110  33.082  33.060  1.00  0.00     0.074 A 
ATOM     43  C   UNL A   1      42.693  30.959  36.946  1.00  0.00     0.029 A 
ATOM     44  N   UNL A   1      41.240  31.196  35.278  1.00  0.00    -0.354 N 
ATOM     45  N   UNL A   1      39.071  32.566  33.789  1.00  0.00    -0.248 NA
ATOM     46  C   UNL A   1      37.467  34.260  33.656  1.00  0.00     0.031 C 
ATOM     47  C   UNL A   1      41.886  32.069  37.212  1.00  0.00     0.029 A 
ATOM     48  C   UNL A   1      40.998  32.235  36.160  1.00  0.00     0.049 A 
ATOM     49  H   UNL A   1      40.755  31.048  34.434  1.00  0.00     0.167 HD
ATOM     50  C   UNL A   1      39.170  33.374  34.917  1.00  0.00     0.074 A 
ATOM     51  C   UNL A   1      38.177  34.419  34.765  1.00  0.00     0.031 C 
ATOM     52  C   UNL A   1      40.006  33.266  35.980  1.00  0.00     0.037 A 
BRANCH  39  53
ATOM     53  C   UNL A   1      43.824  28.397  35.781  1.00  0.00     0.058 A 
ATOM     54  C   UNL A   1      45.189  28.622  35.540  1.00  0.00     0.135 A 
ATOM     55  C   UNL A   1      43.483  27.398  36.707  1.00  0.00     0.135 A 
ATOM     56  F   UNL A   1      45.574  29.549  34.647  1.00  0.00    -0.206 F 
ATOM     57  C   UNL A   1      46.175  27.873  36.174  1.00  0.00     0.059 A 
ATOM     58  C   UNL A   1      44.452  26.656  37.375  1.00  0.00     0.059 A 
ATOM     59  F   UNL A   1      42.193  27.133  36.971  1.00  0.00    -0.206 F 
ATOM     60  C   UNL A   1      45.796  26.893  37.092  1.00  0.00     0.060 A 
BRANCH  60  61
ATOM     61  S   UNL A   1      47.087  25.938  37.918  1.00  0.00     0.124 S 
ATOM     62  O   UNL A   1      46.853  26.281  39.317  1.00  0.00    -0.237 OA
ATOM     63  O   UNL A   1      46.755  24.569  37.536  1.00  0.00    -0.237 OA
ATOM     64  O   UNL A   1      48.321  26.464  37.342  1.00  0.00    -0.744 OA
ENDBRANCH  60  61
ENDBRANCH  39  53
BRANCH  40  65
ATOM     65  C   UNL A   1      36.492  33.357  31.030  1.00  0.00     0.058 A 
ATOM     66  C   UNL A   1      36.736  34.161  29.908  1.00  0.00     0.135 A 
ATOM     67  C   UNL A   1      35.166  33.251  31.481  1.00  0.00     0.135 A 
ATOM     68  F   UNL A   1      37.987  34.299  29.441  1.00  0.00    -0.206 F 
ATOM     69  C   UNL A   1      35.711  34.848  29.265  1.00  0.00     0.059 A 
ATOM     70  C   UNL A   1      34.120  33.906  30.839  1.00  0.00     0.059 A 
ATOM     71  F   UNL A   1      34.874  32.484  32.543  1.00  0.00    -0.206 F 
ATOM     72  C   UNL A   1      34.404  34.711  29.737  1.00  0.00     0.060 A 
BRANCH  72  73
ATOM     73  S   UNL A   1      33.075  35.571  28.868  1.00  0.00     0.124 S 
ATOM     74  O   UNL A   1      32.487  34.490  28.086  1.00  0.00    -0.237 OA
ATOM     75  O   UNL A   1      32.265  36.075  29.973  1.00  0.00    -0.237 OA
ATOM     76  O   UNL A   1      33.782  36.593  28.101  1.00  0.00    -0.744 OA
ENDBRANCH  72  73
ENDBRANCH  40  65
BRANCH  52  77
ATOM     77  C   UNL A   1      39.910  34.325  37.043  1.00  0.00     0.058 A 
ATOM     78  C   UNL A   1      40.592  35.547  36.935  1.00  0.00     0.135 A 
ATOM     79  C   UNL A   1      39.079  34.133  38.159  1.00  0.00     0.135 A 
ATOM     80  F   UNL A   1      41.404  35.779  35.892  1.00  0.00    -0.206 F 
ATOM     81  C   UNL A   1      40.472  36.532  37.909  1.00  0.00     0.059 A 
ATOM     82  C   UNL A   1      38.919  35.117  39.128  1.00  0.00     0.059 A 
ATOM     83  F   UNL A   1      38.394  32.987  38.304  1.00  0.00    -0.206 F 
ATOM     84  C   UNL A   1      39.630  36.309  39.000  1.00  0.00     0.060 A 
BRANCH  84  85
ATOM     85  S   UNL A   1      39.459  37.610  40.240  1.00  0.00     0.124 S 
ATOM     86  O   UNL A   1      38.948  36.861  41.382  1.00  0.00    -0.237 OA
ATOM     87  O   UNL A   1      40.828  38.102  40.366  1.00  0.00    -0.237 OA
ATOM     88  O   UNL A   1      38.518  38.542  39.628  1.00  0.00    -0.744 OA
ENDBRANCH  84  85
ENDBRANCH  52  77
ENDBRANCH  26  27
ENDBRANCH  19  21
ENDBRANCH  18  19
ENDBRANCH  17  18
ENDBRANCH   1  17
TORSDOF 19
ENDMDL
MODEL 3
REMARK VINA RESULT:      -9.6      6.873     12.475
REMARK SMILES C[C@H](C(=O)OCCOCCOC(=O)c1ccc(-c2c3nc(c(-c4c(F)cc(S(=O)(=O)[O-])cc4F)c4ccc([nH]4)c(-c4c(F)cc(S(=O)(=O)[O-])cc4F)c4nc(c(-c5c(F)cc(S(=O)(=O)[O-])cc5F)c5ccc2[nH]5)C=C4)C=C3)cc1)[C@H](C)c1ccoc1
REMARK SMILES IDX 9 1 8 2 7 3 6 4 5 5 3 6 4 7 2 8 1 9 80 10 81 11 82 12 83 13
REMARK SMILES IDX 86 14 84 15 85 16 10 17 11 18 12 19 13 20 14 21 15 22 79 23
REMARK SMILES IDX 16 24 78 25 17 26 18 27 19 28 72 29 20 30 77 31 71 32 73 33
REMARK SMILES IDX 21 34 76 35 70 36 69 37 22 39 56 40 35 41 55 42 36 43 39 44
REMARK SMILES IDX 54 45 74 46 37 47 38 48 53 50 75 51 40 52 23 53 24 54 33 55
REMARK SMILES IDX 25 56 26 57 32 58 34 59 27 60 28 61 29 62 30 63 31 64 57 65
REMARK SMILES IDX 58 66 67 67 59 68 60 69 66 70 68 71 61 72 62 73 63 74 64 75
REMARK SMILES IDX 65 76 41 77 42 78 51 79 43 80 44 81 50 82 52 83 45 84 46 85
REMARK SMILES IDX 47 86 48 87 49 88
REMARK H PARENT 73 38 39 49
REMARK Flexibility Score: inf
ROOT
ATOM      1  C   UNL A   1      41.500  21.772  26.260  1.00  0.00     0.202 C 
ENDROOT
BRANCH   1   2
ATOM      2  O   UNL A   1      40.167  22.208  26.491  1.00  0.00    -0.374 OA
BRANCH   2   3
ATOM      3  C   UNL A   1      39.127  21.452  25.858  1.00  0.00     0.202 C 
BRANCH   3   4
ATOM      4  C   UNL A   1      37.883  22.233  25.414  1.00  0.00     0.261 C 
BRANCH   4   5
ATOM      5  O   UNL A   1      37.022  21.416  24.593  1.00  0.00    -0.463 OA
BRANCH   5   6
ATOM      6  C   UNL A   1      35.704  21.771  24.525  1.00  0.00     0.309 C 
ATOM      7  O   UNL A   1      35.271  22.715  23.884  1.00  0.00    -0.252 OA
BRANCH   6   8
ATOM      8  C   UNL A   1      34.868  20.804  25.354  1.00  0.00     0.103 C 
ATOM      9  C   UNL A   1      34.373  21.526  26.604  1.00  0.00     0.020 C 
BRANCH   8  10
ATOM     10  C   UNL A   1      33.750  20.038  24.594  1.00  0.00     0.033 C 
ATOM     11  C   UNL A   1      32.342  20.577  24.864  1.00  0.00     0.014 C 
BRANCH  10  12
ATOM     12  C   UNL A   1      33.727  18.536  24.684  1.00  0.00    -0.006 A 
ATOM     13  C   UNL A   1      34.711  17.577  24.321  1.00  0.00     0.046 A 
ATOM     14  C   UNL A   1      32.711  17.798  25.266  1.00  0.00     0.198 A 
ATOM     15  C   UNL A   1      34.227  16.348  24.701  1.00  0.00     0.195 A 
ATOM     16  O   UNL A   1      33.008  16.476  25.277  1.00  0.00    -0.472 OA
ENDBRANCH  10  12
ENDBRANCH   8  10
ENDBRANCH   6   8
ENDBRANCH   5   6
ENDBRANCH   4   5
ENDBRANCH   3   4
ENDBRANCH   2   3
ENDBRANCH   1   2
BRANCH   1  17
ATOM     17  C   UNL A   1      42.485  22.773  25.643  1.00  0.00     0.261 C 
BRANCH  17  18
ATOM     18  O   UNL A   1      42.211  24.117  26.037  1.00  0.00    -0.460 OA
BRANCH  18  19
ATOM     19  C   UNL A   1      43.170  24.639  26.836  1.00  0.00     0.338 C 
ATOM     20  O   UNL A   1      44.372  24.425  26.793  1.00  0.00    -0.246 OA
BRANCH  19  21
ATOM     21  C   UNL A   1      42.571  25.668  27.692  1.00  0.00     0.060 A 
ATOM     22  C   UNL A   1      43.245  26.891  27.783  1.00  0.00     0.016 A 
ATOM     23  C   UNL A   1      41.406  25.427  28.424  1.00  0.00     0.016 A 
ATOM     24  C   UNL A   1      42.788  27.862  28.662  1.00  0.00     0.010 A 
ATOM     25  C   UNL A   1      40.951  26.401  29.310  1.00  0.00     0.010 A 
ATOM     26  C   UNL A   1      41.669  27.601  29.462  1.00  0.00    -0.014 A 
BRANCH  26  27
ATOM     27  C   UNL A   1      41.363  28.514  30.581  1.00  0.00     0.031 A 
ATOM     28  C   UNL A   1      42.212  28.437  31.818  1.00  0.00     0.074 A 
ATOM     29  C   UNL A   1      40.379  29.421  30.464  1.00  0.00     0.049 A 
ATOM     30  N   UNL A   1      42.130  29.129  32.923  1.00  0.00    -0.248 NA
ATOM     31  C   UNL A   1      43.300  27.443  31.811  1.00  0.00     0.031 C 
ATOM     32  C   UNL A   1      39.529  29.595  29.286  1.00  0.00     0.029 A 
ATOM     33  N   UNL A   1      39.929  30.366  31.348  1.00  0.00    -0.354 N 
ATOM     34  C   UNL A   1      43.145  28.650  33.743  1.00  0.00     0.074 A 
ATOM     35  C   UNL A   1      43.810  27.587  33.024  1.00  0.00     0.031 C 
ATOM     36  C   UNL A   1      38.656  30.589  29.522  1.00  0.00     0.029 A 
ATOM     37  C   UNL A   1      38.865  31.095  30.877  1.00  0.00     0.049 A 
ATOM     38  H   UNL A   1      40.330  30.509  32.235  1.00  0.00     0.167 HD
ATOM     39  C   UNL A   1      43.493  29.071  34.981  1.00  0.00     0.037 A 
ATOM     40  C   UNL A   1      38.134  32.050  31.484  1.00  0.00     0.037 A 
ATOM     41  C   UNL A   1      42.819  30.137  35.675  1.00  0.00     0.049 A 
ATOM     42  C   UNL A   1      38.506  32.460  32.886  1.00  0.00     0.074 A 
ATOM     43  C   UNL A   1      43.098  30.662  36.924  1.00  0.00     0.029 A 
ATOM     44  N   UNL A   1      41.725  30.833  35.181  1.00  0.00    -0.354 N 
ATOM     45  N   UNL A   1      39.483  32.019  33.643  1.00  0.00    -0.248 NA
ATOM     46  C   UNL A   1      37.679  33.498  33.514  1.00  0.00     0.031 C 
ATOM     47  C   UNL A   1      42.136  31.637  37.208  1.00  0.00     0.029 A 
ATOM     48  C   UNL A   1      41.297  31.764  36.111  1.00  0.00     0.049 A 
ATOM     49  H   UNL A   1      41.314  30.687  34.299  1.00  0.00     0.167 HD
ATOM     50  C   UNL A   1      39.408  32.748  34.826  1.00  0.00     0.074 A 
ATOM     51  C   UNL A   1      38.296  33.664  34.676  1.00  0.00     0.031 C 
ATOM     52  C   UNL A   1      40.188  32.670  35.933  1.00  0.00     0.037 A 
BRANCH  39  53
ATOM     53  C   UNL A   1      44.625  28.360  35.672  1.00  0.00     0.058 A 
ATOM     54  C   UNL A   1      44.411  27.256  36.512  1.00  0.00     0.135 A 
ATOM     55  C   UNL A   1      45.951  28.775  35.465  1.00  0.00     0.135 A 
ATOM     56  F   UNL A   1      43.162  26.830  36.764  1.00  0.00    -0.206 F 
ATOM     57  C   UNL A   1      45.467  26.603  37.140  1.00  0.00     0.059 A 
ATOM     58  C   UNL A   1      47.025  28.119  36.060  1.00  0.00     0.059 A 
ATOM     59  F   UNL A   1      46.215  29.830  34.679  1.00  0.00    -0.206 F 
ATOM     60  C   UNL A   1      46.771  27.041  36.906  1.00  0.00     0.060 A 
BRANCH  60  61
ATOM     61  S   UNL A   1      48.132  26.174  37.717  1.00  0.00     0.124 S 
ATOM     62  O   UNL A   1      49.019  25.905  36.590  1.00  0.00    -0.237 OA
ATOM     63  O   UNL A   1      48.607  27.167  38.675  1.00  0.00    -0.237 OA
ATOM     64  O   UNL A   1      47.488  25.001  38.302  1.00  0.00    -0.744 OA
ENDBRANCH  60  61
ENDBRANCH  39  53
BRANCH  40  65
ATOM     65  C   UNL A   1      36.986  32.673  30.775  1.00  0.00     0.058 A 
ATOM     66  C   UNL A   1      37.159  33.808  29.969  1.00  0.00     0.135 A 
ATOM     67  C   UNL A   1      35.691  32.141  30.883  1.00  0.00     0.135 A 
ATOM     68  F   UNL A   1      38.375  34.358  29.837  1.00  0.00    -0.206 F 
ATOM     69  C   UNL A   1      36.089  34.403  29.308  1.00  0.00     0.059 A 
ATOM     70  C   UNL A   1      34.610  32.701  30.211  1.00  0.00     0.059 A 
ATOM     71  F   UNL A   1      35.472  31.048  31.631  1.00  0.00    -0.206 F 
ATOM     72  C   UNL A   1      34.818  33.840  29.433  1.00  0.00     0.060 A 
BRANCH  72  73
ATOM     73  S   UNL A   1      33.444  34.594  28.536  1.00  0.00     0.124 S 
ATOM     74  O   UNL A   1      33.016  33.496  27.677  1.00  0.00    -0.237 OA
ATOM     75  O   UNL A   1      32.532  34.951  29.618  1.00  0.00    -0.237 OA
ATOM     76  O   UNL A   1      34.069  35.723  27.853  1.00  0.00    -0.744 OA
ENDBRANCH  72  73
ENDBRANCH  40  65
BRANCH  52  77
ATOM     77  C   UNL A   1      39.891  33.626  37.055  1.00  0.00     0.058 A 
ATOM     78  C   UNL A   1      39.024  33.288  38.105  1.00  0.00     0.135 A 
ATOM     79  C   UNL A   1      40.528  34.876  37.106  1.00  0.00     0.135 A 
ATOM     80  F   UNL A   1      38.384  32.107  38.101  1.00  0.00    -0.206 F 
ATOM     81  C   UNL A   1      38.779  34.167  39.154  1.00  0.00     0.059 A 
ATOM     82  C   UNL A   1      40.323  35.757  38.162  1.00  0.00     0.059 A 
ATOM     83  F   UNL A   1      41.378  35.244  36.133  1.00  0.00    -0.206 F 
ATOM     84  C   UNL A   1      39.437  35.398  39.176  1.00  0.00     0.060 A 
BRANCH  84  85
ATOM     85  S   UNL A   1      39.135  36.516  40.561  1.00  0.00     0.124 S 
ATOM     86  O   UNL A   1      40.454  36.580  41.179  1.00  0.00    -0.237 OA
ATOM     87  O   UNL A   1      38.690  37.733  39.887  1.00  0.00    -0.237 OA
ATOM     88  O   UNL A   1      38.109  35.827  41.337  1.00  0.00    -0.744 OA
ENDBRANCH  84  85
ENDBRANCH  52  77
ENDBRANCH  26  27
ENDBRANCH  19  21
ENDBRANCH  18  19
ENDBRANCH  17  18
ENDBRANCH   1  17
TORSDOF 19
ENDMDL
