MODEL 1
REMARK VINA RESULT:     -10.1      0.000      0.000
REMARK SMILES Cc1cc(O[C@@H](C)C(=O)NCCC(=O)OCCOCCOC(=O)c2ccc(-c3c4nc(c(-c5c(F)cc(S(=O)(=O)[O-])cc5F)c5ccc([nH]5)c(-c5c(F)cc(S(=O)(=O)[O-])cc5F)c5nc(c(-c6c(F)cc(S(=O)(=O)[O-])cc6F)c6ccc3[nH]6)C=C5)C=C4)cc2)c2c3c(c(=O)oc2c1)CCCC3
REMARK SMILES IDX 17 1 16 2 15 3 13 4 14 5 12 6 11 7 10 8 8 9 9 10 6 12 7 13
REMARK SMILES IDX 5 14 4 15 1 16 2 17 3 18 97 19 96 20 90 21 95 22 91 23 93 24
REMARK SMILES IDX 92 25 101 26 94 27 98 28 100 29 99 30 18 31 19 32 20 33
REMARK SMILES IDX 21 34 22 35 23 36 24 37 25 38 89 39 26 40 88 41 27 42 28 43
REMARK SMILES IDX 29 44 82 45 30 46 87 47 81 48 83 49 31 50 86 51 80 52 79 53
REMARK SMILES IDX 32 55 66 56 45 57 65 58 46 59 49 60 64 61 84 62 47 63 48 64
REMARK SMILES IDX 63 66 85 67 50 68 33 69 34 70 43 71 35 72 36 73 42 74 44 75
REMARK SMILES IDX 37 76 38 77 39 78 40 79 41 80 67 81 68 82 77 83 69 84 70 85
REMARK SMILES IDX 76 86 78 87 71 88 72 89 73 90 74 91 75 92 51 93 52 94 61 95
REMARK SMILES IDX 53 96 54 97 60 98 62 99 55 100 56 101 57 102 58 103 59 104
REMARK H PARENT 10 11 83 54 49 65
REMARK Flexibility Score: inf
ROOT
ATOM      1  C   UNL A   1      42.774  21.670  27.576  1.00  0.00     0.202 C 
ENDROOT
BRANCH   1   2
ATOM      2  C   UNL A   1      41.420  20.957  27.590  1.00  0.00     0.261 C 
BRANCH   2   3
ATOM      3  O   UNL A   1      40.953  20.761  26.244  1.00  0.00    -0.463 OA
BRANCH   3   4
ATOM      4  C   UNL A   1      40.667  19.486  25.885  1.00  0.00     0.307 C 
ATOM      5  O   UNL A   1      41.489  18.598  25.703  1.00  0.00    -0.252 OA
BRANCH   4   6
ATOM      6  C   UNL A   1      39.181  19.268  25.770  1.00  0.00     0.144 C 
BRANCH   6   7
ATOM      7  C   UNL A   1      38.472  20.332  24.937  1.00  0.00     0.127 C 
BRANCH   7   8
ATOM      8  N   UNL A   1      38.409  21.617  25.587  1.00  0.00    -0.352 N 
ATOM      9  C   UNL A   1      37.538  22.647  25.497  1.00  0.00     0.260 C 
ATOM     10  O   UNL A   1      37.713  23.561  26.315  1.00  0.00    -0.271 OA
ATOM     11  H   UNL A   1      39.145  21.775  26.221  1.00  0.00     0.163 HD
BRANCH   9  12
ATOM     12  C   UNL A   1      36.317  22.710  24.534  1.00  0.00     0.258 C 
ATOM     13  C   UNL A   1      36.758  23.046  23.111  1.00  0.00     0.064 C 
BRANCH  12  14
ATOM     14  O   UNL A   1      35.018  23.128  24.912  1.00  0.00    -0.480 OA
BRANCH  14  15
ATOM     15  C   UNL A   1      33.808  22.714  24.462  1.00  0.00     0.132 A 
ATOM     16  C   UNL A   1      32.181  19.626  22.933  1.00  0.00     0.044 C 
ATOM     17  C   UNL A   1      32.351  21.017  23.468  1.00  0.00    -0.044 A 
ATOM     18  C   UNL A   1      33.508  21.377  24.171  1.00  0.00     0.050 A 
ATOM     19  C   UNL A   1      31.434  22.008  23.145  1.00  0.00     0.051 A 
ATOM     20  C   UNL A   1      31.665  23.320  23.560  1.00  0.00     0.142 A 
ATOM     21  C   UNL A   1      32.826  23.714  24.236  1.00  0.00     0.063 A 
ATOM     22  O   UNL A   1      30.655  24.230  23.206  1.00  0.00    -0.422 OA
ATOM     23  C   UNL A   1      32.911  25.144  24.647  1.00  0.00    -0.023 A 
ATOM     24  C   UNL A   1      30.713  25.560  23.567  1.00  0.00     0.339 A 
ATOM     25  C   UNL A   1      31.908  25.991  24.333  1.00  0.00     0.042 A 
ATOM     26  C   UNL A   1      34.083  25.627  25.479  1.00  0.00     0.037 C 
ATOM     27  O   UNL A   1      29.802  26.332  23.290  1.00  0.00    -0.246 OA
ATOM     28  C   UNL A   1      31.873  27.443  24.745  1.00  0.00     0.043 C 
ATOM     29  C   UNL A   1      33.845  26.953  26.204  1.00  0.00     0.005 C 
ATOM     30  C   UNL A   1      33.199  27.972  25.283  1.00  0.00     0.005 C 
ENDBRANCH  14  15
ENDBRANCH  12  14
ENDBRANCH   9  12
ENDBRANCH   7   8
ENDBRANCH   6   7
ENDBRANCH   4   6
ENDBRANCH   3   4
ENDBRANCH   2   3
ENDBRANCH   1   2
BRANCH   1  31
ATOM     31  O   UNL A   1      42.770  23.043  27.958  1.00  0.00    -0.374 OA
BRANCH  31  32
ATOM     32  C   UNL A   1      41.565  23.786  27.781  1.00  0.00     0.202 C 
BRANCH  32  33
ATOM     33  C   UNL A   1      41.384  24.497  26.427  1.00  0.00     0.261 C 
BRANCH  33  34
ATOM     34  O   UNL A   1      42.565  25.222  26.031  1.00  0.00    -0.460 OA
BRANCH  34  35
ATOM     35  C   UNL A   1      42.395  26.548  25.798  1.00  0.00     0.338 C 
ATOM     36  O   UNL A   1      42.219  27.086  24.717  1.00  0.00    -0.246 OA
BRANCH  35  37
ATOM     37  C   UNL A   1      42.202  27.238  27.090  1.00  0.00     0.060 A 
ATOM     38  C   UNL A   1      43.091  28.213  27.546  1.00  0.00     0.016 A 
ATOM     39  C   UNL A   1      41.082  26.887  27.856  1.00  0.00     0.016 A 
ATOM     40  C   UNL A   1      42.845  28.848  28.770  1.00  0.00     0.010 A 
ATOM     41  C   UNL A   1      40.849  27.509  29.080  1.00  0.00     0.010 A 
ATOM     42  C   UNL A   1      41.719  28.507  29.541  1.00  0.00    -0.014 A 
BRANCH  42  43
ATOM     43  C   UNL A   1      41.370  29.258  30.772  1.00  0.00     0.031 A 
ATOM     44  C   UNL A   1      40.233  30.237  30.793  1.00  0.00     0.074 A 
ATOM     45  C   UNL A   1      42.143  29.099  31.863  1.00  0.00     0.049 A 
ATOM     46  N   UNL A   1      39.827  31.007  31.769  1.00  0.00    -0.248 NA
ATOM     47  C   UNL A   1      39.461  30.378  29.550  1.00  0.00     0.031 C 
ATOM     48  C   UNL A   1      43.294  28.198  31.951  1.00  0.00     0.029 A 
ATOM     49  N   UNL A   1      42.089  29.694  33.097  1.00  0.00    -0.354 N 
ATOM     50  C   UNL A   1      38.740  31.714  31.272  1.00  0.00     0.074 A 
ATOM     51  C   UNL A   1      38.582  31.314  29.887  1.00  0.00     0.031 C 
ATOM     52  C   UNL A   1      43.828  28.291  33.179  1.00  0.00     0.029 A 
ATOM     53  C   UNL A   1      43.082  29.280  33.950  1.00  0.00     0.049 A 
ATOM     54  H   UNL A   1      41.404  30.356  33.347  1.00  0.00     0.167 HD
ATOM     55  C   UNL A   1      37.940  32.600  31.915  1.00  0.00     0.037 A 
ATOM     56  C   UNL A   1      43.367  29.659  35.212  1.00  0.00     0.037 A 
ATOM     57  C   UNL A   1      38.122  33.013  33.287  1.00  0.00     0.049 A 
ATOM     58  C   UNL A   1      42.500  30.684  35.887  1.00  0.00     0.074 A 
ATOM     59  C   UNL A   1      37.349  33.886  34.033  1.00  0.00     0.029 A 
ATOM     60  N   UNL A   1      39.154  32.593  34.114  1.00  0.00    -0.354 N 
ATOM     61  N   UNL A   1      41.445  31.309  35.418  1.00  0.00    -0.248 NA
ATOM     62  C   UNL A   1      42.857  31.050  37.262  1.00  0.00     0.031 C 
ATOM     63  C   UNL A   1      37.945  34.037  35.292  1.00  0.00     0.029 A 
ATOM     64  C   UNL A   1      39.057  33.214  35.352  1.00  0.00     0.049 A 
ATOM     65  H   UNL A   1      39.855  31.950  33.860  1.00  0.00     0.167 HD
ATOM     66  C   UNL A   1      41.006  32.137  36.446  1.00  0.00     0.074 A 
ATOM     67  C   UNL A   1      41.894  31.908  37.569  1.00  0.00     0.031 C 
ATOM     68  C   UNL A   1      39.964  33.006  36.457  1.00  0.00     0.037 A 
BRANCH  55  69
ATOM     69  C   UNL A   1      36.796  33.196  31.137  1.00  0.00     0.058 A 
ATOM     70  C   UNL A   1      35.466  32.812  31.376  1.00  0.00     0.135 A 
ATOM     71  C   UNL A   1      37.022  34.186  30.165  1.00  0.00     0.135 A 
ATOM     72  F   UNL A   1      35.189  31.864  32.285  1.00  0.00    -0.206 F 
ATOM     73  C   UNL A   1      34.407  33.361  30.659  1.00  0.00     0.059 A 
ATOM     74  C   UNL A   1      35.975  34.770  29.456  1.00  0.00     0.059 A 
ATOM     75  F   UNL A   1      38.272  34.596  29.897  1.00  0.00    -0.206 F 
ATOM     76  C   UNL A   1      34.673  34.338  29.698  1.00  0.00     0.060 A 
BRANCH  76  77
ATOM     77  S   UNL A   1      33.287  35.023  28.765  1.00  0.00     0.124 S 
ATOM     78  O   UNL A   1      33.951  36.052  27.972  1.00  0.00    -0.237 OA
ATOM     79  O   UNL A   1      32.808  33.862  28.023  1.00  0.00    -0.237 OA
ATOM     80  O   UNL A   1      32.387  35.516  29.803  1.00  0.00    -0.744 OA
ENDBRANCH  76  77
ENDBRANCH  55  69
BRANCH  56  81
ATOM     81  C   UNL A   1      44.513  29.030  35.920  1.00  0.00     0.058 A 
ATOM     82  C   UNL A   1      45.797  29.588  35.843  1.00  0.00     0.135 A 
ATOM     83  C   UNL A   1      44.338  27.898  36.732  1.00  0.00     0.135 A 
ATOM     84  F   UNL A   1      46.015  30.664  35.071  1.00  0.00    -0.206 F 
ATOM     85  C   UNL A   1      46.866  29.054  36.553  1.00  0.00     0.059 A 
ATOM     86  C   UNL A   1      45.386  27.360  37.471  1.00  0.00     0.059 A 
ATOM     87  F   UNL A   1      43.125  27.334  36.846  1.00  0.00    -0.206 F 
ATOM     88  C   UNL A   1      46.647  27.948  37.376  1.00  0.00     0.060 A 
BRANCH  88  89
ATOM     89  S   UNL A   1      48.024  27.326  38.365  1.00  0.00     0.124 S 
ATOM     90  O   UNL A   1      48.752  28.553  38.664  1.00  0.00    -0.237 OA
ATOM     91  O   UNL A   1      47.331  26.704  39.490  1.00  0.00    -0.237 OA
ATOM     92  O   UNL A   1      48.696  26.398  37.461  1.00  0.00    -0.744 OA
ENDBRANCH  88  89
ENDBRANCH  56  81
BRANCH  68  93
ATOM     93  C   UNL A   1      39.732  33.781  37.728  1.00  0.00     0.058 A 
ATOM     94  C   UNL A   1      40.396  34.994  37.981  1.00  0.00     0.135 A 
ATOM     95  C   UNL A   1      38.831  33.316  38.700  1.00  0.00     0.135 A 
ATOM     96  F   UNL A   1      41.271  35.484  37.089  1.00  0.00    -0.206 F 
ATOM     97  C   UNL A   1      40.208  35.693  39.169  1.00  0.00     0.059 A 
ATOM     98  C   UNL A   1      38.604  34.018  39.882  1.00  0.00     0.059 A 
ATOM     99  F   UNL A   1      38.159  32.171  38.507  1.00  0.00    -0.206 F 
ATOM    100  C   UNL A   1      39.312  35.194  40.117  1.00  0.00     0.060 A 
BRANCH 100 101
ATOM    101  S   UNL A   1      39.088  36.108  41.657  1.00  0.00     0.124 S 
ATOM    102  O   UNL A   1      39.016  37.484  41.176  1.00  0.00    -0.237 OA
ATOM    103  O   UNL A   1      37.842  35.550  42.172  1.00  0.00    -0.237 OA
ATOM    104  O   UNL A   1      40.283  35.775  42.428  1.00  0.00    -0.744 OA
ENDBRANCH 100 101
ENDBRANCH  68  93
ENDBRANCH  42  43
ENDBRANCH  35  37
ENDBRANCH  34  35
ENDBRANCH  33  34
ENDBRANCH  32  33
ENDBRANCH  31  32
ENDBRANCH   1  31
TORSDOF 22
ENDMDL
MODEL 2
REMARK VINA RESULT:     -10.1      4.182     11.296
REMARK SMILES Cc1cc(O[C@@H](C)C(=O)NCCC(=O)OCCOCCOC(=O)c2ccc(-c3c4nc(c(-c5c(F)cc(S(=O)(=O)[O-])cc5F)c5ccc([nH]5)c(-c5c(F)cc(S(=O)(=O)[O-])cc5F)c5nc(c(-c6c(F)cc(S(=O)(=O)[O-])cc6F)c6ccc3[nH]6)C=C5)C=C4)cc2)c2c3c(c(=O)oc2c1)CCCC3
REMARK SMILES IDX 17 1 16 2 15 3 13 4 14 5 12 6 11 7 10 8 8 9 9 10 6 12 7 13
REMARK SMILES IDX 5 14 4 15 1 16 2 17 3 18 97 19 96 20 90 21 95 22 91 23 93 24
REMARK SMILES IDX 92 25 101 26 94 27 98 28 100 29 99 30 18 31 19 32 20 33
REMARK SMILES IDX 21 34 22 35 23 36 24 37 25 38 89 39 26 40 88 41 27 42 28 43
REMARK SMILES IDX 29 44 82 45 30 46 87 47 81 48 83 49 31 50 86 51 80 52 79 53
REMARK SMILES IDX 32 55 66 56 45 57 65 58 46 59 49 60 64 61 84 62 47 63 48 64
REMARK SMILES IDX 63 66 85 67 50 68 33 69 34 70 43 71 35 72 36 73 42 74 44 75
REMARK SMILES IDX 37 76 38 77 39 78 40 79 41 80 67 81 68 82 77 83 69 84 70 85
REMARK SMILES IDX 76 86 78 87 71 88 72 89 73 90 74 91 75 92 51 93 52 94 61 95
REMARK SMILES IDX 53 96 54 97 60 98 62 99 55 100 56 101 57 102 58 103 59 104
REMARK H PARENT 10 11 83 54 49 65
REMARK Flexibility Score: inf
ROOT
ATOM      1  C   UNL A   1      46.727  24.998  25.625  1.00  0.00     0.202 C 
ENDROOT
BRANCH   1   2
ATOM      2  C   UNL A   1      47.303  26.291  26.205  1.00  0.00     0.261 C 
BRANCH   2   3
ATOM      3  O   UNL A   1      46.505  27.414  25.793  1.00  0.00    -0.463 OA
BRANCH   3   4
ATOM      4  C   UNL A   1      46.301  28.381  26.721  1.00  0.00     0.307 C 
ATOM      5  O   UNL A   1      47.079  28.681  27.616  1.00  0.00    -0.252 OA
BRANCH   4   6
ATOM      6  C   UNL A   1      44.991  29.090  26.496  1.00  0.00     0.144 C 
BRANCH   6   7
ATOM      7  C   UNL A   1      44.871  30.404  27.262  1.00  0.00     0.127 C 
BRANCH   7   8
ATOM      8  N   UNL A   1      45.769  31.426  26.786  1.00  0.00    -0.352 N 
ATOM      9  C   UNL A   1      45.568  32.680  26.321  1.00  0.00     0.260 C 
ATOM     10  O   UNL A   1      46.596  33.343  26.124  1.00  0.00    -0.271 OA
ATOM     11  H   UNL A   1      46.716  31.158  26.805  1.00  0.00     0.163 HD
BRANCH   9  12
ATOM     12  C   UNL A   1      44.178  33.349  26.118  1.00  0.00     0.258 C 
ATOM     13  C   UNL A   1      44.164  34.212  24.858  1.00  0.00     0.064 C 
BRANCH  12  14
ATOM     14  O   UNL A   1      43.318  33.746  27.170  1.00  0.00    -0.480 OA
BRANCH  14  15
ATOM     15  C   UNL A   1      43.121  34.973  27.715  1.00  0.00     0.132 A 
ATOM     16  C   UNL A   1      42.651  38.593  26.621  1.00  0.00     0.044 C 
ATOM     17  C   UNL A   1      42.800  37.390  27.505  1.00  0.00    -0.044 A 
ATOM     18  C   UNL A   1      42.741  36.097  26.970  1.00  0.00     0.050 A 
ATOM     19  C   UNL A   1      43.148  37.542  28.841  1.00  0.00     0.051 A 
ATOM     20  C   UNL A   1      43.391  36.411  29.621  1.00  0.00     0.142 A 
ATOM     21  C   UNL A   1      43.369  35.109  29.106  1.00  0.00     0.063 A 
ATOM     22  O   UNL A   1      43.701  36.684  30.964  1.00  0.00    -0.422 OA
ATOM     23  C   UNL A   1      43.610  34.000  30.073  1.00  0.00    -0.023 A 
ATOM     24  C   UNL A   1      43.936  35.677  31.876  1.00  0.00     0.339 A 
ATOM     25  C   UNL A   1      43.864  34.286  31.367  1.00  0.00     0.042 A 
ATOM     26  C   UNL A   1      43.494  32.558  29.619  1.00  0.00     0.037 C 
ATOM     27  O   UNL A   1      44.162  35.931  33.055  1.00  0.00    -0.246 OA
ATOM     28  C   UNL A   1      44.071  33.237  32.435  1.00  0.00     0.043 C 
ATOM     29  C   UNL A   1      43.315  31.547  30.753  1.00  0.00     0.005 C 
ATOM     30  C   UNL A   1      44.277  31.827  31.893  1.00  0.00     0.005 C 
ENDBRANCH  14  15
ENDBRANCH  12  14
ENDBRANCH   9  12
ENDBRANCH   7   8
ENDBRANCH   6   7
ENDBRANCH   4   6
ENDBRANCH   3   4
ENDBRANCH   2   3
ENDBRANCH   1   2
BRANCH   1  31
ATOM     31  O   UNL A   1      45.376  25.055  25.171  1.00  0.00    -0.374 OA
BRANCH  31  32
ATOM     32  C   UNL A   1      44.380  24.384  25.942  1.00  0.00     0.202 C 
BRANCH  32  33
ATOM     33  C   UNL A   1      43.050  24.073  25.232  1.00  0.00     0.261 C 
BRANCH  33  34
ATOM     34  O   UNL A   1      42.088  25.134  25.390  1.00  0.00    -0.460 OA
BRANCH  34  35
ATOM     35  C   UNL A   1      41.053  24.873  26.228  1.00  0.00     0.338 C 
ATOM     36  O   UNL A   1      40.315  23.902  26.202  1.00  0.00    -0.246 OA
BRANCH  35  37
ATOM     37  C   UNL A   1      41.099  25.829  27.354  1.00  0.00     0.060 A 
ATOM     38  C   UNL A   1      42.045  26.854  27.412  1.00  0.00     0.016 A 
ATOM     39  C   UNL A   1      40.152  25.680  28.376  1.00  0.00     0.016 A 
ATOM     40  C   UNL A   1      42.028  27.742  28.495  1.00  0.00     0.010 A 
ATOM     41  C   UNL A   1      40.148  26.556  29.459  1.00  0.00     0.010 A 
ATOM     42  C   UNL A   1      41.075  27.605  29.520  1.00  0.00    -0.014 A 
BRANCH  42  43
ATOM     43  C   UNL A   1      40.956  28.611  30.605  1.00  0.00     0.031 A 
ATOM     44  C   UNL A   1      41.827  28.548  31.826  1.00  0.00     0.074 A 
ATOM     45  C   UNL A   1      39.996  29.549  30.509  1.00  0.00     0.049 A 
ATOM     46  N   UNL A   1      41.819  29.318  32.883  1.00  0.00    -0.248 NA
ATOM     47  C   UNL A   1      42.826  27.472  31.868  1.00  0.00     0.031 C 
ATOM     48  C   UNL A   1      39.070  29.690  29.384  1.00  0.00     0.029 A 
ATOM     49  N   UNL A   1      39.630  30.551  31.371  1.00  0.00    -0.354 N 
ATOM     50  C   UNL A   1      42.823  28.837  33.714  1.00  0.00     0.074 A 
ATOM     51  C   UNL A   1      43.385  27.674  33.055  1.00  0.00     0.031 C 
ATOM     52  C   UNL A   1      38.252  30.727  29.618  1.00  0.00     0.029 A 
ATOM     53  C   UNL A   1      38.569  31.300  30.923  1.00  0.00     0.049 A 
ATOM     54  H   UNL A   1      40.082  30.717  32.230  1.00  0.00     0.167 HD
ATOM     55  C   UNL A   1      43.244  29.328  34.906  1.00  0.00     0.037 A 
ATOM     56  C   UNL A   1      37.919  32.331  31.499  1.00  0.00     0.037 A 
ATOM     57  C   UNL A   1      42.658  30.471  35.567  1.00  0.00     0.049 A 
ATOM     58  C   UNL A   1      38.368  32.824  32.845  1.00  0.00     0.074 A 
ATOM     59  C   UNL A   1      43.032  31.058  36.764  1.00  0.00     0.029 A 
ATOM     60  N   UNL A   1      41.568  31.191  35.097  1.00  0.00    -0.354 N 
ATOM     61  N   UNL A   1      39.350  32.387  33.598  1.00  0.00    -0.248 NA
ATOM     62  C   UNL A   1      37.625  33.953  33.417  1.00  0.00     0.031 C 
ATOM     63  C   UNL A   1      42.134  32.097  37.044  1.00  0.00     0.029 A 
ATOM     64  C   UNL A   1      41.236  32.196  35.995  1.00  0.00     0.049 A 
ATOM     65  H   UNL A   1      41.098  31.014  34.250  1.00  0.00     0.167 HD
ATOM     66  C   UNL A   1      39.350  33.195  34.730  1.00  0.00     0.074 A 
ATOM     67  C   UNL A   1      38.287  34.164  34.546  1.00  0.00     0.031 C 
ATOM     68  C   UNL A   1      40.156  33.139  35.820  1.00  0.00     0.037 A 
BRANCH  55  69
ATOM     69  C   UNL A   1      44.391  28.624  35.582  1.00  0.00     0.058 A 
ATOM     70  C   UNL A   1      45.726  28.921  35.262  1.00  0.00     0.135 A 
ATOM     71  C   UNL A   1      44.160  27.667  36.585  1.00  0.00     0.135 A 
ATOM     72  F   UNL A   1      46.009  29.819  34.305  1.00  0.00    -0.206 F 
ATOM     73  C   UNL A   1      46.789  28.271  35.885  1.00  0.00     0.059 A 
ATOM     74  C   UNL A   1      45.208  27.026  37.242  1.00  0.00     0.059 A 
ATOM     75  F   UNL A   1      42.905  27.346  36.936  1.00  0.00    -0.206 F 
ATOM     76  C   UNL A   1      46.518  27.323  36.873  1.00  0.00     0.060 A 
BRANCH  76  77
ATOM     77  S   UNL A   1      47.909  26.478  37.655  1.00  0.00     0.124 S 
ATOM     78  O   UNL A   1      48.206  25.439  36.675  1.00  0.00    -0.237 OA
ATOM     79  O   UNL A   1      48.898  27.546  37.766  1.00  0.00    -0.237 OA
ATOM     80  O   UNL A   1      47.354  26.006  38.919  1.00  0.00    -0.744 OA
ENDBRANCH  76  77
ENDBRANCH  55  69
BRANCH  56  81
ATOM     81  C   UNL A   1      36.793  32.978  30.774  1.00  0.00     0.058 A 
ATOM     82  C   UNL A   1      35.465  32.732  31.148  1.00  0.00     0.135 A 
ATOM     83  C   UNL A   1      37.024  33.898  29.739  1.00  0.00     0.135 A 
ATOM     84  F   UNL A   1      35.196  31.852  32.124  1.00  0.00    -0.206 F 
ATOM     85  C   UNL A   1      34.403  33.380  30.528  1.00  0.00     0.059 A 
ATOM     86  C   UNL A   1      35.980  34.578  29.121  1.00  0.00     0.059 A 
ATOM     87  F   UNL A   1      38.280  34.176  29.354  1.00  0.00    -0.206 F 
ATOM     88  C   UNL A   1      34.673  34.313  29.525  1.00  0.00     0.060 A 
BRANCH  88  89
ATOM     89  S   UNL A   1      33.288  35.217  28.797  1.00  0.00     0.124 S 
ATOM     90  O   UNL A   1      32.615  34.169  28.039  1.00  0.00    -0.237 OA
ATOM     91  O   UNL A   1      32.587  35.699  29.983  1.00  0.00    -0.237 OA
ATOM     92  O   UNL A   1      33.942  36.251  28.001  1.00  0.00    -0.744 OA
ENDBRANCH  88  89
ENDBRANCH  56  81
BRANCH  68  93
ATOM     93  C   UNL A   1      39.911  34.154  36.907  1.00  0.00     0.058 A 
ATOM     94  C   UNL A   1      40.578  35.391  36.921  1.00  0.00     0.135 A 
ATOM     95  C   UNL A   1      38.993  33.896  37.938  1.00  0.00     0.135 A 
ATOM     96  F   UNL A   1      41.468  35.689  35.963  1.00  0.00    -0.206 F 
ATOM     97  C   UNL A   1      40.377  36.314  37.943  1.00  0.00     0.059 A 
ATOM     98  C   UNL A   1      38.753  34.820  38.952  1.00  0.00     0.059 A 
ATOM     99  F   UNL A   1      38.317  32.737  37.969  1.00  0.00    -0.206 F 
ATOM    100  C   UNL A   1      39.465  36.018  38.957  1.00  0.00     0.060 A 
BRANCH 100 101
ATOM    101  S   UNL A   1      39.225  37.222  40.280  1.00  0.00     0.124 S 
ATOM    102  O   UNL A   1      40.602  37.582  40.604  1.00  0.00    -0.237 OA
ATOM    103  O   UNL A   1      38.438  38.259  39.619  1.00  0.00    -0.237 OA
ATOM    104  O   UNL A   1      38.516  36.464  41.307  1.00  0.00    -0.744 OA
ENDBRANCH 100 101
ENDBRANCH  68  93
ENDBRANCH  42  43
ENDBRANCH  35  37
ENDBRANCH  34  35
ENDBRANCH  33  34
ENDBRANCH  32  33
ENDBRANCH  31  32
ENDBRANCH   1  31
TORSDOF 22
ENDMDL
MODEL 3
REMARK VINA RESULT:      -9.9      6.301     13.398
REMARK SMILES Cc1cc(O[C@@H](C)C(=O)NCCC(=O)OCCOCCOC(=O)c2ccc(-c3c4nc(c(-c5c(F)cc(S(=O)(=O)[O-])cc5F)c5ccc([nH]5)c(-c5c(F)cc(S(=O)(=O)[O-])cc5F)c5nc(c(-c6c(F)cc(S(=O)(=O)[O-])cc6F)c6ccc3[nH]6)C=C5)C=C4)cc2)c2c3c(c(=O)oc2c1)CCCC3
REMARK SMILES IDX 17 1 16 2 15 3 13 4 14 5 12 6 11 7 10 8 8 9 9 10 6 12 7 13
REMARK SMILES IDX 5 14 4 15 1 16 2 17 3 18 97 19 96 20 90 21 95 22 91 23 93 24
REMARK SMILES IDX 92 25 101 26 94 27 98 28 100 29 99 30 18 31 19 32 20 33
REMARK SMILES IDX 21 34 22 35 23 36 24 37 25 38 89 39 26 40 88 41 27 42 28 43
REMARK SMILES IDX 29 44 82 45 30 46 87 47 81 48 83 49 31 50 86 51 80 52 79 53
REMARK SMILES IDX 32 55 66 56 45 57 65 58 46 59 49 60 64 61 84 62 47 63 48 64
REMARK SMILES IDX 63 66 85 67 50 68 33 69 34 70 43 71 35 72 36 73 42 74 44 75
REMARK SMILES IDX 37 76 38 77 39 78 40 79 41 80 67 81 68 82 77 83 69 84 70 85
REMARK SMILES IDX 76 86 78 87 71 88 72 89 73 90 74 91 75 92 51 93 52 94 61 95
REMARK SMILES IDX 53 96 54 97 60 98 62 99 55 100 56 101 57 102 58 103 59 104
REMARK H PARENT 10 11 83 54 49 65
REMARK Flexibility Score: inf
ROOT
ATOM      1  C   UNL A   1      44.124  38.257  31.278  1.00  0.00     0.202 C 
ENDROOT
BRANCH   1   2
ATOM      2  C   UNL A   1      43.800  36.767  31.148  1.00  0.00     0.261 C 
BRANCH   2   3
ATOM      3  O   UNL A   1      43.616  36.188  32.451  1.00  0.00    -0.463 OA
BRANCH   3   4
ATOM      4  C   UNL A   1      42.819  35.093  32.517  1.00  0.00     0.307 C 
ATOM      5  O   UNL A   1      42.498  34.391  31.567  1.00  0.00    -0.252 OA
BRANCH   4   6
ATOM      6  C   UNL A   1      42.394  34.808  33.933  1.00  0.00     0.144 C 
BRANCH   6   7
ATOM      7  C   UNL A   1      42.496  33.334  34.314  1.00  0.00     0.127 C 
BRANCH   7   8
ATOM      8  N   UNL A   1      41.718  32.989  35.477  1.00  0.00    -0.352 N 
ATOM      9  C   UNL A   1      41.110  31.846  35.868  1.00  0.00     0.260 C 
ATOM     10  O   UNL A   1      40.634  31.864  37.011  1.00  0.00    -0.271 OA
ATOM     11  H   UNL A   1      41.607  33.733  36.112  1.00  0.00     0.163 HD
BRANCH   9  12
ATOM     12  C   UNL A   1      41.059  30.529  35.041  1.00  0.00     0.258 C 
ATOM     13  C   UNL A   1      39.621  30.164  34.678  1.00  0.00     0.064 C 
BRANCH  12  14
ATOM     14  O   UNL A   1      41.969  29.454  35.189  1.00  0.00    -0.480 OA
BRANCH  14  15
ATOM     15  C   UNL A   1      43.063  29.136  34.452  1.00  0.00     0.132 A 
ATOM     16  C   UNL A   1      45.510  30.771  32.032  1.00  0.00     0.044 C 
ATOM     17  C   UNL A   1      44.837  29.728  32.874  1.00  0.00    -0.044 A 
ATOM     18  C   UNL A   1      43.881  30.089  33.833  1.00  0.00     0.050 A 
ATOM     19  C   UNL A   1      45.041  28.380  32.613  1.00  0.00     0.051 A 
ATOM     20  C   UNL A   1      44.324  27.424  33.333  1.00  0.00     0.142 A 
ATOM     21  C   UNL A   1      43.341  27.755  34.273  1.00  0.00     0.063 A 
ATOM     22  O   UNL A   1      44.636  26.093  33.008  1.00  0.00    -0.422 OA
ATOM     23  C   UNL A   1      42.688  26.623  34.990  1.00  0.00    -0.023 A 
ATOM     24  C   UNL A   1      44.040  25.028  33.649  1.00  0.00     0.339 A 
ATOM     25  C   UNL A   1      43.036  25.353  34.690  1.00  0.00     0.042 A 
ATOM     26  C   UNL A   1      41.695  26.898  36.101  1.00  0.00     0.037 C 
ATOM     27  O   UNL A   1      44.357  23.873  33.386  1.00  0.00    -0.246 OA
ATOM     28  C   UNL A   1      42.472  24.139  35.391  1.00  0.00     0.043 C 
ATOM     29  C   UNL A   1      41.444  25.715  37.039  1.00  0.00     0.005 C 
ATOM     30  C   UNL A   1      41.251  24.429  36.257  1.00  0.00     0.005 C 
ENDBRANCH  14  15
ENDBRANCH  12  14
ENDBRANCH   9  12
ENDBRANCH   7   8
ENDBRANCH   6   7
ENDBRANCH   4   6
ENDBRANCH   3   4
ENDBRANCH   2   3
ENDBRANCH   1   2
BRANCH   1  31
ATOM     31  O   UNL A   1      44.094  39.018  30.073  1.00  0.00    -0.374 OA
BRANCH  31  32
ATOM     32  C   UNL A   1      45.312  39.603  29.617  1.00  0.00     0.202 C 
BRANCH  32  33
ATOM     33  C   UNL A   1      46.604  38.814  29.896  1.00  0.00     0.261 C 
BRANCH  33  34
ATOM     34  O   UNL A   1      46.649  37.569  29.171  1.00  0.00    -0.460 OA
BRANCH  34  35
ATOM     35  C   UNL A   1      47.741  36.794  29.395  1.00  0.00     0.338 C 
ATOM     36  O   UNL A   1      48.794  37.141  29.905  1.00  0.00    -0.246 OA
BRANCH  35  37
ATOM     37  C   UNL A   1      47.380  35.382  29.155  1.00  0.00     0.060 A 
ATOM     38  C   UNL A   1      47.422  34.427  30.173  1.00  0.00     0.016 A 
ATOM     39  C   UNL A   1      46.984  35.021  27.861  1.00  0.00     0.016 A 
ATOM     40  C   UNL A   1      47.049  33.107  29.891  1.00  0.00     0.010 A 
ATOM     41  C   UNL A   1      46.628  33.703  27.580  1.00  0.00     0.010 A 
ATOM     42  C   UNL A   1      46.642  32.738  28.596  1.00  0.00    -0.014 A 
BRANCH  42  43
ATOM     43  C   UNL A   1      46.118  31.380  28.309  1.00  0.00     0.031 A 
ATOM     44  C   UNL A   1      44.689  31.018  28.591  1.00  0.00     0.074 A 
ATOM     45  C   UNL A   1      46.972  30.444  27.853  1.00  0.00     0.049 A 
ATOM     46  N   UNL A   1      44.086  29.867  28.442  1.00  0.00    -0.248 NA
ATOM     47  C   UNL A   1      43.831  32.087  29.121  1.00  0.00     0.031 C 
ATOM     48  C   UNL A   1      48.391  30.671  27.571  1.00  0.00     0.029 A 
ATOM     49  N   UNL A   1      46.780  29.118  27.560  1.00  0.00    -0.354 N 
ATOM     50  C   UNL A   1      42.771  30.070  28.842  1.00  0.00     0.074 A 
ATOM     51  C   UNL A   1      42.680  31.448  29.285  1.00  0.00     0.031 C 
ATOM     52  C   UNL A   1      48.937  29.526  27.132  1.00  0.00     0.029 A 
ATOM     53  C   UNL A   1      47.920  28.479  27.136  1.00  0.00     0.049 A 
ATOM     54  H   UNL A   1      45.909  28.668  27.646  1.00  0.00     0.167 HD
ATOM     55  C   UNL A   1      41.736  29.195  28.824  1.00  0.00     0.037 A 
ATOM     56  C   UNL A   1      48.127  27.192  26.795  1.00  0.00     0.037 A 
ATOM     57  C   UNL A   1      41.843  27.817  28.405  1.00  0.00     0.049 A 
ATOM     58  C   UNL A   1      46.977  26.226  26.834  1.00  0.00     0.074 A 
ATOM     59  C   UNL A   1      40.846  26.859  28.329  1.00  0.00     0.029 A 
ATOM     60  N   UNL A   1      43.019  27.195  28.007  1.00  0.00    -0.354 N 
ATOM     61  N   UNL A   1      45.727  26.445  27.169  1.00  0.00    -0.248 NA
ATOM     62  C   UNL A   1      47.263  24.840  26.445  1.00  0.00     0.031 C 
ATOM     63  C   UNL A   1      41.428  25.646  27.938  1.00  0.00     0.029 A 
ATOM     64  C   UNL A   1      42.777  25.860  27.714  1.00  0.00     0.049 A 
ATOM     65  H   UNL A   1      43.896  27.637  27.941  1.00  0.00     0.167 HD
ATOM     66  C   UNL A   1      45.074  25.226  27.021  1.00  0.00     0.074 A 
ATOM     67  C   UNL A   1      46.064  24.283  26.539  1.00  0.00     0.031 C 
ATOM     68  C   UNL A   1      43.775  24.917  27.263  1.00  0.00     0.037 A 
BRANCH  55  69
ATOM     69  C   UNL A   1      40.391  29.698  29.281  1.00  0.00     0.058 A 
ATOM     70  C   UNL A   1      39.341  29.916  28.374  1.00  0.00     0.135 A 
ATOM     71  C   UNL A   1      40.134  29.933  30.643  1.00  0.00     0.135 A 
ATOM     72  F   UNL A   1      39.530  29.717  27.060  1.00  0.00    -0.206 F 
ATOM     73  C   UNL A   1      38.098  30.381  28.794  1.00  0.00     0.059 A 
ATOM     74  C   UNL A   1      38.889  30.371  31.089  1.00  0.00     0.059 A 
ATOM     75  F   UNL A   1      41.099  29.739  31.555  1.00  0.00    -0.206 F 
ATOM     76  C   UNL A   1      37.883  30.608  30.155  1.00  0.00     0.060 A 
BRANCH  76  77
ATOM     77  S   UNL A   1      36.270  31.229  30.677  1.00  0.00     0.124 S 
ATOM     78  O   UNL A   1      36.574  32.629  30.953  1.00  0.00    -0.237 OA
ATOM     79  O   UNL A   1      35.446  30.981  29.499  1.00  0.00    -0.237 OA
ATOM     80  O   UNL A   1      35.953  30.415  31.845  1.00  0.00    -0.744 OA
ENDBRANCH  76  77
ENDBRANCH  55  69
BRANCH  56  81
ATOM     81  C   UNL A   1      49.481  26.764  26.353  1.00  0.00     0.058 A 
ATOM     82  C   UNL A   1      50.387  26.203  27.264  1.00  0.00     0.135 A 
ATOM     83  C   UNL A   1      49.872  26.852  25.008  1.00  0.00     0.135 A 
ATOM     84  F   UNL A   1      50.061  26.109  28.562  1.00  0.00    -0.206 F 
ATOM     85  C   UNL A   1      51.630  25.734  26.856  1.00  0.00     0.059 A 
ATOM     86  C   UNL A   1      51.101  26.367  24.572  1.00  0.00     0.059 A 
ATOM     87  F   UNL A   1      49.035  27.372  24.097  1.00  0.00    -0.206 F 
ATOM     88  C   UNL A   1      51.972  25.808  25.505  1.00  0.00     0.060 A 
BRANCH  88  89
ATOM     89  S   UNL A   1      53.551  25.107  24.978  1.00  0.00     0.124 S 
ATOM     90  O   UNL A   1      53.593  25.492  23.573  1.00  0.00    -0.237 OA
ATOM     91  O   UNL A   1      54.493  25.792  25.857  1.00  0.00    -0.237 OA
ATOM     92  O   UNL A   1      53.389  23.679  25.237  1.00  0.00    -0.744 OA
ENDBRANCH  88  89
ENDBRANCH  56  81
BRANCH  68  93
ATOM     93  C   UNL A   1      43.352  23.492  27.015  1.00  0.00     0.058 A 
ATOM     94  C   UNL A   1      43.125  22.597  28.074  1.00  0.00     0.135 A 
ATOM     95  C   UNL A   1      43.160  23.017  25.707  1.00  0.00     0.135 A 
ATOM     96  F   UNL A   1      43.298  22.996  29.344  1.00  0.00    -0.206 F 
ATOM     97  C   UNL A   1      42.768  21.272  27.844  1.00  0.00     0.059 A 
ATOM     98  C   UNL A   1      42.771  21.704  25.456  1.00  0.00     0.059 A 
ATOM     99  F   UNL A   1      43.349  23.830  24.657  1.00  0.00    -0.206 F 
ATOM    100  C   UNL A   1      42.597  20.833  26.530  1.00  0.00     0.060 A 
BRANCH 100 101
ATOM    101  S   UNL A   1      42.144  19.109  26.248  1.00  0.00     0.124 S 
ATOM    102  O   UNL A   1      42.414  18.516  27.555  1.00  0.00    -0.237 OA
ATOM    103  O   UNL A   1      40.735  19.212  25.880  1.00  0.00    -0.237 OA
ATOM    104  O   UNL A   1      43.039  18.691  25.173  1.00  0.00    -0.744 OA
ENDBRANCH 100 101
ENDBRANCH  68  93
ENDBRANCH  42  43
ENDBRANCH  35  37
ENDBRANCH  34  35
ENDBRANCH  33  34
ENDBRANCH  32  33
ENDBRANCH  31  32
ENDBRANCH   1  31
TORSDOF 22
ENDMDL
