MODEL 1
REMARK VINA RESULT:      -8.6      0.000      0.000
REMARK SMILES CC(=O)N[C@@H](C)C(=O)N1CCC[C@H]1C(=O)OCCOCCOC(=O)c1ccc(-c2c3nc(c(-c4c(F)cc(S(=O)(=O)[O-])cc4F)c4ccc([nH]4)c(-c4c(F)cc(S(=O)(=O)[O-])cc4F)c4nc(c(-c5c(F)cc(S(=O)(=O)[O-])cc5F)c5ccc2[nH]5)C=C4)C=C3)cc1
REMARK SMILES IDX 19 1 18 2 17 3 16 4 14 5 15 6 13 7 9 8 10 9 11 10 12 11 7 12
REMARK SMILES IDX 8 13 5 14 6 15 4 16 1 17 2 18 3 19 20 21 21 22 22 23 23 24
REMARK SMILES IDX 24 25 25 26 26 27 90 28 27 29 89 30 28 31 29 32 30 33 83 34
REMARK SMILES IDX 31 35 88 36 82 37 84 38 32 39 87 40 81 41 80 42 33 44 67 45
REMARK SMILES IDX 46 46 66 47 47 48 50 49 65 50 85 51 48 52 49 53 64 55 86 56
REMARK SMILES IDX 51 57 34 58 35 59 44 60 36 61 37 62 43 63 45 64 38 65 39 66
REMARK SMILES IDX 40 67 41 68 42 69 68 70 69 71 78 72 70 73 71 74 77 75 79 76
REMARK SMILES IDX 72 77 73 78 74 79 75 80 76 81 52 82 53 83 62 84 54 85 55 86
REMARK SMILES IDX 61 87 63 88 56 89 57 90 58 91 59 92 60 93
REMARK H PARENT 4 20 84 43 50 54
REMARK Flexibility Score: inf
ROOT
ATOM      1  O   UNL A   1      35.455  34.385  30.219  1.00  0.00    -0.374 OA
ENDROOT
BRANCH   1   2
ATOM      2  C   UNL A   1      36.729  34.224  29.588  1.00  0.00     0.202 C 
BRANCH   2   3
ATOM      3  C   UNL A   1      37.848  33.717  30.499  1.00  0.00     0.261 C 
BRANCH   3   4
ATOM      4  O   UNL A   1      37.695  32.302  30.711  1.00  0.00    -0.462 OA
BRANCH   4   5
ATOM      5  C   UNL A   1      37.419  31.906  31.984  1.00  0.00     0.328 C 
ATOM      6  O   UNL A   1      36.355  31.416  32.340  1.00  0.00    -0.250 OA
BRANCH   5   7
ATOM      7  C   UNL A   1      38.629  32.106  32.924  1.00  0.00     0.195 C 
ATOM      8  N   UNL A   1      38.445  32.696  34.273  1.00  0.00    -0.327 N 
ATOM      9  C   UNL A   1      39.191  31.938  35.266  1.00  0.00     0.120 C 
ATOM     10  C   UNL A   1      40.174  31.107  34.462  1.00  0.00     0.024 C 
ATOM     11  C   UNL A   1      39.401  30.804  33.190  1.00  0.00     0.039 C 
BRANCH   8  12
ATOM     12  C   UNL A   1      37.875  33.945  34.407  1.00  0.00     0.245 C 
ATOM     13  O   UNL A   1      38.580  34.957  34.348  1.00  0.00    -0.272 OA
BRANCH  12  14
ATOM     14  C   UNL A   1      36.412  34.123  34.891  1.00  0.00     0.168 C 
ATOM     15  C   UNL A   1      36.362  33.696  36.360  1.00  0.00     0.041 C 
BRANCH  14  16
ATOM     16  N   UNL A   1      35.320  33.504  34.144  1.00  0.00    -0.345 N 
ATOM     17  C   UNL A   1      34.383  35.621  33.273  1.00  0.00     0.114 C 
ATOM     18  C   UNL A   1      34.308  34.133  33.477  1.00  0.00     0.217 C 
ATOM     19  O   UNL A   1      33.366  33.466  33.053  1.00  0.00    -0.275 OA
ATOM     20  H   UNL A   1      35.312  32.520  34.118  1.00  0.00     0.164 HD
ENDBRANCH  14  16
ENDBRANCH  12  14
ENDBRANCH   8  12
ENDBRANCH   5   7
ENDBRANCH   4   5
ENDBRANCH   3   4
ENDBRANCH   2   3
ENDBRANCH   1   2
BRANCH   1  21
ATOM     21  C   UNL A   1      34.298  34.211  29.403  1.00  0.00     0.202 C 
BRANCH  21  22
ATOM     22  C   UNL A   1      34.320  32.993  28.471  1.00  0.00     0.261 C 
BRANCH  22  23
ATOM     23  O   UNL A   1      34.852  31.821  29.112  1.00  0.00    -0.460 OA
BRANCH  23  24
ATOM     24  C   UNL A   1      34.798  30.700  28.354  1.00  0.00     0.338 C 
ATOM     25  O   UNL A   1      33.856  30.326  27.663  1.00  0.00    -0.246 OA
BRANCH  24  26
ATOM     26  C   UNL A   1      36.106  30.020  28.324  1.00  0.00     0.060 A 
ATOM     27  C   UNL A   1      36.508  29.356  29.489  1.00  0.00     0.016 A 
ATOM     28  C   UNL A   1      36.964  30.101  27.224  1.00  0.00     0.016 A 
ATOM     29  C   UNL A   1      37.794  28.834  29.588  1.00  0.00     0.010 A 
ATOM     30  C   UNL A   1      38.260  29.578  27.326  1.00  0.00     0.010 A 
ATOM     31  C   UNL A   1      38.695  28.984  28.524  1.00  0.00    -0.014 A 
BRANCH  31  32
ATOM     32  C   UNL A   1      40.129  28.672  28.747  1.00  0.00     0.031 A 
ATOM     33  C   UNL A   1      41.004  29.702  29.413  1.00  0.00     0.074 A 
ATOM     34  C   UNL A   1      40.632  27.467  28.425  1.00  0.00     0.049 A 
ATOM     35  N   UNL A   1      42.268  29.632  29.741  1.00  0.00    -0.248 NA
ATOM     36  C   UNL A   1      40.366  30.984  29.753  1.00  0.00     0.031 C 
ATOM     37  C   UNL A   1      39.878  26.371  27.817  1.00  0.00     0.029 A 
ATOM     38  N   UNL A   1      41.899  26.961  28.574  1.00  0.00    -0.354 N 
ATOM     39  C   UNL A   1      42.579  30.857  30.318  1.00  0.00     0.074 A 
ATOM     40  C   UNL A   1      41.379  31.664  30.268  1.00  0.00     0.031 C 
ATOM     41  C   UNL A   1      40.697  25.318  27.652  1.00  0.00     0.029 A 
ATOM     42  C   UNL A   1      42.037  25.671  28.119  1.00  0.00     0.049 A 
ATOM     43  H   UNL A   1      42.641  27.474  28.971  1.00  0.00     0.167 HD
ATOM     44  C   UNL A   1      43.754  31.271  30.853  1.00  0.00     0.037 A 
ATOM     45  C   UNL A   1      43.120  24.872  28.080  1.00  0.00     0.037 A 
ATOM     46  C   UNL A   1      44.943  30.463  30.911  1.00  0.00     0.049 A 
ATOM     47  C   UNL A   1      44.431  25.373  28.626  1.00  0.00     0.074 A 
ATOM     48  C   UNL A   1      46.174  30.780  31.459  1.00  0.00     0.029 A 
ATOM     49  N   UNL A   1      45.054  29.180  30.396  1.00  0.00    -0.354 N 
ATOM     50  N   UNL A   1      44.703  26.525  29.196  1.00  0.00    -0.248 NA
ATOM     51  C   UNL A   1      45.583  24.467  28.527  1.00  0.00     0.031 C 
ATOM     52  C   UNL A   1      47.043  29.706  31.233  1.00  0.00     0.029 A 
ATOM     53  C   UNL A   1      46.340  28.702  30.588  1.00  0.00     0.049 A 
ATOM     54  H   UNL A   1      44.326  28.682  29.958  1.00  0.00     0.167 HD
ATOM     55  C   UNL A   1      46.047  26.466  29.552  1.00  0.00     0.074 A 
ATOM     56  C   UNL A   1      46.532  25.166  29.136  1.00  0.00     0.031 C 
ATOM     57  C   UNL A   1      46.808  27.401  30.173  1.00  0.00     0.037 A 
BRANCH  44  58
ATOM     58  C   UNL A   1      43.812  32.676  31.387  1.00  0.00     0.058 A 
ATOM     59  C   UNL A   1      43.519  32.974  32.727  1.00  0.00     0.135 A 
ATOM     60  C   UNL A   1      44.172  33.738  30.543  1.00  0.00     0.135 A 
ATOM     61  F   UNL A   1      43.153  31.997  33.572  1.00  0.00    -0.206 F 
ATOM     62  C   UNL A   1      43.544  34.281  33.203  1.00  0.00     0.059 A 
ATOM     63  C   UNL A   1      44.229  35.050  31.004  1.00  0.00     0.059 A 
ATOM     64  F   UNL A   1      44.462  33.509  29.252  1.00  0.00    -0.206 F 
ATOM     65  C   UNL A   1      43.893  35.314  32.331  1.00  0.00     0.060 A 
BRANCH  65  66
ATOM     66  S   UNL A   1      43.898  37.009  32.953  1.00  0.00     0.124 S 
ATOM     67  O   UNL A   1      45.202  37.074  33.605  1.00  0.00    -0.237 OA
ATOM     68  O   UNL A   1      43.761  37.793  31.730  1.00  0.00    -0.237 OA
ATOM     69  O   UNL A   1      42.746  37.044  33.850  1.00  0.00    -0.744 OA
ENDBRANCH  65  66
ENDBRANCH  44  58
BRANCH  45  70
ATOM     70  C   UNL A   1      43.011  23.501  27.514  1.00  0.00     0.058 A 
ATOM     71  C   UNL A   1      42.557  22.430  28.297  1.00  0.00     0.135 A 
ATOM     72  C   UNL A   1      43.349  23.238  26.177  1.00  0.00     0.135 A 
ATOM     73  F   UNL A   1      42.233  22.630  29.583  1.00  0.00    -0.206 F 
ATOM     74  C   UNL A   1      42.451  21.143  27.780  1.00  0.00     0.059 A 
ATOM     75  C   UNL A   1      43.230  21.963  25.631  1.00  0.00     0.059 A 
ATOM     76  F   UNL A   1      43.780  24.231  25.385  1.00  0.00    -0.206 F 
ATOM     77  C   UNL A   1      42.786  20.921  26.442  1.00  0.00     0.060 A 
BRANCH  77  78
ATOM     78  S   UNL A   1      42.587  19.259  25.763  1.00  0.00     0.124 S 
ATOM     79  O   UNL A   1      41.175  19.259  25.399  1.00  0.00    -0.237 OA
ATOM     80  O   UNL A   1      43.535  19.267  24.652  1.00  0.00    -0.237 OA
ATOM     81  O   UNL A   1      42.952  18.395  26.882  1.00  0.00    -0.744 OA
ENDBRANCH  77  78
ENDBRANCH  45  70
BRANCH  57  82
ATOM     82  C   UNL A   1      48.237  27.042  30.477  1.00  0.00     0.058 A 
ATOM     83  C   UNL A   1      49.280  27.349  29.590  1.00  0.00     0.135 A 
ATOM     84  C   UNL A   1      48.569  26.422  31.692  1.00  0.00     0.135 A 
ATOM     85  F   UNL A   1      49.016  27.937  28.413  1.00  0.00    -0.206 F 
ATOM     86  C   UNL A   1      50.603  27.031  29.887  1.00  0.00     0.059 A 
ATOM     87  C   UNL A   1      49.887  26.118  32.021  1.00  0.00     0.059 A 
ATOM     88  F   UNL A   1      47.610  26.117  32.580  1.00  0.00    -0.206 F 
ATOM     89  C   UNL A   1      50.896  26.414  31.105  1.00  0.00     0.060 A 
BRANCH  89  90
ATOM     90  S   UNL A   1      52.617  26.029  31.493  1.00  0.00     0.124 S 
ATOM     91  O   UNL A   1      52.939  27.069  32.465  1.00  0.00    -0.237 OA
ATOM     92  O   UNL A   1      52.523  24.672  32.024  1.00  0.00    -0.237 OA
ATOM     93  O   UNL A   1      53.289  26.145  30.202  1.00  0.00    -0.744 OA
ENDBRANCH  89  90
ENDBRANCH  57  82
ENDBRANCH  31  32
ENDBRANCH  24  26
ENDBRANCH  23  24
ENDBRANCH  22  23
ENDBRANCH  21  22
ENDBRANCH   1  21
TORSDOF 20
ENDMDL
MODEL 2
REMARK VINA RESULT:      -8.6      4.956      8.343
REMARK SMILES CC(=O)N[C@@H](C)C(=O)N1CCC[C@H]1C(=O)OCCOCCOC(=O)c1ccc(-c2c3nc(c(-c4c(F)cc(S(=O)(=O)[O-])cc4F)c4ccc([nH]4)c(-c4c(F)cc(S(=O)(=O)[O-])cc4F)c4nc(c(-c5c(F)cc(S(=O)(=O)[O-])cc5F)c5ccc2[nH]5)C=C4)C=C3)cc1
REMARK SMILES IDX 19 1 18 2 17 3 16 4 14 5 15 6 13 7 9 8 10 9 11 10 12 11 7 12
REMARK SMILES IDX 8 13 5 14 6 15 4 16 1 17 2 18 3 19 20 21 21 22 22 23 23 24
REMARK SMILES IDX 24 25 25 26 26 27 90 28 27 29 89 30 28 31 29 32 30 33 83 34
REMARK SMILES IDX 31 35 88 36 82 37 84 38 32 39 87 40 81 41 80 42 33 44 67 45
REMARK SMILES IDX 46 46 66 47 47 48 50 49 65 50 85 51 48 52 49 53 64 55 86 56
REMARK SMILES IDX 51 57 34 58 35 59 44 60 36 61 37 62 43 63 45 64 38 65 39 66
REMARK SMILES IDX 40 67 41 68 42 69 68 70 69 71 78 72 70 73 71 74 77 75 79 76
REMARK SMILES IDX 72 77 73 78 74 79 75 80 76 81 52 82 53 83 62 84 54 85 55 86
REMARK SMILES IDX 61 87 63 88 56 89 57 90 58 91 59 92 60 93
REMARK H PARENT 4 20 84 43 50 54
REMARK Flexibility Score: inf
ROOT
ATOM      1  O   UNL A   1      33.442  30.425  26.833  1.00  0.00    -0.374 OA
ENDROOT
BRANCH   1   2
ATOM      2  C   UNL A   1      34.304  29.286  26.910  1.00  0.00     0.202 C 
BRANCH   2   3
ATOM      3  C   UNL A   1      33.743  28.002  26.295  1.00  0.00     0.261 C 
BRANCH   3   4
ATOM      4  O   UNL A   1      32.515  27.646  26.956  1.00  0.00    -0.462 OA
BRANCH   4   5
ATOM      5  C   UNL A   1      31.575  27.022  26.193  1.00  0.00     0.328 C 
ATOM      6  O   UNL A   1      30.675  26.324  26.641  1.00  0.00    -0.250 OA
BRANCH   5   7
ATOM      7  C   UNL A   1      31.751  27.336  24.691  1.00  0.00     0.195 C 
ATOM      8  N   UNL A   1      31.793  26.239  23.692  1.00  0.00    -0.327 N 
ATOM      9  C   UNL A   1      30.963  26.568  22.542  1.00  0.00     0.120 C 
ATOM     10  C   UNL A   1      30.725  28.063  22.649  1.00  0.00     0.024 C 
ATOM     11  C   UNL A   1      30.677  28.292  24.150  1.00  0.00     0.039 C 
BRANCH   8  12
ATOM     12  C   UNL A   1      32.738  25.241  23.803  1.00  0.00     0.245 C 
ATOM     13  O   UNL A   1      33.867  25.402  23.330  1.00  0.00    -0.272 OA
BRANCH  12  14
ATOM     14  C   UNL A   1      32.359  23.813  24.273  1.00  0.00     0.168 C 
ATOM     15  C   UNL A   1      31.411  23.223  23.225  1.00  0.00     0.041 C 
BRANCH  14  16
ATOM     16  N   UNL A   1      31.823  23.608  25.617  1.00  0.00    -0.345 N 
ATOM     17  C   UNL A   1      34.019  23.354  26.725  1.00  0.00     0.114 C 
ATOM     18  C   UNL A   1      32.516  23.294  26.749  1.00  0.00     0.217 C 
ATOM     19  O   UNL A   1      31.896  22.977  27.762  1.00  0.00    -0.275 OA
ATOM     20  H   UNL A   1      30.848  23.709  25.717  1.00  0.00     0.164 HD
ENDBRANCH  14  16
ENDBRANCH  12  14
ENDBRANCH   8  12
ENDBRANCH   5   7
ENDBRANCH   4   5
ENDBRANCH   3   4
ENDBRANCH   2   3
ENDBRANCH   1   2
BRANCH   1  21
ATOM     21  C   UNL A   1      33.792  31.560  27.623  1.00  0.00     0.202 C 
BRANCH  21  22
ATOM     22  C   UNL A   1      32.784  32.714  27.611  1.00  0.00     0.261 C 
BRANCH  22  23
ATOM     23  O   UNL A   1      33.419  33.997  27.469  1.00  0.00    -0.460 OA
BRANCH  23  24
ATOM     24  C   UNL A   1      33.374  34.766  28.583  1.00  0.00     0.338 C 
ATOM     25  O   UNL A   1      32.489  35.556  28.895  1.00  0.00    -0.246 OA
BRANCH  24  26
ATOM     26  C   UNL A   1      34.476  34.427  29.502  1.00  0.00     0.060 A 
ATOM     27  C   UNL A   1      35.781  34.565  29.013  1.00  0.00     0.016 A 
ATOM     28  C   UNL A   1      34.250  33.900  30.777  1.00  0.00     0.016 A 
ATOM     29  C   UNL A   1      36.861  34.110  29.764  1.00  0.00     0.010 A 
ATOM     30  C   UNL A   1      35.338  33.440  31.530  1.00  0.00     0.010 A 
ATOM     31  C   UNL A   1      36.642  33.500  31.007  1.00  0.00    -0.014 A 
BRANCH  31  32
ATOM     32  C   UNL A   1      37.764  32.781  31.662  1.00  0.00     0.031 A 
ATOM     33  C   UNL A   1      38.231  33.241  33.018  1.00  0.00     0.074 A 
ATOM     34  C   UNL A   1      38.315  31.694  31.092  1.00  0.00     0.049 A 
ATOM     35  N   UNL A   1      39.163  32.742  33.789  1.00  0.00    -0.248 NA
ATOM     36  C   UNL A   1      37.557  34.423  33.578  1.00  0.00     0.031 C 
ATOM     37  C   UNL A   1      37.922  31.125  29.803  1.00  0.00     0.029 A 
ATOM     38  N   UNL A   1      39.322  30.871  31.530  1.00  0.00    -0.354 N 
ATOM     39  C   UNL A   1      39.191  33.550  34.920  1.00  0.00     0.074 A 
ATOM     40  C   UNL A   1      38.206  34.591  34.721  1.00  0.00     0.031 C 
ATOM     41  C   UNL A   1      38.675  30.038  29.560  1.00  0.00     0.029 A 
ATOM     42  C   UNL A   1      39.618  29.849  30.660  1.00  0.00     0.049 A 
ATOM     43  H   UNL A   1      39.787  31.000  32.389  1.00  0.00     0.167 HD
ATOM     44  C   UNL A   1      39.961  33.431  36.029  1.00  0.00     0.037 A 
ATOM     45  C   UNL A   1      40.548  28.877  30.742  1.00  0.00     0.037 A 
ATOM     46  C   UNL A   1      40.934  32.390  36.230  1.00  0.00     0.049 A 
ATOM     47  C   UNL A   1      41.433  28.799  31.959  1.00  0.00     0.074 A 
ATOM     48  C   UNL A   1      41.741  32.166  37.331  1.00  0.00     0.029 A 
ATOM     49  N   UNL A   1      41.237  31.402  35.305  1.00  0.00    -0.354 N 
ATOM     50  N   UNL A   1      41.429  29.553  33.034  1.00  0.00    -0.248 NA
ATOM     51  C   UNL A   1      42.447  27.736  31.976  1.00  0.00     0.031 C 
ATOM     52  C   UNL A   1      42.567  31.070  37.052  1.00  0.00     0.029 A 
ATOM     53  C   UNL A   1      42.240  30.583  35.797  1.00  0.00     0.049 A 
ATOM     54  H   UNL A   1      40.804  31.298  34.426  1.00  0.00     0.167 HD
ATOM     55  C   UNL A   1      42.416  29.035  33.867  1.00  0.00     0.074 A 
ATOM     56  C   UNL A   1      42.994  27.902  33.172  1.00  0.00     0.031 C 
ATOM     57  C   UNL A   1      42.803  29.454  35.097  1.00  0.00     0.037 A 
BRANCH  44  58
ATOM     58  C   UNL A   1      39.799  34.479  37.097  1.00  0.00     0.058 A 
ATOM     59  C   UNL A   1      40.442  35.725  37.018  1.00  0.00     0.135 A 
ATOM     60  C   UNL A   1      38.986  34.231  38.213  1.00  0.00     0.135 A 
ATOM     61  F   UNL A   1      41.244  36.006  35.979  1.00  0.00    -0.206 F 
ATOM     62  C   UNL A   1      40.313  36.674  38.026  1.00  0.00     0.059 A 
ATOM     63  C   UNL A   1      38.821  35.176  39.221  1.00  0.00     0.059 A 
ATOM     64  F   UNL A   1      38.348  33.056  38.340  1.00  0.00    -0.206 F 
ATOM     65  C   UNL A   1      39.506  36.387  39.128  1.00  0.00     0.060 A 
BRANCH  65  66
ATOM     66  S   UNL A   1      39.365  37.617  40.443  1.00  0.00     0.124 S 
ATOM     67  O   UNL A   1      39.162  36.768  41.613  1.00  0.00    -0.237 OA
ATOM     68  O   UNL A   1      40.651  38.301  40.373  1.00  0.00    -0.237 OA
ATOM     69  O   UNL A   1      38.210  38.414  40.040  1.00  0.00    -0.744 OA
ENDBRANCH  65  66
ENDBRANCH  44  58
BRANCH  45  70
ATOM     70  C   UNL A   1      40.682  27.885  29.643  1.00  0.00     0.058 A 
ATOM     71  C   UNL A   1      39.789  26.809  29.527  1.00  0.00     0.135 A 
ATOM     72  C   UNL A   1      41.701  27.997  28.684  1.00  0.00     0.135 A 
ATOM     73  F   UNL A   1      38.807  26.654  30.427  1.00  0.00    -0.206 F 
ATOM     74  C   UNL A   1      39.905  25.874  28.504  1.00  0.00     0.059 A 
ATOM     75  C   UNL A   1      41.823  27.087  27.638  1.00  0.00     0.059 A 
ATOM     76  F   UNL A   1      42.575  29.013  28.747  1.00  0.00    -0.206 F 
ATOM     77  C   UNL A   1      40.924  26.024  27.561  1.00  0.00     0.060 A 
BRANCH  77  78
ATOM     78  S   UNL A   1      41.029  24.840  26.201  1.00  0.00     0.124 S 
ATOM     79  O   UNL A   1      41.810  23.767  26.807  1.00  0.00    -0.237 OA
ATOM     80  O   UNL A   1      39.624  24.542  25.944  1.00  0.00    -0.237 OA
ATOM     81  O   UNL A   1      41.704  25.598  25.150  1.00  0.00    -0.744 OA
ENDBRANCH  77  78
ENDBRANCH  45  70
BRANCH  57  82
ATOM     82  C   UNL A   1      43.878  28.665  35.792  1.00  0.00     0.058 A 
ATOM     83  C   UNL A   1      43.573  27.596  36.648  1.00  0.00     0.135 A 
ATOM     84  C   UNL A   1      45.233  28.957  35.563  1.00  0.00     0.135 A 
ATOM     85  F   UNL A   1      42.294  27.279  36.905  1.00  0.00    -0.206 F 
ATOM     86  C   UNL A   1      44.574  26.857  37.273  1.00  0.00     0.059 A 
ATOM     87  C   UNL A   1      46.250  28.216  36.157  1.00  0.00     0.059 A 
ATOM     88  F   UNL A   1      45.578  29.962  34.744  1.00  0.00    -0.206 F 
ATOM     89  C   UNL A   1      45.910  27.176  37.022  1.00  0.00     0.060 A 
BRANCH  89  90
ATOM     90  S   UNL A   1      47.202  26.196  37.817  1.00  0.00     0.124 S 
ATOM     91  O   UNL A   1      47.464  25.178  36.804  1.00  0.00    -0.237 OA
ATOM     92  O   UNL A   1      48.263  27.179  38.017  1.00  0.00    -0.237 OA
ATOM     93  O   UNL A   1      46.561  25.717  39.038  1.00  0.00    -0.744 OA
ENDBRANCH  89  90
ENDBRANCH  57  82
ENDBRANCH  31  32
ENDBRANCH  24  26
ENDBRANCH  23  24
ENDBRANCH  22  23
ENDBRANCH  21  22
ENDBRANCH   1  21
TORSDOF 20
ENDMDL
MODEL 3
REMARK VINA RESULT:      -8.5      4.089      6.687
REMARK SMILES CC(=O)N[C@@H](C)C(=O)N1CCC[C@H]1C(=O)OCCOCCOC(=O)c1ccc(-c2c3nc(c(-c4c(F)cc(S(=O)(=O)[O-])cc4F)c4ccc([nH]4)c(-c4c(F)cc(S(=O)(=O)[O-])cc4F)c4nc(c(-c5c(F)cc(S(=O)(=O)[O-])cc5F)c5ccc2[nH]5)C=C4)C=C3)cc1
REMARK SMILES IDX 19 1 18 2 17 3 16 4 14 5 15 6 13 7 9 8 10 9 11 10 12 11 7 12
REMARK SMILES IDX 8 13 5 14 6 15 4 16 1 17 2 18 3 19 20 21 21 22 22 23 23 24
REMARK SMILES IDX 24 25 25 26 26 27 90 28 27 29 89 30 28 31 29 32 30 33 83 34
REMARK SMILES IDX 31 35 88 36 82 37 84 38 32 39 87 40 81 41 80 42 33 44 67 45
REMARK SMILES IDX 46 46 66 47 47 48 50 49 65 50 85 51 48 52 49 53 64 55 86 56
REMARK SMILES IDX 51 57 34 58 35 59 44 60 36 61 37 62 43 63 45 64 38 65 39 66
REMARK SMILES IDX 40 67 41 68 42 69 68 70 69 71 78 72 70 73 71 74 77 75 79 76
REMARK SMILES IDX 72 77 73 78 74 79 75 80 76 81 52 82 53 83 62 84 54 85 55 86
REMARK SMILES IDX 61 87 63 88 56 89 57 90 58 91 59 92 60 93
REMARK H PARENT 4 20 84 43 50 54
REMARK Flexibility Score: inf
ROOT
ATOM      1  O   UNL A   1      33.026  32.001  27.773  1.00  0.00    -0.374 OA
ENDROOT
BRANCH   1   2
ATOM      2  C   UNL A   1      32.154  31.545  26.735  1.00  0.00     0.202 C 
BRANCH   2   3
ATOM      3  C   UNL A   1      31.814  30.054  26.778  1.00  0.00     0.261 C 
BRANCH   3   4
ATOM      4  O   UNL A   1      31.669  29.552  25.437  1.00  0.00    -0.462 OA
BRANCH   4   5
ATOM      5  C   UNL A   1      32.215  28.331  25.185  1.00  0.00     0.328 C 
ATOM      6  O   UNL A   1      33.309  27.966  25.597  1.00  0.00    -0.250 OA
BRANCH   5   7
ATOM      7  C   UNL A   1      31.269  27.438  24.351  1.00  0.00     0.195 C 
ATOM      8  N   UNL A   1      30.524  26.326  24.994  1.00  0.00    -0.327 N 
ATOM      9  C   UNL A   1      29.138  26.322  24.551  1.00  0.00     0.120 C 
ATOM     10  C   UNL A   1      29.124  27.194  23.309  1.00  0.00     0.024 C 
ATOM     11  C   UNL A   1      30.183  28.238  23.616  1.00  0.00     0.039 C 
BRANCH   8  12
ATOM     12  C   UNL A   1      31.209  25.332  25.660  1.00  0.00     0.245 C 
ATOM     13  O   UNL A   1      31.366  25.401  26.882  1.00  0.00    -0.272 OA
BRANCH  12  14
ATOM     14  C   UNL A   1      32.022  24.254  24.897  1.00  0.00     0.168 C 
ATOM     15  C   UNL A   1      31.029  23.434  24.069  1.00  0.00     0.041 C 
BRANCH  14  16
ATOM     16  N   UNL A   1      32.924  23.369  25.632  1.00  0.00    -0.345 N 
ATOM     17  C   UNL A   1      34.921  24.812  25.411  1.00  0.00     0.114 C 
ATOM     18  C   UNL A   1      34.269  23.517  25.810  1.00  0.00     0.217 C 
ATOM     19  O   UNL A   1      34.913  22.590  26.298  1.00  0.00    -0.275 OA
ATOM     20  H   UNL A   1      32.514  22.576  26.046  1.00  0.00     0.164 HD
ENDBRANCH  14  16
ENDBRANCH  12  14
ENDBRANCH   8  12
ENDBRANCH   5   7
ENDBRANCH   4   5
ENDBRANCH   3   4
ENDBRANCH   2   3
ENDBRANCH   1   2
BRANCH   1  21
ATOM     21  C   UNL A   1      34.415  31.706  27.631  1.00  0.00     0.202 C 
BRANCH  21  22
ATOM     22  C   UNL A   1      35.189  31.509  28.939  1.00  0.00     0.261 C 
BRANCH  22  23
ATOM     23  O   UNL A   1      35.642  30.155  29.111  1.00  0.00    -0.460 OA
BRANCH  23  24
ATOM     24  C   UNL A   1      36.424  29.965  30.200  1.00  0.00     0.338 C 
ATOM     25  O   UNL A   1      36.049  29.704  31.338  1.00  0.00    -0.246 OA
BRANCH  24  26
ATOM     26  C   UNL A   1      37.852  29.954  29.829  1.00  0.00     0.060 A 
ATOM     27  C   UNL A   1      38.157  29.880  28.464  1.00  0.00     0.016 A 
ATOM     28  C   UNL A   1      38.871  29.921  30.784  1.00  0.00     0.016 A 
ATOM     29  C   UNL A   1      39.474  29.701  28.050  1.00  0.00     0.010 A 
ATOM     30  C   UNL A   1      40.196  29.737  30.366  1.00  0.00     0.010 A 
ATOM     31  C   UNL A   1      40.496  29.579  29.001  1.00  0.00    -0.014 A 
BRANCH  31  32
ATOM     32  C   UNL A   1      41.836  29.117  28.560  1.00  0.00     0.031 A 
ATOM     33  C   UNL A   1      42.983  30.095  28.571  1.00  0.00     0.074 A 
ATOM     34  C   UNL A   1      42.048  27.833  28.220  1.00  0.00     0.049 A 
ATOM     35  N   UNL A   1      44.240  29.903  28.266  1.00  0.00    -0.248 NA
ATOM     36  C   UNL A   1      42.667  31.472  28.979  1.00  0.00     0.031 C 
ATOM     37  C   UNL A   1      41.030  26.783  28.211  1.00  0.00     0.029 A 
ATOM     38  N   UNL A   1      43.195  27.193  27.822  1.00  0.00    -0.354 N 
ATOM     39  C   UNL A   1      44.864  31.133  28.439  1.00  0.00     0.074 A 
ATOM     40  C   UNL A   1      43.841  32.072  28.845  1.00  0.00     0.031 C 
ATOM     41  C   UNL A   1      41.602  25.626  27.835  1.00  0.00     0.029 A 
ATOM     42  C   UNL A   1      43.018  25.858  27.552  1.00  0.00     0.049 A 
ATOM     43  H   UNL A   1      44.064  27.649  27.739  1.00  0.00     0.167 HD
ATOM     44  C   UNL A   1      46.172  31.451  28.285  1.00  0.00     0.037 A 
ATOM     45  C   UNL A   1      43.896  24.931  27.122  1.00  0.00     0.037 A 
ATOM     46  C   UNL A   1      47.190  30.514  27.889  1.00  0.00     0.049 A 
ATOM     47  C   UNL A   1      45.334  25.321  26.900  1.00  0.00     0.074 A 
ATOM     48  C   UNL A   1      48.548  30.731  27.734  1.00  0.00     0.029 A 
ATOM     49  N   UNL A   1      46.962  29.181  27.579  1.00  0.00    -0.354 N 
ATOM     50  N   UNL A   1      45.916  26.482  27.096  1.00  0.00    -0.248 NA
ATOM     51  C   UNL A   1      46.237  24.275  26.401  1.00  0.00     0.031 C 
ATOM     52  C   UNL A   1      49.133  29.541  27.284  1.00  0.00     0.029 A 
ATOM     53  C   UNL A   1      48.148  28.571  27.206  1.00  0.00     0.049 A 
ATOM     54  H   UNL A   1      46.085  28.734  27.618  1.00  0.00     0.167 HD
ATOM     55  C   UNL A   1      47.257  26.295  26.776  1.00  0.00     0.074 A 
ATOM     56  C   UNL A   1      47.401  24.910  26.376  1.00  0.00     0.031 C 
ATOM     57  C   UNL A   1      48.277  27.188  26.816  1.00  0.00     0.037 A 
BRANCH  44  58
ATOM     58  C   UNL A   1      46.566  32.885  28.513  1.00  0.00     0.058 A 
ATOM     59  C   UNL A   1      46.965  33.354  29.774  1.00  0.00     0.135 A 
ATOM     60  C   UNL A   1      46.545  33.801  27.450  1.00  0.00     0.135 A 
ATOM     61  F   UNL A   1      46.987  32.522  30.828  1.00  0.00    -0.206 F 
ATOM     62  C   UNL A   1      47.295  34.689  29.983  1.00  0.00     0.059 A 
ATOM     63  C   UNL A   1      46.896  35.136  27.629  1.00  0.00     0.059 A 
ATOM     64  F   UNL A   1      46.170  33.407  26.222  1.00  0.00    -0.206 F 
ATOM     65  C   UNL A   1      47.250  35.575  28.904  1.00  0.00     0.060 A 
BRANCH  65  66
ATOM     66  S   UNL A   1      47.656  37.310  29.191  1.00  0.00     0.124 S 
ATOM     67  O   UNL A   1      46.770  37.976  28.240  1.00  0.00    -0.237 OA
ATOM     68  O   UNL A   1      47.318  37.484  30.599  1.00  0.00    -0.237 OA
ATOM     69  O   UNL A   1      49.080  37.382  28.876  1.00  0.00    -0.744 OA
ENDBRANCH  65  66
ENDBRANCH  44  58
BRANCH  45  70
ATOM     70  C   UNL A   1      43.445  23.534  26.885  1.00  0.00     0.058 A 
ATOM     71  C   UNL A   1      43.265  23.044  25.583  1.00  0.00     0.135 A 
ATOM     72  C   UNL A   1      43.193  22.661  27.954  1.00  0.00     0.135 A 
ATOM     73  F   UNL A   1      43.482  23.846  24.529  1.00  0.00    -0.206 F 
ATOM     74  C   UNL A   1      42.843  21.740  25.348  1.00  0.00     0.059 A 
ATOM     75  C   UNL A   1      42.792  21.345  27.743  1.00  0.00     0.059 A 
ATOM     76  F   UNL A   1      43.359  23.080  29.218  1.00  0.00    -0.206 F 
ATOM     77  C   UNL A   1      42.613  20.896  26.436  1.00  0.00     0.060 A 
BRANCH  77  78
ATOM     78  S   UNL A   1      42.124  19.186  26.120  1.00  0.00     0.124 S 
ATOM     79  O   UNL A   1      40.691  19.330  25.887  1.00  0.00    -0.237 OA
ATOM     80  O   UNL A   1      42.931  18.847  24.953  1.00  0.00    -0.237 OA
ATOM     81  O   UNL A   1      42.498  18.499  27.353  1.00  0.00    -0.744 OA
ENDBRANCH  77  78
ENDBRANCH  45  70
BRANCH  57  82
ATOM     82  C   UNL A   1      49.649  26.689  26.454  1.00  0.00     0.058 A 
ATOM     83  C   UNL A   1      50.468  26.036  27.388  1.00  0.00     0.135 A 
ATOM     84  C   UNL A   1      50.132  26.829  25.143  1.00  0.00     0.135 A 
ATOM     85  F   UNL A   1      50.056  25.881  28.656  1.00  0.00    -0.206 F 
ATOM     86  C   UNL A   1      51.730  25.559  27.041  1.00  0.00     0.059 A 
ATOM     87  C   UNL A   1      51.380  26.338  24.767  1.00  0.00     0.059 A 
ATOM     88  F   UNL A   1      49.385  27.436  24.208  1.00  0.00    -0.206 F 
ATOM     89  C   UNL A   1      52.177  25.716  25.728  1.00  0.00     0.060 A 
BRANCH  89  90
ATOM     90  S   UNL A   1      53.804  25.072  25.281  1.00  0.00     0.124 S 
ATOM     91  O   UNL A   1      54.646  25.657  26.320  1.00  0.00    -0.237 OA
ATOM     92  O   UNL A   1      53.604  23.629  25.365  1.00  0.00    -0.237 OA
ATOM     93  O   UNL A   1      54.016  25.592  23.934  1.00  0.00    -0.744 OA
ENDBRANCH  89  90
ENDBRANCH  57  82
ENDBRANCH  31  32
ENDBRANCH  24  26
ENDBRANCH  23  24
ENDBRANCH  22  23
ENDBRANCH  21  22
ENDBRANCH   1  21
TORSDOF 20
ENDMDL
