MODEL 1
REMARK VINA RESULT:     -10.7      0.000      0.000
REMARK SMILES O=C(OCCOCCOC(=O)[C@H]1C[C@H]2CCCC[C@@H]2[N@@H+]1CC[C@@H]1CCCO1)c1ccc(-c2c3nc(c(-c4c(F)cc(S(=O)(=O)[O-])cc4F)c4ccc([nH]4)c(-c4c(F)cc(S(=O)(=O)[O-])cc4F)c4nc(c(-c5c(F)cc(S(=O)(=O)[O-])cc5F)c5ccc2[nH]5)C=C4)C=C3)cc1
REMARK SMILES IDX 6 1 5 2 4 3 3 4 2 5 1 6 28 7 29 8 93 9 30 10 92 11 31 12
REMARK SMILES IDX 32 13 33 14 86 15 34 16 91 17 85 18 87 19 35 20 90 21 84 22
REMARK SMILES IDX 83 23 36 25 70 26 49 27 69 28 50 29 53 30 68 31 88 32 51 33
REMARK SMILES IDX 52 34 67 36 89 37 54 38 37 39 38 40 47 41 39 42 40 43 46 44
REMARK SMILES IDX 48 45 41 46 42 47 43 48 44 49 45 50 71 51 72 52 81 53 73 54
REMARK SMILES IDX 74 55 80 56 82 57 75 58 76 59 77 60 78 61 79 62 55 63 56 64
REMARK SMILES IDX 65 65 57 66 58 67 64 68 66 69 59 70 60 71 61 72 62 73 63 74
REMARK SMILES IDX 7 75 8 76 9 77 10 78 11 79 12 80 13 81 20 82 14 83 19 84
REMARK SMILES IDX 15 86 18 87 16 88 17 89 21 90 22 91 23 92 24 93 27 94 25 95
REMARK SMILES IDX 26 96
REMARK H PARENT 87 24 53 35 20 85
REMARK Flexibility Score: inf
ROOT
ATOM      1  O   UNL A   1      31.943  28.311  24.534  1.00  0.00    -0.374 OA
ENDROOT
BRANCH   1   2
ATOM      2  C   UNL A   1      31.657  28.570  25.908  1.00  0.00     0.202 C 
BRANCH   2   3
ATOM      3  C   UNL A   1      32.528  28.095  27.099  1.00  0.00     0.261 C 
BRANCH   3   4
ATOM      4  O   UNL A   1      33.908  28.524  27.126  1.00  0.00    -0.460 OA
BRANCH   4   5
ATOM      5  C   UNL A   1      34.397  29.647  27.724  1.00  0.00     0.338 C 
ATOM      6  O   UNL A   1      33.686  30.628  27.901  1.00  0.00    -0.246 OA
BRANCH   5   7
ATOM      7  C   UNL A   1      35.819  29.673  28.135  1.00  0.00     0.060 A 
ATOM      8  C   UNL A   1      36.776  30.161  27.266  1.00  0.00     0.016 A 
ATOM      9  C   UNL A   1      36.231  29.225  29.389  1.00  0.00     0.016 A 
ATOM     10  C   UNL A   1      38.107  29.921  27.452  1.00  0.00     0.010 A 
ATOM     11  C   UNL A   1      37.602  29.168  29.681  1.00  0.00     0.010 A 
ATOM     12  C   UNL A   1      38.543  29.455  28.679  1.00  0.00    -0.014 A 
BRANCH  12  13
ATOM     13  C   UNL A   1      39.989  29.181  28.769  1.00  0.00     0.031 A 
ATOM     14  C   UNL A   1      40.847  30.171  29.492  1.00  0.00     0.074 A 
ATOM     15  C   UNL A   1      40.440  27.953  28.433  1.00  0.00     0.049 A 
ATOM     16  N   UNL A   1      42.134  30.150  29.691  1.00  0.00    -0.248 NA
ATOM     17  C   UNL A   1      40.169  31.341  30.079  1.00  0.00     0.031 C 
ATOM     18  C   UNL A   1      39.612  26.867  27.884  1.00  0.00     0.029 A 
ATOM     19  N   UNL A   1      41.668  27.374  28.584  1.00  0.00    -0.354 N 
ATOM     20  C   UNL A   1      42.429  31.334  30.354  1.00  0.00     0.074 A 
ATOM     21  C   UNL A   1      41.187  32.043  30.548  1.00  0.00     0.031 C 
ATOM     22  C   UNL A   1      40.330  25.737  27.841  1.00  0.00     0.029 A 
ATOM     23  C   UNL A   1      41.699  26.046  28.221  1.00  0.00     0.049 A 
ATOM     24  H   UNL A   1      42.456  27.859  28.919  1.00  0.00     0.167 HD
ATOM     25  C   UNL A   1      43.643  31.784  30.739  1.00  0.00     0.037 A 
ATOM     26  C   UNL A   1      42.737  25.191  28.157  1.00  0.00     0.037 A 
ATOM     27  C   UNL A   1      44.844  31.017  30.555  1.00  0.00     0.049 A 
ATOM     28  C   UNL A   1      44.086  25.739  28.525  1.00  0.00     0.074 A 
ATOM     29  C   UNL A   1      46.153  31.377  30.809  1.00  0.00     0.029 A 
ATOM     30  N   UNL A   1      44.867  29.711  30.078  1.00  0.00    -0.354 N 
ATOM     31  N   UNL A   1      44.385  26.923  29.012  1.00  0.00    -0.248 NA
ATOM     32  C   UNL A   1      45.240  24.864  28.303  1.00  0.00     0.031 C 
ATOM     33  C   UNL A   1      46.970  30.299  30.449  1.00  0.00     0.029 A 
ATOM     34  C   UNL A   1      46.169  29.250  30.020  1.00  0.00     0.049 A 
ATOM     35  H   UNL A   1      44.073  29.189  29.820  1.00  0.00     0.167 HD
ATOM     36  C   UNL A   1      45.764  26.935  29.163  1.00  0.00     0.074 A 
ATOM     37  C   UNL A   1      46.234  25.628  28.736  1.00  0.00     0.031 C 
ATOM     38  C   UNL A   1      46.574  27.931  29.600  1.00  0.00     0.037 A 
BRANCH  25  39
ATOM     39  C   UNL A   1      43.713  33.185  31.275  1.00  0.00     0.058 A 
ATOM     40  C   UNL A   1      43.853  34.308  30.446  1.00  0.00     0.135 A 
ATOM     41  C   UNL A   1      43.708  33.394  32.665  1.00  0.00     0.135 A 
ATOM     42  F   UNL A   1      43.907  34.162  29.112  1.00  0.00    -0.206 F 
ATOM     43  C   UNL A   1      44.016  35.586  30.975  1.00  0.00     0.059 A 
ATOM     44  C   UNL A   1      43.846  34.665  33.215  1.00  0.00     0.059 A 
ATOM     45  F   UNL A   1      43.599  32.353  33.505  1.00  0.00    -0.206 F 
ATOM     46  C   UNL A   1      44.019  35.753  32.362  1.00  0.00     0.060 A 
BRANCH  46  47
ATOM     47  S   UNL A   1      44.270  37.408  33.039  1.00  0.00     0.124 S 
ATOM     48  O   UNL A   1      44.329  38.212  31.823  1.00  0.00    -0.237 OA
ATOM     49  O   UNL A   1      43.080  37.592  33.863  1.00  0.00    -0.237 OA
ATOM     50  O   UNL A   1      45.525  37.288  33.774  1.00  0.00    -0.744 OA
ENDBRANCH  46  47
ENDBRANCH  25  39
BRANCH  26  51
ATOM     51  C   UNL A   1      42.554  23.800  27.655  1.00  0.00     0.058 A 
ATOM     52  C   UNL A   1      42.463  23.519  26.284  1.00  0.00     0.135 A 
ATOM     53  C   UNL A   1      42.467  22.714  28.544  1.00  0.00     0.135 A 
ATOM     54  F   UNL A   1      42.534  24.517  25.389  1.00  0.00    -0.206 F 
ATOM     55  C   UNL A   1      42.277  22.221  25.814  1.00  0.00     0.059 A 
ATOM     56  C   UNL A   1      42.316  21.405  28.097  1.00  0.00     0.059 A 
ATOM     57  F   UNL A   1      42.555  22.915  29.868  1.00  0.00    -0.206 F 
ATOM     58  C   UNL A   1      42.205  21.169  26.729  1.00  0.00     0.060 A 
BRANCH  58  59
ATOM     59  S   UNL A   1      41.985  19.484  26.115  1.00  0.00     0.124 S 
ATOM     60  O   UNL A   1      42.868  19.478  24.956  1.00  0.00    -0.237 OA
ATOM     61  O   UNL A   1      42.418  18.681  27.255  1.00  0.00    -0.237 OA
ATOM     62  O   UNL A   1      40.556  19.419  25.822  1.00  0.00    -0.744 OA
ENDBRANCH  58  59
ENDBRANCH  26  51
BRANCH  38  63
ATOM     63  C   UNL A   1      48.035  27.614  29.679  1.00  0.00     0.058 A 
ATOM     64  C   UNL A   1      48.892  27.822  28.590  1.00  0.00     0.135 A 
ATOM     65  C   UNL A   1      48.583  27.139  30.880  1.00  0.00     0.135 A 
ATOM     66  F   UNL A   1      48.407  28.267  27.420  1.00  0.00    -0.206 F 
ATOM     67  C   UNL A   1      50.250  27.544  28.681  1.00  0.00     0.059 A 
ATOM     68  C   UNL A   1      49.941  26.882  31.002  1.00  0.00     0.059 A 
ATOM     69  F   UNL A   1      47.798  26.937  31.950  1.00  0.00    -0.206 F 
ATOM     70  C   UNL A   1      50.764  27.075  29.892  1.00  0.00     0.060 A 
BRANCH  70  71
ATOM     71  S   UNL A   1      52.533  26.748  30.012  1.00  0.00     0.124 S 
ATOM     72  O   UNL A   1      52.844  26.322  28.652  1.00  0.00    -0.237 OA
ATOM     73  O   UNL A   1      53.066  28.049  30.406  1.00  0.00    -0.237 OA
ATOM     74  O   UNL A   1      52.616  25.708  31.032  1.00  0.00    -0.744 OA
ENDBRANCH  70  71
ENDBRANCH  38  63
ENDBRANCH  12  13
ENDBRANCH   5   7
ENDBRANCH   4   5
ENDBRANCH   3   4
ENDBRANCH   2   3
ENDBRANCH   1   2
BRANCH   1  75
ATOM     75  C   UNL A   1      31.870  27.028  23.916  1.00  0.00     0.202 C 
BRANCH  75  76
ATOM     76  C   UNL A   1      30.603  26.324  24.407  1.00  0.00     0.261 C 
BRANCH  76  77
ATOM     77  O   UNL A   1      30.753  24.932  24.100  1.00  0.00    -0.459 OA
BRANCH  77  78
ATOM     78  C   UNL A   1      31.641  24.275  24.904  1.00  0.00     0.365 C 
ATOM     79  O   UNL A   1      31.719  24.409  26.121  1.00  0.00    -0.245 OA
BRANCH  78  80
ATOM     80  C   UNL A   1      32.476  23.278  24.099  1.00  0.00     0.295 C 
ATOM     81  C   UNL A   1      33.753  23.898  23.501  1.00  0.00     0.087 C 
ATOM     82  N   UNL A   1      32.975  22.205  24.973  1.00  0.00    -0.320 N 
ATOM     83  C   UNL A   1      34.822  22.869  23.773  1.00  0.00     0.054 C 
ATOM     84  C   UNL A   1      34.407  22.339  25.138  1.00  0.00     0.188 C 
ATOM     85  H   UNL A   1      32.700  22.240  25.955  1.00  0.00     0.349 HD
ATOM     86  C   UNL A   1      36.275  23.296  23.739  1.00  0.00     0.010 C 
ATOM     87  C   UNL A   1      35.269  21.197  25.653  1.00  0.00     0.065 C 
ATOM     88  C   UNL A   1      37.129  22.076  24.094  1.00  0.00     0.001 C 
ATOM     89  C   UNL A   1      36.765  21.496  25.467  1.00  0.00     0.006 C 
BRANCH  82  90
ATOM     90  C   UNL A   1      32.194  21.002  25.106  1.00  0.00     0.265 C 
BRANCH  90  91
ATOM     91  C   UNL A   1      32.340  19.892  24.048  1.00  0.00     0.093 C 
BRANCH  91  92
ATOM     92  C   UNL A   1      33.060  18.626  24.506  1.00  0.00     0.123 C 
ATOM     93  C   UNL A   1      33.373  17.616  23.428  1.00  0.00     0.034 C 
ATOM     94  O   UNL A   1      32.215  17.884  25.409  1.00  0.00    -0.378 OA
ATOM     95  C   UNL A   1      33.540  16.330  24.182  1.00  0.00     0.031 C 
ATOM     96  C   UNL A   1      32.625  16.507  25.370  1.00  0.00     0.160 C 
ENDBRANCH  91  92
ENDBRANCH  90  91
ENDBRANCH  82  90
ENDBRANCH  78  80
ENDBRANCH  77  78
ENDBRANCH  76  77
ENDBRANCH  75  76
ENDBRANCH   1  75
TORSDOF 20
ENDMDL
MODEL 2
REMARK VINA RESULT:     -10.4      3.056      7.649
REMARK SMILES O=C(OCCOCCOC(=O)[C@H]1C[C@H]2CCCC[C@@H]2[N@@H+]1CC[C@@H]1CCCO1)c1ccc(-c2c3nc(c(-c4c(F)cc(S(=O)(=O)[O-])cc4F)c4ccc([nH]4)c(-c4c(F)cc(S(=O)(=O)[O-])cc4F)c4nc(c(-c5c(F)cc(S(=O)(=O)[O-])cc5F)c5ccc2[nH]5)C=C4)C=C3)cc1
REMARK SMILES IDX 6 1 5 2 4 3 3 4 2 5 1 6 28 7 29 8 93 9 30 10 92 11 31 12
REMARK SMILES IDX 32 13 33 14 86 15 34 16 91 17 85 18 87 19 35 20 90 21 84 22
REMARK SMILES IDX 83 23 36 25 70 26 49 27 69 28 50 29 53 30 68 31 88 32 51 33
REMARK SMILES IDX 52 34 67 36 89 37 54 38 37 39 38 40 47 41 39 42 40 43 46 44
REMARK SMILES IDX 48 45 41 46 42 47 43 48 44 49 45 50 71 51 72 52 81 53 73 54
REMARK SMILES IDX 74 55 80 56 82 57 75 58 76 59 77 60 78 61 79 62 55 63 56 64
REMARK SMILES IDX 65 65 57 66 58 67 64 68 66 69 59 70 60 71 61 72 62 73 63 74
REMARK SMILES IDX 7 75 8 76 9 77 10 78 11 79 12 80 13 81 20 82 14 83 19 84
REMARK SMILES IDX 15 86 18 87 16 88 17 89 21 90 22 91 23 92 24 93 27 94 25 95
REMARK SMILES IDX 26 96
REMARK H PARENT 87 24 53 35 20 85
REMARK Flexibility Score: inf
ROOT
ATOM      1  O   UNL A   1      34.757  21.231  24.712  1.00  0.00    -0.374 OA
ENDROOT
BRANCH   1   2
ATOM      2  C   UNL A   1      36.001  20.793  25.257  1.00  0.00     0.202 C 
BRANCH   2   3
ATOM      3  C   UNL A   1      37.390  21.364  24.868  1.00  0.00     0.261 C 
BRANCH   3   4
ATOM      4  O   UNL A   1      37.985  22.330  25.763  1.00  0.00    -0.460 OA
BRANCH   4   5
ATOM      5  C   UNL A   1      39.238  22.275  26.297  1.00  0.00     0.338 C 
ATOM      6  O   UNL A   1      39.891  21.240  26.271  1.00  0.00    -0.246 OA
BRANCH   5   7
ATOM      7  C   UNL A   1      39.791  23.488  26.941  1.00  0.00     0.060 A 
ATOM      8  C   UNL A   1      39.312  24.735  26.583  1.00  0.00     0.016 A 
ATOM      9  C   UNL A   1      40.785  23.417  27.916  1.00  0.00     0.016 A 
ATOM     10  C   UNL A   1      39.984  25.881  26.893  1.00  0.00     0.010 A 
ATOM     11  C   UNL A   1      41.349  24.603  28.408  1.00  0.00     0.010 A 
ATOM     12  C   UNL A   1      40.991  25.837  27.841  1.00  0.00    -0.014 A 
BRANCH  12  13
ATOM     13  C   UNL A   1      41.690  27.113  28.075  1.00  0.00     0.031 A 
ATOM     14  C   UNL A   1      40.983  28.166  28.868  1.00  0.00     0.074 A 
ATOM     15  C   UNL A   1      43.009  27.192  27.794  1.00  0.00     0.049 A 
ATOM     16  N   UNL A   1      41.389  29.360  29.192  1.00  0.00    -0.248 NA
ATOM     17  C   UNL A   1      39.639  27.831  29.376  1.00  0.00     0.031 C 
ATOM     18  C   UNL A   1      43.810  26.123  27.178  1.00  0.00     0.029 A 
ATOM     19  N   UNL A   1      43.930  28.164  28.070  1.00  0.00    -0.354 N 
ATOM     20  C   UNL A   1      40.327  29.945  29.871  1.00  0.00     0.074 A 
ATOM     21  C   UNL A   1      39.265  28.970  29.936  1.00  0.00     0.031 C 
ATOM     22  C   UNL A   1      45.106  26.459  27.216  1.00  0.00     0.029 A 
ATOM     23  C   UNL A   1      45.217  27.816  27.724  1.00  0.00     0.049 A 
ATOM     24  H   UNL A   1      43.696  29.030  28.476  1.00  0.00     0.167 HD
ATOM     25  C   UNL A   1      40.255  31.199  30.368  1.00  0.00     0.037 A 
ATOM     26  C   UNL A   1      46.350  28.542  27.770  1.00  0.00     0.037 A 
ATOM     27  C   UNL A   1      41.359  32.116  30.309  1.00  0.00     0.049 A 
ATOM     28  C   UNL A   1      46.227  29.955  28.263  1.00  0.00     0.074 A 
ATOM     29  C   UNL A   1      41.408  33.444  30.686  1.00  0.00     0.029 A 
ATOM     30  N   UNL A   1      42.628  31.779  29.848  1.00  0.00    -0.354 N 
ATOM     31  N   UNL A   1      45.173  30.559  28.765  1.00  0.00    -0.248 NA
ATOM     32  C   UNL A   1      47.420  30.798  28.162  1.00  0.00     0.031 C 
ATOM     33  C   UNL A   1      42.697  33.918  30.418  1.00  0.00     0.029 A 
ATOM     34  C   UNL A   1      43.466  32.875  29.923  1.00  0.00     0.049 A 
ATOM     35  H   UNL A   1      42.890  30.889  29.518  1.00  0.00     0.167 HD
ATOM     36  C   UNL A   1      45.578  31.855  29.050  1.00  0.00     0.074 A 
ATOM     37  C   UNL A   1      46.981  31.936  28.683  1.00  0.00     0.031 C 
ATOM     38  C   UNL A   1      44.861  32.890  29.555  1.00  0.00     0.037 A 
BRANCH  25  39
ATOM     39  C   UNL A   1      38.923  31.649  30.896  1.00  0.00     0.058 A 
ATOM     40  C   UNL A   1      37.934  32.213  30.077  1.00  0.00     0.135 A 
ATOM     41  C   UNL A   1      38.664  31.570  32.275  1.00  0.00     0.135 A 
ATOM     42  F   UNL A   1      38.147  32.351  28.758  1.00  0.00    -0.206 F 
ATOM     43  C   UNL A   1      36.748  32.713  30.609  1.00  0.00     0.059 A 
ATOM     44  C   UNL A   1      37.477  32.042  32.825  1.00  0.00     0.059 A 
ATOM     45  F   UNL A   1      39.584  31.060  33.108  1.00  0.00    -0.206 F 
ATOM     46  C   UNL A   1      36.533  32.630  31.986  1.00  0.00     0.060 A 
BRANCH  46  47
ATOM     47  S   UNL A   1      35.009  33.316  32.671  1.00  0.00     0.124 S 
ATOM     48  O   UNL A   1      35.155  32.990  34.086  1.00  0.00    -0.237 OA
ATOM     49  O   UNL A   1      35.122  34.731  32.331  1.00  0.00    -0.237 OA
ATOM     50  O   UNL A   1      33.960  32.587  31.964  1.00  0.00    -0.744 OA
ENDBRANCH  46  47
ENDBRANCH  25  39
BRANCH  26  51
ATOM     51  C   UNL A   1      47.636  27.985  27.265  1.00  0.00     0.058 A 
ATOM     52  C   UNL A   1      47.956  27.994  25.899  1.00  0.00     0.135 A 
ATOM     53  C   UNL A   1      48.582  27.429  28.145  1.00  0.00     0.135 A 
ATOM     54  F   UNL A   1      47.091  28.507  25.012  1.00  0.00    -0.206 F 
ATOM     55  C   UNL A   1      49.152  27.461  25.424  1.00  0.00     0.059 A 
ATOM     56  C   UNL A   1      49.797  26.921  27.699  1.00  0.00     0.059 A 
ATOM     57  F   UNL A   1      48.338  27.397  29.465  1.00  0.00    -0.206 F 
ATOM     58  C   UNL A   1      50.068  26.927  26.333  1.00  0.00     0.060 A 
BRANCH  58  59
ATOM     59  S   UNL A   1      51.627  26.254  25.715  1.00  0.00     0.124 S 
ATOM     60  O   UNL A   1      52.599  27.125  26.366  1.00  0.00    -0.237 OA
ATOM     61  O   UNL A   1      51.580  24.876  26.195  1.00  0.00    -0.237 OA
ATOM     62  O   UNL A   1      51.509  26.409  24.268  1.00  0.00    -0.744 OA
ENDBRANCH  58  59
ENDBRANCH  26  51
BRANCH  38  63
ATOM     63  C   UNL A   1      45.607  34.169  29.780  1.00  0.00     0.058 A 
ATOM     64  C   UNL A   1      45.674  35.163  28.794  1.00  0.00     0.135 A 
ATOM     65  C   UNL A   1      46.220  34.412  31.018  1.00  0.00     0.135 A 
ATOM     66  F   UNL A   1      45.108  34.966  27.593  1.00  0.00    -0.206 F 
ATOM     67  C   UNL A   1      46.350  36.355  29.021  1.00  0.00     0.059 A 
ATOM     68  C   UNL A   1      46.877  35.607  31.275  1.00  0.00     0.059 A 
ATOM     69  F   UNL A   1      46.168  33.490  31.992  1.00  0.00    -0.206 F 
ATOM     70  C   UNL A   1      46.948  36.567  30.265  1.00  0.00     0.060 A 
BRANCH  70  71
ATOM     71  S   UNL A   1      47.796  38.130  30.562  1.00  0.00     0.124 S 
ATOM     72  O   UNL A   1      47.497  38.861  29.336  1.00  0.00    -0.237 OA
ATOM     73  O   UNL A   1      47.137  38.619  31.769  1.00  0.00    -0.237 OA
ATOM     74  O   UNL A   1      49.189  37.730  30.734  1.00  0.00    -0.744 OA
ENDBRANCH  70  71
ENDBRANCH  38  63
ENDBRANCH  12  13
ENDBRANCH   5   7
ENDBRANCH   4   5
ENDBRANCH   3   4
ENDBRANCH   2   3
ENDBRANCH   1   2
BRANCH   1  75
ATOM     75  C   UNL A   1      33.565  21.433  25.468  1.00  0.00     0.202 C 
BRANCH  75  76
ATOM     76  C   UNL A   1      33.601  22.842  26.066  1.00  0.00     0.261 C 
BRANCH  76  77
ATOM     77  O   UNL A   1      32.570  23.597  25.418  1.00  0.00    -0.459 OA
BRANCH  77  78
ATOM     78  C   UNL A   1      31.727  24.244  26.276  1.00  0.00     0.365 C 
ATOM     79  O   UNL A   1      31.293  23.773  27.323  1.00  0.00    -0.245 OA
BRANCH  78  80
ATOM     80  C   UNL A   1      31.459  25.675  25.807  1.00  0.00     0.295 C 
ATOM     81  C   UNL A   1      32.613  26.644  26.125  1.00  0.00     0.087 C 
ATOM     82  N   UNL A   1      31.347  25.721  24.341  1.00  0.00    -0.320 N 
ATOM     83  C   UNL A   1      32.776  27.447  24.859  1.00  0.00     0.054 C 
ATOM     84  C   UNL A   1      32.497  26.404  23.788  1.00  0.00     0.188 C 
ATOM     85  H   UNL A   1      31.435  24.835  23.841  1.00  0.00     0.349 HD
ATOM     86  C   UNL A   1      34.080  28.183  24.622  1.00  0.00     0.010 C 
ATOM     87  C   UNL A   1      32.504  26.949  22.368  1.00  0.00     0.065 C 
ATOM     88  C   UNL A   1      33.987  28.867  23.254  1.00  0.00     0.001 C 
ATOM     89  C   UNL A   1      33.714  27.865  22.125  1.00  0.00     0.006 C 
BRANCH  82  90
ATOM     90  C   UNL A   1      30.044  25.589  23.742  1.00  0.00     0.265 C 
BRANCH  90  91
ATOM     91  C   UNL A   1      28.968  26.648  24.046  1.00  0.00     0.093 C 
BRANCH  91  92
ATOM     92  C   UNL A   1      28.931  27.848  23.101  1.00  0.00     0.123 C 
ATOM     93  C   UNL A   1      29.799  29.022  23.491  1.00  0.00     0.034 C 
ATOM     94  O   UNL A   1      27.606  28.417  23.087  1.00  0.00    -0.378 OA
ATOM     95  C   UNL A   1      29.177  30.180  22.768  1.00  0.00     0.031 C 
ATOM     96  C   UNL A   1      27.719  29.794  22.693  1.00  0.00     0.160 C 
ENDBRANCH  91  92
ENDBRANCH  90  91
ENDBRANCH  82  90
ENDBRANCH  78  80
ENDBRANCH  77  78
ENDBRANCH  76  77
ENDBRANCH  75  76
ENDBRANCH   1  75
TORSDOF 20
ENDMDL
MODEL 3
REMARK VINA RESULT:     -10.4      3.531      8.623
REMARK SMILES O=C(OCCOCCOC(=O)[C@H]1C[C@H]2CCCC[C@@H]2[N@@H+]1CC[C@@H]1CCCO1)c1ccc(-c2c3nc(c(-c4c(F)cc(S(=O)(=O)[O-])cc4F)c4ccc([nH]4)c(-c4c(F)cc(S(=O)(=O)[O-])cc4F)c4nc(c(-c5c(F)cc(S(=O)(=O)[O-])cc5F)c5ccc2[nH]5)C=C4)C=C3)cc1
REMARK SMILES IDX 6 1 5 2 4 3 3 4 2 5 1 6 28 7 29 8 93 9 30 10 92 11 31 12
REMARK SMILES IDX 32 13 33 14 86 15 34 16 91 17 85 18 87 19 35 20 90 21 84 22
REMARK SMILES IDX 83 23 36 25 70 26 49 27 69 28 50 29 53 30 68 31 88 32 51 33
REMARK SMILES IDX 52 34 67 36 89 37 54 38 37 39 38 40 47 41 39 42 40 43 46 44
REMARK SMILES IDX 48 45 41 46 42 47 43 48 44 49 45 50 71 51 72 52 81 53 73 54
REMARK SMILES IDX 74 55 80 56 82 57 75 58 76 59 77 60 78 61 79 62 55 63 56 64
REMARK SMILES IDX 65 65 57 66 58 67 64 68 66 69 59 70 60 71 61 72 62 73 63 74
REMARK SMILES IDX 7 75 8 76 9 77 10 78 11 79 12 80 13 81 20 82 14 83 19 84
REMARK SMILES IDX 15 86 18 87 16 88 17 89 21 90 22 91 23 92 24 93 27 94 25 95
REMARK SMILES IDX 26 96
REMARK H PARENT 87 24 53 35 20 85
REMARK Flexibility Score: inf
ROOT
ATOM      1  O   UNL A   1      33.137  23.236  26.063  1.00  0.00    -0.374 OA
ENDROOT
BRANCH   1   2
ATOM      2  C   UNL A   1      34.470  23.422  26.538  1.00  0.00     0.202 C 
BRANCH   2   3
ATOM      3  C   UNL A   1      35.751  23.198  25.694  1.00  0.00     0.261 C 
BRANCH   3   4
ATOM      4  O   UNL A   1      36.852  24.111  25.902  1.00  0.00    -0.460 OA
BRANCH   4   5
ATOM      5  C   UNL A   1      38.148  23.775  26.150  1.00  0.00     0.338 C 
ATOM      6  O   UNL A   1      38.603  22.698  25.784  1.00  0.00    -0.246 OA
BRANCH   5   7
ATOM      7  C   UNL A   1      38.999  24.726  26.900  1.00  0.00     0.060 A 
ATOM      8  C   UNL A   1      38.929  24.771  28.280  1.00  0.00     0.016 A 
ATOM      9  C   UNL A   1      39.889  25.584  26.256  1.00  0.00     0.016 A 
ATOM     10  C   UNL A   1      39.434  25.819  28.993  1.00  0.00     0.010 A 
ATOM     11  C   UNL A   1      40.587  26.541  27.008  1.00  0.00     0.010 A 
ATOM     12  C   UNL A   1      40.303  26.700  28.374  1.00  0.00    -0.014 A 
BRANCH  12  13
ATOM     13  C   UNL A   1      40.759  27.825  29.210  1.00  0.00     0.031 A 
ATOM     14  C   UNL A   1      39.796  28.941  29.470  1.00  0.00     0.074 A 
ATOM     15  C   UNL A   1      41.907  27.693  29.908  1.00  0.00     0.049 A 
ATOM     16  N   UNL A   1      39.971  30.031  30.162  1.00  0.00    -0.248 NA
ATOM     17  C   UNL A   1      38.450  28.815  28.881  1.00  0.00     0.031 C 
ATOM     18  C   UNL A   1      42.813  26.535  29.837  1.00  0.00     0.029 A 
ATOM     19  N   UNL A   1      42.466  28.477  30.877  1.00  0.00    -0.354 N 
ATOM     20  C   UNL A   1      38.792  30.752  30.027  1.00  0.00     0.074 A 
ATOM     21  C   UNL A   1      37.896  29.970  29.208  1.00  0.00     0.031 C 
ATOM     22  C   UNL A   1      43.749  26.643  30.789  1.00  0.00     0.029 A 
ATOM     23  C   UNL A   1      43.599  27.934  31.441  1.00  0.00     0.049 A 
ATOM     24  H   UNL A   1      42.095  29.349  31.147  1.00  0.00     0.167 HD
ATOM     25  C   UNL A   1      38.509  31.973  30.532  1.00  0.00     0.037 A 
ATOM     26  C   UNL A   1      44.447  28.453  32.348  1.00  0.00     0.037 A 
ATOM     27  C   UNL A   1      39.425  32.690  31.374  1.00  0.00     0.049 A 
ATOM     28  C   UNL A   1      44.144  29.840  32.840  1.00  0.00     0.074 A 
ATOM     29  C   UNL A   1      39.318  33.969  31.884  1.00  0.00     0.029 A 
ATOM     30  N   UNL A   1      40.625  32.166  31.843  1.00  0.00    -0.354 N 
ATOM     31  N   UNL A   1      43.093  30.588  32.586  1.00  0.00    -0.248 NA
ATOM     32  C   UNL A   1      45.147  30.471  33.701  1.00  0.00     0.031 C 
ATOM     33  C   UNL A   1      40.472  34.231  32.631  1.00  0.00     0.029 A 
ATOM     34  C   UNL A   1      41.274  33.098  32.630  1.00  0.00     0.049 A 
ATOM     35  H   UNL A   1      40.962  31.263  31.644  1.00  0.00     0.167 HD
ATOM     36  C   UNL A   1      43.304  31.779  33.265  1.00  0.00     0.074 A 
ATOM     37  C   UNL A   1      44.573  31.639  33.957  1.00  0.00     0.031 C 
ATOM     38  C   UNL A   1      42.532  32.894  33.306  1.00  0.00     0.037 A 
BRANCH  25  39
ATOM     39  C   UNL A   1      37.227  32.616  30.086  1.00  0.00     0.058 A 
ATOM     40  C   UNL A   1      37.175  33.575  29.063  1.00  0.00     0.135 A 
ATOM     41  C   UNL A   1      36.030  32.305  30.752  1.00  0.00     0.135 A 
ATOM     42  F   UNL A   1      38.297  33.942  28.422  1.00  0.00    -0.206 F 
ATOM     43  C   UNL A   1      35.989  34.228  28.739  1.00  0.00     0.059 A 
ATOM     44  C   UNL A   1      34.828  32.927  30.428  1.00  0.00     0.059 A 
ATOM     45  F   UNL A   1      36.025  31.410  31.752  1.00  0.00    -0.206 F 
ATOM     46  C   UNL A   1      34.821  33.902  29.433  1.00  0.00     0.060 A 
BRANCH  46  47
ATOM     47  S   UNL A   1      33.296  34.781  29.031  1.00  0.00     0.124 S 
ATOM     48  O   UNL A   1      33.816  36.034  28.493  1.00  0.00    -0.237 OA
ATOM     49  O   UNL A   1      32.668  33.889  28.062  1.00  0.00    -0.237 OA
ATOM     50  O   UNL A   1      32.614  34.884  30.317  1.00  0.00    -0.744 OA
ENDBRANCH  46  47
ENDBRANCH  25  39
BRANCH  26  51
ATOM     51  C   UNL A   1      45.671  27.711  32.764  1.00  0.00     0.058 A 
ATOM     52  C   UNL A   1      45.692  26.912  33.916  1.00  0.00     0.135 A 
ATOM     53  C   UNL A   1      46.855  27.786  32.009  1.00  0.00     0.135 A 
ATOM     54  F   UNL A   1      44.593  26.807  34.678  1.00  0.00    -0.206 F 
ATOM     55  C   UNL A   1      46.840  26.229  34.313  1.00  0.00     0.059 A 
ATOM     56  C   UNL A   1      48.004  27.088  32.365  1.00  0.00     0.059 A 
ATOM     57  F   UNL A   1      46.898  28.529  30.891  1.00  0.00    -0.206 F 
ATOM     58  C   UNL A   1      47.992  26.324  33.530  1.00  0.00     0.060 A 
BRANCH  58  59
ATOM     59  S   UNL A   1      49.473  25.421  34.036  1.00  0.00     0.124 S 
ATOM     60  O   UNL A   1      50.464  25.935  33.098  1.00  0.00    -0.237 OA
ATOM     61  O   UNL A   1      49.630  25.840  35.426  1.00  0.00    -0.237 OA
ATOM     62  O   UNL A   1      49.093  24.023  33.852  1.00  0.00    -0.744 OA
ENDBRANCH  58  59
ENDBRANCH  26  51
BRANCH  38  63
ATOM     63  C   UNL A   1      43.027  34.014  34.168  1.00  0.00     0.058 A 
ATOM     64  C   UNL A   1      43.834  35.037  33.651  1.00  0.00     0.135 A 
ATOM     65  C   UNL A   1      42.646  34.080  35.517  1.00  0.00     0.135 A 
ATOM     66  F   UNL A   1      44.228  35.007  32.368  1.00  0.00    -0.206 F 
ATOM     67  C   UNL A   1      44.270  36.083  34.455  1.00  0.00     0.059 A 
ATOM     68  C   UNL A   1      43.047  35.130  36.330  1.00  0.00     0.059 A 
ATOM     69  F   UNL A   1      41.864  33.125  36.047  1.00  0.00    -0.206 F 
ATOM     70  C   UNL A   1      43.870  36.120  35.792  1.00  0.00     0.060 A 
BRANCH  70  71
ATOM     71  S   UNL A   1      44.414  37.498  36.819  1.00  0.00     0.124 S 
ATOM     72  O   UNL A   1      45.710  37.020  37.287  1.00  0.00    -0.237 OA
ATOM     73  O   UNL A   1      44.452  38.603  35.867  1.00  0.00    -0.237 OA
ATOM     74  O   UNL A   1      43.372  37.592  37.837  1.00  0.00    -0.744 OA
ENDBRANCH  70  71
ENDBRANCH  38  63
ENDBRANCH  12  13
ENDBRANCH   5   7
ENDBRANCH   4   5
ENDBRANCH   3   4
ENDBRANCH   2   3
ENDBRANCH   1   2
BRANCH   1  75
ATOM     75  C   UNL A   1      32.082  22.639  26.814  1.00  0.00     0.202 C 
BRANCH  75  76
ATOM     76  C   UNL A   1      30.760  23.289  26.398  1.00  0.00     0.261 C 
BRANCH  76  77
ATOM     77  O   UNL A   1      31.065  24.224  25.355  1.00  0.00    -0.459 OA
BRANCH  77  78
ATOM     78  C   UNL A   1      30.389  25.407  25.451  1.00  0.00     0.365 C 
ATOM     79  O   UNL A   1      30.123  25.982  26.501  1.00  0.00    -0.245 OA
BRANCH  78  80
ATOM     80  C   UNL A   1      30.080  25.975  24.065  1.00  0.00     0.295 C 
ATOM     81  C   UNL A   1      28.603  26.380  23.890  1.00  0.00     0.087 C 
ATOM     82  N   UNL A   1      30.821  27.227  23.847  1.00  0.00    -0.320 N 
ATOM     83  C   UNL A   1      28.670  27.718  23.198  1.00  0.00     0.054 C 
ATOM     84  C   UNL A   1      29.899  28.343  23.840  1.00  0.00     0.188 C 
ATOM     85  H   UNL A   1      31.439  27.538  24.598  1.00  0.00     0.349 HD
ATOM     86  C   UNL A   1      27.462  28.633  23.255  1.00  0.00     0.010 C 
ATOM     87  C   UNL A   1      30.281  29.700  23.269  1.00  0.00     0.065 C 
ATOM     88  C   UNL A   1      27.822  29.926  22.518  1.00  0.00     0.001 C 
ATOM     89  C   UNL A   1      29.053  30.612  23.124  1.00  0.00     0.006 C 
BRANCH  82  90
ATOM     90  C   UNL A   1      32.113  27.164  23.214  1.00  0.00     0.265 C 
BRANCH  90  91
ATOM     91  C   UNL A   1      33.347  26.797  24.060  1.00  0.00     0.093 C 
BRANCH  91  92
ATOM     92  C   UNL A   1      33.746  27.812  25.130  1.00  0.00     0.123 C 
ATOM     93  C   UNL A   1      33.174  27.577  26.508  1.00  0.00     0.034 C 
ATOM     94  O   UNL A   1      33.231  29.113  24.783  1.00  0.00    -0.378 OA
ATOM     95  C   UNL A   1      33.248  28.927  27.158  1.00  0.00     0.031 C 
ATOM     96  C   UNL A   1      33.105  29.877  25.994  1.00  0.00     0.160 C 
ENDBRANCH  91  92
ENDBRANCH  90  91
ENDBRANCH  82  90
ENDBRANCH  78  80
ENDBRANCH  77  78
ENDBRANCH  76  77
ENDBRANCH  75  76
ENDBRANCH   1  75
TORSDOF 20
ENDMDL
