MODEL 1
REMARK VINA RESULT:     -12.2      0.000      0.000
REMARK SMILES Cc1cccc(NS(=O)(=O)c2ccc(Br)c(C(=O)OCCOCCOC(=O)c3ccc(-c4c5nc(c(-c6c(F)cc(S(=O)(=O)[O-])cc6F)c6ccc([nH]6)c(-c6c(F)cc(S(=O)(=O)[O-])cc6F)c6nc(c(-c7c(F)cc(S(=O)(=O)[O-])cc7F)c7ccc4[nH]7)C=C6)C=C5)cc3)c2)c1
REMARK SMILES IDX 22 1 21 2 20 3 19 4 17 5 18 6 16 7 11 8 12 9 94 10 13 11
REMARK SMILES IDX 14 12 15 13 8 14 9 15 10 16 7 17 6 19 1 20 2 21 3 22 95 23
REMARK SMILES IDX 4 24 5 25 23 26 24 27 25 28 26 29 27 30 28 31 29 32 93 33
REMARK SMILES IDX 30 34 92 35 31 36 32 37 33 38 86 39 34 40 91 41 85 42 87 43
REMARK SMILES IDX 35 44 90 45 84 46 83 47 36 49 70 50 49 51 69 52 50 53 53 54
REMARK SMILES IDX 68 55 88 56 51 57 52 58 67 60 89 61 54 62 37 63 38 64 47 65
REMARK SMILES IDX 39 66 40 67 46 68 48 69 41 70 42 71 43 72 44 73 45 74 71 75
REMARK SMILES IDX 72 76 81 77 73 78 74 79 80 80 82 81 75 82 76 83 77 84 78 85
REMARK SMILES IDX 79 86 55 87 56 88 65 89 57 90 58 91 64 92 66 93 59 94 60 95
REMARK SMILES IDX 61 96 62 97 63 98
REMARK H PARENT 7 18 87 48 53 59
REMARK Flexibility Score: inf
ROOT
ATOM      1  O   UNL A   1      33.069  29.645  24.220  1.00  0.00    -0.374 OA
ENDROOT
BRANCH   1   2
ATOM      2  C   UNL A   1      32.649  28.788  23.174  1.00  0.00     0.202 C 
BRANCH   2   3
ATOM      3  C   UNL A   1      33.905  28.236  22.599  1.00  0.00     0.261 C 
BRANCH   3   4
ATOM      4  O   UNL A   1      33.777  26.900  22.064  1.00  0.00    -0.460 OA
BRANCH   4   5
ATOM      5  C   UNL A   1      32.718  26.093  22.259  1.00  0.00     0.339 C 
ATOM      6  O   UNL A   1      31.741  25.948  21.564  1.00  0.00    -0.246 OA
BRANCH   5   7
ATOM      7  C   UNL A   1      32.972  25.330  23.510  1.00  0.00     0.075 A 
ATOM      8  C   UNL A   1      34.579  23.951  24.695  1.00  0.00     0.088 A 
ATOM      9  C   UNL A   1      33.940  24.244  25.896  1.00  0.00     0.023 A 
ATOM     10  C   UNL A   1      34.118  24.506  23.497  1.00  0.00     0.039 A 
ATOM     11  C   UNL A   1      32.732  24.918  25.887  1.00  0.00     0.018 A 
ATOM     12  C   UNL A   1      32.243  25.475  24.711  1.00  0.00     0.032 A 
ATOM     13  Br  UNL A   1      30.613  26.413  25.018  1.00  0.00    -0.050 Br
BRANCH   8  14
ATOM     14  S   UNL A   1      35.992  22.888  24.723  1.00  0.00     0.261 S 
ATOM     15  O   UNL A   1      36.928  23.500  25.647  1.00  0.00    -0.201 OA
ATOM     16  O   UNL A   1      36.385  22.603  23.361  1.00  0.00    -0.201 OA
BRANCH  14  17
ATOM     17  N   UNL A   1      35.596  21.385  25.436  1.00  0.00    -0.280 N 
ATOM     18  H   UNL A   1      36.058  21.122  26.265  1.00  0.00     0.180 HD
BRANCH  17  19
ATOM     19  C   UNL A   1      34.622  20.487  24.881  1.00  0.00     0.049 A 
ATOM     20  C   UNL A   1      34.391  16.778  24.005  1.00  0.00     0.044 C 
ATOM     21  C   UNL A   1      34.015  18.207  24.268  1.00  0.00    -0.049 A 
ATOM     22  C   UNL A   1      32.718  18.644  23.982  1.00  0.00     0.003 A 
ATOM     23  C   UNL A   1      34.952  19.129  24.760  1.00  0.00     0.030 A 
ATOM     24  C   UNL A   1      32.416  20.003  24.022  1.00  0.00     0.002 A 
ATOM     25  C   UNL A   1      33.394  20.930  24.394  1.00  0.00     0.027 A 
ENDBRANCH  17  19
ENDBRANCH  14  17
ENDBRANCH   8  14
ENDBRANCH   5   7
ENDBRANCH   4   5
ENDBRANCH   3   4
ENDBRANCH   2   3
ENDBRANCH   1   2
BRANCH   1  26
ATOM     26  C   UNL A   1      32.266  29.636  25.372  1.00  0.00     0.202 C 
BRANCH  26  27
ATOM     27  C   UNL A   1      33.076  29.263  26.612  1.00  0.00     0.261 C 
BRANCH  27  28
ATOM     28  O   UNL A   1      33.139  30.370  27.544  1.00  0.00    -0.460 OA
BRANCH  28  29
ATOM     29  C   UNL A   1      34.314  31.076  27.582  1.00  0.00     0.338 C 
ATOM     30  O   UNL A   1      34.411  32.246  27.258  1.00  0.00    -0.246 OA
BRANCH  29  31
ATOM     31  C   UNL A   1      35.436  30.224  28.085  1.00  0.00     0.060 A 
ATOM     32  C   UNL A   1      35.451  29.719  29.403  1.00  0.00     0.016 A 
ATOM     33  C   UNL A   1      36.583  30.147  27.306  1.00  0.00     0.016 A 
ATOM     34  C   UNL A   1      36.659  29.279  29.985  1.00  0.00     0.010 A 
ATOM     35  C   UNL A   1      37.779  29.863  27.926  1.00  0.00     0.010 A 
ATOM     36  C   UNL A   1      37.843  29.437  29.268  1.00  0.00    -0.014 A 
BRANCH  36  37
ATOM     37  C   UNL A   1      39.221  29.218  29.733  1.00  0.00     0.031 A 
ATOM     38  C   UNL A   1      39.902  28.020  29.200  1.00  0.00     0.074 A 
ATOM     39  C   UNL A   1      39.964  30.197  30.308  1.00  0.00     0.049 A 
ATOM     40  N   UNL A   1      41.098  27.674  29.501  1.00  0.00    -0.248 NA
ATOM     41  C   UNL A   1      39.251  27.074  28.300  1.00  0.00     0.031 C 
ATOM     42  C   UNL A   1      41.398  30.455  30.158  1.00  0.00     0.029 A 
ATOM     43  N   UNL A   1      39.549  31.247  31.118  1.00  0.00    -0.354 N 
ATOM     44  C   UNL A   1      41.480  26.659  28.657  1.00  0.00     0.074 A 
ATOM     45  C   UNL A   1      40.266  26.268  27.988  1.00  0.00     0.031 C 
ATOM     46  C   UNL A   1      41.768  31.460  30.975  1.00  0.00     0.029 A 
ATOM     47  C   UNL A   1      40.631  31.795  31.818  1.00  0.00     0.049 A 
ATOM     48  H   UNL A   1      38.620  31.563  31.191  1.00  0.00     0.167 HD
ATOM     49  C   UNL A   1      42.808  26.360  28.579  1.00  0.00     0.037 A 
ATOM     50  C   UNL A   1      40.557  31.870  33.175  1.00  0.00     0.037 A 
ATOM     51  C   UNL A   1      43.565  27.195  29.538  1.00  0.00     0.049 A 
ATOM     52  C   UNL A   1      41.420  30.761  33.734  1.00  0.00     0.074 A 
ATOM     53  C   UNL A   1      44.331  28.347  29.453  1.00  0.00     0.029 A 
ATOM     54  N   UNL A   1      43.269  27.064  30.887  1.00  0.00    -0.354 N 
ATOM     55  N   UNL A   1      42.271  30.088  33.004  1.00  0.00    -0.248 NA
ATOM     56  C   UNL A   1      41.374  30.272  35.106  1.00  0.00     0.031 C 
ATOM     57  C   UNL A   1      44.447  28.908  30.773  1.00  0.00     0.029 A 
ATOM     58  C   UNL A   1      43.784  28.083  31.667  1.00  0.00     0.049 A 
ATOM     59  H   UNL A   1      42.742  26.317  31.253  1.00  0.00     0.167 HD
ATOM     60  C   UNL A   1      42.741  29.017  33.688  1.00  0.00     0.074 A 
ATOM     61  C   UNL A   1      42.181  29.196  35.025  1.00  0.00     0.031 C 
ATOM     62  C   UNL A   1      43.514  28.050  33.108  1.00  0.00     0.037 A 
BRANCH  49  63
ATOM     63  C   UNL A   1      43.453  25.435  27.559  1.00  0.00     0.058 A 
ATOM     64  C   UNL A   1      44.183  24.309  27.995  1.00  0.00     0.135 A 
ATOM     65  C   UNL A   1      43.416  25.578  26.151  1.00  0.00     0.135 A 
ATOM     66  F   UNL A   1      44.279  24.002  29.296  1.00  0.00    -0.206 F 
ATOM     67  C   UNL A   1      44.848  23.438  27.121  1.00  0.00     0.059 A 
ATOM     68  C   UNL A   1      44.100  24.746  25.262  1.00  0.00     0.059 A 
ATOM     69  F   UNL A   1      42.672  26.496  25.537  1.00  0.00    -0.206 F 
ATOM     70  C   UNL A   1      44.812  23.671  25.754  1.00  0.00     0.060 A 
BRANCH  70  71
ATOM     71  S   UNL A   1      45.659  22.543  24.636  1.00  0.00     0.124 S 
ATOM     72  O   UNL A   1      46.314  21.628  25.564  1.00  0.00    -0.237 OA
ATOM     73  O   UNL A   1      44.550  21.987  23.868  1.00  0.00    -0.237 OA
ATOM     74  O   UNL A   1      46.560  23.414  23.886  1.00  0.00    -0.744 OA
ENDBRANCH  70  71
ENDBRANCH  49  63
BRANCH  50  75
ATOM     75  C   UNL A   1      39.193  32.351  33.618  1.00  0.00     0.058 A 
ATOM     76  C   UNL A   1      38.903  33.728  33.462  1.00  0.00     0.135 A 
ATOM     77  C   UNL A   1      38.084  31.488  33.654  1.00  0.00     0.135 A 
ATOM     78  F   UNL A   1      39.908  34.618  33.408  1.00  0.00    -0.206 F 
ATOM     79  C   UNL A   1      37.608  34.205  33.206  1.00  0.00     0.059 A 
ATOM     80  C   UNL A   1      36.787  31.939  33.357  1.00  0.00     0.059 A 
ATOM     81  F   UNL A   1      38.269  30.167  33.797  1.00  0.00    -0.206 F 
ATOM     82  C   UNL A   1      36.562  33.292  33.084  1.00  0.00     0.060 A 
BRANCH  82  83
ATOM     83  S   UNL A   1      35.030  33.802  32.215  1.00  0.00     0.124 S 
ATOM     84  O   UNL A   1      35.428  33.738  30.817  1.00  0.00    -0.237 OA
ATOM     85  O   UNL A   1      34.054  32.799  32.639  1.00  0.00    -0.237 OA
ATOM     86  O   UNL A   1      34.788  35.134  32.761  1.00  0.00    -0.744 OA
ENDBRANCH  82  83
ENDBRANCH  50  75
BRANCH  62  87
ATOM     87  C   UNL A   1      44.051  26.928  33.939  1.00  0.00     0.058 A 
ATOM     88  C   UNL A   1      43.189  25.955  34.469  1.00  0.00     0.135 A 
ATOM     89  C   UNL A   1      45.413  26.818  34.283  1.00  0.00     0.135 A 
ATOM     90  F   UNL A   1      41.861  26.039  34.291  1.00  0.00    -0.206 F 
ATOM     91  C   UNL A   1      43.668  24.860  35.173  1.00  0.00     0.059 A 
ATOM     92  C   UNL A   1      45.902  25.781  35.060  1.00  0.00     0.059 A 
ATOM     93  F   UNL A   1      46.338  27.679  33.837  1.00  0.00    -0.206 F 
ATOM     94  C   UNL A   1      45.030  24.777  35.449  1.00  0.00     0.060 A 
BRANCH  94  95
ATOM     95  S   UNL A   1      45.664  23.329  36.296  1.00  0.00     0.124 S 
ATOM     96  O   UNL A   1      45.388  23.638  37.695  1.00  0.00    -0.237 OA
ATOM     97  O   UNL A   1      44.845  22.275  35.706  1.00  0.00    -0.237 OA
ATOM     98  O   UNL A   1      47.076  23.312  35.929  1.00  0.00    -0.744 OA
ENDBRANCH  94  95
ENDBRANCH  62  87
ENDBRANCH  36  37
ENDBRANCH  29  31
ENDBRANCH  28  29
ENDBRANCH  27  28
ENDBRANCH  26  27
ENDBRANCH   1  26
TORSDOF 20
ENDMDL
MODEL 2
REMARK VINA RESULT:     -12.2      1.442      1.975
REMARK SMILES Cc1cccc(NS(=O)(=O)c2ccc(Br)c(C(=O)OCCOCCOC(=O)c3ccc(-c4c5nc(c(-c6c(F)cc(S(=O)(=O)[O-])cc6F)c6ccc([nH]6)c(-c6c(F)cc(S(=O)(=O)[O-])cc6F)c6nc(c(-c7c(F)cc(S(=O)(=O)[O-])cc7F)c7ccc4[nH]7)C=C6)C=C5)cc3)c2)c1
REMARK SMILES IDX 22 1 21 2 20 3 19 4 17 5 18 6 16 7 11 8 12 9 94 10 13 11
REMARK SMILES IDX 14 12 15 13 8 14 9 15 10 16 7 17 6 19 1 20 2 21 3 22 95 23
REMARK SMILES IDX 4 24 5 25 23 26 24 27 25 28 26 29 27 30 28 31 29 32 93 33
REMARK SMILES IDX 30 34 92 35 31 36 32 37 33 38 86 39 34 40 91 41 85 42 87 43
REMARK SMILES IDX 35 44 90 45 84 46 83 47 36 49 70 50 49 51 69 52 50 53 53 54
REMARK SMILES IDX 68 55 88 56 51 57 52 58 67 60 89 61 54 62 37 63 38 64 47 65
REMARK SMILES IDX 39 66 40 67 46 68 48 69 41 70 42 71 43 72 44 73 45 74 71 75
REMARK SMILES IDX 72 76 81 77 73 78 74 79 80 80 82 81 75 82 76 83 77 84 78 85
REMARK SMILES IDX 79 86 55 87 56 88 65 89 57 90 58 91 64 92 66 93 59 94 60 95
REMARK SMILES IDX 61 96 62 97 63 98
REMARK H PARENT 7 18 87 48 53 59
REMARK Flexibility Score: inf
ROOT
ATOM      1  O   UNL A   1      33.426  29.424  24.039  1.00  0.00    -0.374 OA
ENDROOT
BRANCH   1   2
ATOM      2  C   UNL A   1      32.871  28.971  22.819  1.00  0.00     0.202 C 
BRANCH   2   3
ATOM      3  C   UNL A   1      33.816  27.934  22.326  1.00  0.00     0.261 C 
BRANCH   3   4
ATOM      4  O   UNL A   1      33.412  26.576  22.611  1.00  0.00    -0.460 OA
BRANCH   4   5
ATOM      5  C   UNL A   1      32.239  26.030  22.240  1.00  0.00     0.339 C 
ATOM      6  O   UNL A   1      31.818  25.831  21.126  1.00  0.00    -0.246 OA
BRANCH   5   7
ATOM      7  C   UNL A   1      31.521  25.646  23.485  1.00  0.00     0.075 A 
ATOM      8  C   UNL A   1      31.631  24.292  25.495  1.00  0.00     0.088 A 
ATOM      9  C   UNL A   1      30.676  25.109  26.093  1.00  0.00     0.023 A 
ATOM     10  C   UNL A   1      32.078  24.563  24.199  1.00  0.00     0.039 A 
ATOM     11  C   UNL A   1      30.020  26.066  25.341  1.00  0.00     0.018 A 
ATOM     12  C   UNL A   1      30.435  26.354  24.046  1.00  0.00     0.032 A 
ATOM     13  Br  UNL A   1      29.408  27.769  23.290  1.00  0.00    -0.050 Br
BRANCH   8  14
ATOM     14  S   UNL A   1      32.278  22.928  26.416  1.00  0.00     0.261 S 
ATOM     15  O   UNL A   1      32.206  21.783  25.529  1.00  0.00    -0.201 OA
ATOM     16  O   UNL A   1      31.635  22.896  27.711  1.00  0.00    -0.201 OA
BRANCH  14  17
ATOM     17  N   UNL A   1      33.949  23.144  26.711  1.00  0.00    -0.280 N 
ATOM     18  H   UNL A   1      34.233  23.450  27.603  1.00  0.00     0.180 HD
BRANCH  17  19
ATOM     19  C   UNL A   1      34.958  22.901  25.717  1.00  0.00     0.049 A 
ATOM     20  C   UNL A   1      37.524  20.190  24.919  1.00  0.00     0.044 C 
ATOM     21  C   UNL A   1      36.645  21.400  24.800  1.00  0.00    -0.049 A 
ATOM     22  C   UNL A   1      36.808  22.268  23.717  1.00  0.00     0.003 A 
ATOM     23  C   UNL A   1      35.683  21.703  25.776  1.00  0.00     0.030 A 
ATOM     24  C   UNL A   1      36.150  23.496  23.703  1.00  0.00     0.002 A 
ATOM     25  C   UNL A   1      35.287  23.844  24.746  1.00  0.00     0.027 A 
ENDBRANCH  17  19
ENDBRANCH  14  17
ENDBRANCH   8  14
ENDBRANCH   5   7
ENDBRANCH   4   5
ENDBRANCH   3   4
ENDBRANCH   2   3
ENDBRANCH   1   2
BRANCH   1  26
ATOM     26  C   UNL A   1      32.631  29.225  25.180  1.00  0.00     0.202 C 
BRANCH  26  27
ATOM     27  C   UNL A   1      33.488  29.001  26.424  1.00  0.00     0.261 C 
BRANCH  27  28
ATOM     28  O   UNL A   1      33.339  30.095  27.362  1.00  0.00    -0.460 OA
BRANCH  28  29
ATOM     29  C   UNL A   1      34.441  30.882  27.569  1.00  0.00     0.338 C 
ATOM     30  O   UNL A   1      34.466  32.081  27.357  1.00  0.00    -0.246 OA
BRANCH  29  31
ATOM     31  C   UNL A   1      35.583  30.077  28.102  1.00  0.00     0.060 A 
ATOM     32  C   UNL A   1      35.595  29.589  29.427  1.00  0.00     0.016 A 
ATOM     33  C   UNL A   1      36.745  30.030  27.342  1.00  0.00     0.016 A 
ATOM     34  C   UNL A   1      36.807  29.199  30.033  1.00  0.00     0.010 A 
ATOM     35  C   UNL A   1      37.940  29.795  27.985  1.00  0.00     0.010 A 
ATOM     36  C   UNL A   1      37.997  29.389  29.333  1.00  0.00    -0.014 A 
BRANCH  36  37
ATOM     37  C   UNL A   1      39.374  29.224  29.822  1.00  0.00     0.031 A 
ATOM     38  C   UNL A   1      40.097  28.032  29.334  1.00  0.00     0.074 A 
ATOM     39  C   UNL A   1      40.079  30.241  30.379  1.00  0.00     0.049 A 
ATOM     40  N   UNL A   1      41.298  27.730  29.660  1.00  0.00    -0.248 NA
ATOM     41  C   UNL A   1      39.487  27.042  28.452  1.00  0.00     0.031 C 
ATOM     42  C   UNL A   1      41.507  30.536  30.242  1.00  0.00     0.029 A 
ATOM     43  N   UNL A   1      39.623  31.300  31.154  1.00  0.00    -0.354 N 
ATOM     44  C   UNL A   1      41.722  26.703  28.850  1.00  0.00     0.074 A 
ATOM     45  C   UNL A   1      40.529  26.258  28.176  1.00  0.00     0.031 C 
ATOM     46  C   UNL A   1      41.836  31.574  31.035  1.00  0.00     0.029 A 
ATOM     47  C   UNL A   1      40.678  31.898  31.852  1.00  0.00     0.049 A 
ATOM     48  H   UNL A   1      38.684  31.590  31.205  1.00  0.00     0.167 HD
ATOM     49  C   UNL A   1      43.059  26.442  28.799  1.00  0.00     0.037 A 
ATOM     50  C   UNL A   1      40.582  32.009  33.206  1.00  0.00     0.037 A 
ATOM     51  C   UNL A   1      43.777  27.326  29.745  1.00  0.00     0.049 A 
ATOM     52  C   UNL A   1      41.469  30.942  33.808  1.00  0.00     0.074 A 
ATOM     53  C   UNL A   1      44.510  28.497  29.637  1.00  0.00     0.029 A 
ATOM     54  N   UNL A   1      43.466  27.224  31.092  1.00  0.00    -0.354 N 
ATOM     55  N   UNL A   1      42.350  30.275  33.109  1.00  0.00    -0.248 NA
ATOM     56  C   UNL A   1      41.417  30.490  35.192  1.00  0.00     0.031 C 
ATOM     57  C   UNL A   1      44.591  29.098  30.941  1.00  0.00     0.029 A 
ATOM     58  C   UNL A   1      43.939  28.279  31.850  1.00  0.00     0.049 A 
ATOM     59  H   UNL A   1      42.955  26.472  31.472  1.00  0.00     0.167 HD
ATOM     60  C   UNL A   1      42.841  29.238  33.829  1.00  0.00     0.074 A 
ATOM     61  C   UNL A   1      42.257  29.437  35.153  1.00  0.00     0.031 C 
ATOM     62  C   UNL A   1      43.650  28.278  33.287  1.00  0.00     0.037 A 
BRANCH  49  63
ATOM     63  C   UNL A   1      43.745  25.508  27.815  1.00  0.00     0.058 A 
ATOM     64  C   UNL A   1      43.691  25.782  26.432  1.00  0.00     0.135 A 
ATOM     65  C   UNL A   1      44.462  24.329  28.133  1.00  0.00     0.135 A 
ATOM     66  F   UNL A   1      43.089  26.884  25.963  1.00  0.00    -0.206 F 
ATOM     67  C   UNL A   1      44.253  24.945  25.459  1.00  0.00     0.059 A 
ATOM     68  C   UNL A   1      45.000  23.460  27.181  1.00  0.00     0.059 A 
ATOM     69  F   UNL A   1      44.741  23.967  29.384  1.00  0.00    -0.206 F 
ATOM     70  C   UNL A   1      44.896  23.777  25.842  1.00  0.00     0.060 A 
BRANCH  70  71
ATOM     71  S   UNL A   1      45.626  22.711  24.589  1.00  0.00     0.124 S 
ATOM     72  O   UNL A   1      44.463  22.330  23.796  1.00  0.00    -0.237 OA
ATOM     73  O   UNL A   1      46.574  23.611  23.938  1.00  0.00    -0.237 OA
ATOM     74  O   UNL A   1      46.228  21.630  25.364  1.00  0.00    -0.744 OA
ENDBRANCH  70  71
ENDBRANCH  49  63
BRANCH  50  75
ATOM     75  C   UNL A   1      39.199  32.462  33.616  1.00  0.00     0.058 A 
ATOM     76  C   UNL A   1      38.837  33.801  33.332  1.00  0.00     0.135 A 
ATOM     77  C   UNL A   1      38.136  31.552  33.749  1.00  0.00     0.135 A 
ATOM     78  F   UNL A   1      39.796  34.731  33.180  1.00  0.00    -0.206 F 
ATOM     79  C   UNL A   1      37.518  34.186  33.046  1.00  0.00     0.059 A 
ATOM     80  C   UNL A   1      36.815  31.906  33.425  1.00  0.00     0.059 A 
ATOM     81  F   UNL A   1      38.389  30.263  34.016  1.00  0.00    -0.206 F 
ATOM     82  C   UNL A   1      36.520  33.214  33.026  1.00  0.00     0.060 A 
BRANCH  82  83
ATOM     83  S   UNL A   1      34.957  33.560  32.130  1.00  0.00     0.124 S 
ATOM     84  O   UNL A   1      35.009  35.004  31.959  1.00  0.00    -0.237 OA
ATOM     85  O   UNL A   1      35.093  32.776  30.903  1.00  0.00    -0.237 OA
ATOM     86  O   UNL A   1      33.947  33.050  33.052  1.00  0.00    -0.744 OA
ENDBRANCH  82  83
ENDBRANCH  50  75
BRANCH  62  87
ATOM     87  C   UNL A   1      44.208  27.197  34.157  1.00  0.00     0.058 A 
ATOM     88  C   UNL A   1      43.369  26.204  34.690  1.00  0.00     0.135 A 
ATOM     89  C   UNL A   1      45.564  27.145  34.536  1.00  0.00     0.135 A 
ATOM     90  F   UNL A   1      42.044  26.234  34.478  1.00  0.00    -0.206 F 
ATOM     91  C   UNL A   1      43.871  25.144  35.430  1.00  0.00     0.059 A 
ATOM     92  C   UNL A   1      46.072  26.145  35.348  1.00  0.00     0.059 A 
ATOM     93  F   UNL A   1      46.467  28.030  34.091  1.00  0.00    -0.206 F 
ATOM     94  C   UNL A   1      45.228  25.118  35.740  1.00  0.00     0.060 A 
BRANCH  94  95
ATOM     95  S   UNL A   1      45.894  23.715  36.636  1.00  0.00     0.124 S 
ATOM     96  O   UNL A   1      45.187  23.792  37.910  1.00  0.00    -0.237 OA
ATOM     97  O   UNL A   1      45.507  22.612  35.763  1.00  0.00    -0.237 OA
ATOM     98  O   UNL A   1      47.324  23.999  36.698  1.00  0.00    -0.744 OA
ENDBRANCH  94  95
ENDBRANCH  62  87
ENDBRANCH  36  37
ENDBRANCH  29  31
ENDBRANCH  28  29
ENDBRANCH  27  28
ENDBRANCH  26  27
ENDBRANCH   1  26
TORSDOF 20
ENDMDL
MODEL 3
REMARK VINA RESULT:     -11.9      1.523      2.487
REMARK SMILES Cc1cccc(NS(=O)(=O)c2ccc(Br)c(C(=O)OCCOCCOC(=O)c3ccc(-c4c5nc(c(-c6c(F)cc(S(=O)(=O)[O-])cc6F)c6ccc([nH]6)c(-c6c(F)cc(S(=O)(=O)[O-])cc6F)c6nc(c(-c7c(F)cc(S(=O)(=O)[O-])cc7F)c7ccc4[nH]7)C=C6)C=C5)cc3)c2)c1
REMARK SMILES IDX 22 1 21 2 20 3 19 4 17 5 18 6 16 7 11 8 12 9 94 10 13 11
REMARK SMILES IDX 14 12 15 13 8 14 9 15 10 16 7 17 6 19 1 20 2 21 3 22 95 23
REMARK SMILES IDX 4 24 5 25 23 26 24 27 25 28 26 29 27 30 28 31 29 32 93 33
REMARK SMILES IDX 30 34 92 35 31 36 32 37 33 38 86 39 34 40 91 41 85 42 87 43
REMARK SMILES IDX 35 44 90 45 84 46 83 47 36 49 70 50 49 51 69 52 50 53 53 54
REMARK SMILES IDX 68 55 88 56 51 57 52 58 67 60 89 61 54 62 37 63 38 64 47 65
REMARK SMILES IDX 39 66 40 67 46 68 48 69 41 70 42 71 43 72 44 73 45 74 71 75
REMARK SMILES IDX 72 76 81 77 73 78 74 79 80 80 82 81 75 82 76 83 77 84 78 85
REMARK SMILES IDX 79 86 55 87 56 88 65 89 57 90 58 91 64 92 66 93 59 94 60 95
REMARK SMILES IDX 61 96 62 97 63 98
REMARK H PARENT 7 18 87 48 53 59
REMARK Flexibility Score: inf
ROOT
ATOM      1  O   UNL A   1      32.725  28.194  24.483  1.00  0.00    -0.374 OA
ENDROOT
BRANCH   1   2
ATOM      2  C   UNL A   1      33.967  27.988  23.836  1.00  0.00     0.202 C 
BRANCH   2   3
ATOM      3  C   UNL A   1      33.624  27.347  22.539  1.00  0.00     0.261 C 
BRANCH   3   4
ATOM      4  O   UNL A   1      33.490  25.909  22.603  1.00  0.00    -0.460 OA
BRANCH   4   5
ATOM      5  C   UNL A   1      32.325  25.252  22.750  1.00  0.00     0.339 C 
ATOM      6  O   UNL A   1      31.383  25.209  21.997  1.00  0.00    -0.246 OA
BRANCH   5   7
ATOM      7  C   UNL A   1      32.399  24.510  24.038  1.00  0.00     0.075 A 
ATOM      8  C   UNL A   1      33.709  22.941  25.344  1.00  0.00     0.088 A 
ATOM      9  C   UNL A   1      33.076  23.381  26.502  1.00  0.00     0.023 A 
ATOM     10  C   UNL A   1      33.396  23.513  24.107  1.00  0.00     0.039 A 
ATOM     11  C   UNL A   1      31.996  24.240  26.412  1.00  0.00     0.018 A 
ATOM     12  C   UNL A   1      31.653  24.820  25.196  1.00  0.00     0.032 A 
ATOM     13  Br  UNL A   1      30.186  26.019  25.392  1.00  0.00    -0.050 Br
BRANCH   8  14
ATOM     14  S   UNL A   1      34.928  21.666  25.475  1.00  0.00     0.261 S 
ATOM     15  O   UNL A   1      34.464  20.586  24.624  1.00  0.00    -0.201 OA
ATOM     16  O   UNL A   1      35.205  21.432  26.874  1.00  0.00    -0.201 OA
BRANCH  14  17
ATOM     17  N   UNL A   1      36.402  22.172  24.768  1.00  0.00    -0.280 N 
ATOM     18  H   UNL A   1      36.453  22.242  23.787  1.00  0.00     0.180 HD
BRANCH  17  19
ATOM     19  C   UNL A   1      37.568  22.499  25.540  1.00  0.00     0.049 A 
ATOM     20  C   UNL A   1      40.695  20.712  26.807  1.00  0.00     0.044 C 
ATOM     21  C   UNL A   1      39.713  21.792  26.456  1.00  0.00    -0.049 A 
ATOM     22  C   UNL A   1      39.953  23.104  26.873  1.00  0.00     0.003 A 
ATOM     23  C   UNL A   1      38.535  21.505  25.750  1.00  0.00     0.030 A 
ATOM     24  C   UNL A   1      38.958  24.070  26.739  1.00  0.00     0.002 A 
ATOM     25  C   UNL A   1      37.735  23.743  26.145  1.00  0.00     0.027 A 
ENDBRANCH  17  19
ENDBRANCH  14  17
ENDBRANCH   8  14
ENDBRANCH   5   7
ENDBRANCH   4   5
ENDBRANCH   3   4
ENDBRANCH   2   3
ENDBRANCH   1   2
BRANCH   1  26
ATOM     26  C   UNL A   1      32.287  29.527  24.546  1.00  0.00     0.202 C 
BRANCH  26  27
ATOM     27  C   UNL A   1      31.991  29.949  25.985  1.00  0.00     0.261 C 
BRANCH  27  28
ATOM     28  O   UNL A   1      33.209  30.309  26.682  1.00  0.00    -0.460 OA
BRANCH  28  29
ATOM     29  C   UNL A   1      33.784  29.337  27.458  1.00  0.00     0.338 C 
ATOM     30  O   UNL A   1      33.301  28.232  27.626  1.00  0.00    -0.246 OA
BRANCH  29  31
ATOM     31  C   UNL A   1      35.076  29.812  28.043  1.00  0.00     0.060 A 
ATOM     32  C   UNL A   1      36.061  30.446  27.255  1.00  0.00     0.016 A 
ATOM     33  C   UNL A   1      35.391  29.393  29.329  1.00  0.00     0.016 A 
ATOM     34  C   UNL A   1      37.396  30.518  27.702  1.00  0.00     0.010 A 
ATOM     35  C   UNL A   1      36.718  29.328  29.692  1.00  0.00     0.010 A 
ATOM     36  C   UNL A   1      37.740  29.875  28.889  1.00  0.00    -0.014 A 
BRANCH  36  37
ATOM     37  C   UNL A   1      39.082  29.668  29.455  1.00  0.00     0.031 A 
ATOM     38  C   UNL A   1      39.842  28.523  28.914  1.00  0.00     0.074 A 
ATOM     39  C   UNL A   1      39.742  30.632  30.145  1.00  0.00     0.049 A 
ATOM     40  N   UNL A   1      41.021  28.193  29.294  1.00  0.00    -0.248 NA
ATOM     41  C   UNL A   1      39.300  27.615  27.910  1.00  0.00     0.031 C 
ATOM     42  C   UNL A   1      41.174  30.938  30.131  1.00  0.00     0.029 A 
ATOM     43  N   UNL A   1      39.228  31.619  30.976  1.00  0.00    -0.354 N 
ATOM     44  C   UNL A   1      41.504  27.241  28.428  1.00  0.00     0.074 A 
ATOM     45  C   UNL A   1      40.362  26.857  27.639  1.00  0.00     0.031 C 
ATOM     46  C   UNL A   1      41.442  31.902  31.033  1.00  0.00     0.029 A 
ATOM     47  C   UNL A   1      40.230  32.154  31.795  1.00  0.00     0.049 A 
ATOM     48  H   UNL A   1      38.286  31.904  30.989  1.00  0.00     0.167 HD
ATOM     49  C   UNL A   1      42.843  26.985  28.446  1.00  0.00     0.037 A 
ATOM     50  C   UNL A   1      40.042  32.146  33.143  1.00  0.00     0.037 A 
ATOM     51  C   UNL A   1      43.490  27.782  29.512  1.00  0.00     0.049 A 
ATOM     52  C   UNL A   1      40.892  31.030  33.709  1.00  0.00     0.074 A 
ATOM     53  C   UNL A   1      44.222  28.958  29.557  1.00  0.00     0.029 A 
ATOM     54  N   UNL A   1      43.089  27.563  30.821  1.00  0.00    -0.354 N 
ATOM     55  N   UNL A   1      41.822  30.426  33.016  1.00  0.00    -0.248 NA
ATOM     56  C   UNL A   1      40.748  30.459  35.042  1.00  0.00     0.031 C 
ATOM     57  C   UNL A   1      44.211  29.442  30.911  1.00  0.00     0.029 A 
ATOM     58  C   UNL A   1      43.504  28.547  31.699  1.00  0.00     0.049 A 
ATOM     59  H   UNL A   1      42.558  26.781  31.098  1.00  0.00     0.167 HD
ATOM     60  C   UNL A   1      42.269  29.330  33.674  1.00  0.00     0.074 A 
ATOM     61  C   UNL A   1      41.595  29.413  34.967  1.00  0.00     0.031 C 
ATOM     62  C   UNL A   1      43.118  28.420  33.107  1.00  0.00     0.037 A 
BRANCH  49  63
ATOM     63  C   UNL A   1      43.600  26.140  27.433  1.00  0.00     0.058 A 
ATOM     64  C   UNL A   1      43.550  24.733  27.514  1.00  0.00     0.135 A 
ATOM     65  C   UNL A   1      44.398  26.620  26.366  1.00  0.00     0.135 A 
ATOM     66  F   UNL A   1      42.802  24.115  28.440  1.00  0.00    -0.206 F 
ATOM     67  C   UNL A   1      44.259  23.887  26.651  1.00  0.00     0.059 A 
ATOM     68  C   UNL A   1      45.143  25.799  25.516  1.00  0.00     0.059 A 
ATOM     69  F   UNL A   1      44.468  27.909  26.038  1.00  0.00    -0.206 F 
ATOM     70  C   UNL A   1      45.064  24.429  25.661  1.00  0.00     0.060 A 
BRANCH  70  71
ATOM     71  S   UNL A   1      45.964  23.337  24.548  1.00  0.00     0.124 S 
ATOM     72  O   UNL A   1      47.021  24.211  24.052  1.00  0.00    -0.237 OA
ATOM     73  O   UNL A   1      46.388  22.269  25.446  1.00  0.00    -0.237 OA
ATOM     74  O   UNL A   1      44.961  22.954  23.557  1.00  0.00    -0.744 OA
ENDBRANCH  70  71
ENDBRANCH  49  63
BRANCH  50  75
ATOM     75  C   UNL A   1      38.631  32.562  33.497  1.00  0.00     0.058 A 
ATOM     76  C   UNL A   1      38.265  33.907  33.251  1.00  0.00     0.135 A 
ATOM     77  C   UNL A   1      37.577  31.632  33.531  1.00  0.00     0.135 A 
ATOM     78  F   UNL A   1      39.215  34.856  33.194  1.00  0.00    -0.206 F 
ATOM     79  C   UNL A   1      36.957  34.287  32.911  1.00  0.00     0.059 A 
ATOM     80  C   UNL A   1      36.270  31.983  33.150  1.00  0.00     0.059 A 
ATOM     81  F   UNL A   1      37.835  30.336  33.754  1.00  0.00    -0.206 F 
ATOM     82  C   UNL A   1      35.977  33.303  32.793  1.00  0.00     0.060 A 
BRANCH  82  83
ATOM     83  S   UNL A   1      34.460  33.669  31.829  1.00  0.00     0.124 S 
ATOM     84  O   UNL A   1      33.432  33.690  32.859  1.00  0.00    -0.237 OA
ATOM     85  O   UNL A   1      34.758  34.960  31.211  1.00  0.00    -0.237 OA
ATOM     86  O   UNL A   1      34.411  32.556  30.886  1.00  0.00    -0.744 OA
ENDBRANCH  82  83
ENDBRANCH  50  75
BRANCH  62  87
ATOM     87  C   UNL A   1      43.621  27.267  33.915  1.00  0.00     0.058 A 
ATOM     88  C   UNL A   1      44.998  27.085  34.122  1.00  0.00     0.135 A 
ATOM     89  C   UNL A   1      42.767  26.283  34.454  1.00  0.00     0.135 A 
ATOM     90  F   UNL A   1      45.895  27.906  33.554  1.00  0.00    -0.206 F 
ATOM     91  C   UNL A   1      45.486  26.073  34.935  1.00  0.00     0.059 A 
ATOM     92  C   UNL A   1      43.241  25.214  35.196  1.00  0.00     0.059 A 
ATOM     93  F   UNL A   1      41.435  26.346  34.332  1.00  0.00    -0.206 F 
ATOM     94  C   UNL A   1      44.595  25.152  35.479  1.00  0.00     0.060 A 
BRANCH  94  95
ATOM     95  S   UNL A   1      45.214  23.886  36.587  1.00  0.00     0.124 S 
ATOM     96  O   UNL A   1      46.654  24.122  36.561  1.00  0.00    -0.237 OA
ATOM     97  O   UNL A   1      44.537  24.242  37.830  1.00  0.00    -0.237 OA
ATOM     98  O   UNL A   1      44.775  22.643  35.962  1.00  0.00    -0.744 OA
ENDBRANCH  94  95
ENDBRANCH  62  87
ENDBRANCH  36  37
ENDBRANCH  29  31
ENDBRANCH  28  29
ENDBRANCH  27  28
ENDBRANCH  26  27
ENDBRANCH   1  26
TORSDOF 20
ENDMDL
