MODEL 1
REMARK VINA RESULT:     -11.2      0.000      0.000
REMARK SMILES C[C@H]1CC=C(C2=NN=C(C(=O)OCCOCCOC(=O)c3ccc(-c4c5nc(c(-c6c(F)cc(S(=O)(=O)[O-])cc6F)c6ccc([nH]6)c(-c6c(F)cc(S(=O)(=O)[O-])cc6F)c6nc(c(-c7c(F)cc(S(=O)(=O)[O-])cc7F)c7ccc4[nH]7)C=C6)C=C5)cc3)C2)O1
REMARK SMILES IDX 16 1 15 2 14 3 13 4 12 5 10 6 11 7 9 8 6 9 7 10 87 11 8 12
REMARK SMILES IDX 5 13 1 14 2 15 3 16 88 17 4 18 17 19 18 20 19 21 20 22 21 23
REMARK SMILES IDX 22 24 86 25 23 26 85 27 24 28 25 29 26 30 79 31 27 32 84 33
REMARK SMILES IDX 78 34 80 35 28 36 83 37 77 38 76 39 29 41 63 42 42 43 62 44
REMARK SMILES IDX 43 45 46 46 61 47 81 48 44 49 45 50 60 52 82 53 47 54 30 55
REMARK SMILES IDX 31 56 40 57 32 58 33 59 39 60 41 61 34 62 35 63 36 64 37 65
REMARK SMILES IDX 38 66 64 67 65 68 74 69 66 70 67 71 73 72 75 73 68 74 69 75
REMARK SMILES IDX 70 76 71 77 72 78 48 79 49 80 58 81 50 82 51 83 57 84 59 85
REMARK SMILES IDX 52 86 53 87 54 88 55 89 56 90
REMARK H PARENT 80 40 46 51
REMARK Flexibility Score: inf
ROOT
ATOM      1  C   UNL A   1      41.667  20.557  26.300  1.00  0.00     0.202 C 
ENDROOT
BRANCH   1   2
ATOM      2  O   UNL A   1      42.000  19.225  26.675  1.00  0.00    -0.374 OA
BRANCH   2   3
ATOM      3  C   UNL A   1      42.795  18.412  25.812  1.00  0.00     0.202 C 
BRANCH   3   4
ATOM      4  C   UNL A   1      44.318  18.488  25.938  1.00  0.00     0.261 C 
BRANCH   4   5
ATOM      5  O   UNL A   1      44.987  18.349  24.677  1.00  0.00    -0.459 OA
BRANCH   5   6
ATOM      6  C   UNL A   1      44.894  19.424  23.876  1.00  0.00     0.355 C 
ATOM      7  O   UNL A   1      44.432  19.492  22.749  1.00  0.00    -0.245 OA
BRANCH   6   8
ATOM      8  C   UNL A   1      45.269  20.679  24.593  1.00  0.00     0.154 C 
ATOM      9  C   UNL A   1      45.307  22.829  25.150  1.00  0.00     0.111 C 
ATOM     10  N   UNL A   1      46.410  22.283  25.563  1.00  0.00    -0.151 NA
ATOM     11  C   UNL A   1      44.362  21.850  24.540  1.00  0.00     0.128 C 
ATOM     12  N   UNL A   1      46.387  20.891  25.214  1.00  0.00    -0.147 NA
BRANCH   9  13
ATOM     13  C   UNL A   1      44.971  24.259  25.143  1.00  0.00     0.139 C 
ATOM     14  C   UNL A   1      45.714  27.626  24.873  1.00  0.00     0.053 C 
ATOM     15  C   UNL A   1      45.177  26.423  25.633  1.00  0.00     0.174 C 
ATOM     16  C   UNL A   1      43.700  26.145  25.323  1.00  0.00     0.076 C 
ATOM     17  O   UNL A   1      45.943  25.238  25.307  1.00  0.00    -0.489 OA
ATOM     18  C   UNL A   1      43.710  24.677  25.163  1.00  0.00     0.025 C 
ENDBRANCH   9  13
ENDBRANCH   6   8
ENDBRANCH   5   6
ENDBRANCH   4   5
ENDBRANCH   3   4
ENDBRANCH   2   3
ENDBRANCH   1   2
BRANCH   1  19
ATOM     19  C   UNL A   1      40.225  21.029  26.420  1.00  0.00     0.261 C 
BRANCH  19  20
ATOM     20  O   UNL A   1      40.099  22.104  27.334  1.00  0.00    -0.460 OA
BRANCH  20  21
ATOM     21  C   UNL A   1      39.479  23.188  26.826  1.00  0.00     0.338 C 
ATOM     22  O   UNL A   1      38.396  23.216  26.247  1.00  0.00    -0.246 OA
BRANCH  21  23
ATOM     23  C   UNL A   1      40.366  24.343  26.962  1.00  0.00     0.060 A 
ATOM     24  C   UNL A   1      41.266  24.297  28.027  1.00  0.00     0.016 A 
ATOM     25  C   UNL A   1      40.033  25.538  26.307  1.00  0.00     0.016 A 
ATOM     26  C   UNL A   1      41.590  25.483  28.638  1.00  0.00     0.010 A 
ATOM     27  C   UNL A   1      40.349  26.718  26.924  1.00  0.00     0.010 A 
ATOM     28  C   UNL A   1      41.017  26.656  28.142  1.00  0.00    -0.014 A 
BRANCH  28  29
ATOM     29  C   UNL A   1      41.157  27.864  28.919  1.00  0.00     0.031 A 
ATOM     30  C   UNL A   1      42.269  28.706  28.434  1.00  0.00     0.074 A 
ATOM     31  C   UNL A   1      40.280  28.180  29.890  1.00  0.00     0.049 A 
ATOM     32  N   UNL A   1      43.407  28.917  29.006  1.00  0.00    -0.248 NA
ATOM     33  C   UNL A   1      42.201  29.175  27.039  1.00  0.00     0.031 C 
ATOM     34  C   UNL A   1      39.015  27.525  30.241  1.00  0.00     0.029 A 
ATOM     35  N   UNL A   1      40.306  29.249  30.727  1.00  0.00    -0.354 N 
ATOM     36  C   UNL A   1      44.101  29.749  28.137  1.00  0.00     0.074 A 
ATOM     37  C   UNL A   1      43.425  29.672  26.872  1.00  0.00     0.031 C 
ATOM     38  C   UNL A   1      38.294  28.344  31.044  1.00  0.00     0.029 A 
ATOM     39  C   UNL A   1      39.099  29.506  31.375  1.00  0.00     0.049 A 
ATOM     40  H   UNL A   1      41.112  29.797  30.865  1.00  0.00     0.167 HD
ATOM     41  C   UNL A   1      45.015  30.645  28.598  1.00  0.00     0.037 A 
ATOM     42  C   UNL A   1      38.805  30.655  32.037  1.00  0.00     0.037 A 
ATOM     43  C   UNL A   1      45.419  30.327  29.944  1.00  0.00     0.049 A 
ATOM     44  C   UNL A   1      40.114  31.301  32.359  1.00  0.00     0.074 A 
ATOM     45  C   UNL A   1      46.068  29.254  30.525  1.00  0.00     0.029 A 
ATOM     46  N   UNL A   1      44.788  30.989  30.971  1.00  0.00    -0.354 N 
ATOM     47  N   UNL A   1      40.995  30.775  33.169  1.00  0.00    -0.248 NA
ATOM     48  C   UNL A   1      40.651  32.242  31.384  1.00  0.00     0.031 C 
ATOM     49  C   UNL A   1      45.409  29.056  31.773  1.00  0.00     0.029 A 
ATOM     50  C   UNL A   1      44.451  30.060  31.924  1.00  0.00     0.049 A 
ATOM     51  H   UNL A   1      44.611  31.957  31.015  1.00  0.00     0.167 HD
ATOM     52  C   UNL A   1      42.225  30.992  32.559  1.00  0.00     0.074 A 
ATOM     53  C   UNL A   1      41.950  31.940  31.481  1.00  0.00     0.031 C 
ATOM     54  C   UNL A   1      43.292  30.168  32.787  1.00  0.00     0.037 A 
BRANCH  41  55
ATOM     55  C   UNL A   1      45.254  31.993  27.969  1.00  0.00     0.058 A 
ATOM     56  C   UNL A   1      46.532  32.298  27.463  1.00  0.00     0.135 A 
ATOM     57  C   UNL A   1      44.365  33.087  28.077  1.00  0.00     0.135 A 
ATOM     58  F   UNL A   1      47.461  31.337  27.325  1.00  0.00    -0.206 F 
ATOM     59  C   UNL A   1      46.919  33.601  27.152  1.00  0.00     0.059 A 
ATOM     60  C   UNL A   1      44.709  34.382  27.717  1.00  0.00     0.059 A 
ATOM     61  F   UNL A   1      43.150  32.979  28.628  1.00  0.00    -0.206 F 
ATOM     62  C   UNL A   1      46.001  34.639  27.296  1.00  0.00     0.060 A 
BRANCH  62  63
ATOM     63  S   UNL A   1      46.525  36.333  26.997  1.00  0.00     0.124 S 
ATOM     64  O   UNL A   1      45.242  37.020  26.897  1.00  0.00    -0.237 OA
ATOM     65  O   UNL A   1      47.315  36.619  28.190  1.00  0.00    -0.237 OA
ATOM     66  O   UNL A   1      47.287  36.236  25.755  1.00  0.00    -0.744 OA
ENDBRANCH  62  63
ENDBRANCH  41  55
BRANCH  42  67
ATOM     67  C   UNL A   1      37.523  31.416  31.988  1.00  0.00     0.058 A 
ATOM     68  C   UNL A   1      36.848  31.803  33.160  1.00  0.00     0.135 A 
ATOM     69  C   UNL A   1      37.079  32.022  30.794  1.00  0.00     0.135 A 
ATOM     70  F   UNL A   1      37.219  31.301  34.348  1.00  0.00    -0.206 F 
ATOM     71  C   UNL A   1      35.820  32.759  33.153  1.00  0.00     0.059 A 
ATOM     72  C   UNL A   1      36.057  32.970  30.761  1.00  0.00     0.059 A 
ATOM     73  F   UNL A   1      37.690  31.776  29.626  1.00  0.00    -0.206 F 
ATOM     74  C   UNL A   1      35.444  33.351  31.948  1.00  0.00     0.060 A 
BRANCH  74  75
ATOM     75  S   UNL A   1      34.235  34.700  31.946  1.00  0.00     0.124 S 
ATOM     76  O   UNL A   1      33.122  34.109  32.683  1.00  0.00    -0.237 OA
ATOM     77  O   UNL A   1      34.959  35.765  32.633  1.00  0.00    -0.237 OA
ATOM     78  O   UNL A   1      33.987  34.934  30.526  1.00  0.00    -0.744 OA
ENDBRANCH  74  75
ENDBRANCH  42  67
BRANCH  54  79
ATOM     79  C   UNL A   1      43.188  29.145  33.893  1.00  0.00     0.058 A 
ATOM     80  C   UNL A   1      43.434  29.414  35.254  1.00  0.00     0.135 A 
ATOM     81  C   UNL A   1      42.630  27.897  33.583  1.00  0.00     0.135 A 
ATOM     82  F   UNL A   1      43.875  30.618  35.647  1.00  0.00    -0.206 F 
ATOM     83  C   UNL A   1      43.162  28.474  36.253  1.00  0.00     0.059 A 
ATOM     84  C   UNL A   1      42.324  26.957  34.563  1.00  0.00     0.059 A 
ATOM     85  F   UNL A   1      42.313  27.602  32.311  1.00  0.00    -0.206 F 
ATOM     86  C   UNL A   1      42.601  27.249  35.897  1.00  0.00     0.060 A 
BRANCH  86  87
ATOM     87  S   UNL A   1      42.168  26.061  37.190  1.00  0.00     0.124 S 
ATOM     88  O   UNL A   1      40.752  26.340  37.400  1.00  0.00    -0.237 OA
ATOM     89  O   UNL A   1      42.476  24.781  36.562  1.00  0.00    -0.237 OA
ATOM     90  O   UNL A   1      43.046  26.429  38.298  1.00  0.00    -0.744 OA
ENDBRANCH  86  87
ENDBRANCH  54  79
ENDBRANCH  28  29
ENDBRANCH  21  23
ENDBRANCH  20  21
ENDBRANCH  19  20
ENDBRANCH   1  19
TORSDOF 18
ENDMDL
MODEL 2
REMARK VINA RESULT:     -11.1      3.019     12.264
REMARK SMILES C[C@H]1CC=C(C2=NN=C(C(=O)OCCOCCOC(=O)c3ccc(-c4c5nc(c(-c6c(F)cc(S(=O)(=O)[O-])cc6F)c6ccc([nH]6)c(-c6c(F)cc(S(=O)(=O)[O-])cc6F)c6nc(c(-c7c(F)cc(S(=O)(=O)[O-])cc7F)c7ccc4[nH]7)C=C6)C=C5)cc3)C2)O1
REMARK SMILES IDX 16 1 15 2 14 3 13 4 12 5 10 6 11 7 9 8 6 9 7 10 87 11 8 12
REMARK SMILES IDX 5 13 1 14 2 15 3 16 88 17 4 18 17 19 18 20 19 21 20 22 21 23
REMARK SMILES IDX 22 24 86 25 23 26 85 27 24 28 25 29 26 30 79 31 27 32 84 33
REMARK SMILES IDX 78 34 80 35 28 36 83 37 77 38 76 39 29 41 63 42 42 43 62 44
REMARK SMILES IDX 43 45 46 46 61 47 81 48 44 49 45 50 60 52 82 53 47 54 30 55
REMARK SMILES IDX 31 56 40 57 32 58 33 59 39 60 41 61 34 62 35 63 36 64 37 65
REMARK SMILES IDX 38 66 64 67 65 68 74 69 66 70 67 71 73 72 75 73 68 74 69 75
REMARK SMILES IDX 70 76 71 77 72 78 48 79 49 80 58 81 50 82 51 83 57 84 59 85
REMARK SMILES IDX 52 86 53 87 54 88 55 89 56 90
REMARK H PARENT 80 40 46 51
REMARK Flexibility Score: inf
ROOT
ATOM      1  C   UNL A   1      34.002  34.121  29.304  1.00  0.00     0.202 C 
ENDROOT
BRANCH   1   2
ATOM      2  O   UNL A   1      33.008  35.127  29.142  1.00  0.00    -0.374 OA
BRANCH   2   3
ATOM      3  C   UNL A   1      33.386  36.475  28.866  1.00  0.00     0.202 C 
BRANCH   3   4
ATOM      4  C   UNL A   1      33.182  37.527  29.958  1.00  0.00     0.261 C 
BRANCH   4   5
ATOM      5  O   UNL A   1      32.615  36.980  31.157  1.00  0.00    -0.459 OA
BRANCH   5   6
ATOM      6  C   UNL A   1      33.456  36.943  32.204  1.00  0.00     0.355 C 
ATOM      7  O   UNL A   1      33.932  37.877  32.827  1.00  0.00    -0.245 OA
BRANCH   6   8
ATOM      8  C   UNL A   1      33.647  35.550  32.707  1.00  0.00     0.154 C 
ATOM      9  C   UNL A   1      34.675  33.680  33.323  1.00  0.00     0.111 C 
ATOM     10  N   UNL A   1      33.439  33.391  33.045  1.00  0.00    -0.151 NA
ATOM     11  C   UNL A   1      34.970  35.138  33.234  1.00  0.00     0.128 C 
ATOM     12  N   UNL A   1      32.768  34.599  32.655  1.00  0.00    -0.147 NA
BRANCH   9  13
ATOM     13  C   UNL A   1      35.765  32.737  33.606  1.00  0.00     0.139 C 
ATOM     14  C   UNL A   1      38.084  31.186  35.650  1.00  0.00     0.053 C 
ATOM     15  C   UNL A   1      37.705  32.024  34.439  1.00  0.00     0.174 C 
ATOM     16  C   UNL A   1      37.370  31.164  33.212  1.00  0.00     0.076 C 
ATOM     17  O   UNL A   1      36.558  32.856  34.740  1.00  0.00    -0.489 OA
ATOM     18  C   UNL A   1      36.160  31.842  32.706  1.00  0.00     0.025 C 
ENDBRANCH   9  13
ENDBRANCH   6   8
ENDBRANCH   5   6
ENDBRANCH   4   5
ENDBRANCH   3   4
ENDBRANCH   2   3
ENDBRANCH   1   2
BRANCH   1  19
ATOM     19  C   UNL A   1      34.134  33.025  28.256  1.00  0.00     0.261 C 
BRANCH  19  20
ATOM     20  O   UNL A   1      34.322  31.753  28.850  1.00  0.00    -0.460 OA
BRANCH  20  21
ATOM     21  C   UNL A   1      35.273  31.004  28.257  1.00  0.00     0.338 C 
ATOM     22  O   UNL A   1      35.231  30.512  27.131  1.00  0.00    -0.246 OA
BRANCH  21  23
ATOM     23  C   UNL A   1      36.344  30.755  29.221  1.00  0.00     0.060 A 
ATOM     24  C   UNL A   1      37.374  31.696  29.243  1.00  0.00     0.016 A 
ATOM     25  C   UNL A   1      36.484  29.471  29.766  1.00  0.00     0.016 A 
ATOM     26  C   UNL A   1      38.640  31.246  29.526  1.00  0.00     0.010 A 
ATOM     27  C   UNL A   1      37.748  29.022  30.038  1.00  0.00     0.010 A 
ATOM     28  C   UNL A   1      38.810  29.885  29.794  1.00  0.00    -0.014 A 
BRANCH  28  29
ATOM     29  C   UNL A   1      40.155  29.366  29.852  1.00  0.00     0.031 A 
ATOM     30  C   UNL A   1      40.618  29.186  31.242  1.00  0.00     0.074 A 
ATOM     31  C   UNL A   1      40.818  29.006  28.736  1.00  0.00     0.049 A 
ATOM     32  N   UNL A   1      41.499  29.884  31.877  1.00  0.00    -0.248 NA
ATOM     33  C   UNL A   1      39.838  28.277  32.100  1.00  0.00     0.031 C 
ATOM     34  C   UNL A   1      40.323  28.911  27.358  1.00  0.00     0.029 A 
ATOM     35  N   UNL A   1      42.091  28.547  28.630  1.00  0.00    -0.354 N 
ATOM     36  C   UNL A   1      41.549  29.333  33.152  1.00  0.00     0.074 A 
ATOM     37  C   UNL A   1      40.363  28.534  33.297  1.00  0.00     0.031 C 
ATOM     38  C   UNL A   1      41.206  28.204  26.612  1.00  0.00     0.029 A 
ATOM     39  C   UNL A   1      42.381  27.924  27.417  1.00  0.00     0.049 A 
ATOM     40  H   UNL A   1      42.754  28.646  29.350  1.00  0.00     0.167 HD
ATOM     41  C   UNL A   1      42.693  29.358  33.886  1.00  0.00     0.037 A 
ATOM     42  C   UNL A   1      43.480  27.160  27.183  1.00  0.00     0.037 A 
ATOM     43  C   UNL A   1      43.624  30.326  33.363  1.00  0.00     0.049 A 
ATOM     44  C   UNL A   1      44.485  27.539  28.223  1.00  0.00     0.074 A 
ATOM     45  C   UNL A   1      43.601  31.699  33.214  1.00  0.00     0.029 A 
ATOM     46  N   UNL A   1      44.606  29.869  32.516  1.00  0.00    -0.354 N 
ATOM     47  N   UNL A   1      45.028  28.726  28.299  1.00  0.00    -0.248 NA
ATOM     48  C   UNL A   1      44.475  26.780  29.467  1.00  0.00     0.031 C 
ATOM     49  C   UNL A   1      44.225  31.945  31.957  1.00  0.00     0.029 A 
ATOM     50  C   UNL A   1      44.663  30.723  31.442  1.00  0.00     0.049 A 
ATOM     51  H   UNL A   1      45.168  29.073  32.655  1.00  0.00     0.167 HD
ATOM     52  C   UNL A   1      45.056  29.027  29.656  1.00  0.00     0.074 A 
ATOM     53  C   UNL A   1      44.740  27.768  30.328  1.00  0.00     0.031 C 
ATOM     54  C   UNL A   1      45.039  30.319  30.103  1.00  0.00     0.037 A 
BRANCH  41  55
ATOM     55  C   UNL A   1      43.100  28.261  34.836  1.00  0.00     0.058 A 
ATOM     56  C   UNL A   1      43.419  28.589  36.168  1.00  0.00     0.135 A 
ATOM     57  C   UNL A   1      43.443  26.951  34.432  1.00  0.00     0.135 A 
ATOM     58  F   UNL A   1      43.146  29.811  36.656  1.00  0.00    -0.206 F 
ATOM     59  C   UNL A   1      44.089  27.705  37.013  1.00  0.00     0.059 A 
ATOM     60  C   UNL A   1      44.056  26.034  35.274  1.00  0.00     0.059 A 
ATOM     61  F   UNL A   1      43.294  26.519  33.174  1.00  0.00    -0.206 F 
ATOM     62  C   UNL A   1      44.415  26.432  36.550  1.00  0.00     0.060 A 
BRANCH  62  63
ATOM     63  S   UNL A   1      45.370  25.326  37.598  1.00  0.00     0.124 S 
ATOM     64  O   UNL A   1      45.393  24.110  36.792  1.00  0.00    -0.237 OA
ATOM     65  O   UNL A   1      46.637  26.041  37.716  1.00  0.00    -0.237 OA
ATOM     66  O   UNL A   1      44.580  25.256  38.823  1.00  0.00    -0.744 OA
ENDBRANCH  62  63
ENDBRANCH  41  55
BRANCH  42  67
ATOM     67  C   UNL A   1      43.531  25.862  26.451  1.00  0.00     0.058 A 
ATOM     68  C   UNL A   1      44.419  25.651  25.380  1.00  0.00     0.135 A 
ATOM     69  C   UNL A   1      42.906  24.707  26.967  1.00  0.00     0.135 A 
ATOM     70  F   UNL A   1      45.082  26.686  24.841  1.00  0.00    -0.206 F 
ATOM     71  C   UNL A   1      44.697  24.371  24.877  1.00  0.00     0.059 A 
ATOM     72  C   UNL A   1      43.163  23.426  26.482  1.00  0.00     0.059 A 
ATOM     73  F   UNL A   1      42.090  24.781  28.029  1.00  0.00    -0.206 F 
ATOM     74  C   UNL A   1      44.076  23.260  25.448  1.00  0.00     0.060 A 
BRANCH  74  75
ATOM     75  S   UNL A   1      44.547  21.593  24.919  1.00  0.00     0.124 S 
ATOM     76  O   UNL A   1      45.823  21.409  25.602  1.00  0.00    -0.237 OA
ATOM     77  O   UNL A   1      43.437  20.786  25.414  1.00  0.00    -0.237 OA
ATOM     78  O   UNL A   1      44.630  21.709  23.465  1.00  0.00    -0.744 OA
ENDBRANCH  74  75
ENDBRANCH  42  67
BRANCH  54  79
ATOM     79  C   UNL A   1      45.222  31.431  29.097  1.00  0.00     0.058 A 
ATOM     80  C   UNL A   1      46.465  31.831  28.568  1.00  0.00     0.135 A 
ATOM     81  C   UNL A   1      44.074  31.977  28.507  1.00  0.00     0.135 A 
ATOM     82  F   UNL A   1      47.607  31.283  29.008  1.00  0.00    -0.206 F 
ATOM     83  C   UNL A   1      46.558  32.751  27.520  1.00  0.00     0.059 A 
ATOM     84  C   UNL A   1      44.142  32.873  27.443  1.00  0.00     0.059 A 
ATOM     85  F   UNL A   1      42.857  31.590  28.924  1.00  0.00    -0.206 F 
ATOM     86  C   UNL A   1      45.388  33.263  26.959  1.00  0.00     0.060 A 
BRANCH  86  87
ATOM     87  S   UNL A   1      45.498  34.388  25.548  1.00  0.00     0.124 S 
ATOM     88  O   UNL A   1      46.937  34.444  25.313  1.00  0.00    -0.237 OA
ATOM     89  O   UNL A   1      44.715  33.696  24.529  1.00  0.00    -0.237 OA
ATOM     90  O   UNL A   1      44.900  35.622  26.049  1.00  0.00    -0.744 OA
ENDBRANCH  86  87
ENDBRANCH  54  79
ENDBRANCH  28  29
ENDBRANCH  21  23
ENDBRANCH  20  21
ENDBRANCH  19  20
ENDBRANCH   1  19
TORSDOF 18
ENDMDL
MODEL 3
REMARK VINA RESULT:     -10.5      3.418      5.865
REMARK SMILES C[C@H]1CC=C(C2=NN=C(C(=O)OCCOCCOC(=O)c3ccc(-c4c5nc(c(-c6c(F)cc(S(=O)(=O)[O-])cc6F)c6ccc([nH]6)c(-c6c(F)cc(S(=O)(=O)[O-])cc6F)c6nc(c(-c7c(F)cc(S(=O)(=O)[O-])cc7F)c7ccc4[nH]7)C=C6)C=C5)cc3)C2)O1
REMARK SMILES IDX 16 1 15 2 14 3 13 4 12 5 10 6 11 7 9 8 6 9 7 10 87 11 8 12
REMARK SMILES IDX 5 13 1 14 2 15 3 16 88 17 4 18 17 19 18 20 19 21 20 22 21 23
REMARK SMILES IDX 22 24 86 25 23 26 85 27 24 28 25 29 26 30 79 31 27 32 84 33
REMARK SMILES IDX 78 34 80 35 28 36 83 37 77 38 76 39 29 41 63 42 42 43 62 44
REMARK SMILES IDX 43 45 46 46 61 47 81 48 44 49 45 50 60 52 82 53 47 54 30 55
REMARK SMILES IDX 31 56 40 57 32 58 33 59 39 60 41 61 34 62 35 63 36 64 37 65
REMARK SMILES IDX 38 66 64 67 65 68 74 69 66 70 67 71 73 72 75 73 68 74 69 75
REMARK SMILES IDX 70 76 71 77 72 78 48 79 49 80 58 81 50 82 51 83 57 84 59 85
REMARK SMILES IDX 52 86 53 87 54 88 55 89 56 90
REMARK H PARENT 80 40 46 51
REMARK Flexibility Score: inf
ROOT
ATOM      1  C   UNL A   1      41.141  19.600  26.349  1.00  0.00     0.202 C 
ENDROOT
BRANCH   1   2
ATOM      2  O   UNL A   1      40.718  20.275  27.529  1.00  0.00    -0.374 OA
BRANCH   2   3
ATOM      3  C   UNL A   1      40.407  21.668  27.488  1.00  0.00     0.202 C 
BRANCH   3   4
ATOM      4  C   UNL A   1      39.946  22.273  26.161  1.00  0.00     0.261 C 
BRANCH   4   5
ATOM      5  O   UNL A   1      38.622  21.861  25.793  1.00  0.00    -0.459 OA
BRANCH   5   6
ATOM      6  C   UNL A   1      37.720  22.857  25.756  1.00  0.00     0.355 C 
ATOM      7  O   UNL A   1      37.920  24.059  25.695  1.00  0.00    -0.245 OA
BRANCH   6   8
ATOM      8  C   UNL A   1      36.329  22.335  25.604  1.00  0.00     0.154 C 
ATOM      9  C   UNL A   1      34.669  20.934  25.142  1.00  0.00     0.111 C 
ATOM     10  N   UNL A   1      34.199  22.144  25.111  1.00  0.00    -0.151 NA
ATOM     11  C   UNL A   1      36.099  20.872  25.556  1.00  0.00     0.128 C 
ATOM     12  N   UNL A   1      35.266  23.054  25.418  1.00  0.00    -0.147 NA
BRANCH   9  13
ATOM     13  C   UNL A   1      33.979  19.703  24.733  1.00  0.00     0.139 C 
ATOM     14  C   UNL A   1      33.787  16.306  24.110  1.00  0.00     0.053 C 
ATOM     15  C   UNL A   1      33.687  17.761  23.679  1.00  0.00     0.174 C 
ATOM     16  C   UNL A   1      32.303  18.362  23.960  1.00  0.00     0.076 C 
ATOM     17  O   UNL A   1      34.679  18.560  24.367  1.00  0.00    -0.489 OA
ATOM     18  C   UNL A   1      32.668  19.680  24.518  1.00  0.00     0.025 C 
ENDBRANCH   9  13
ENDBRANCH   6   8
ENDBRANCH   5   6
ENDBRANCH   4   5
ENDBRANCH   3   4
ENDBRANCH   2   3
ENDBRANCH   1   2
BRANCH   1  19
ATOM     19  C   UNL A   1      42.626  19.521  26.025  1.00  0.00     0.261 C 
BRANCH  19  20
ATOM     20  O   UNL A   1      43.023  20.548  25.133  1.00  0.00    -0.460 OA
BRANCH  20  21
ATOM     21  C   UNL A   1      44.345  20.811  25.151  1.00  0.00     0.338 C 
ATOM     22  O   UNL A   1      45.258  20.000  25.282  1.00  0.00    -0.246 OA
BRANCH  21  23
ATOM     23  C   UNL A   1      44.536  22.260  25.109  1.00  0.00     0.060 A 
ATOM     24  C   UNL A   1      45.585  22.759  25.883  1.00  0.00     0.016 A 
ATOM     25  C   UNL A   1      43.490  23.072  24.644  1.00  0.00     0.016 A 
ATOM     26  C   UNL A   1      45.422  23.997  26.453  1.00  0.00     0.010 A 
ATOM     27  C   UNL A   1      43.325  24.302  25.221  1.00  0.00     0.010 A 
ATOM     28  C   UNL A   1      44.231  24.684  26.204  1.00  0.00    -0.014 A 
BRANCH  28  29
ATOM     29  C   UNL A   1      43.951  25.865  26.985  1.00  0.00     0.031 A 
ATOM     30  C   UNL A   1      44.962  26.920  26.775  1.00  0.00     0.074 A 
ATOM     31  C   UNL A   1      42.825  25.972  27.717  1.00  0.00     0.049 A 
ATOM     32  N   UNL A   1      45.872  27.317  27.600  1.00  0.00    -0.248 NA
ATOM     33  C   UNL A   1      45.136  27.423  25.401  1.00  0.00     0.031 C 
ATOM     34  C   UNL A   1      41.663  25.078  27.760  1.00  0.00     0.029 A 
ATOM     35  N   UNL A   1      42.449  26.992  28.529  1.00  0.00    -0.354 N 
ATOM     36  C   UNL A   1      46.579  28.299  26.917  1.00  0.00     0.074 A 
ATOM     37  C   UNL A   1      46.247  28.146  25.527  1.00  0.00     0.031 C 
ATOM     38  C   UNL A   1      40.630  25.715  28.363  1.00  0.00     0.029 A 
ATOM     39  C   UNL A   1      41.097  26.992  28.869  1.00  0.00     0.049 A 
ATOM     40  H   UNL A   1      43.079  27.676  28.852  1.00  0.00     0.167 HD
ATOM     41  C   UNL A   1      47.169  29.330  27.577  1.00  0.00     0.037 A 
ATOM     42  C   UNL A   1      40.441  28.039  29.435  1.00  0.00     0.037 A 
ATOM     43  C   UNL A   1      47.298  29.040  28.983  1.00  0.00     0.049 A 
ATOM     44  C   UNL A   1      41.488  28.906  30.055  1.00  0.00     0.074 A 
ATOM     45  C   UNL A   1      47.985  28.086  29.708  1.00  0.00     0.029 A 
ATOM     46  N   UNL A   1      46.329  29.531  29.825  1.00  0.00    -0.354 N 
ATOM     47  N   UNL A   1      42.238  28.522  31.056  1.00  0.00    -0.248 NA
ATOM     48  C   UNL A   1      42.050  29.968  29.231  1.00  0.00     0.031 C 
ATOM     49  C   UNL A   1      47.102  27.718  30.764  1.00  0.00     0.029 A 
ATOM     50  C   UNL A   1      45.961  28.518  30.676  1.00  0.00     0.049 A 
ATOM     51  H   UNL A   1      45.964  30.446  29.820  1.00  0.00     0.167 HD
ATOM     52  C   UNL A   1      43.512  28.990  30.756  1.00  0.00     0.074 A 
ATOM     53  C   UNL A   1      43.322  29.912  29.637  1.00  0.00     0.031 C 
ATOM     54  C   UNL A   1      44.633  28.372  31.237  1.00  0.00     0.037 A 
BRANCH  41  55
ATOM     55  C   UNL A   1      47.287  30.723  27.015  1.00  0.00     0.058 A 
ATOM     56  C   UNL A   1      48.537  31.372  27.043  1.00  0.00     0.135 A 
ATOM     57  C   UNL A   1      46.182  31.544  26.694  1.00  0.00     0.135 A 
ATOM     58  F   UNL A   1      49.654  30.691  27.345  1.00  0.00    -0.206 F 
ATOM     59  C   UNL A   1      48.668  32.744  26.833  1.00  0.00     0.059 A 
ATOM     60  C   UNL A   1      46.297  32.900  26.423  1.00  0.00     0.059 A 
ATOM     61  F   UNL A   1      44.919  31.100  26.721  1.00  0.00    -0.206 F 
ATOM     62  C   UNL A   1      47.538  33.502  26.537  1.00  0.00     0.060 A 
BRANCH  62  63
ATOM     63  S   UNL A   1      47.686  35.286  26.369  1.00  0.00     0.124 S 
ATOM     64  O   UNL A   1      48.331  35.644  27.627  1.00  0.00    -0.237 OA
ATOM     65  O   UNL A   1      48.507  35.408  25.169  1.00  0.00    -0.237 OA
ATOM     66  O   UNL A   1      46.302  35.727  26.221  1.00  0.00    -0.744 OA
ENDBRANCH  62  63
ENDBRANCH  41  55
BRANCH  42  67
ATOM     67  C   UNL A   1      39.085  28.547  29.077  1.00  0.00     0.058 A 
ATOM     68  C   UNL A   1      38.056  28.645  30.031  1.00  0.00     0.135 A 
ATOM     69  C   UNL A   1      38.853  29.211  27.853  1.00  0.00     0.135 A 
ATOM     70  F   UNL A   1      38.198  28.070  31.235  1.00  0.00    -0.206 F 
ATOM     71  C   UNL A   1      36.886  29.385  29.800  1.00  0.00     0.059 A 
ATOM     72  C   UNL A   1      37.698  29.948  27.598  1.00  0.00     0.059 A 
ATOM     73  F   UNL A   1      39.791  29.238  26.894  1.00  0.00    -0.206 F 
ATOM     74  C   UNL A   1      36.724  30.050  28.584  1.00  0.00     0.060 A 
BRANCH  74  75
ATOM     75  S   UNL A   1      35.298  31.138  28.336  1.00  0.00     0.124 S 
ATOM     76  O   UNL A   1      35.872  32.210  27.531  1.00  0.00    -0.237 OA
ATOM     77  O   UNL A   1      34.356  30.260  27.649  1.00  0.00    -0.237 OA
ATOM     78  O   UNL A   1      34.917  31.515  29.695  1.00  0.00    -0.744 OA
ENDBRANCH  74  75
ENDBRANCH  42  67
BRANCH  54  79
ATOM     79  C   UNL A   1      44.469  27.304  32.293  1.00  0.00     0.058 A 
ATOM     80  C   UNL A   1      44.297  25.933  32.020  1.00  0.00     0.135 A 
ATOM     81  C   UNL A   1      44.689  27.664  33.629  1.00  0.00     0.135 A 
ATOM     82  F   UNL A   1      44.179  25.493  30.759  1.00  0.00    -0.206 F 
ATOM     83  C   UNL A   1      44.317  24.971  33.034  1.00  0.00     0.059 A 
ATOM     84  C   UNL A   1      44.743  26.721  34.652  1.00  0.00     0.059 A 
ATOM     85  F   UNL A   1      44.923  28.948  33.948  1.00  0.00    -0.206 F 
ATOM     86  C   UNL A   1      44.547  25.375  34.349  1.00  0.00     0.060 A 
BRANCH  86  87
ATOM     87  S   UNL A   1      44.658  24.129  35.654  1.00  0.00     0.124 S 
ATOM     88  O   UNL A   1      43.765  23.087  35.160  1.00  0.00    -0.237 OA
ATOM     89  O   UNL A   1      46.080  23.798  35.656  1.00  0.00    -0.237 OA
ATOM     90  O   UNL A   1      44.192  24.838  36.843  1.00  0.00    -0.744 OA
ENDBRANCH  86  87
ENDBRANCH  54  79
ENDBRANCH  28  29
ENDBRANCH  21  23
ENDBRANCH  20  21
ENDBRANCH  19  20
ENDBRANCH   1  19
TORSDOF 18
ENDMDL
