MODEL 1
REMARK VINA RESULT:     -10.1      0.000      0.000
REMARK SMILES CC[C@@](C)(NC(=O)c1cc(C)c(Br)s1)C(=O)OCCOCCOC(=O)c1ccc(-c2c3nc(c(-c4c(F)cc(S(=O)(=O)[O-])cc4F)c4ccc([nH]4)c(-c4c(F)cc(S(=O)(=O)[O-])cc4F)c4nc(c(-c5c(F)cc(S(=O)(=O)[O-])cc5F)c5ccc2[nH]5)C=C4)C=C3)cc1
REMARK SMILES IDX 21 1 20 2 19 3 18 4 17 5 15 6 16 7 3 8 4 9 2 10 1 11 5 12
REMARK SMILES IDX 6 13 7 15 8 16 9 17 14 18 10 19 12 20 11 21 13 22 22 23
REMARK SMILES IDX 23 24 24 25 25 26 26 27 27 28 91 29 28 30 90 31 29 32 30 33
REMARK SMILES IDX 31 34 84 35 32 36 89 37 83 38 85 39 33 40 88 41 82 42 81 43
REMARK SMILES IDX 34 45 68 46 47 47 67 48 48 49 51 50 66 51 86 52 49 53 50 54
REMARK SMILES IDX 65 56 87 57 52 58 35 59 36 60 45 61 37 62 38 63 44 64 46 65
REMARK SMILES IDX 39 66 40 67 41 68 42 69 43 70 69 71 70 72 79 73 71 74 72 75
REMARK SMILES IDX 78 76 80 77 73 78 74 79 75 80 76 81 77 82 53 83 54 84 63 85
REMARK SMILES IDX 55 86 56 87 62 88 64 89 57 90 58 91 59 92 60 93 61 94
REMARK H PARENT 5 14 85 44 51 55
REMARK Flexibility Score: inf
ROOT
ATOM      1  C   UNL A   1      33.965  30.217  27.585  1.00  0.00     0.202 C 
ENDROOT
BRANCH   1   2
ATOM      2  O   UNL A   1      33.162  30.764  26.530  1.00  0.00    -0.374 OA
BRANCH   2   3
ATOM      3  C   UNL A   1      32.612  29.755  25.665  1.00  0.00     0.202 C 
BRANCH   3   4
ATOM      4  C   UNL A   1      33.022  28.307  25.982  1.00  0.00     0.261 C 
BRANCH   4   5
ATOM      5  O   UNL A   1      32.219  27.394  25.232  1.00  0.00    -0.462 OA
BRANCH   5   6
ATOM      6  C   UNL A   1      31.141  26.781  25.753  1.00  0.00     0.331 C 
ATOM      7  O   UNL A   1      30.687  27.014  26.866  1.00  0.00    -0.249 OA
BRANCH   6   8
ATOM      8  C   UNL A   1      30.484  25.857  24.678  1.00  0.00     0.135 C 
ATOM      9  C   UNL A   1      29.028  26.296  24.456  1.00  0.00     0.047 C 
BRANCH   8  10
ATOM     10  C   UNL A   1      31.261  26.029  23.322  1.00  0.00     0.037 C 
ATOM     11  C   UNL A   1      31.743  24.755  22.631  1.00  0.00     0.007 C 
ENDBRANCH   8  10
BRANCH   8  12
ATOM     12  N   UNL A   1      30.516  24.388  25.029  1.00  0.00    -0.336 N 
ATOM     13  C   UNL A   1      31.238  23.876  26.106  1.00  0.00     0.262 C 
ATOM     14  H   UNL A   1      30.001  23.762  24.470  1.00  0.00     0.165 HD
ATOM     15  O   UNL A   1      30.652  23.767  27.183  1.00  0.00    -0.268 OA
BRANCH  13  16
ATOM     16  C   UNL A   1      32.618  23.445  25.910  1.00  0.00     0.093 A 
ATOM     17  C   UNL A   1      33.802  24.143  26.104  1.00  0.00     0.030 A 
ATOM     18  S   UNL A   1      32.978  21.832  25.520  1.00  0.00    -0.123 S 
ATOM     19  C   UNL A   1      34.988  23.363  25.808  1.00  0.00    -0.025 A 
ATOM     20  C   UNL A   1      34.632  22.074  25.491  1.00  0.00     0.074 A 
ATOM     21  C   UNL A   1      36.387  23.869  25.849  1.00  0.00     0.046 C 
ATOM     22  Br  UNL A   1      35.820  20.688  25.050  1.00  0.00    -0.039 Br
ENDBRANCH  13  16
ENDBRANCH   8  12
ENDBRANCH   6   8
ENDBRANCH   5   6
ENDBRANCH   4   5
ENDBRANCH   3   4
ENDBRANCH   2   3
ENDBRANCH   1   2
BRANCH   1  23
ATOM     23  C   UNL A   1      35.416  30.703  27.570  1.00  0.00     0.261 C 
BRANCH  23  24
ATOM     24  O   UNL A   1      35.474  32.134  27.697  1.00  0.00    -0.460 OA
BRANCH  24  25
ATOM     25  C   UNL A   1      35.098  32.612  28.900  1.00  0.00     0.338 C 
ATOM     26  O   UNL A   1      34.054  33.222  29.143  1.00  0.00    -0.246 OA
BRANCH  25  27
ATOM     27  C   UNL A   1      36.075  32.279  29.955  1.00  0.00     0.060 A 
ATOM     28  C   UNL A   1      37.205  33.104  30.042  1.00  0.00     0.016 A 
ATOM     29  C   UNL A   1      35.940  31.159  30.792  1.00  0.00     0.016 A 
ATOM     30  C   UNL A   1      38.291  32.700  30.792  1.00  0.00     0.010 A 
ATOM     31  C   UNL A   1      37.026  30.755  31.561  1.00  0.00     0.010 A 
ATOM     32  C   UNL A   1      38.234  31.452  31.417  1.00  0.00    -0.014 A 
BRANCH  32  33
ATOM     33  C   UNL A   1      39.492  30.702  31.395  1.00  0.00     0.031 A 
ATOM     34  C   UNL A   1      40.287  30.563  32.635  1.00  0.00     0.074 A 
ATOM     35  C   UNL A   1      39.852  30.130  30.223  1.00  0.00     0.049 A 
ATOM     36  N   UNL A   1      41.503  30.951  32.856  1.00  0.00    -0.248 NA
ATOM     37  C   UNL A   1      39.637  29.932  33.792  1.00  0.00     0.031 C 
ATOM     38  C   UNL A   1      39.026  30.004  29.011  1.00  0.00     0.029 A 
ATOM     39  N   UNL A   1      40.974  29.434  29.888  1.00  0.00    -0.354 N 
ATOM     40  C   UNL A   1      41.848  30.421  34.096  1.00  0.00     0.074 A 
ATOM     41  C   UNL A   1      40.625  29.938  34.689  1.00  0.00     0.031 C 
ATOM     42  C   UNL A   1      39.558  29.076  28.195  1.00  0.00     0.029 A 
ATOM     43  C   UNL A   1      40.821  28.645  28.755  1.00  0.00     0.049 A 
ATOM     44  H   UNL A   1      41.813  29.486  30.401  1.00  0.00     0.167 HD
ATOM     45  C   UNL A   1      43.141  30.184  34.457  1.00  0.00     0.037 A 
ATOM     46  C   UNL A   1      41.621  27.632  28.348  1.00  0.00     0.037 A 
ATOM     47  C   UNL A   1      44.085  30.906  33.649  1.00  0.00     0.049 A 
ATOM     48  C   UNL A   1      42.940  27.825  28.997  1.00  0.00     0.074 A 
ATOM     49  C   UNL A   1      44.314  32.240  33.373  1.00  0.00     0.029 A 
ATOM     50  N   UNL A   1      44.810  30.206  32.714  1.00  0.00    -0.354 N 
ATOM     51  N   UNL A   1      43.751  28.815  28.734  1.00  0.00    -0.248 NA
ATOM     52  C   UNL A   1      43.192  27.135  30.254  1.00  0.00     0.031 C 
ATOM     53  C   UNL A   1      44.777  32.273  32.025  1.00  0.00     0.029 A 
ATOM     54  C   UNL A   1      44.827  30.957  31.565  1.00  0.00     0.049 A 
ATOM     55  H   UNL A   1      45.238  29.329  32.845  1.00  0.00     0.167 HD
ATOM     56  C   UNL A   1      44.336  29.132  29.952  1.00  0.00     0.074 A 
ATOM     57  C   UNL A   1      44.046  27.993  30.817  1.00  0.00     0.031 C 
ATOM     58  C   UNL A   1      44.754  30.403  30.229  1.00  0.00     0.037 A 
BRANCH  45  59
ATOM     59  C   UNL A   1      43.542  29.022  35.329  1.00  0.00     0.058 A 
ATOM     60  C   UNL A   1      44.328  29.225  36.479  1.00  0.00     0.135 A 
ATOM     61  C   UNL A   1      43.388  27.678  34.918  1.00  0.00     0.135 A 
ATOM     62  F   UNL A   1      44.573  30.467  36.928  1.00  0.00    -0.206 F 
ATOM     63  C   UNL A   1      44.939  28.166  37.158  1.00  0.00     0.059 A 
ATOM     64  C   UNL A   1      43.936  26.607  35.610  1.00  0.00     0.059 A 
ATOM     65  F   UNL A   1      42.778  27.360  33.768  1.00  0.00    -0.206 F 
ATOM     66  C   UNL A   1      44.744  26.862  36.706  1.00  0.00     0.060 A 
BRANCH  66  67
ATOM     67  S   UNL A   1      45.610  25.498  37.505  1.00  0.00     0.124 S 
ATOM     68  O   UNL A   1      46.164  24.797  36.353  1.00  0.00    -0.237 OA
ATOM     69  O   UNL A   1      46.572  26.197  38.352  1.00  0.00    -0.237 OA
ATOM     70  O   UNL A   1      44.547  24.801  38.221  1.00  0.00    -0.744 OA
ENDBRANCH  66  67
ENDBRANCH  45  59
BRANCH  46  71
ATOM     71  C   UNL A   1      41.169  26.353  27.740  1.00  0.00     0.058 A 
ATOM     72  C   UNL A   1      41.886  25.748  26.696  1.00  0.00     0.135 A 
ATOM     73  C   UNL A   1      40.152  25.568  28.329  1.00  0.00     0.135 A 
ATOM     74  F   UNL A   1      42.890  26.407  26.099  1.00  0.00    -0.206 F 
ATOM     75  C   UNL A   1      41.634  24.435  26.283  1.00  0.00     0.059 A 
ATOM     76  C   UNL A   1      39.868  24.268  27.920  1.00  0.00     0.059 A 
ATOM     77  F   UNL A   1      39.454  26.005  29.388  1.00  0.00    -0.206 F 
ATOM     78  C   UNL A   1      40.630  23.698  26.912  1.00  0.00     0.060 A 
BRANCH  78  79
ATOM     79  S   UNL A   1      40.407  21.953  26.498  1.00  0.00     0.124 S 
ATOM     80  O   UNL A   1      41.530  21.710  25.600  1.00  0.00    -0.237 OA
ATOM     81  O   UNL A   1      40.484  21.314  27.806  1.00  0.00    -0.237 OA
ATOM     82  O   UNL A   1      39.088  21.919  25.869  1.00  0.00    -0.744 OA
ENDBRANCH  78  79
ENDBRANCH  46  71
BRANCH  58  83
ATOM     83  C   UNL A   1      44.869  31.377  29.084  1.00  0.00     0.058 A 
ATOM     84  C   UNL A   1      45.978  31.443  28.223  1.00  0.00     0.135 A 
ATOM     85  C   UNL A   1      43.756  32.164  28.751  1.00  0.00     0.135 A 
ATOM     86  F   UNL A   1      47.037  30.644  28.407  1.00  0.00    -0.206 F 
ATOM     87  C   UNL A   1      45.998  32.281  27.107  1.00  0.00     0.059 A 
ATOM     88  C   UNL A   1      43.742  32.987  27.626  1.00  0.00     0.059 A 
ATOM     89  F   UNL A   1      42.638  32.097  29.495  1.00  0.00    -0.206 F 
ATOM     90  C   UNL A   1      44.872  33.050  26.814  1.00  0.00     0.060 A 
BRANCH  90  91
ATOM     91  S   UNL A   1      44.865  34.063  25.319  1.00  0.00     0.124 S 
ATOM     92  O   UNL A   1      43.908  35.110  25.661  1.00  0.00    -0.237 OA
ATOM     93  O   UNL A   1      46.259  34.488  25.212  1.00  0.00    -0.237 OA
ATOM     94  O   UNL A   1      44.427  33.134  24.279  1.00  0.00    -0.744 OA
ENDBRANCH  90  91
ENDBRANCH  58  83
ENDBRANCH  32  33
ENDBRANCH  25  27
ENDBRANCH  24  25
ENDBRANCH  23  24
ENDBRANCH   1  23
TORSDOF 20
ENDMDL
MODEL 2
REMARK VINA RESULT:     -10.0      2.020      2.805
REMARK SMILES CC[C@@](C)(NC(=O)c1cc(C)c(Br)s1)C(=O)OCCOCCOC(=O)c1ccc(-c2c3nc(c(-c4c(F)cc(S(=O)(=O)[O-])cc4F)c4ccc([nH]4)c(-c4c(F)cc(S(=O)(=O)[O-])cc4F)c4nc(c(-c5c(F)cc(S(=O)(=O)[O-])cc5F)c5ccc2[nH]5)C=C4)C=C3)cc1
REMARK SMILES IDX 21 1 20 2 19 3 18 4 17 5 15 6 16 7 3 8 4 9 2 10 1 11 5 12
REMARK SMILES IDX 6 13 7 15 8 16 9 17 14 18 10 19 12 20 11 21 13 22 22 23
REMARK SMILES IDX 23 24 24 25 25 26 26 27 27 28 91 29 28 30 90 31 29 32 30 33
REMARK SMILES IDX 31 34 84 35 32 36 89 37 83 38 85 39 33 40 88 41 82 42 81 43
REMARK SMILES IDX 34 45 68 46 47 47 67 48 48 49 51 50 66 51 86 52 49 53 50 54
REMARK SMILES IDX 65 56 87 57 52 58 35 59 36 60 45 61 37 62 38 63 44 64 46 65
REMARK SMILES IDX 39 66 40 67 41 68 42 69 43 70 69 71 70 72 79 73 71 74 72 75
REMARK SMILES IDX 78 76 80 77 73 78 74 79 75 80 76 81 77 82 53 83 54 84 63 85
REMARK SMILES IDX 55 86 56 87 62 88 64 89 57 90 58 91 59 92 60 93 61 94
REMARK H PARENT 5 14 85 44 51 55
REMARK Flexibility Score: inf
ROOT
ATOM      1  C   UNL A   1      33.616  32.949  27.978  1.00  0.00     0.202 C 
ENDROOT
BRANCH   1   2
ATOM      2  O   UNL A   1      33.932  31.719  27.310  1.00  0.00    -0.374 OA
BRANCH   2   3
ATOM      3  C   UNL A   1      32.828  30.798  27.283  1.00  0.00     0.202 C 
BRANCH   3   4
ATOM      4  C   UNL A   1      32.447  30.251  25.896  1.00  0.00     0.261 C 
BRANCH   4   5
ATOM      5  O   UNL A   1      33.116  29.011  25.658  1.00  0.00    -0.462 OA
BRANCH   5   6
ATOM      6  C   UNL A   1      33.237  28.479  24.429  1.00  0.00     0.331 C 
ATOM      7  O   UNL A   1      33.497  29.123  23.421  1.00  0.00    -0.249 OA
BRANCH   6   8
ATOM      8  C   UNL A   1      33.148  26.920  24.513  1.00  0.00     0.135 C 
ATOM      9  C   UNL A   1      33.450  26.475  25.952  1.00  0.00     0.047 C 
BRANCH   8  10
ATOM     10  C   UNL A   1      31.680  26.480  24.160  1.00  0.00     0.037 C 
ATOM     11  C   UNL A   1      30.744  27.559  23.616  1.00  0.00     0.007 C 
ENDBRANCH   8  10
BRANCH   8  12
ATOM     12  N   UNL A   1      34.073  26.201  23.561  1.00  0.00    -0.336 N 
ATOM     13  C   UNL A   1      33.681  25.101  22.799  1.00  0.00     0.262 C 
ATOM     14  H   UNL A   1      34.999  26.524  23.475  1.00  0.00     0.165 HD
ATOM     15  O   UNL A   1      33.248  25.320  21.667  1.00  0.00    -0.268 OA
BRANCH  13  16
ATOM     16  C   UNL A   1      33.844  23.754  23.336  1.00  0.00     0.093 A 
ATOM     17  C   UNL A   1      34.916  23.194  24.015  1.00  0.00     0.030 A 
ATOM     18  S   UNL A   1      32.554  22.650  23.318  1.00  0.00    -0.123 S 
ATOM     19  C   UNL A   1      34.697  21.814  24.403  1.00  0.00    -0.025 A 
ATOM     20  C   UNL A   1      33.419  21.434  24.073  1.00  0.00     0.074 A 
ATOM     21  C   UNL A   1      35.696  20.936  25.071  1.00  0.00     0.046 C 
ATOM     22  Br  UNL A   1      32.663  19.744  24.391  1.00  0.00    -0.039 Br
ENDBRANCH  13  16
ENDBRANCH   8  12
ENDBRANCH   6   8
ENDBRANCH   5   6
ENDBRANCH   4   5
ENDBRANCH   3   4
ENDBRANCH   2   3
ENDBRANCH   1   2
BRANCH   1  23
ATOM     23  C   UNL A   1      34.484  33.222  29.208  1.00  0.00     0.261 C 
BRANCH  23  24
ATOM     24  O   UNL A   1      34.536  32.064  30.061  1.00  0.00    -0.460 OA
BRANCH  24  25
ATOM     25  C   UNL A   1      35.691  31.913  30.739  1.00  0.00     0.338 C 
ATOM     26  O   UNL A   1      35.979  32.456  31.809  1.00  0.00    -0.246 OA
BRANCH  25  27
ATOM     27  C   UNL A   1      36.600  30.959  30.075  1.00  0.00     0.060 A 
ATOM     28  C   UNL A   1      36.703  29.688  30.655  1.00  0.00     0.016 A 
ATOM     29  C   UNL A   1      37.386  31.305  28.962  1.00  0.00     0.016 A 
ATOM     30  C   UNL A   1      37.731  28.845  30.280  1.00  0.00     0.010 A 
ATOM     31  C   UNL A   1      38.413  30.453  28.570  1.00  0.00     0.010 A 
ATOM     32  C   UNL A   1      38.659  29.313  29.347  1.00  0.00    -0.014 A 
BRANCH  32  33
ATOM     33  C   UNL A   1      40.044  28.919  29.616  1.00  0.00     0.031 A 
ATOM     34  C   UNL A   1      40.556  28.930  31.004  1.00  0.00     0.074 A 
ATOM     35  C   UNL A   1      40.792  28.521  28.560  1.00  0.00     0.049 A 
ATOM     36  N   UNL A   1      41.546  29.610  31.488  1.00  0.00    -0.248 NA
ATOM     37  C   UNL A   1      39.860  28.095  31.992  1.00  0.00     0.031 C 
ATOM     38  C   UNL A   1      40.315  28.244  27.195  1.00  0.00     0.029 A 
ATOM     39  N   UNL A   1      42.103  28.159  28.493  1.00  0.00    -0.354 N 
ATOM     40  C   UNL A   1      41.739  29.128  32.780  1.00  0.00     0.074 A 
ATOM     41  C   UNL A   1      40.589  28.312  33.087  1.00  0.00     0.031 C 
ATOM     42  C   UNL A   1      41.240  27.530  26.529  1.00  0.00     0.029 A 
ATOM     43  C   UNL A   1      42.417  27.415  27.363  1.00  0.00     0.049 A 
ATOM     44  H   UNL A   1      42.765  28.403  29.180  1.00  0.00     0.167 HD
ATOM     45  C   UNL A   1      42.937  29.219  33.424  1.00  0.00     0.037 A 
ATOM     46  C   UNL A   1      43.526  26.669  27.156  1.00  0.00     0.037 A 
ATOM     47  C   UNL A   1      43.809  30.201  32.841  1.00  0.00     0.049 A 
ATOM     48  C   UNL A   1      44.571  27.166  28.083  1.00  0.00     0.074 A 
ATOM     49  C   UNL A   1      43.729  31.561  32.610  1.00  0.00     0.029 A 
ATOM     50  N   UNL A   1      44.880  29.763  32.100  1.00  0.00    -0.354 N 
ATOM     51  N   UNL A   1      45.127  28.345  27.998  1.00  0.00    -0.248 NA
ATOM     52  C   UNL A   1      44.715  26.504  29.370  1.00  0.00     0.031 C 
ATOM     53  C   UNL A   1      44.451  31.782  31.400  1.00  0.00     0.029 A 
ATOM     54  C   UNL A   1      44.949  30.549  30.977  1.00  0.00     0.049 A 
ATOM     55  H   UNL A   1      45.486  29.022  32.333  1.00  0.00     0.167 HD
ATOM     56  C   UNL A   1      45.325  28.742  29.313  1.00  0.00     0.074 A 
ATOM     57  C   UNL A   1      45.166  27.525  30.102  1.00  0.00     0.031 C 
ATOM     58  C   UNL A   1      45.319  30.063  29.664  1.00  0.00     0.037 A 
BRANCH  45  59
ATOM     59  C   UNL A   1      43.431  28.159  34.376  1.00  0.00     0.058 A 
ATOM     60  C   UNL A   1      43.856  28.501  35.673  1.00  0.00     0.135 A 
ATOM     61  C   UNL A   1      43.739  26.846  33.953  1.00  0.00     0.135 A 
ATOM     62  F   UNL A   1      43.652  29.738  36.154  1.00  0.00    -0.206 F 
ATOM     63  C   UNL A   1      44.563  27.607  36.483  1.00  0.00     0.059 A 
ATOM     64  C   UNL A   1      44.388  25.922  34.762  1.00  0.00     0.059 A 
ATOM     65  F   UNL A   1      43.510  26.439  32.697  1.00  0.00    -0.206 F 
ATOM     66  C   UNL A   1      44.832  26.324  36.011  1.00  0.00     0.060 A 
BRANCH  66  67
ATOM     67  S   UNL A   1      45.832  25.196  37.000  1.00  0.00     0.124 S 
ATOM     68  O   UNL A   1      45.093  23.949  36.847  1.00  0.00    -0.237 OA
ATOM     69  O   UNL A   1      47.126  25.261  36.327  1.00  0.00    -0.237 OA
ATOM     70  O   UNL A   1      45.795  25.796  38.330  1.00  0.00    -0.744 OA
ENDBRANCH  66  67
ENDBRANCH  45  59
BRANCH  46  71
ATOM     71  C   UNL A   1      43.575  25.348  26.474  1.00  0.00     0.058 A 
ATOM     72  C   UNL A   1      44.392  25.135  25.354  1.00  0.00     0.135 A 
ATOM     73  C   UNL A   1      43.001  24.192  27.051  1.00  0.00     0.135 A 
ATOM     74  F   UNL A   1      45.004  26.171  24.760  1.00  0.00    -0.206 F 
ATOM     75  C   UNL A   1      44.652  23.853  24.854  1.00  0.00     0.059 A 
ATOM     76  C   UNL A   1      43.227  22.910  26.558  1.00  0.00     0.059 A 
ATOM     77  F   UNL A   1      42.270  24.258  28.173  1.00  0.00    -0.206 F 
ATOM     78  C   UNL A   1      44.075  22.745  25.474  1.00  0.00     0.060 A 
BRANCH  78  79
ATOM     79  S   UNL A   1      44.532  21.081  24.939  1.00  0.00     0.124 S 
ATOM     80  O   UNL A   1      43.452  20.276  25.500  1.00  0.00    -0.237 OA
ATOM     81  O   UNL A   1      44.541  21.216  23.487  1.00  0.00    -0.237 OA
ATOM     82  O   UNL A   1      45.843  20.875  25.550  1.00  0.00    -0.744 OA
ENDBRANCH  78  79
ENDBRANCH  46  71
BRANCH  58  83
ATOM     83  C   UNL A   1      45.420  31.090  28.565  1.00  0.00     0.058 A 
ATOM     84  C   UNL A   1      44.305  31.670  27.934  1.00  0.00     0.135 A 
ATOM     85  C   UNL A   1      46.680  31.619  28.247  1.00  0.00     0.135 A 
ATOM     86  F   UNL A   1      43.061  31.298  28.262  1.00  0.00    -0.206 F 
ATOM     87  C   UNL A   1      44.438  32.699  27.000  1.00  0.00     0.059 A 
ATOM     88  C   UNL A   1      46.834  32.666  27.339  1.00  0.00     0.059 A 
ATOM     89  F   UNL A   1      47.780  31.155  28.865  1.00  0.00    -0.206 F 
ATOM     90  C   UNL A   1      45.709  33.193  26.709  1.00  0.00     0.060 A 
BRANCH  90  91
ATOM     91  S   UNL A   1      45.870  34.586  25.571  1.00  0.00     0.124 S 
ATOM     92  O   UNL A   1      47.298  34.574  25.270  1.00  0.00    -0.237 OA
ATOM     93  O   UNL A   1      44.987  34.207  24.471  1.00  0.00    -0.237 OA
ATOM     94  O   UNL A   1      45.409  35.727  26.360  1.00  0.00    -0.744 OA
ENDBRANCH  90  91
ENDBRANCH  58  83
ENDBRANCH  32  33
ENDBRANCH  25  27
ENDBRANCH  24  25
ENDBRANCH  23  24
ENDBRANCH   1  23
TORSDOF 20
ENDMDL
MODEL 3
REMARK VINA RESULT:     -10.0      2.768      8.769
REMARK SMILES CC[C@@](C)(NC(=O)c1cc(C)c(Br)s1)C(=O)OCCOCCOC(=O)c1ccc(-c2c3nc(c(-c4c(F)cc(S(=O)(=O)[O-])cc4F)c4ccc([nH]4)c(-c4c(F)cc(S(=O)(=O)[O-])cc4F)c4nc(c(-c5c(F)cc(S(=O)(=O)[O-])cc5F)c5ccc2[nH]5)C=C4)C=C3)cc1
REMARK SMILES IDX 21 1 20 2 19 3 18 4 17 5 15 6 16 7 3 8 4 9 2 10 1 11 5 12
REMARK SMILES IDX 6 13 7 15 8 16 9 17 14 18 10 19 12 20 11 21 13 22 22 23
REMARK SMILES IDX 23 24 24 25 25 26 26 27 27 28 91 29 28 30 90 31 29 32 30 33
REMARK SMILES IDX 31 34 84 35 32 36 89 37 83 38 85 39 33 40 88 41 82 42 81 43
REMARK SMILES IDX 34 45 68 46 47 47 67 48 48 49 51 50 66 51 86 52 49 53 50 54
REMARK SMILES IDX 65 56 87 57 52 58 35 59 36 60 45 61 37 62 38 63 44 64 46 65
REMARK SMILES IDX 39 66 40 67 41 68 42 69 43 70 69 71 70 72 79 73 71 74 72 75
REMARK SMILES IDX 78 76 80 77 73 78 74 79 75 80 76 81 77 82 53 83 54 84 63 85
REMARK SMILES IDX 55 86 56 87 62 88 64 89 57 90 58 91 59 92 60 93 61 94
REMARK H PARENT 5 14 85 44 51 55
REMARK Flexibility Score: inf
ROOT
ATOM      1  C   UNL A   1      38.720  21.255  26.000  1.00  0.00     0.202 C 
ENDROOT
BRANCH   1   2
ATOM      2  O   UNL A   1      38.978  22.606  26.407  1.00  0.00    -0.374 OA
BRANCH   2   3
ATOM      3  C   UNL A   1      38.028  23.543  25.870  1.00  0.00     0.202 C 
BRANCH   3   4
ATOM      4  C   UNL A   1      36.675  22.951  25.440  1.00  0.00     0.261 C 
BRANCH   4   5
ATOM      5  O   UNL A   1      35.870  23.961  24.828  1.00  0.00    -0.462 OA
BRANCH   5   6
ATOM      6  C   UNL A   1      35.140  23.733  23.722  1.00  0.00     0.331 C 
ATOM      7  O   UNL A   1      35.458  22.952  22.834  1.00  0.00    -0.249 OA
BRANCH   6   8
ATOM      8  C   UNL A   1      33.776  24.491  23.820  1.00  0.00     0.135 C 
ATOM      9  C   UNL A   1      33.998  25.841  24.518  1.00  0.00     0.047 C 
BRANCH   8  10
ATOM     10  C   UNL A   1      33.250  24.770  22.365  1.00  0.00     0.037 C 
ATOM     11  C   UNL A   1      33.111  26.233  21.945  1.00  0.00     0.007 C 
ENDBRANCH   8  10
BRANCH   8  12
ATOM     12  N   UNL A   1      32.698  23.722  24.547  1.00  0.00    -0.336 N 
ATOM     13  C   UNL A   1      32.963  22.631  25.374  1.00  0.00     0.262 C 
ATOM     14  H   UNL A   1      31.763  24.005  24.431  1.00  0.00     0.165 HD
ATOM     15  O   UNL A   1      33.131  22.855  26.573  1.00  0.00    -0.268 OA
BRANCH  13  16
ATOM     16  C   UNL A   1      32.980  21.285  24.811  1.00  0.00     0.093 A 
ATOM     17  C   UNL A   1      32.458  20.819  23.613  1.00  0.00     0.030 A 
ATOM     18  S   UNL A   1      33.851  20.039  25.565  1.00  0.00    -0.123 S 
ATOM     19  C   UNL A   1      32.685  19.403  23.396  1.00  0.00    -0.025 A 
ATOM     20  C   UNL A   1      33.456  18.893  24.413  1.00  0.00     0.074 A 
ATOM     21  C   UNL A   1      32.175  18.613  22.242  1.00  0.00     0.046 C 
ATOM     22  Br  UNL A   1      34.028  17.110  24.564  1.00  0.00    -0.039 Br
ENDBRANCH  13  16
ENDBRANCH   8  12
ENDBRANCH   6   8
ENDBRANCH   5   6
ENDBRANCH   4   5
ENDBRANCH   3   4
ENDBRANCH   2   3
ENDBRANCH   1   2
BRANCH   1  23
ATOM     23  C   UNL A   1      39.966  20.369  25.976  1.00  0.00     0.261 C 
BRANCH  23  24
ATOM     24  O   UNL A   1      41.079  21.041  26.593  1.00  0.00    -0.460 OA
BRANCH  24  25
ATOM     25  C   UNL A   1      42.261  20.870  25.966  1.00  0.00     0.338 C 
ATOM     26  O   UNL A   1      42.673  19.817  25.473  1.00  0.00    -0.246 OA
BRANCH  25  27
ATOM     27  C   UNL A   1      43.027  22.128  25.882  1.00  0.00     0.060 A 
ATOM     28  C   UNL A   1      44.094  22.270  26.781  1.00  0.00     0.016 A 
ATOM     29  C   UNL A   1      42.682  23.173  25.008  1.00  0.00     0.016 A 
ATOM     30  C   UNL A   1      44.670  23.511  26.968  1.00  0.00     0.010 A 
ATOM     31  C   UNL A   1      43.270  24.421  25.183  1.00  0.00     0.010 A 
ATOM     32  C   UNL A   1      44.138  24.597  26.269  1.00  0.00    -0.014 A 
BRANCH  32  33
ATOM     33  C   UNL A   1      44.076  25.843  27.037  1.00  0.00     0.031 A 
ATOM     34  C   UNL A   1      45.148  26.852  26.889  1.00  0.00     0.074 A 
ATOM     35  C   UNL A   1      42.996  26.028  27.832  1.00  0.00     0.049 A 
ATOM     36  N   UNL A   1      45.939  27.320  27.802  1.00  0.00    -0.248 NA
ATOM     37  C   UNL A   1      45.391  27.395  25.546  1.00  0.00     0.031 C 
ATOM     38  C   UNL A   1      41.773  25.210  27.864  1.00  0.00     0.029 A 
ATOM     39  N   UNL A   1      42.696  27.041  28.691  1.00  0.00    -0.354 N 
ATOM     40  C   UNL A   1      46.628  28.370  27.201  1.00  0.00     0.074 A 
ATOM     41  C   UNL A   1      46.365  28.275  25.786  1.00  0.00     0.031 C 
ATOM     42  C   UNL A   1      40.791  25.888  28.486  1.00  0.00     0.029 A 
ATOM     43  C   UNL A   1      41.346  27.118  29.009  1.00  0.00     0.049 A 
ATOM     44  H   UNL A   1      43.372  27.660  29.052  1.00  0.00     0.167 HD
ATOM     45  C   UNL A   1      47.166  29.398  27.918  1.00  0.00     0.037 A 
ATOM     46  C   UNL A   1      40.696  28.161  29.575  1.00  0.00     0.037 A 
ATOM     47  C   UNL A   1      47.326  29.081  29.310  1.00  0.00     0.049 A 
ATOM     48  C   UNL A   1      41.713  28.991  30.264  1.00  0.00     0.074 A 
ATOM     49  C   UNL A   1      48.012  28.112  30.017  1.00  0.00     0.029 A 
ATOM     50  N   UNL A   1      46.460  29.651  30.212  1.00  0.00    -0.354 N 
ATOM     51  N   UNL A   1      42.387  28.606  31.314  1.00  0.00    -0.248 NA
ATOM     52  C   UNL A   1      42.284  30.115  29.538  1.00  0.00     0.031 C 
ATOM     53  C   UNL A   1      47.207  27.838  31.161  1.00  0.00     0.029 A 
ATOM     54  C   UNL A   1      46.090  28.672  31.099  1.00  0.00     0.049 A 
ATOM     55  H   UNL A   1      46.161  30.590  30.219  1.00  0.00     0.167 HD
ATOM     56  C   UNL A   1      43.652  29.151  31.146  1.00  0.00     0.074 A 
ATOM     57  C   UNL A   1      43.492  30.162  30.106  1.00  0.00     0.031 C 
ATOM     58  C   UNL A   1      44.762  28.542  31.661  1.00  0.00     0.037 A 
BRANCH  45  59
ATOM     59  C   UNL A   1      47.222  30.811  27.396  1.00  0.00     0.058 A 
ATOM     60  C   UNL A   1      48.440  31.514  27.354  1.00  0.00     0.135 A 
ATOM     61  C   UNL A   1      46.058  31.583  27.176  1.00  0.00     0.135 A 
ATOM     62  F   UNL A   1      49.601  30.882  27.594  1.00  0.00    -0.206 F 
ATOM     63  C   UNL A   1      48.496  32.893  27.135  1.00  0.00     0.059 A 
ATOM     64  C   UNL A   1      46.093  32.943  26.899  1.00  0.00     0.059 A 
ATOM     65  F   UNL A   1      44.831  31.064  27.322  1.00  0.00    -0.206 F 
ATOM     66  C   UNL A   1      47.313  33.599  26.919  1.00  0.00     0.060 A 
BRANCH  66  67
ATOM     67  S   UNL A   1      47.359  35.392  26.742  1.00  0.00     0.124 S 
ATOM     68  O   UNL A   1      46.687  35.818  27.964  1.00  0.00    -0.237 OA
ATOM     69  O   UNL A   1      48.792  35.659  26.673  1.00  0.00    -0.237 OA
ATOM     70  O   UNL A   1      46.626  35.623  25.501  1.00  0.00    -0.744 OA
ENDBRANCH  66  67
ENDBRANCH  45  59
BRANCH  46  71
ATOM     71  C   UNL A   1      39.330  28.633  29.224  1.00  0.00     0.058 A 
ATOM     72  C   UNL A   1      38.333  28.771  30.201  1.00  0.00     0.135 A 
ATOM     73  C   UNL A   1      39.039  29.189  27.958  1.00  0.00     0.135 A 
ATOM     74  F   UNL A   1      38.535  28.301  31.441  1.00  0.00    -0.206 F 
ATOM     75  C   UNL A   1      37.133  29.448  29.950  1.00  0.00     0.059 A 
ATOM     76  C   UNL A   1      37.844  29.846  27.677  1.00  0.00     0.059 A 
ATOM     77  F   UNL A   1      39.945  29.193  26.969  1.00  0.00    -0.206 F 
ATOM     78  C   UNL A   1      36.905  29.995  28.687  1.00  0.00     0.060 A 
BRANCH  78  79
ATOM     79  S   UNL A   1      35.435  31.006  28.401  1.00  0.00     0.124 S 
ATOM     80  O   UNL A   1      35.982  32.125  27.640  1.00  0.00    -0.237 OA
ATOM     81  O   UNL A   1      34.571  30.093  27.663  1.00  0.00    -0.237 OA
ATOM     82  O   UNL A   1      34.981  31.335  29.750  1.00  0.00    -0.744 OA
ENDBRANCH  78  79
ENDBRANCH  46  71
BRANCH  58  83
ATOM     83  C   UNL A   1      44.563  27.451  32.683  1.00  0.00     0.058 A 
ATOM     84  C   UNL A   1      44.317  27.694  34.046  1.00  0.00     0.135 A 
ATOM     85  C   UNL A   1      44.461  26.123  32.244  1.00  0.00     0.135 A 
ATOM     86  F   UNL A   1      44.287  28.945  34.525  1.00  0.00    -0.206 F 
ATOM     87  C   UNL A   1      44.026  26.662  34.939  1.00  0.00     0.059 A 
ATOM     88  C   UNL A   1      44.143  25.079  33.112  1.00  0.00     0.059 A 
ATOM     89  F   UNL A   1      44.618  25.831  30.941  1.00  0.00    -0.206 F 
ATOM     90  C   UNL A   1      43.940  25.354  34.463  1.00  0.00     0.060 A 
BRANCH  90  91
ATOM     91  S   UNL A   1      43.471  24.033  35.602  1.00  0.00     0.124 S 
ATOM     92  O   UNL A   1      44.449  24.190  36.673  1.00  0.00    -0.237 OA
ATOM     93  O   UNL A   1      42.094  24.378  35.944  1.00  0.00    -0.237 OA
ATOM     94  O   UNL A   1      43.617  22.821  34.797  1.00  0.00    -0.744 OA
ENDBRANCH  90  91
ENDBRANCH  58  83
ENDBRANCH  32  33
ENDBRANCH  25  27
ENDBRANCH  24  25
ENDBRANCH  23  24
ENDBRANCH   1  23
TORSDOF 20
ENDMDL
