MODEL 1
REMARK VINA RESULT:      -9.8      0.000      0.000
REMARK SMILES CCC[C@@]1(C(=O)N[C@@](C)(C(=O)OCCOCCOC(=O)c2ccc(-c3c4nc(c(-c5c(F)cc(S(=O)(=O)[O-])cc5F)c5ccc([nH]5)c(-c5c(F)cc(S(=O)(=O)[O-])cc5F)c5nc(c(-c6c(F)cc(S(=O)(=O)[O-])cc6F)c6ccc3[nH]6)C=C5)C=C4)cc2)C(F)(F)F)CC[NH2+]C1
REMARK SMILES IDX 14 1 13 2 12 3 10 4 11 5 8 6 9 7 7 8 5 9 6 10 4 12 91 13
REMARK SMILES IDX 94 14 92 15 93 16 3 19 2 20 1 21 87 22 88 23 89 24 90 25
REMARK SMILES IDX 15 26 16 27 17 28 18 29 19 30 20 31 21 32 22 33 86 34 23 35
REMARK SMILES IDX 85 36 24 37 25 38 26 39 79 40 27 41 84 42 78 43 80 44 28 45
REMARK SMILES IDX 83 46 77 47 76 48 29 50 63 51 42 52 62 53 43 54 46 55 61 56
REMARK SMILES IDX 81 57 44 58 45 59 60 61 82 62 47 63 30 64 31 65 40 66 32 67
REMARK SMILES IDX 33 68 39 69 41 70 34 71 35 72 36 73 37 74 38 75 64 76 65 77
REMARK SMILES IDX 74 78 66 79 67 80 73 81 75 82 68 83 69 84 70 85 71 86 72 87
REMARK SMILES IDX 48 88 49 89 58 90 50 91 51 92 57 93 59 94 52 95 53 96 54 97
REMARK SMILES IDX 55 98 56 99
REMARK H PARENT 7 11 93 17 93 18 80 49 46 60
REMARK Flexibility Score: inf
ROOT
ATOM      1  C   UNL A   1      37.146  22.779  25.011  1.00  0.00     0.202 C 
ENDROOT
BRANCH   1   2
ATOM      2  C   UNL A   1      35.744  22.203  24.786  1.00  0.00     0.261 C 
BRANCH   2   3
ATOM      3  O   UNL A   1      34.698  23.161  25.031  1.00  0.00    -0.461 OA
BRANCH   3   4
ATOM      4  C   UNL A   1      33.579  22.984  24.273  1.00  0.00     0.341 C 
ATOM      5  O   UNL A   1      33.477  22.098  23.433  1.00  0.00    -0.249 OA
BRANCH   4   6
ATOM      6  C   UNL A   1      32.475  24.030  24.554  1.00  0.00     0.231 C 
ATOM      7  C   UNL A   1      31.517  23.930  23.355  1.00  0.00     0.058 C 
BRANCH   6   8
ATOM      8  N   UNL A   1      33.042  25.445  24.595  1.00  0.00    -0.332 N 
ATOM      9  C   UNL A   1      32.722  26.690  24.157  1.00  0.00     0.233 C 
ATOM     10  O   UNL A   1      33.703  27.255  23.643  1.00  0.00    -0.274 OA
ATOM     11  H   UNL A   1      33.895  25.461  25.087  1.00  0.00     0.164 HD
BRANCH   9  12
ATOM     12  C   UNL A   1      31.485  27.581  24.535  1.00  0.00     0.103 C 
ATOM     13  C   UNL A   1      30.144  27.386  23.854  1.00  0.00     0.084 C 
ATOM     14  C   UNL A   1      31.808  29.033  24.042  1.00  0.00     0.277 C 
ATOM     15  C   UNL A   1      30.317  28.058  22.512  1.00  0.00     0.261 C 
ATOM     16  N   UNL A   1      30.937  29.330  22.879  1.00  0.00    -0.345 N 
ATOM     17  H   UNL A   1      30.224  30.012  23.135  1.00  0.00     0.346 HD
ATOM     18  H   UNL A   1      31.468  29.726  22.104  1.00  0.00     0.346 HD
BRANCH  12  19
ATOM     19  C   UNL A   1      31.428  27.548  26.102  1.00  0.00     0.023 C 
BRANCH  19  20
ATOM     20  C   UNL A   1      31.989  28.726  26.914  1.00  0.00    -0.002 C 
ATOM     21  C   UNL A   1      33.466  28.574  27.252  1.00  0.00     0.004 C 
ENDBRANCH  19  20
ENDBRANCH  12  19
ENDBRANCH   9  12
ENDBRANCH   6   8
BRANCH   6  22
ATOM     22  C   UNL A   1      31.808  23.487  25.814  1.00  0.00     0.422 C 
ATOM     23  F   UNL A   1      32.337  24.047  26.927  1.00  0.00    -0.168 F 
ATOM     24  F   UNL A   1      30.479  23.755  25.796  1.00  0.00    -0.168 F 
ATOM     25  F   UNL A   1      31.883  22.149  25.972  1.00  0.00    -0.168 F 
ENDBRANCH   6  22
ENDBRANCH   4   6
ENDBRANCH   3   4
ENDBRANCH   2   3
ENDBRANCH   1   2
BRANCH   1  26
ATOM     26  O   UNL A   1      38.167  21.893  25.453  1.00  0.00    -0.374 OA
BRANCH  26  27
ATOM     27  C   UNL A   1      38.104  20.533  25.034  1.00  0.00     0.202 C 
BRANCH  27  28
ATOM     28  C   UNL A   1      39.252  19.575  25.387  1.00  0.00     0.261 C 
BRANCH  28  29
ATOM     29  O   UNL A   1      40.126  20.072  26.409  1.00  0.00    -0.460 OA
BRANCH  29  30
ATOM     30  C   UNL A   1      41.441  19.811  26.189  1.00  0.00     0.338 C 
ATOM     31  O   UNL A   1      41.928  18.783  25.753  1.00  0.00    -0.246 OA
BRANCH  30  32
ATOM     32  C   UNL A   1      42.216  21.048  26.356  1.00  0.00     0.060 A 
ATOM     33  C   UNL A   1      42.475  21.480  27.663  1.00  0.00     0.016 A 
ATOM     34  C   UNL A   1      42.606  21.809  25.255  1.00  0.00     0.016 A 
ATOM     35  C   UNL A   1      43.101  22.703  27.876  1.00  0.00     0.010 A 
ATOM     36  C   UNL A   1      43.219  23.044  25.470  1.00  0.00     0.010 A 
ATOM     37  C   UNL A   1      43.435  23.507  26.781  1.00  0.00    -0.014 A 
BRANCH  37  38
ATOM     38  C   UNL A   1      43.848  24.908  27.016  1.00  0.00     0.031 A 
ATOM     39  C   UNL A   1      45.289  25.276  26.802  1.00  0.00     0.074 A 
ATOM     40  C   UNL A   1      42.947  25.832  27.387  1.00  0.00     0.049 A 
ATOM     41  N   UNL A   1      45.886  26.423  26.984  1.00  0.00    -0.248 NA
ATOM     42  C   UNL A   1      46.175  24.203  26.320  1.00  0.00     0.031 C 
ATOM     43  C   UNL A   1      41.519  25.586  27.580  1.00  0.00     0.029 A 
ATOM     44  N   UNL A   1      43.104  27.162  27.678  1.00  0.00    -0.354 N 
ATOM     45  C   UNL A   1      47.219  26.210  26.652  1.00  0.00     0.074 A 
ATOM     46  C   UNL A   1      47.347  24.817  26.283  1.00  0.00     0.031 C 
ATOM     47  C   UNL A   1      40.931  26.728  27.976  1.00  0.00     0.029 A 
ATOM     48  C   UNL A   1      41.947  27.772  28.096  1.00  0.00     0.049 A 
ATOM     49  H   UNL A   1      43.965  27.634  27.596  1.00  0.00     0.167 HD
ATOM     50  C   UNL A   1      48.240  27.099  26.652  1.00  0.00     0.037 A 
ATOM     51  C   UNL A   1      41.741  29.025  28.546  1.00  0.00     0.037 A 
ATOM     52  C   UNL A   1      48.095  28.480  27.028  1.00  0.00     0.049 A 
ATOM     53  C   UNL A   1      42.901  29.984  28.594  1.00  0.00     0.074 A 
ATOM     54  C   UNL A   1      49.057  29.474  27.048  1.00  0.00     0.029 A 
ATOM     55  N   UNL A   1      46.910  29.060  27.465  1.00  0.00    -0.354 N 
ATOM     56  N   UNL A   1      44.153  29.779  28.255  1.00  0.00    -0.248 NA
ATOM     57  C   UNL A   1      42.623  31.342  29.080  1.00  0.00     0.031 C 
ATOM     58  C   UNL A   1      48.467  30.640  27.545  1.00  0.00     0.029 A 
ATOM     59  C   UNL A   1      47.123  30.390  27.782  1.00  0.00     0.049 A 
ATOM     60  H   UNL A   1      46.047  28.592  27.538  1.00  0.00     0.167 HD
ATOM     61  C   UNL A   1      44.808  30.989  28.463  1.00  0.00     0.074 A 
ATOM     62  C   UNL A   1      43.810  31.920  28.950  1.00  0.00     0.031 C 
ATOM     63  C   UNL A   1      46.113  31.302  28.264  1.00  0.00     0.037 A 
BRANCH  50  64
ATOM     64  C   UNL A   1      49.603  26.587  26.274  1.00  0.00     0.058 A 
ATOM     65  C   UNL A   1      50.115  26.725  24.974  1.00  0.00     0.135 A 
ATOM     66  C   UNL A   1      50.409  25.946  27.229  1.00  0.00     0.135 A 
ATOM     67  F   UNL A   1      49.379  27.312  24.015  1.00  0.00    -0.206 F 
ATOM     68  C   UNL A   1      51.360  26.213  24.623  1.00  0.00     0.059 A 
ATOM     69  C   UNL A   1      51.670  25.451  26.908  1.00  0.00     0.059 A 
ATOM     70  F   UNL A   1      49.968  25.783  28.486  1.00  0.00    -0.206 F 
ATOM     71  C   UNL A   1      52.129  25.572  25.597  1.00  0.00     0.060 A 
BRANCH  71  72
ATOM     72  S   UNL A   1      53.733  24.895  25.125  1.00  0.00     0.124 S 
ATOM     73  O   UNL A   1      53.427  23.471  25.014  1.00  0.00    -0.237 OA
ATOM     74  O   UNL A   1      54.005  25.583  23.866  1.00  0.00    -0.237 OA
ATOM     75  O   UNL A   1      54.601  25.265  26.238  1.00  0.00    -0.744 OA
ENDBRANCH  71  72
ENDBRANCH  50  64
BRANCH  51  76
ATOM     76  C   UNL A   1      40.383  29.430  28.991  1.00  0.00     0.058 A 
ATOM     77  C   UNL A   1      40.080  29.589  30.350  1.00  0.00     0.135 A 
ATOM     78  C   UNL A   1      39.370  29.709  28.058  1.00  0.00     0.135 A 
ATOM     79  F   UNL A   1      41.011  29.325  31.279  1.00  0.00    -0.206 F 
ATOM     80  C   UNL A   1      38.824  30.013  30.772  1.00  0.00     0.059 A 
ATOM     81  C   UNL A   1      38.114  30.157  28.454  1.00  0.00     0.059 A 
ATOM     82  F   UNL A   1      39.612  29.583  26.744  1.00  0.00    -0.206 F 
ATOM     83  C   UNL A   1      37.850  30.303  29.814  1.00  0.00     0.060 A 
BRANCH  83  84
ATOM     84  S   UNL A   1      36.250  30.933  30.370  1.00  0.00     0.124 S 
ATOM     85  O   UNL A   1      36.582  32.308  30.724  1.00  0.00    -0.237 OA
ATOM     86  O   UNL A   1      35.424  30.761  29.179  1.00  0.00    -0.237 OA
ATOM     87  O   UNL A   1      35.914  30.056  31.488  1.00  0.00    -0.744 OA
ENDBRANCH  83  84
ENDBRANCH  51  76
BRANCH  63  88
ATOM     88  C   UNL A   1      46.537  32.718  28.539  1.00  0.00     0.058 A 
ATOM     89  C   UNL A   1      46.474  33.715  27.553  1.00  0.00     0.135 A 
ATOM     90  C   UNL A   1      46.944  33.096  29.830  1.00  0.00     0.135 A 
ATOM     91  F   UNL A   1      46.097  33.404  26.303  1.00  0.00    -0.206 F 
ATOM     92  C   UNL A   1      46.815  35.034  27.833  1.00  0.00     0.059 A 
ATOM     93  C   UNL A   1      47.263  34.414  30.138  1.00  0.00     0.059 A 
ATOM     94  F   UNL A   1      47.011  32.184  30.812  1.00  0.00    -0.206 F 
ATOM     95  C   UNL A   1      47.204  35.374  29.130  1.00  0.00     0.060 A 
BRANCH  95  96
ATOM     96  S   UNL A   1      47.601  37.099  29.489  1.00  0.00     0.124 S 
ATOM     97  O   UNL A   1      48.807  37.295  28.692  1.00  0.00    -0.237 OA
ATOM     98  O   UNL A   1      46.409  37.799  29.021  1.00  0.00    -0.237 OA
ATOM     99  O   UNL A   1      47.797  37.108  30.936  1.00  0.00    -0.744 OA
ENDBRANCH  95  96
ENDBRANCH  63  88
ENDBRANCH  37  38
ENDBRANCH  30  32
ENDBRANCH  29  30
ENDBRANCH  28  29
ENDBRANCH  27  28
ENDBRANCH  26  27
ENDBRANCH   1  26
TORSDOF 22
ENDMDL
MODEL 2
REMARK VINA RESULT:      -9.7      0.927      8.194
REMARK SMILES CCC[C@@]1(C(=O)N[C@@](C)(C(=O)OCCOCCOC(=O)c2ccc(-c3c4nc(c(-c5c(F)cc(S(=O)(=O)[O-])cc5F)c5ccc([nH]5)c(-c5c(F)cc(S(=O)(=O)[O-])cc5F)c5nc(c(-c6c(F)cc(S(=O)(=O)[O-])cc6F)c6ccc3[nH]6)C=C5)C=C4)cc2)C(F)(F)F)CC[NH2+]C1
REMARK SMILES IDX 14 1 13 2 12 3 10 4 11 5 8 6 9 7 7 8 5 9 6 10 4 12 91 13
REMARK SMILES IDX 94 14 92 15 93 16 3 19 2 20 1 21 87 22 88 23 89 24 90 25
REMARK SMILES IDX 15 26 16 27 17 28 18 29 19 30 20 31 21 32 22 33 86 34 23 35
REMARK SMILES IDX 85 36 24 37 25 38 26 39 79 40 27 41 84 42 78 43 80 44 28 45
REMARK SMILES IDX 83 46 77 47 76 48 29 50 63 51 42 52 62 53 43 54 46 55 61 56
REMARK SMILES IDX 81 57 44 58 45 59 60 61 82 62 47 63 30 64 31 65 40 66 32 67
REMARK SMILES IDX 33 68 39 69 41 70 34 71 35 72 36 73 37 74 38 75 64 76 65 77
REMARK SMILES IDX 74 78 66 79 67 80 73 81 75 82 68 83 69 84 70 85 71 86 72 87
REMARK SMILES IDX 48 88 49 89 58 90 50 91 51 92 57 93 59 94 52 95 53 96 54 97
REMARK SMILES IDX 55 98 56 99
REMARK H PARENT 7 11 93 17 93 18 80 49 46 60
REMARK Flexibility Score: inf
ROOT
ATOM      1  C   UNL A   1      36.461  22.445  24.755  1.00  0.00     0.202 C 
ENDROOT
BRANCH   1   2
ATOM      2  C   UNL A   1      35.169  21.628  24.646  1.00  0.00     0.261 C 
BRANCH   2   3
ATOM      3  O   UNL A   1      34.225  22.191  23.717  1.00  0.00    -0.461 OA
BRANCH   3   4
ATOM      4  C   UNL A   1      32.958  22.320  24.203  1.00  0.00     0.341 C 
ATOM      5  O   UNL A   1      32.238  21.359  24.445  1.00  0.00    -0.249 OA
BRANCH   4   6
ATOM      6  C   UNL A   1      32.514  23.791  24.381  1.00  0.00     0.231 C 
ATOM      7  C   UNL A   1      31.022  23.803  24.015  1.00  0.00     0.058 C 
BRANCH   6   8
ATOM      8  N   UNL A   1      33.249  24.717  23.418  1.00  0.00    -0.332 N 
ATOM      9  C   UNL A   1      32.974  25.744  22.574  1.00  0.00     0.233 C 
ATOM     10  O   UNL A   1      33.544  25.595  21.478  1.00  0.00    -0.274 OA
ATOM     11  H   UNL A   1      34.212  24.510  23.405  1.00  0.00     0.164 HD
BRANCH   9  12
ATOM     12  C   UNL A   1      32.398  27.167  22.905  1.00  0.00     0.103 C 
ATOM     13  C   UNL A   1      33.076  28.423  22.393  1.00  0.00     0.084 C 
ATOM     14  C   UNL A   1      32.594  27.386  24.444  1.00  0.00     0.277 C 
ATOM     15  C   UNL A   1      34.258  28.600  23.318  1.00  0.00     0.261 C 
ATOM     16  N   UNL A   1      33.655  28.404  24.635  1.00  0.00    -0.345 N 
ATOM     17  H   UNL A   1      33.252  29.277  24.975  1.00  0.00     0.346 HD
ATOM     18  H   UNL A   1      34.345  28.104  25.323  1.00  0.00     0.346 HD
BRANCH  12  19
ATOM     19  C   UNL A   1      30.869  27.073  22.569  1.00  0.00     0.023 C 
BRANCH  19  20
ATOM     20  C   UNL A   1      29.825  27.437  23.636  1.00  0.00    -0.002 C 
ATOM     21  C   UNL A   1      28.686  28.292  23.097  1.00  0.00     0.004 C 
ENDBRANCH  19  20
ENDBRANCH  12  19
ENDBRANCH   9  12
ENDBRANCH   6   8
BRANCH   6  22
ATOM     22  C   UNL A   1      32.698  24.020  25.879  1.00  0.00     0.422 C 
ATOM     23  F   UNL A   1      33.818  24.739  26.129  1.00  0.00    -0.168 F 
ATOM     24  F   UNL A   1      31.638  24.698  26.384  1.00  0.00    -0.168 F 
ATOM     25  F   UNL A   1      32.772  22.899  26.625  1.00  0.00    -0.168 F 
ENDBRANCH   6  22
ENDBRANCH   4   6
ENDBRANCH   3   4
ENDBRANCH   2   3
ENDBRANCH   1   2
BRANCH   1  26
ATOM     26  O   UNL A   1      37.643  21.770  25.167  1.00  0.00    -0.374 OA
BRANCH  26  27
ATOM     27  C   UNL A   1      37.742  20.372  24.913  1.00  0.00     0.202 C 
BRANCH  27  28
ATOM     28  C   UNL A   1      38.949  19.587  25.448  1.00  0.00     0.261 C 
BRANCH  28  29
ATOM     29  O   UNL A   1      39.865  20.383  26.212  1.00  0.00    -0.460 OA
BRANCH  29  30
ATOM     30  C   UNL A   1      41.150  19.946  26.166  1.00  0.00     0.338 C 
ATOM     31  O   UNL A   1      41.547  18.847  25.822  1.00  0.00    -0.246 OA
BRANCH  30  32
ATOM     32  C   UNL A   1      42.056  21.081  26.395  1.00  0.00     0.060 A 
ATOM     33  C   UNL A   1      42.279  21.475  27.721  1.00  0.00     0.016 A 
ATOM     34  C   UNL A   1      42.607  21.791  25.329  1.00  0.00     0.016 A 
ATOM     35  C   UNL A   1      43.032  22.613  27.986  1.00  0.00     0.010 A 
ATOM     36  C   UNL A   1      43.348  22.942  25.597  1.00  0.00     0.010 A 
ATOM     37  C   UNL A   1      43.532  23.374  26.923  1.00  0.00    -0.014 A 
BRANCH  37  38
ATOM     38  C   UNL A   1      44.094  24.714  27.198  1.00  0.00     0.031 A 
ATOM     39  C   UNL A   1      43.161  25.808  27.633  1.00  0.00     0.074 A 
ATOM     40  C   UNL A   1      45.414  24.936  27.085  1.00  0.00     0.049 A 
ATOM     41  N   UNL A   1      43.418  27.063  27.887  1.00  0.00    -0.248 NA
ATOM     42  C   UNL A   1      41.747  25.434  27.799  1.00  0.00     0.031 C 
ATOM     43  C   UNL A   1      46.409  23.931  26.712  1.00  0.00     0.029 A 
ATOM     44  N   UNL A   1      46.142  26.084  27.264  1.00  0.00    -0.354 N 
ATOM     45  C   UNL A   1      42.198  27.633  28.232  1.00  0.00     0.074 A 
ATOM     46  C   UNL A   1      41.198  26.594  28.128  1.00  0.00     0.031 C 
ATOM     47  C   UNL A   1      47.620  24.514  26.672  1.00  0.00     0.029 A 
ATOM     48  C   UNL A   1      47.478  25.935  26.984  1.00  0.00     0.049 A 
ATOM     49  H   UNL A   1      45.744  26.933  27.564  1.00  0.00     0.167 HD
ATOM     50  C   UNL A   1      41.940  28.909  28.605  1.00  0.00     0.037 A 
ATOM     51  C   UNL A   1      48.466  26.850  26.959  1.00  0.00     0.037 A 
ATOM     52  C   UNL A   1      42.948  29.932  28.697  1.00  0.00     0.049 A 
ATOM     53  C   UNL A   1      48.149  28.277  27.321  1.00  0.00     0.074 A 
ATOM     54  C   UNL A   1      42.803  31.252  29.082  1.00  0.00     0.029 A 
ATOM     55  N   UNL A   1      44.289  29.750  28.387  1.00  0.00    -0.354 N 
ATOM     56  N   UNL A   1      46.997  28.802  27.669  1.00  0.00    -0.248 NA
ATOM     57  C   UNL A   1      49.262  29.234  27.292  1.00  0.00     0.031 C 
ATOM     58  C   UNL A   1      44.045  31.882  28.955  1.00  0.00     0.029 A 
ATOM     59  C   UNL A   1      44.978  30.940  28.546  1.00  0.00     0.049 A 
ATOM     60  H   UNL A   1      44.691  28.899  28.097  1.00  0.00     0.167 HD
ATOM     61  C   UNL A   1      47.250  30.145  27.924  1.00  0.00     0.074 A 
ATOM     62  C   UNL A   1      48.667  30.349  27.697  1.00  0.00     0.031 C 
ATOM     63  C   UNL A   1      46.392  31.120  28.316  1.00  0.00     0.037 A 
BRANCH  50  64
ATOM     64  C   UNL A   1      40.509  29.269  28.897  1.00  0.00     0.058 A 
ATOM     65  C   UNL A   1      39.566  29.455  27.875  1.00  0.00     0.135 A 
ATOM     66  C   UNL A   1      40.077  29.432  30.223  1.00  0.00     0.135 A 
ATOM     67  F   UNL A   1      39.929  29.331  26.587  1.00  0.00    -0.206 F 
ATOM     68  C   UNL A   1      38.254  29.828  28.153  1.00  0.00     0.059 A 
ATOM     69  C   UNL A   1      38.762  29.777  30.527  1.00  0.00     0.059 A 
ATOM     70  F   UNL A   1      40.937  29.270  31.240  1.00  0.00    -0.206 F 
ATOM     71  C   UNL A   1      37.863  29.991  29.484  1.00  0.00     0.060 A 
BRANCH  71  72
ATOM     72  S   UNL A   1      36.165  30.494  29.830  1.00  0.00     0.124 S 
ATOM     73  O   UNL A   1      36.287  31.948  29.832  1.00  0.00    -0.237 OA
ATOM     74  O   UNL A   1      35.433  29.922  28.704  1.00  0.00    -0.237 OA
ATOM     75  O   UNL A   1      35.888  29.885  31.128  1.00  0.00    -0.744 OA
ENDBRANCH  71  72
ENDBRANCH  50  64
BRANCH  51  76
ATOM     76  C   UNL A   1      49.839  26.436  26.570  1.00  0.00     0.058 A 
ATOM     77  C   UNL A   1      50.783  26.053  27.532  1.00  0.00     0.135 A 
ATOM     78  C   UNL A   1      50.218  26.372  25.219  1.00  0.00     0.135 A 
ATOM     79  F   UNL A   1      50.471  26.106  28.836  1.00  0.00    -0.206 F 
ATOM     80  C   UNL A   1      52.055  25.619  27.172  1.00  0.00     0.059 A 
ATOM     81  C   UNL A   1      51.476  25.919  24.833  1.00  0.00     0.059 A 
ATOM     82  F   UNL A   1      49.347  26.716  24.258  1.00  0.00    -0.206 F 
ATOM     83  C   UNL A   1      52.389  25.547  25.818  1.00  0.00     0.060 A 
BRANCH  83  84
ATOM     84  S   UNL A   1      54.013  24.903  25.359  1.00  0.00     0.124 S 
ATOM     85  O   UNL A   1      54.742  25.021  26.616  1.00  0.00    -0.237 OA
ATOM     86  O   UNL A   1      53.693  23.545  24.930  1.00  0.00    -0.237 OA
ATOM     87  O   UNL A   1      54.442  25.804  24.293  1.00  0.00    -0.744 OA
ENDBRANCH  83  84
ENDBRANCH  51  76
BRANCH  63  88
ATOM     88  C   UNL A   1      46.961  32.490  28.559  1.00  0.00     0.058 A 
ATOM     89  C   UNL A   1      46.993  33.467  27.552  1.00  0.00     0.135 A 
ATOM     90  C   UNL A   1      47.414  32.851  29.839  1.00  0.00     0.135 A 
ATOM     91  F   UNL A   1      46.577  33.171  26.311  1.00  0.00    -0.206 F 
ATOM     92  C   UNL A   1      47.470  34.750  27.802  1.00  0.00     0.059 A 
ATOM     93  C   UNL A   1      47.869  34.136  30.117  1.00  0.00     0.059 A 
ATOM     94  F   UNL A   1      47.395  31.957  30.841  1.00  0.00    -0.206 F 
ATOM     95  C   UNL A   1      47.902  35.076  29.090  1.00  0.00     0.060 A 
BRANCH  95  96
ATOM     96  S   UNL A   1      48.476  36.757  29.410  1.00  0.00     0.124 S 
ATOM     97  O   UNL A   1      49.515  36.911  28.397  1.00  0.00    -0.237 OA
ATOM     98  O   UNL A   1      47.266  37.546  29.202  1.00  0.00    -0.237 OA
ATOM     99  O   UNL A   1      48.948  36.698  30.790  1.00  0.00    -0.744 OA
ENDBRANCH  95  96
ENDBRANCH  63  88
ENDBRANCH  37  38
ENDBRANCH  30  32
ENDBRANCH  29  30
ENDBRANCH  28  29
ENDBRANCH  27  28
ENDBRANCH  26  27
ENDBRANCH   1  26
TORSDOF 22
ENDMDL
MODEL 3
REMARK VINA RESULT:      -9.7      2.515      8.754
REMARK SMILES CCC[C@@]1(C(=O)N[C@@](C)(C(=O)OCCOCCOC(=O)c2ccc(-c3c4nc(c(-c5c(F)cc(S(=O)(=O)[O-])cc5F)c5ccc([nH]5)c(-c5c(F)cc(S(=O)(=O)[O-])cc5F)c5nc(c(-c6c(F)cc(S(=O)(=O)[O-])cc6F)c6ccc3[nH]6)C=C5)C=C4)cc2)C(F)(F)F)CC[NH2+]C1
REMARK SMILES IDX 14 1 13 2 12 3 10 4 11 5 8 6 9 7 7 8 5 9 6 10 4 12 91 13
REMARK SMILES IDX 94 14 92 15 93 16 3 19 2 20 1 21 87 22 88 23 89 24 90 25
REMARK SMILES IDX 15 26 16 27 17 28 18 29 19 30 20 31 21 32 22 33 86 34 23 35
REMARK SMILES IDX 85 36 24 37 25 38 26 39 79 40 27 41 84 42 78 43 80 44 28 45
REMARK SMILES IDX 83 46 77 47 76 48 29 50 63 51 42 52 62 53 43 54 46 55 61 56
REMARK SMILES IDX 81 57 44 58 45 59 60 61 82 62 47 63 30 64 31 65 40 66 32 67
REMARK SMILES IDX 33 68 39 69 41 70 34 71 35 72 36 73 37 74 38 75 64 76 65 77
REMARK SMILES IDX 74 78 66 79 67 80 73 81 75 82 68 83 69 84 70 85 71 86 72 87
REMARK SMILES IDX 48 88 49 89 58 90 50 91 51 92 57 93 59 94 52 95 53 96 54 97
REMARK SMILES IDX 55 98 56 99
REMARK H PARENT 7 11 93 17 93 18 80 49 46 60
REMARK Flexibility Score: inf
ROOT
ATOM      1  C   UNL A   1      33.567  32.706  28.002  1.00  0.00     0.202 C 
ENDROOT
BRANCH   1   2
ATOM      2  C   UNL A   1      34.324  31.405  27.712  1.00  0.00     0.261 C 
BRANCH   2   3
ATOM      3  O   UNL A   1      33.640  30.555  26.774  1.00  0.00    -0.461 OA
BRANCH   3   4
ATOM      4  C   UNL A   1      34.110  29.277  26.719  1.00  0.00     0.341 C 
ATOM      5  O   UNL A   1      35.176  28.939  27.218  1.00  0.00    -0.249 OA
BRANCH   4   6
ATOM      6  C   UNL A   1      33.186  28.315  25.937  1.00  0.00     0.231 C 
ATOM      7  C   UNL A   1      34.021  27.042  25.728  1.00  0.00     0.058 C 
BRANCH   6   8
ATOM      8  N   UNL A   1      32.824  28.878  24.566  1.00  0.00    -0.332 N 
ATOM      9  C   UNL A   1      32.421  28.431  23.349  1.00  0.00     0.233 C 
ATOM     10  O   UNL A   1      33.058  28.980  22.432  1.00  0.00    -0.274 OA
ATOM     11  H   UNL A   1      32.905  29.860  24.563  1.00  0.00     0.164 HD
BRANCH   9  12
ATOM     12  C   UNL A   1      31.103  27.669  22.964  1.00  0.00     0.103 C 
ATOM     13  C   UNL A   1      30.393  26.780  23.968  1.00  0.00     0.084 C 
ATOM     14  C   UNL A   1      31.502  26.584  21.906  1.00  0.00     0.277 C 
ATOM     15  C   UNL A   1      31.216  25.512  23.976  1.00  0.00     0.261 C 
ATOM     16  N   UNL A   1      31.400  25.252  22.550  1.00  0.00    -0.345 N 
ATOM     17  H   UNL A   1      30.603  24.737  22.177  1.00  0.00     0.346 HD
ATOM     18  H   UNL A   1      32.231  24.686  22.375  1.00  0.00     0.346 HD
BRANCH  12  19
ATOM     19  C   UNL A   1      30.188  28.755  22.298  1.00  0.00     0.023 C 
BRANCH  19  20
ATOM     20  C   UNL A   1      29.090  29.442  23.124  1.00  0.00    -0.002 C 
ATOM     21  C   UNL A   1      29.580  30.679  23.866  1.00  0.00     0.004 C 
ENDBRANCH  19  20
ENDBRANCH  12  19
ENDBRANCH   9  12
ENDBRANCH   6   8
BRANCH   6  22
ATOM     22  C   UNL A   1      32.054  28.053  26.927  1.00  0.00     0.422 C 
ATOM     23  F   UNL A   1      30.934  28.728  26.578  1.00  0.00    -0.168 F 
ATOM     24  F   UNL A   1      31.759  26.731  26.964  1.00  0.00    -0.168 F 
ATOM     25  F   UNL A   1      32.328  28.377  28.207  1.00  0.00    -0.168 F 
ENDBRANCH   6  22
ENDBRANCH   4   6
ENDBRANCH   3   4
ENDBRANCH   2   3
ENDBRANCH   1   2
BRANCH   1  26
ATOM     26  O   UNL A   1      33.964  33.469  29.135  1.00  0.00    -0.374 OA
BRANCH  26  27
ATOM     27  C   UNL A   1      35.207  33.153  29.756  1.00  0.00     0.202 C 
BRANCH  27  28
ATOM     28  C   UNL A   1      35.224  32.277  31.017  1.00  0.00     0.261 C 
BRANCH  28  29
ATOM     29  O   UNL A   1      36.079  31.130  30.913  1.00  0.00    -0.460 OA
BRANCH  29  30
ATOM     30  C   UNL A   1      37.184  31.190  31.701  1.00  0.00     0.338 C 
ATOM     31  O   UNL A   1      37.244  31.540  32.866  1.00  0.00    -0.246 OA
BRANCH  30  32
ATOM     32  C   UNL A   1      38.311  30.555  31.004  1.00  0.00     0.060 A 
ATOM     33  C   UNL A   1      39.353  30.042  31.788  1.00  0.00     0.016 A 
ATOM     34  C   UNL A   1      38.381  30.538  29.612  1.00  0.00     0.016 A 
ATOM     35  C   UNL A   1      40.495  29.538  31.177  1.00  0.00     0.010 A 
ATOM     36  C   UNL A   1      39.536  30.048  29.000  1.00  0.00     0.010 A 
ATOM     37  C   UNL A   1      40.607  29.580  29.782  1.00  0.00    -0.014 A 
BRANCH  37  38
ATOM     38  C   UNL A   1      41.917  29.297  29.156  1.00  0.00     0.031 A 
ATOM     39  C   UNL A   1      42.178  27.913  28.633  1.00  0.00     0.074 A 
ATOM     40  C   UNL A   1      42.840  30.265  29.037  1.00  0.00     0.049 A 
ATOM     41  N   UNL A   1      43.259  27.425  28.087  1.00  0.00    -0.248 NA
ATOM     42  C   UNL A   1      41.070  26.951  28.745  1.00  0.00     0.031 C 
ATOM     43  C   UNL A   1      42.668  31.651  29.474  1.00  0.00     0.029 A 
ATOM     44  N   UNL A   1      44.109  30.227  28.522  1.00  0.00    -0.354 N 
ATOM     45  C   UNL A   1      42.969  26.096  27.801  1.00  0.00     0.074 A 
ATOM     46  C   UNL A   1      41.619  25.848  28.258  1.00  0.00     0.031 C 
ATOM     47  C   UNL A   1      43.802  32.328  29.223  1.00  0.00     0.029 A 
ATOM     48  C   UNL A   1      44.785  31.417  28.641  1.00  0.00     0.049 A 
ATOM     49  H   UNL A   1      44.499  29.423  28.107  1.00  0.00     0.167 HD
ATOM     50  C   UNL A   1      43.757  25.170  27.206  1.00  0.00     0.037 A 
ATOM     51  C   UNL A   1      46.061  31.724  28.336  1.00  0.00     0.037 A 
ATOM     52  C   UNL A   1      45.100  25.433  26.762  1.00  0.00     0.049 A 
ATOM     53  C   UNL A   1      46.941  30.664  27.729  1.00  0.00     0.074 A 
ATOM     54  C   UNL A   1      45.983  24.576  26.131  1.00  0.00     0.029 A 
ATOM     55  N   UNL A   1      45.760  26.645  26.917  1.00  0.00    -0.354 N 
ATOM     56  N   UNL A   1      46.650  29.417  27.440  1.00  0.00    -0.248 NA
ATOM     57  C   UNL A   1      48.320  31.051  27.402  1.00  0.00     0.031 C 
ATOM     58  C   UNL A   1      47.194  25.253  25.951  1.00  0.00     0.029 A 
ATOM     59  C   UNL A   1      47.048  26.551  26.417  1.00  0.00     0.049 A 
ATOM     60  H   UNL A   1      45.369  27.453  27.322  1.00  0.00     0.167 HD
ATOM     61  C   UNL A   1      47.800  28.876  26.874  1.00  0.00     0.074 A 
ATOM     62  C   UNL A   1      48.789  29.936  26.856  1.00  0.00     0.031 C 
ATOM     63  C   UNL A   1      48.016  27.621  26.407  1.00  0.00     0.037 A 
BRANCH  50  64
ATOM     64  C   UNL A   1      43.196  23.784  27.044  1.00  0.00     0.058 A 
ATOM     65  C   UNL A   1      43.064  22.903  28.129  1.00  0.00     0.135 A 
ATOM     66  C   UNL A   1      42.785  23.330  25.780  1.00  0.00     0.135 A 
ATOM     67  F   UNL A   1      43.460  23.278  29.357  1.00  0.00    -0.206 F 
ATOM     68  C   UNL A   1      42.582  21.609  27.963  1.00  0.00     0.059 A 
ATOM     69  C   UNL A   1      42.273  22.048  25.594  1.00  0.00     0.059 A 
ATOM     70  F   UNL A   1      42.892  24.128  24.707  1.00  0.00    -0.206 F 
ATOM     71  C   UNL A   1      42.193  21.189  26.689  1.00  0.00     0.060 A 
BRANCH  71  72
ATOM     72  S   UNL A   1      41.587  19.501  26.482  1.00  0.00     0.124 S 
ATOM     73  O   UNL A   1      41.873  18.927  27.794  1.00  0.00    -0.237 OA
ATOM     74  O   UNL A   1      40.175  19.711  26.177  1.00  0.00    -0.237 OA
ATOM     75  O   UNL A   1      42.393  18.982  25.381  1.00  0.00    -0.744 OA
ENDBRANCH  71  72
ENDBRANCH  50  64
BRANCH  51  76
ATOM     76  C   UNL A   1      46.572  33.091  28.612  1.00  0.00     0.058 A 
ATOM     77  C   UNL A   1      47.183  33.407  29.833  1.00  0.00     0.135 A 
ATOM     78  C   UNL A   1      46.498  34.100  27.638  1.00  0.00     0.135 A 
ATOM     79  F   UNL A   1      47.269  32.479  30.799  1.00  0.00    -0.206 F 
ATOM     80  C   UNL A   1      47.706  34.672  30.081  1.00  0.00     0.059 A 
ATOM     81  C   UNL A   1      47.034  35.366  27.853  1.00  0.00     0.059 A 
ATOM     82  F   UNL A   1      45.932  33.846  26.447  1.00  0.00    -0.206 F 
ATOM     83  C   UNL A   1      47.634  35.643  29.080  1.00  0.00     0.060 A 
BRANCH  83  84
ATOM     84  S   UNL A   1      48.390  37.255  29.381  1.00  0.00     0.124 S 
ATOM     85  O   UNL A   1      47.314  38.161  28.997  1.00  0.00    -0.237 OA
ATOM     86  O   UNL A   1      48.693  37.189  30.807  1.00  0.00    -0.237 OA
ATOM     87  O   UNL A   1      49.556  37.250  28.501  1.00  0.00    -0.744 OA
ENDBRANCH  83  84
ENDBRANCH  51  76
BRANCH  63  88
ATOM     88  C   UNL A   1      49.362  27.327  25.805  1.00  0.00     0.058 A 
ATOM     89  C   UNL A   1      50.442  26.884  26.585  1.00  0.00     0.135 A 
ATOM     90  C   UNL A   1      49.552  27.422  24.416  1.00  0.00     0.135 A 
ATOM     91  F   UNL A   1      50.314  26.782  27.917  1.00  0.00    -0.206 F 
ATOM     92  C   UNL A   1      51.667  26.561  26.010  1.00  0.00     0.059 A 
ATOM     93  C   UNL A   1      50.759  27.077  23.818  1.00  0.00     0.059 A 
ATOM     94  F   UNL A   1      48.548  27.829  23.622  1.00  0.00    -0.206 F 
ATOM     95  C   UNL A   1      51.814  26.656  24.625  1.00  0.00     0.060 A 
BRANCH  95  96
ATOM     96  S   UNL A   1      53.396  26.191  23.890  1.00  0.00     0.124 S 
ATOM     97  O   UNL A   1      54.297  27.170  24.487  1.00  0.00    -0.237 OA
ATOM     98  O   UNL A   1      53.561  24.815  24.347  1.00  0.00    -0.237 OA
ATOM     99  O   UNL A   1      53.162  26.344  22.457  1.00  0.00    -0.744 OA
ENDBRANCH  95  96
ENDBRANCH  63  88
ENDBRANCH  37  38
ENDBRANCH  30  32
ENDBRANCH  29  30
ENDBRANCH  28  29
ENDBRANCH  27  28
ENDBRANCH  26  27
ENDBRANCH   1  26
TORSDOF 22
ENDMDL
