MODEL 1
REMARK VINA RESULT:     -11.4      0.000      0.000
REMARK SMILES O=C(OCCOCCOC(=O)c1cc(Br)ccc1N1CC2(CCCCC2)C1)c1ccc(-c2c3nc(c(-c4c(F)cc(S(=O)(=O)[O-])cc4F)c4ccc([nH]4)c(-c4c(F)cc(S(=O)(=O)[O-])cc4F)c4nc(c(-c5c(F)cc(S(=O)(=O)[O-])cc5F)c5ccc2[nH]5)C=C4)C=C3)cc1
REMARK SMILES IDX 5 1 4 2 3 3 2 4 1 5 28 6 29 7 93 8 30 9 92 10 31 11 32 12
REMARK SMILES IDX 33 13 86 14 34 15 91 16 85 17 87 18 35 19 90 20 84 21 83 22
REMARK SMILES IDX 36 24 70 25 49 26 69 27 50 28 53 29 68 30 88 31 51 32 52 33
REMARK SMILES IDX 67 35 89 36 54 37 37 38 38 39 47 40 39 41 40 42 46 43 48 44
REMARK SMILES IDX 41 45 42 46 43 47 44 48 45 49 71 50 72 51 81 52 73 53 74 54
REMARK SMILES IDX 80 55 82 56 75 57 76 58 77 59 78 60 79 61 55 62 56 63 65 64
REMARK SMILES IDX 57 65 58 66 64 67 66 68 59 69 60 70 61 71 62 72 63 73 6 74
REMARK SMILES IDX 7 75 8 76 9 77 10 78 11 79 12 80 13 81 18 82 14 83 17 84
REMARK SMILES IDX 15 85 16 86 19 87 20 88 27 89 21 90 22 91 26 92 23 93 25 94
REMARK SMILES IDX 24 95
REMARK H PARENT 87 23 53 34
REMARK Flexibility Score: inf
ROOT
ATOM      1  C   UNL A   1      40.436  21.481  26.290  1.00  0.00     0.202 C 
ENDROOT
BRANCH   1   2
ATOM      2  C   UNL A   1      41.346  22.708  26.403  1.00  0.00     0.261 C 
BRANCH   2   3
ATOM      3  O   UNL A   1      40.513  23.882  26.531  1.00  0.00    -0.460 OA
BRANCH   3   4
ATOM      4  C   UNL A   1      40.895  25.177  26.435  1.00  0.00     0.338 C 
ATOM      5  O   UNL A   1      41.146  25.658  25.333  1.00  0.00    -0.246 OA
BRANCH   4   6
ATOM      6  C   UNL A   1      40.858  26.092  27.606  1.00  0.00     0.060 A 
ATOM      7  C   UNL A   1      41.687  27.198  27.735  1.00  0.00     0.016 A 
ATOM      8  C   UNL A   1      39.845  25.908  28.559  1.00  0.00     0.016 A 
ATOM      9  C   UNL A   1      41.565  28.058  28.815  1.00  0.00     0.010 A 
ATOM     10  C   UNL A   1      39.689  26.808  29.625  1.00  0.00     0.010 A 
ATOM     11  C   UNL A   1      40.563  27.891  29.767  1.00  0.00    -0.014 A 
BRANCH  11  12
ATOM     12  C   UNL A   1      40.533  28.842  30.908  1.00  0.00     0.031 A 
ATOM     13  C   UNL A   1      39.482  29.914  30.944  1.00  0.00     0.074 A 
ATOM     14  C   UNL A   1      41.330  28.638  31.979  1.00  0.00     0.049 A 
ATOM     15  N   UNL A   1      39.326  30.888  31.801  1.00  0.00    -0.248 NA
ATOM     16  C   UNL A   1      38.468  29.886  29.877  1.00  0.00     0.031 C 
ATOM     17  C   UNL A   1      42.311  27.553  32.106  1.00  0.00     0.029 A 
ATOM     18  N   UNL A   1      41.410  29.288  33.184  1.00  0.00    -0.354 N 
ATOM     19  C   UNL A   1      38.231  31.617  31.351  1.00  0.00     0.074 A 
ATOM     20  C   UNL A   1      37.758  30.971  30.146  1.00  0.00     0.031 C 
ATOM     21  C   UNL A   1      42.830  27.566  33.342  1.00  0.00     0.029 A 
ATOM     22  C   UNL A   1      42.316  28.727  34.057  1.00  0.00     0.049 A 
ATOM     23  H   UNL A   1      40.869  30.080  33.405  1.00  0.00     0.167 HD
ATOM     24  C   UNL A   1      37.685  32.729  31.894  1.00  0.00     0.037 A 
ATOM     25  C   UNL A   1      42.726  29.132  35.276  1.00  0.00     0.037 A 
ATOM     26  C   UNL A   1      38.158  33.333  33.113  1.00  0.00     0.049 A 
ATOM     27  C   UNL A   1      42.142  30.403  35.830  1.00  0.00     0.074 A 
ATOM     28  C   UNL A   1      37.751  34.512  33.710  1.00  0.00     0.029 A 
ATOM     29  N   UNL A   1      39.132  32.783  33.935  1.00  0.00    -0.354 N 
ATOM     30  N   UNL A   1      41.205  31.170  35.320  1.00  0.00    -0.248 NA
ATOM     31  C   UNL A   1      42.689  30.887  37.103  1.00  0.00     0.031 C 
ATOM     32  C   UNL A   1      38.499  34.690  34.879  1.00  0.00     0.029 A 
ATOM     33  C   UNL A   1      39.339  33.598  35.035  1.00  0.00     0.049 A 
ATOM     34  H   UNL A   1      39.606  31.939  33.762  1.00  0.00     0.167 HD
ATOM     35  C   UNL A   1      41.057  32.230  36.205  1.00  0.00     0.074 A 
ATOM     36  C   UNL A   1      41.969  31.982  37.305  1.00  0.00     0.031 C 
ATOM     37  C   UNL A   1      40.257  33.320  36.112  1.00  0.00     0.037 A 
BRANCH  24  38
ATOM     38  C   UNL A   1      36.566  33.390  31.138  1.00  0.00     0.058 A 
ATOM     39  C   UNL A   1      36.781  34.079  29.935  1.00  0.00     0.135 A 
ATOM     40  C   UNL A   1      35.254  33.335  31.636  1.00  0.00     0.135 A 
ATOM     41  F   UNL A   1      38.020  34.190  29.431  1.00  0.00    -0.206 F 
ATOM     42  C   UNL A   1      35.738  34.711  29.264  1.00  0.00     0.059 A 
ATOM     43  C   UNL A   1      34.191  33.939  30.969  1.00  0.00     0.059 A 
ATOM     44  F   UNL A   1      34.993  32.699  32.788  1.00  0.00    -0.206 F 
ATOM     45  C   UNL A   1      34.447  34.637  29.790  1.00  0.00     0.060 A 
BRANCH  45  46
ATOM     46  S   UNL A   1      33.105  35.468  28.912  1.00  0.00     0.124 S 
ATOM     47  O   UNL A   1      32.315  35.995  30.020  1.00  0.00    -0.237 OA
ATOM     48  O   UNL A   1      33.821  36.460  28.117  1.00  0.00    -0.237 OA
ATOM     49  O   UNL A   1      32.478  34.392  28.151  1.00  0.00    -0.744 OA
ENDBRANCH  45  46
ENDBRANCH  24  38
BRANCH  25  50
ATOM     50  C   UNL A   1      43.800  28.393  36.002  1.00  0.00     0.058 A 
ATOM     51  C   UNL A   1      43.509  27.350  36.894  1.00  0.00     0.135 A 
ATOM     52  C   UNL A   1      45.153  28.737  35.832  1.00  0.00     0.135 A 
ATOM     53  F   UNL A   1      42.235  26.987  37.110  1.00  0.00    -0.206 F 
ATOM     54  C   UNL A   1      44.512  26.692  37.605  1.00  0.00     0.059 A 
ATOM     55  C   UNL A   1      46.174  28.069  36.498  1.00  0.00     0.059 A 
ATOM     56  F   UNL A   1      45.496  29.724  34.990  1.00  0.00    -0.206 F 
ATOM     57  C   UNL A   1      45.843  27.060  37.398  1.00  0.00     0.060 A 
BRANCH  57  58
ATOM     58  S   UNL A   1      47.145  26.195  38.304  1.00  0.00     0.124 S 
ATOM     59  O   UNL A   1      47.162  24.902  37.630  1.00  0.00    -0.237 OA
ATOM     60  O   UNL A   1      48.305  27.052  38.075  1.00  0.00    -0.237 OA
ATOM     61  O   UNL A   1      46.647  26.185  39.676  1.00  0.00    -0.744 OA
ENDBRANCH  57  58
ENDBRANCH  25  50
BRANCH  37  62
ATOM     62  C   UNL A   1      40.325  34.309  37.241  1.00  0.00     0.058 A 
ATOM     63  C   UNL A   1      39.436  34.247  38.326  1.00  0.00     0.135 A 
ATOM     64  C   UNL A   1      41.310  35.309  37.250  1.00  0.00     0.135 A 
ATOM     65  F   UNL A   1      38.474  33.311  38.359  1.00  0.00    -0.206 F 
ATOM     66  C   UNL A   1      39.500  35.165  39.367  1.00  0.00     0.059 A 
ATOM     67  C   UNL A   1      41.409  36.220  38.296  1.00  0.00     0.059 A 
ATOM     68  F   UNL A   1      42.190  35.401  36.241  1.00  0.00    -0.206 F 
ATOM     69  C   UNL A   1      40.489  36.151  39.341  1.00  0.00     0.060 A 
BRANCH  69  70
ATOM     70  S   UNL A   1      40.572  37.328  40.706  1.00  0.00     0.124 S 
ATOM     71  O   UNL A   1      41.578  36.711  41.564  1.00  0.00    -0.237 OA
ATOM     72  O   UNL A   1      40.980  38.559  40.035  1.00  0.00    -0.237 OA
ATOM     73  O   UNL A   1      39.211  37.331  41.234  1.00  0.00    -0.744 OA
ENDBRANCH  69  70
ENDBRANCH  37  62
ENDBRANCH  11  12
ENDBRANCH   4   6
ENDBRANCH   3   4
ENDBRANCH   2   3
ENDBRANCH   1   2
BRANCH   1  74
ATOM     74  O   UNL A   1      39.087  21.918  26.369  1.00  0.00    -0.374 OA
BRANCH  74  75
ATOM     75  C   UNL A   1      38.176  21.398  25.410  1.00  0.00     0.202 C 
BRANCH  75  76
ATOM     76  C   UNL A   1      37.226  22.504  24.958  1.00  0.00     0.261 C 
BRANCH  76  77
ATOM     77  O   UNL A   1      36.029  21.892  24.446  1.00  0.00    -0.460 OA
BRANCH  77  78
ATOM     78  C   UNL A   1      35.127  21.454  25.374  1.00  0.00     0.340 C 
ATOM     79  O   UNL A   1      35.087  21.791  26.543  1.00  0.00    -0.246 OA
BRANCH  78  80
ATOM     80  C   UNL A   1      34.156  20.567  24.668  1.00  0.00     0.084 A 
ATOM     81  C   UNL A   1      34.381  19.178  24.737  1.00  0.00     0.033 A 
ATOM     82  C   UNL A   1      33.051  21.069  23.937  1.00  0.00     0.051 A 
ATOM     83  C   UNL A   1      33.564  18.297  24.043  1.00  0.00     0.018 A 
ATOM     84  C   UNL A   1      32.239  20.149  23.254  1.00  0.00     0.028 A 
ATOM     85  Br  UNL A   1      33.911  16.441  24.119  1.00  0.00    -0.051 Br
ATOM     86  C   UNL A   1      32.502  18.777  23.289  1.00  0.00     0.018 A 
BRANCH  82  87
ATOM     87  N   UNL A   1      32.731  22.435  23.874  1.00  0.00    -0.370 N 
ATOM     88  C   UNL A   1      33.152  23.406  22.911  1.00  0.00     0.125 C 
ATOM     89  C   UNL A   1      31.503  23.129  24.140  1.00  0.00     0.125 C 
ATOM     90  C   UNL A   1      32.221  24.411  23.640  1.00  0.00     0.005 C 
ATOM     91  C   UNL A   1      31.426  25.365  22.745  1.00  0.00     0.011 C 
ATOM     92  C   UNL A   1      32.890  25.192  24.786  1.00  0.00     0.011 C 
ATOM     93  C   UNL A   1      32.356  26.440  22.169  1.00  0.00     0.001 C 
ATOM     94  C   UNL A   1      33.845  26.218  24.200  1.00  0.00     0.001 C 
ATOM     95  C   UNL A   1      33.128  27.183  23.261  1.00  0.00     0.000 C 
ENDBRANCH  82  87
ENDBRANCH  78  80
ENDBRANCH  77  78
ENDBRANCH  76  77
ENDBRANCH  75  76
ENDBRANCH  74  75
ENDBRANCH   1  74
TORSDOF 18
ENDMDL
MODEL 2
REMARK VINA RESULT:     -11.2      1.069      8.334
REMARK SMILES O=C(OCCOCCOC(=O)c1cc(Br)ccc1N1CC2(CCCCC2)C1)c1ccc(-c2c3nc(c(-c4c(F)cc(S(=O)(=O)[O-])cc4F)c4ccc([nH]4)c(-c4c(F)cc(S(=O)(=O)[O-])cc4F)c4nc(c(-c5c(F)cc(S(=O)(=O)[O-])cc5F)c5ccc2[nH]5)C=C4)C=C3)cc1
REMARK SMILES IDX 5 1 4 2 3 3 2 4 1 5 28 6 29 7 93 8 30 9 92 10 31 11 32 12
REMARK SMILES IDX 33 13 86 14 34 15 91 16 85 17 87 18 35 19 90 20 84 21 83 22
REMARK SMILES IDX 36 24 70 25 49 26 69 27 50 28 53 29 68 30 88 31 51 32 52 33
REMARK SMILES IDX 67 35 89 36 54 37 37 38 38 39 47 40 39 41 40 42 46 43 48 44
REMARK SMILES IDX 41 45 42 46 43 47 44 48 45 49 71 50 72 51 81 52 73 53 74 54
REMARK SMILES IDX 80 55 82 56 75 57 76 58 77 59 78 60 79 61 55 62 56 63 65 64
REMARK SMILES IDX 57 65 58 66 64 67 66 68 59 69 60 70 61 71 62 72 63 73 6 74
REMARK SMILES IDX 7 75 8 76 9 77 10 78 11 79 12 80 13 81 18 82 14 83 17 84
REMARK SMILES IDX 15 85 16 86 19 87 20 88 27 89 21 90 22 91 26 92 23 93 25 94
REMARK SMILES IDX 24 95
REMARK H PARENT 87 23 53 34
REMARK Flexibility Score: inf
ROOT
ATOM      1  C   UNL A   1      41.218  21.369  26.180  1.00  0.00     0.202 C 
ENDROOT
BRANCH   1   2
ATOM      2  C   UNL A   1      42.154  22.563  25.977  1.00  0.00     0.261 C 
BRANCH   2   3
ATOM      3  O   UNL A   1      41.370  23.775  26.048  1.00  0.00    -0.460 OA
BRANCH   3   4
ATOM      4  C   UNL A   1      41.823  25.050  26.058  1.00  0.00     0.338 C 
ATOM      5  O   UNL A   1      42.278  25.542  25.028  1.00  0.00    -0.246 OA
BRANCH   4   6
ATOM      6  C   UNL A   1      41.633  25.938  27.234  1.00  0.00     0.060 A 
ATOM      7  C   UNL A   1      42.243  27.179  27.358  1.00  0.00     0.016 A 
ATOM      8  C   UNL A   1      40.686  25.565  28.200  1.00  0.00     0.016 A 
ATOM      9  C   UNL A   1      41.977  27.999  28.444  1.00  0.00     0.010 A 
ATOM     10  C   UNL A   1      40.381  26.417  29.274  1.00  0.00     0.010 A 
ATOM     11  C   UNL A   1      41.039  27.645  29.410  1.00  0.00    -0.014 A 
BRANCH  11  12
ATOM     12  C   UNL A   1      40.848  28.570  30.556  1.00  0.00     0.031 A 
ATOM     13  C   UNL A   1      41.838  28.556  31.685  1.00  0.00     0.074 A 
ATOM     14  C   UNL A   1      39.895  29.525  30.500  1.00  0.00     0.049 A 
ATOM     15  N   UNL A   1      41.815  29.221  32.809  1.00  0.00    -0.248 NA
ATOM     16  C   UNL A   1      43.012  27.682  31.527  1.00  0.00     0.031 C 
ATOM     17  C   UNL A   1      38.948  29.710  29.394  1.00  0.00     0.029 A 
ATOM     18  N   UNL A   1      39.596  30.555  31.356  1.00  0.00    -0.354 N 
ATOM     19  C   UNL A   1      42.941  28.810  33.514  1.00  0.00     0.074 A 
ATOM     20  C   UNL A   1      43.628  27.841  32.690  1.00  0.00     0.031 C 
ATOM     21  C   UNL A   1      38.235  30.826  29.601  1.00  0.00     0.029 A 
ATOM     22  C   UNL A   1      38.581  31.371  30.907  1.00  0.00     0.049 A 
ATOM     23  H   UNL A   1      40.063  30.697  32.211  1.00  0.00     0.167 HD
ATOM     24  C   UNL A   1      43.349  29.204  34.743  1.00  0.00     0.037 A 
ATOM     25  C   UNL A   1      37.964  32.411  31.502  1.00  0.00     0.037 A 
ATOM     26  C   UNL A   1      42.662  30.195  35.529  1.00  0.00     0.049 A 
ATOM     27  C   UNL A   1      38.401  32.790  32.892  1.00  0.00     0.074 A 
ATOM     28  C   UNL A   1      42.922  30.607  36.823  1.00  0.00     0.029 A 
ATOM     29  N   UNL A   1      41.588  30.951  35.077  1.00  0.00    -0.354 N 
ATOM     30  N   UNL A   1      39.380  32.290  33.612  1.00  0.00    -0.248 NA
ATOM     31  C   UNL A   1      37.637  33.846  33.566  1.00  0.00     0.031 C 
ATOM     32  C   UNL A   1      41.987  31.591  37.164  1.00  0.00     0.029 A 
ATOM     33  C   UNL A   1      41.174  31.826  36.066  1.00  0.00     0.049 A 
ATOM     34  H   UNL A   1      41.181  30.874  34.184  1.00  0.00     0.167 HD
ATOM     35  C   UNL A   1      39.341  32.964  34.826  1.00  0.00     0.074 A 
ATOM     36  C   UNL A   1      38.273  33.938  34.725  1.00  0.00     0.031 C 
ATOM     37  C   UNL A   1      40.105  32.784  35.931  1.00  0.00     0.037 A 
BRANCH  24  38
ATOM     38  C   UNL A   1      44.550  28.514  35.326  1.00  0.00     0.058 A 
ATOM     39  C   UNL A   1      45.855  28.997  35.140  1.00  0.00     0.135 A 
ATOM     40  C   UNL A   1      44.389  27.339  36.079  1.00  0.00     0.135 A 
ATOM     41  F   UNL A   1      46.070  30.098  34.402  1.00  0.00    -0.206 F 
ATOM     42  C   UNL A   1      46.958  28.328  35.662  1.00  0.00     0.059 A 
ATOM     43  C   UNL A   1      45.476  26.667  36.631  1.00  0.00     0.059 A 
ATOM     44  F   UNL A   1      43.165  26.826  36.278  1.00  0.00    -0.206 F 
ATOM     45  C   UNL A   1      46.758  27.162  36.404  1.00  0.00     0.060 A 
BRANCH  45  46
ATOM     46  S   UNL A   1      48.200  26.300  37.068  1.00  0.00     0.124 S 
ATOM     47  O   UNL A   1      48.249  26.822  38.431  1.00  0.00    -0.237 OA
ATOM     48  O   UNL A   1      47.812  24.900  36.940  1.00  0.00    -0.237 OA
ATOM     49  O   UNL A   1      49.287  26.730  36.193  1.00  0.00    -0.744 OA
ENDBRANCH  45  46
ENDBRANCH  24  38
BRANCH  25  50
ATOM     50  C   UNL A   1      36.814  33.094  30.840  1.00  0.00     0.058 A 
ATOM     51  C   UNL A   1      37.001  34.036  29.818  1.00  0.00     0.135 A 
ATOM     52  C   UNL A   1      35.492  32.831  31.240  1.00  0.00     0.135 A 
ATOM     53  F   UNL A   1      38.242  34.341  29.405  1.00  0.00    -0.206 F 
ATOM     54  C   UNL A   1      35.927  34.706  29.232  1.00  0.00     0.059 A 
ATOM     55  C   UNL A   1      34.402  33.455  30.643  1.00  0.00     0.059 A 
ATOM     56  F   UNL A   1      35.247  31.937  32.211  1.00  0.00    -0.206 F 
ATOM     57  C   UNL A   1      34.630  34.407  29.653  1.00  0.00     0.060 A 
BRANCH  57  58
ATOM     58  S   UNL A   1      33.237  35.259  28.882  1.00  0.00     0.124 S 
ATOM     59  O   UNL A   1      32.704  34.220  28.008  1.00  0.00    -0.237 OA
ATOM     60  O   UNL A   1      32.412  35.611  30.034  1.00  0.00    -0.237 OA
ATOM     61  O   UNL A   1      33.869  36.389  28.207  1.00  0.00    -0.744 OA
ENDBRANCH  57  58
ENDBRANCH  25  50
BRANCH  37  62
ATOM     62  C   UNL A   1      39.816  33.675  37.105  1.00  0.00     0.058 A 
ATOM     63  C   UNL A   1      40.427  34.932  37.241  1.00  0.00     0.135 A 
ATOM     64  C   UNL A   1      38.897  33.279  38.089  1.00  0.00     0.135 A 
ATOM     65  F   UNL A   1      41.317  35.353  36.328  1.00  0.00    -0.206 F 
ATOM     66  C   UNL A   1      40.160  35.752  38.330  1.00  0.00     0.059 A 
ATOM     67  C   UNL A   1      38.595  34.096  39.172  1.00  0.00     0.059 A 
ATOM     68  F   UNL A   1      38.278  32.091  37.998  1.00  0.00    -0.206 F 
ATOM     69  C   UNL A   1      39.244  35.324  39.293  1.00  0.00     0.060 A 
BRANCH  69  70
ATOM     70  S   UNL A   1      38.894  36.404  40.695  1.00  0.00     0.124 S 
ATOM     71  O   UNL A   1      38.517  37.643  40.023  1.00  0.00    -0.237 OA
ATOM     72  O   UNL A   1      37.814  35.697  41.376  1.00  0.00    -0.237 OA
ATOM     73  O   UNL A   1      40.163  36.443  41.417  1.00  0.00    -0.744 OA
ENDBRANCH  69  70
ENDBRANCH  37  62
ENDBRANCH  11  12
ENDBRANCH   4   6
ENDBRANCH   3   4
ENDBRANCH   2   3
ENDBRANCH   1   2
BRANCH   1  74
ATOM     74  O   UNL A   1      39.945  21.863  26.575  1.00  0.00    -0.374 OA
BRANCH  74  75
ATOM     75  C   UNL A   1      38.821  21.458  25.805  1.00  0.00     0.202 C 
BRANCH  75  76
ATOM     76  C   UNL A   1      37.807  22.598  25.747  1.00  0.00     0.261 C 
BRANCH  76  77
ATOM     77  O   UNL A   1      36.486  22.032  25.801  1.00  0.00    -0.460 OA
BRANCH  77  78
ATOM     78  C   UNL A   1      35.729  22.150  24.671  1.00  0.00     0.340 C 
ATOM     79  O   UNL A   1      35.995  22.838  23.703  1.00  0.00    -0.246 OA
BRANCH  78  80
ATOM     80  C   UNL A   1      34.572  21.215  24.809  1.00  0.00     0.084 A 
ATOM     81  C   UNL A   1      34.825  19.842  24.617  1.00  0.00     0.033 A 
ATOM     82  C   UNL A   1      33.260  21.659  25.105  1.00  0.00     0.051 A 
ATOM     83  C   UNL A   1      33.786  18.923  24.655  1.00  0.00     0.018 A 
ATOM     84  C   UNL A   1      32.233  20.701  25.144  1.00  0.00     0.028 A 
ATOM     85  Br  UNL A   1      34.145  17.092  24.355  1.00  0.00    -0.051 Br
ATOM     86  C   UNL A   1      32.487  19.348  24.903  1.00  0.00     0.018 A 
BRANCH  82  87
ATOM     87  N   UNL A   1      32.945  23.002  25.367  1.00  0.00    -0.370 N 
ATOM     88  C   UNL A   1      32.277  23.942  24.520  1.00  0.00     0.125 C 
ATOM     89  C   UNL A   1      32.485  23.646  26.563  1.00  0.00     0.125 C 
ATOM     90  C   UNL A   1      32.344  24.936  25.710  1.00  0.00     0.005 C 
ATOM     91  C   UNL A   1      31.103  25.803  25.935  1.00  0.00     0.011 C 
ATOM     92  C   UNL A   1      33.614  25.806  25.751  1.00  0.00     0.011 C 
ATOM     93  C   UNL A   1      31.022  26.892  24.858  1.00  0.00     0.001 C 
ATOM     94  C   UNL A   1      33.541  26.847  24.647  1.00  0.00     0.001 C 
ATOM     95  C   UNL A   1      32.302  27.727  24.782  1.00  0.00     0.000 C 
ENDBRANCH  82  87
ENDBRANCH  78  80
ENDBRANCH  77  78
ENDBRANCH  76  77
ENDBRANCH  75  76
ENDBRANCH  74  75
ENDBRANCH   1  74
TORSDOF 18
ENDMDL
MODEL 3
REMARK VINA RESULT:     -11.2      7.073     12.391
REMARK SMILES O=C(OCCOCCOC(=O)c1cc(Br)ccc1N1CC2(CCCCC2)C1)c1ccc(-c2c3nc(c(-c4c(F)cc(S(=O)(=O)[O-])cc4F)c4ccc([nH]4)c(-c4c(F)cc(S(=O)(=O)[O-])cc4F)c4nc(c(-c5c(F)cc(S(=O)(=O)[O-])cc5F)c5ccc2[nH]5)C=C4)C=C3)cc1
REMARK SMILES IDX 5 1 4 2 3 3 2 4 1 5 28 6 29 7 93 8 30 9 92 10 31 11 32 12
REMARK SMILES IDX 33 13 86 14 34 15 91 16 85 17 87 18 35 19 90 20 84 21 83 22
REMARK SMILES IDX 36 24 70 25 49 26 69 27 50 28 53 29 68 30 88 31 51 32 52 33
REMARK SMILES IDX 67 35 89 36 54 37 37 38 38 39 47 40 39 41 40 42 46 43 48 44
REMARK SMILES IDX 41 45 42 46 43 47 44 48 45 49 71 50 72 51 81 52 73 53 74 54
REMARK SMILES IDX 80 55 82 56 75 57 76 58 77 59 78 60 79 61 55 62 56 63 65 64
REMARK SMILES IDX 57 65 58 66 64 67 66 68 59 69 60 70 61 71 62 72 63 73 6 74
REMARK SMILES IDX 7 75 8 76 9 77 10 78 11 79 12 80 13 81 18 82 14 83 17 84
REMARK SMILES IDX 15 85 16 86 19 87 20 88 27 89 21 90 22 91 26 92 23 93 25 94
REMARK SMILES IDX 24 95
REMARK H PARENT 87 23 53 34
REMARK Flexibility Score: inf
ROOT
ATOM      1  C   UNL A   1      34.655  32.894  28.544  1.00  0.00     0.202 C 
ENDROOT
BRANCH   1   2
ATOM      2  C   UNL A   1      34.879  32.197  29.888  1.00  0.00     0.261 C 
BRANCH   2   3
ATOM      3  O   UNL A   1      36.266  31.797  29.968  1.00  0.00    -0.460 OA
BRANCH   3   4
ATOM      4  C   UNL A   1      36.752  30.566  30.255  1.00  0.00     0.338 C 
ATOM      5  O   UNL A   1      36.007  29.712  30.730  1.00  0.00    -0.246 OA
BRANCH   4   6
ATOM      6  C   UNL A   1      38.123  30.155  29.854  1.00  0.00     0.060 A 
ATOM      7  C   UNL A   1      38.524  30.029  28.531  1.00  0.00     0.016 A 
ATOM      8  C   UNL A   1      39.095  30.023  30.857  1.00  0.00     0.016 A 
ATOM      9  C   UNL A   1      39.834  29.710  28.210  1.00  0.00     0.010 A 
ATOM     10  C   UNL A   1      40.433  29.749  30.529  1.00  0.00     0.010 A 
ATOM     11  C   UNL A   1      40.811  29.578  29.193  1.00  0.00    -0.014 A 
BRANCH  11  12
ATOM     12  C   UNL A   1      42.180  29.199  28.756  1.00  0.00     0.031 A 
ATOM     13  C   UNL A   1      42.431  27.809  28.249  1.00  0.00     0.074 A 
ATOM     14  C   UNL A   1      43.141  30.142  28.657  1.00  0.00     0.049 A 
ATOM     15  N   UNL A   1      43.559  27.252  27.895  1.00  0.00    -0.248 NA
ATOM     16  C   UNL A   1      41.259  26.928  28.118  1.00  0.00     0.031 C 
ATOM     17  C   UNL A   1      42.975  31.557  29.011  1.00  0.00     0.029 A 
ATOM     18  N   UNL A   1      44.426  30.077  28.180  1.00  0.00    -0.354 N 
ATOM     19  C   UNL A   1      43.242  25.944  27.547  1.00  0.00     0.074 A 
ATOM     20  C   UNL A   1      41.816  25.790  27.729  1.00  0.00     0.031 C 
ATOM     21  C   UNL A   1      44.080  32.234  28.666  1.00  0.00     0.029 A 
ATOM     22  C   UNL A   1      45.079  31.290  28.181  1.00  0.00     0.049 A 
ATOM     23  H   UNL A   1      44.842  29.242  27.866  1.00  0.00     0.167 HD
ATOM     24  C   UNL A   1      44.075  24.964  27.126  1.00  0.00     0.037 A 
ATOM     25  C   UNL A   1      46.355  31.600  27.874  1.00  0.00     0.037 A 
ATOM     26  C   UNL A   1      45.488  25.154  26.923  1.00  0.00     0.049 A 
ATOM     27  C   UNL A   1      47.273  30.480  27.463  1.00  0.00     0.074 A 
ATOM     28  C   UNL A   1      46.450  24.217  26.594  1.00  0.00     0.029 A 
ATOM     29  N   UNL A   1      46.136  26.380  27.008  1.00  0.00    -0.354 N 
ATOM     30  N   UNL A   1      46.992  29.210  27.281  1.00  0.00    -0.248 NA
ATOM     31  C   UNL A   1      48.684  30.821  27.249  1.00  0.00     0.031 C 
ATOM     32  C   UNL A   1      47.684  24.871  26.507  1.00  0.00     0.029 A 
ATOM     33  C   UNL A   1      47.483  26.223  26.736  1.00  0.00     0.049 A 
ATOM     34  H   UNL A   1      45.700  27.234  27.229  1.00  0.00     0.167 HD
ATOM     35  C   UNL A   1      48.192  28.600  26.940  1.00  0.00     0.074 A 
ATOM     36  C   UNL A   1      49.193  29.648  26.898  1.00  0.00     0.031 C 
ATOM     37  C   UNL A   1      48.452  27.291  26.702  1.00  0.00     0.037 A 
BRANCH  24  38
ATOM     38  C   UNL A   1      43.486  23.596  26.925  1.00  0.00     0.058 A 
ATOM     39  C   UNL A   1      43.166  22.753  28.001  1.00  0.00     0.135 A 
ATOM     40  C   UNL A   1      43.246  23.118  25.626  1.00  0.00     0.135 A 
ATOM     41  F   UNL A   1      43.404  23.146  29.262  1.00  0.00    -0.206 F 
ATOM     42  C   UNL A   1      42.649  21.477  27.795  1.00  0.00     0.059 A 
ATOM     43  C   UNL A   1      42.708  21.855  25.397  1.00  0.00     0.059 A 
ATOM     44  F   UNL A   1      43.545  23.877  24.560  1.00  0.00    -0.206 F 
ATOM     45  C   UNL A   1      42.426  21.036  26.488  1.00  0.00     0.060 A 
BRANCH  45  46
ATOM     46  S   UNL A   1      41.763  19.375  26.237  1.00  0.00     0.124 S 
ATOM     47  O   UNL A   1      42.203  18.699  27.453  1.00  0.00    -0.237 OA
ATOM     48  O   UNL A   1      40.329  19.625  26.136  1.00  0.00    -0.237 OA
ATOM     49  O   UNL A   1      42.408  18.933  25.005  1.00  0.00    -0.744 OA
ENDBRANCH  45  46
ENDBRANCH  24  38
BRANCH  25  50
ATOM     50  C   UNL A   1      46.861  32.994  28.038  1.00  0.00     0.058 A 
ATOM     51  C   UNL A   1      47.449  33.433  29.234  1.00  0.00     0.135 A 
ATOM     52  C   UNL A   1      46.744  33.930  26.996  1.00  0.00     0.135 A 
ATOM     53  F   UNL A   1      47.573  32.588  30.270  1.00  0.00    -0.206 F 
ATOM     54  C   UNL A   1      47.879  34.748  29.399  1.00  0.00     0.059 A 
ATOM     55  C   UNL A   1      47.202  35.237  27.122  1.00  0.00     0.059 A 
ATOM     56  F   UNL A   1      46.193  33.571  25.825  1.00  0.00    -0.206 F 
ATOM     57  C   UNL A   1      47.752  35.643  28.336  1.00  0.00     0.060 A 
BRANCH  57  58
ATOM     58  S   UNL A   1      48.327  37.343  28.542  1.00  0.00     0.124 S 
ATOM     59  O   UNL A   1      47.907  37.631  29.908  1.00  0.00    -0.237 OA
ATOM     60  O   UNL A   1      49.765  37.212  28.329  1.00  0.00    -0.237 OA
ATOM     61  O   UNL A   1      47.611  38.067  27.496  1.00  0.00    -0.744 OA
ENDBRANCH  57  58
ENDBRANCH  25  50
BRANCH  37  62
ATOM     62  C   UNL A   1      49.870  26.934  26.359  1.00  0.00     0.058 A 
ATOM     63  C   UNL A   1      50.825  26.679  27.356  1.00  0.00     0.135 A 
ATOM     64  C   UNL A   1      50.269  26.818  25.018  1.00  0.00     0.135 A 
ATOM     65  F   UNL A   1      50.493  26.782  28.652  1.00  0.00    -0.206 F 
ATOM     66  C   UNL A   1      52.137  26.352  27.035  1.00  0.00     0.059 A 
ATOM     67  C   UNL A   1      51.569  26.465  24.675  1.00  0.00     0.059 A 
ATOM     68  F   UNL A   1      49.389  27.040  24.029  1.00  0.00    -0.206 F 
ATOM     69  C   UNL A   1      52.500  26.251  25.690  1.00  0.00     0.060 A 
BRANCH  69  70
ATOM     70  S   UNL A   1      54.202  25.811  25.285  1.00  0.00     0.124 S 
ATOM     71  O   UNL A   1      54.208  25.968  23.834  1.00  0.00    -0.237 OA
ATOM     72  O   UNL A   1      54.970  26.802  26.034  1.00  0.00    -0.237 OA
ATOM     73  O   UNL A   1      54.322  24.438  25.769  1.00  0.00    -0.744 OA
ENDBRANCH  69  70
ENDBRANCH  37  62
ENDBRANCH  11  12
ENDBRANCH   4   6
ENDBRANCH   3   4
ENDBRANCH   2   3
ENDBRANCH   1   2
BRANCH   1  74
ATOM     74  O   UNL A   1      34.705  31.911  27.519  1.00  0.00    -0.374 OA
BRANCH  74  75
ATOM     75  C   UNL A   1      33.672  30.935  27.498  1.00  0.00     0.202 C 
BRANCH  75  76
ATOM     76  C   UNL A   1      34.231  29.612  26.984  1.00  0.00     0.261 C 
BRANCH  76  77
ATOM     77  O   UNL A   1      33.514  29.251  25.790  1.00  0.00    -0.460 OA
BRANCH  77  78
ATOM     78  C   UNL A   1      32.468  28.388  25.947  1.00  0.00     0.340 C 
ATOM     79  O   UNL A   1      32.230  27.730  26.943  1.00  0.00    -0.246 OA
BRANCH  78  80
ATOM     80  C   UNL A   1      31.629  28.475  24.715  1.00  0.00     0.084 A 
ATOM     81  C   UNL A   1      30.783  29.595  24.586  1.00  0.00     0.033 A 
ATOM     82  C   UNL A   1      31.647  27.482  23.705  1.00  0.00     0.051 A 
ATOM     83  C   UNL A   1      29.920  29.705  23.505  1.00  0.00     0.018 A 
ATOM     84  C   UNL A   1      30.767  27.629  22.620  1.00  0.00     0.028 A 
ATOM     85  Br  UNL A   1      28.768  31.197  23.376  1.00  0.00    -0.051 Br
ATOM     86  C   UNL A   1      29.897  28.719  22.528  1.00  0.00     0.018 A 
BRANCH  82  87
ATOM     87  N   UNL A   1      32.505  26.372  23.737  1.00  0.00    -0.370 N 
ATOM     88  C   UNL A   1      32.195  25.014  24.068  1.00  0.00     0.125 C 
ATOM     89  C   UNL A   1      33.583  25.987  22.871  1.00  0.00     0.125 C 
ATOM     90  C   UNL A   1      33.663  24.675  23.697  1.00  0.00     0.005 C 
ATOM     91  C   UNL A   1      33.880  23.367  22.931  1.00  0.00     0.011 C 
ATOM     92  C   UNL A   1      34.662  24.779  24.864  1.00  0.00     0.011 C 
ATOM     93  C   UNL A   1      33.703  22.172  23.875  1.00  0.00     0.001 C 
ATOM     94  C   UNL A   1      34.440  23.615  25.816  1.00  0.00     0.001 C 
ATOM     95  C   UNL A   1      34.600  22.272  25.111  1.00  0.00     0.000 C 
ENDBRANCH  82  87
ENDBRANCH  78  80
ENDBRANCH  77  78
ENDBRANCH  76  77
ENDBRANCH  75  76
ENDBRANCH  74  75
ENDBRANCH   1  74
TORSDOF 18
ENDMDL
