MODEL 1
REMARK VINA RESULT:     -10.4      0.000      0.000
REMARK SMILES CC[C@](C)([NH2+]CC(=O)Nc1c(Cl)ccc(C)c1Cl)C(=O)OCCOCCOC(=O)c1ccc(-c2c3nc(c(-c4c(F)cc(S(=O)(=O)[O-])cc4F)c4ccc([nH]4)c(-c4c(F)cc(S(=O)(=O)[O-])cc4F)c4nc(c(-c5c(F)cc(S(=O)(=O)[O-])cc5F)c5ccc2[nH]5)C=C4)C=C3)cc1
REMARK SMILES IDX 23 1 22 2 21 3 19 4 20 5 3 6 4 7 2 8 1 9 5 10 6 13 7 14 8 15
REMARK SMILES IDX 9 16 10 18 11 19 17 20 12 21 13 22 15 23 18 24 14 25 16 26
REMARK SMILES IDX 24 27 25 28 26 29 27 30 28 31 29 32 30 33 31 34 95 35 32 36
REMARK SMILES IDX 94 37 33 38 34 39 35 40 88 41 36 42 93 43 87 44 89 45 37 46
REMARK SMILES IDX 92 47 86 48 85 49 38 51 72 52 51 53 71 54 52 55 55 56 70 57
REMARK SMILES IDX 90 58 53 59 54 60 69 62 91 63 56 64 39 65 40 66 49 67 41 68
REMARK SMILES IDX 42 69 48 70 50 71 43 72 44 73 45 74 46 75 47 76 73 77 74 78
REMARK SMILES IDX 83 79 75 80 76 81 82 82 84 83 77 84 78 85 79 86 80 87 81 88
REMARK SMILES IDX 57 89 58 90 67 91 59 92 60 93 66 94 68 95 61 96 62 97 63 98
REMARK SMILES IDX 64 99 65 100
REMARK H PARENT 5 11 5 12 9 17 89 50 55 61
REMARK Flexibility Score: inf
ROOT
ATOM      1  C   UNL A   1      31.782  28.862  27.483  1.00  0.00     0.202 C 
ENDROOT
BRANCH   1   2
ATOM      2  C   UNL A   1      32.321  27.571  26.873  1.00  0.00     0.261 C 
BRANCH   2   3
ATOM      3  O   UNL A   1      31.971  27.418  25.489  1.00  0.00    -0.459 OA
BRANCH   3   4
ATOM      4  C   UNL A   1      32.862  26.916  24.579  1.00  0.00     0.367 C 
ATOM      5  O   UNL A   1      34.033  27.267  24.512  1.00  0.00    -0.245 OA
BRANCH   4   6
ATOM      6  C   UNL A   1      32.243  25.724  23.748  1.00  0.00     0.191 C 
ATOM      7  C   UNL A   1      33.492  24.899  23.332  1.00  0.00     0.092 C 
BRANCH   6   8
ATOM      8  C   UNL A   1      31.503  26.061  22.433  1.00  0.00     0.077 C 
ATOM      9  C   UNL A   1      30.677  27.358  22.398  1.00  0.00     0.011 C 
ENDBRANCH   6   8
BRANCH   6  10
ATOM     10  N   UNL A   1      31.306  24.960  24.589  1.00  0.00    -0.325 N 
ATOM     11  H   UNL A   1      30.376  25.345  24.420  1.00  0.00     0.347 HD
ATOM     12  H   UNL A   1      31.693  25.066  25.527  1.00  0.00     0.347 HD
BRANCH  10  13
ATOM     13  C   UNL A   1      31.196  23.479  24.429  1.00  0.00     0.363 C 
BRANCH  13  14
ATOM     14  C   UNL A   1      31.108  22.484  25.618  1.00  0.00     0.279 C 
ATOM     15  O   UNL A   1      30.074  22.521  26.308  1.00  0.00    -0.268 OA
ATOM     16  N   UNL A   1      31.973  21.476  25.982  1.00  0.00    -0.319 N 
ATOM     17  H   UNL A   1      31.585  20.893  26.672  1.00  0.00     0.170 HD
BRANCH  16  18
ATOM     18  C   UNL A   1      33.281  21.063  25.614  1.00  0.00     0.079 A 
ATOM     19  C   UNL A   1      34.425  21.774  26.039  1.00  0.00     0.066 A 
ATOM     20  C   UNL A   1      33.527  19.758  25.145  1.00  0.00     0.069 A 
ATOM     21  Cl  UNL A   1      34.379  22.969  27.298  1.00  0.00    -0.082 Cl
ATOM     22  C   UNL A   1      35.707  21.429  25.596  1.00  0.00     0.023 A 
ATOM     23  C   UNL A   1      34.837  19.333  24.799  1.00  0.00    -0.030 A 
ATOM     24  Cl  UNL A   1      32.214  18.626  25.087  1.00  0.00    -0.082 Cl
ATOM     25  C   UNL A   1      35.905  20.228  24.933  1.00  0.00     0.006 A 
ATOM     26  C   UNL A   1      35.173  17.925  24.389  1.00  0.00     0.046 C 
ENDBRANCH  16  18
ENDBRANCH  13  14
ENDBRANCH  10  13
ENDBRANCH   6  10
ENDBRANCH   4   6
ENDBRANCH   3   4
ENDBRANCH   2   3
ENDBRANCH   1   2
BRANCH   1  27
ATOM     27  O   UNL A   1      32.437  30.077  27.140  1.00  0.00    -0.374 OA
BRANCH  27  28
ATOM     28  C   UNL A   1      33.837  30.032  26.898  1.00  0.00     0.202 C 
BRANCH  28  29
ATOM     29  C   UNL A   1      34.803  30.408  28.030  1.00  0.00     0.261 C 
BRANCH  29  30
ATOM     30  O   UNL A   1      35.644  29.340  28.488  1.00  0.00    -0.460 OA
BRANCH  30  31
ATOM     31  C   UNL A   1      36.324  29.636  29.625  1.00  0.00     0.338 C 
ATOM     32  O   UNL A   1      35.879  29.679  30.756  1.00  0.00    -0.246 OA
BRANCH  31  33
ATOM     33  C   UNL A   1      37.768  29.759  29.350  1.00  0.00     0.060 A 
ATOM     34  C   UNL A   1      38.159  29.784  28.006  1.00  0.00     0.016 A 
ATOM     35  C   UNL A   1      38.718  29.699  30.371  1.00  0.00     0.016 A 
ATOM     36  C   UNL A   1      39.503  29.662  27.672  1.00  0.00     0.010 A 
ATOM     37  C   UNL A   1      40.070  29.571  30.034  1.00  0.00     0.010 A 
ATOM     38  C   UNL A   1      40.458  29.494  28.683  1.00  0.00    -0.014 A 
BRANCH  38  39
ATOM     39  C   UNL A   1      41.816  29.028  28.309  1.00  0.00     0.031 A 
ATOM     40  C   UNL A   1      42.948  30.022  28.318  1.00  0.00     0.074 A 
ATOM     41  C   UNL A   1      42.047  27.733  28.038  1.00  0.00     0.049 A 
ATOM     42  N   UNL A   1      44.213  29.843  28.042  1.00  0.00    -0.248 NA
ATOM     43  C   UNL A   1      42.606  31.405  28.693  1.00  0.00     0.031 C 
ATOM     44  C   UNL A   1      41.038  26.674  28.053  1.00  0.00     0.029 A 
ATOM     45  N   UNL A   1      43.209  27.086  27.704  1.00  0.00    -0.354 N 
ATOM     46  C   UNL A   1      44.815  31.088  28.197  1.00  0.00     0.074 A 
ATOM     47  C   UNL A   1      43.770  32.020  28.559  1.00  0.00     0.031 C 
ATOM     48  C   UNL A   1      41.627  25.507  27.743  1.00  0.00     0.029 A 
ATOM     49  C   UNL A   1      43.044  25.741  27.474  1.00  0.00     0.049 A 
ATOM     50  H   UNL A   1      44.079  27.542  27.635  1.00  0.00     0.167 HD
ATOM     51  C   UNL A   1      46.121  31.420  28.059  1.00  0.00     0.037 A 
ATOM     52  C   UNL A   1      43.936  24.813  27.078  1.00  0.00     0.037 A 
ATOM     53  C   UNL A   1      47.153  30.481  27.702  1.00  0.00     0.049 A 
ATOM     54  C   UNL A   1      45.371  25.220  26.861  1.00  0.00     0.074 A 
ATOM     55  C   UNL A   1      48.509  30.707  27.552  1.00  0.00     0.029 A 
ATOM     56  N   UNL A   1      46.939  29.136  27.432  1.00  0.00    -0.354 N 
ATOM     57  N   UNL A   1      45.930  26.395  27.027  1.00  0.00    -0.248 NA
ATOM     58  C   UNL A   1      46.295  24.173  26.407  1.00  0.00     0.031 C 
ATOM     59  C   UNL A   1      49.106  29.513  27.132  1.00  0.00     0.029 A 
ATOM     60  C   UNL A   1      48.134  28.526  27.085  1.00  0.00     0.049 A 
ATOM     61  H   UNL A   1      46.066  28.681  27.479  1.00  0.00     0.167 HD
ATOM     62  C   UNL A   1      47.280  26.221  26.732  1.00  0.00     0.074 A 
ATOM     63  C   UNL A   1      47.450  24.824  26.387  1.00  0.00     0.031 C 
ATOM     64  C   UNL A   1      48.287  27.131  26.751  1.00  0.00     0.037 A 
BRANCH  51  65
ATOM     65  C   UNL A   1      46.499  32.865  28.257  1.00  0.00     0.058 A 
ATOM     66  C   UNL A   1      46.863  33.377  29.513  1.00  0.00     0.135 A 
ATOM     67  C   UNL A   1      46.511  33.749  27.166  1.00  0.00     0.135 A 
ATOM     68  F   UNL A   1      46.852  32.583  30.596  1.00  0.00    -0.206 F 
ATOM     69  C   UNL A   1      47.192  34.718  29.686  1.00  0.00     0.059 A 
ATOM     70  C   UNL A   1      46.868  35.086  27.309  1.00  0.00     0.059 A 
ATOM     71  F   UNL A   1      46.171  33.317  25.941  1.00  0.00    -0.206 F 
ATOM     72  C   UNL A   1      47.189  35.566  28.578  1.00  0.00     0.060 A 
BRANCH  72  73
ATOM     73  S   UNL A   1      47.611  37.306  28.819  1.00  0.00     0.124 S 
ATOM     74  O   UNL A   1      48.205  37.279  30.151  1.00  0.00    -0.237 OA
ATOM     75  O   UNL A   1      48.534  37.557  27.717  1.00  0.00    -0.237 OA
ATOM     76  O   UNL A   1      46.322  37.986  28.721  1.00  0.00    -0.744 OA
ENDBRANCH  72  73
ENDBRANCH  51  65
BRANCH  52  77
ATOM     77  C   UNL A   1      43.500  23.406  26.863  1.00  0.00     0.058 A 
ATOM     78  C   UNL A   1      43.374  22.876  25.571  1.00  0.00     0.135 A 
ATOM     79  C   UNL A   1      43.204  22.562  27.945  1.00  0.00     0.135 A 
ATOM     80  F   UNL A   1      43.634  23.645  24.501  1.00  0.00    -0.206 F 
ATOM     81  C   UNL A   1      42.955  21.567  25.357  1.00  0.00     0.059 A 
ATOM     82  C   UNL A   1      42.811  21.241  27.758  1.00  0.00     0.059 A 
ATOM     83  F   UNL A   1      43.319  23.016  29.204  1.00  0.00    -0.206 F 
ATOM     84  C   UNL A   1      42.681  20.755  26.458  1.00  0.00     0.060 A 
BRANCH  84  85
ATOM     85  S   UNL A   1      42.185  19.043  26.169  1.00  0.00     0.124 S 
ATOM     86  O   UNL A   1      42.414  18.444  27.480  1.00  0.00    -0.237 OA
ATOM     87  O   UNL A   1      40.788  19.193  25.772  1.00  0.00    -0.237 OA
ATOM     88  O   UNL A   1      43.087  18.605  25.109  1.00  0.00    -0.744 OA
ENDBRANCH  84  85
ENDBRANCH  52  77
BRANCH  64  89
ATOM     89  C   UNL A   1      49.673  26.636  26.433  1.00  0.00     0.058 A 
ATOM     90  C   UNL A   1      50.454  25.953  27.378  1.00  0.00     0.135 A 
ATOM     91  C   UNL A   1      50.210  26.816  25.147  1.00  0.00     0.135 A 
ATOM     92  F   UNL A   1      49.993  25.756  28.622  1.00  0.00    -0.206 F 
ATOM     93  C   UNL A   1      51.733  25.498  27.071  1.00  0.00     0.059 A 
ATOM     94  C   UNL A   1      51.473  26.339  24.808  1.00  0.00     0.059 A 
ATOM     95  F   UNL A   1      49.501  27.450  24.200  1.00  0.00    -0.206 F 
ATOM     96  C   UNL A   1      52.234  25.696  25.782  1.00  0.00     0.060 A 
BRANCH  96  97
ATOM     97  S   UNL A   1      53.887  25.085  25.391  1.00  0.00     0.124 S 
ATOM     98  O   UNL A   1      54.053  25.547  24.017  1.00  0.00    -0.237 OA
ATOM     99  O   UNL A   1      54.712  25.755  26.390  1.00  0.00    -0.237 OA
ATOM    100  O   UNL A   1      53.763  23.639  25.557  1.00  0.00    -0.744 OA
ENDBRANCH  96  97
ENDBRANCH  64  89
ENDBRANCH  38  39
ENDBRANCH  31  33
ENDBRANCH  30  31
ENDBRANCH  29  30
ENDBRANCH  28  29
ENDBRANCH  27  28
ENDBRANCH   1  27
TORSDOF 22
ENDMDL
MODEL 2
REMARK VINA RESULT:     -10.3      6.585     11.380
REMARK SMILES CC[C@](C)([NH2+]CC(=O)Nc1c(Cl)ccc(C)c1Cl)C(=O)OCCOCCOC(=O)c1ccc(-c2c3nc(c(-c4c(F)cc(S(=O)(=O)[O-])cc4F)c4ccc([nH]4)c(-c4c(F)cc(S(=O)(=O)[O-])cc4F)c4nc(c(-c5c(F)cc(S(=O)(=O)[O-])cc5F)c5ccc2[nH]5)C=C4)C=C3)cc1
REMARK SMILES IDX 23 1 22 2 21 3 19 4 20 5 3 6 4 7 2 8 1 9 5 10 6 13 7 14 8 15
REMARK SMILES IDX 9 16 10 18 11 19 17 20 12 21 13 22 15 23 18 24 14 25 16 26
REMARK SMILES IDX 24 27 25 28 26 29 27 30 28 31 29 32 30 33 31 34 95 35 32 36
REMARK SMILES IDX 94 37 33 38 34 39 35 40 88 41 36 42 93 43 87 44 89 45 37 46
REMARK SMILES IDX 92 47 86 48 85 49 38 51 72 52 51 53 71 54 52 55 55 56 70 57
REMARK SMILES IDX 90 58 53 59 54 60 69 62 91 63 56 64 39 65 40 66 49 67 41 68
REMARK SMILES IDX 42 69 48 70 50 71 43 72 44 73 45 74 46 75 47 76 73 77 74 78
REMARK SMILES IDX 83 79 75 80 76 81 82 82 84 83 77 84 78 85 79 86 80 87 81 88
REMARK SMILES IDX 57 89 58 90 67 91 59 92 60 93 66 94 68 95 61 96 62 97 63 98
REMARK SMILES IDX 64 99 65 100
REMARK H PARENT 5 11 5 12 9 17 89 50 55 61
REMARK Flexibility Score: inf
ROOT
ATOM      1  C   UNL A   1      38.561  22.455  26.077  1.00  0.00     0.202 C 
ENDROOT
BRANCH   1   2
ATOM      2  C   UNL A   1      37.651  21.473  25.344  1.00  0.00     0.261 C 
BRANCH   2   3
ATOM      3  O   UNL A   1      36.315  21.449  25.870  1.00  0.00    -0.459 OA
BRANCH   3   4
ATOM      4  C   UNL A   1      35.298  22.135  25.264  1.00  0.00     0.367 C 
ATOM      5  O   UNL A   1      35.419  22.729  24.200  1.00  0.00    -0.245 OA
BRANCH   4   6
ATOM      6  C   UNL A   1      33.923  21.928  26.014  1.00  0.00     0.191 C 
ATOM      7  C   UNL A   1      34.358  21.695  27.488  1.00  0.00     0.092 C 
BRANCH   6   8
ATOM      8  C   UNL A   1      33.062  20.703  25.630  1.00  0.00     0.077 C 
ATOM      9  C   UNL A   1      33.658  19.709  24.619  1.00  0.00     0.011 C 
ENDBRANCH   6   8
BRANCH   6  10
ATOM     10  N   UNL A   1      33.077  23.123  25.848  1.00  0.00    -0.325 N 
ATOM     11  H   UNL A   1      32.516  22.972  25.010  1.00  0.00     0.347 HD
ATOM     12  H   UNL A   1      33.752  23.887  25.829  1.00  0.00     0.347 HD
BRANCH  10  13
ATOM     13  C   UNL A   1      32.133  23.525  26.934  1.00  0.00     0.363 C 
BRANCH  13  14
ATOM     14  C   UNL A   1      30.628  23.831  26.701  1.00  0.00     0.279 C 
ATOM     15  O   UNL A   1      29.810  23.155  27.350  1.00  0.00    -0.268 OA
ATOM     16  N   UNL A   1      30.043  24.823  25.946  1.00  0.00    -0.319 N 
ATOM     17  H   UNL A   1      29.076  24.889  26.116  1.00  0.00     0.170 HD
BRANCH  16  18
ATOM     18  C   UNL A   1      30.478  25.774  24.986  1.00  0.00     0.079 A 
ATOM     19  C   UNL A   1      30.947  27.050  25.372  1.00  0.00     0.066 A 
ATOM     20  C   UNL A   1      30.814  25.385  23.676  1.00  0.00     0.069 A 
ATOM     21  Cl  UNL A   1      31.364  27.444  27.011  1.00  0.00    -0.082 Cl
ATOM     22  C   UNL A   1      31.279  28.025  24.425  1.00  0.00     0.023 A 
ATOM     23  C   UNL A   1      31.271  26.330  22.719  1.00  0.00    -0.030 A 
ATOM     24  Cl  UNL A   1      30.761  23.701  23.261  1.00  0.00    -0.082 Cl
ATOM     25  C   UNL A   1      31.396  27.674  23.090  1.00  0.00     0.006 A 
ATOM     26  C   UNL A   1      31.739  25.956  21.339  1.00  0.00     0.046 C 
ENDBRANCH  16  18
ENDBRANCH  13  14
ENDBRANCH  10  13
ENDBRANCH   6  10
ENDBRANCH   4   6
ENDBRANCH   3   4
ENDBRANCH   2   3
ENDBRANCH   1   2
BRANCH   1  27
ATOM     27  O   UNL A   1      39.625  21.916  26.852  1.00  0.00    -0.374 OA
BRANCH  27  28
ATOM     28  C   UNL A   1      40.791  21.478  26.167  1.00  0.00     0.202 C 
BRANCH  28  29
ATOM     29  C   UNL A   1      41.983  22.437  26.034  1.00  0.00     0.261 C 
BRANCH  29  30
ATOM     30  O   UNL A   1      41.991  23.526  26.969  1.00  0.00    -0.460 OA
BRANCH  30  31
ATOM     31  C   UNL A   1      42.111  24.743  26.379  1.00  0.00     0.338 C 
ATOM     32  O   UNL A   1      42.470  24.975  25.241  1.00  0.00    -0.246 OA
BRANCH  31  33
ATOM     33  C   UNL A   1      41.587  25.801  27.263  1.00  0.00     0.060 A 
ATOM     34  C   UNL A   1      42.292  27.011  27.293  1.00  0.00     0.016 A 
ATOM     35  C   UNL A   1      40.531  25.567  28.145  1.00  0.00     0.016 A 
ATOM     36  C   UNL A   1      41.999  27.961  28.265  1.00  0.00     0.010 A 
ATOM     37  C   UNL A   1      40.241  26.521  29.125  1.00  0.00     0.010 A 
ATOM     38  C   UNL A   1      41.013  27.693  29.224  1.00  0.00    -0.014 A 
BRANCH  38  39
ATOM     39  C   UNL A   1      40.951  28.545  30.436  1.00  0.00     0.031 A 
ATOM     40  C   UNL A   1      39.889  29.611  30.515  1.00  0.00     0.074 A 
ATOM     41  C   UNL A   1      41.775  28.325  31.474  1.00  0.00     0.049 A 
ATOM     42  N   UNL A   1      39.634  30.461  31.475  1.00  0.00    -0.248 NA
ATOM     43  C   UNL A   1      38.990  29.731  29.354  1.00  0.00     0.031 C 
ATOM     44  C   UNL A   1      42.803  27.285  31.529  1.00  0.00     0.029 A 
ATOM     45  N   UNL A   1      41.872  28.960  32.685  1.00  0.00    -0.354 N 
ATOM     46  C   UNL A   1      38.559  31.224  31.032  1.00  0.00     0.074 A 
ATOM     47  C   UNL A   1      38.230  30.758  29.703  1.00  0.00     0.031 C 
ATOM     48  C   UNL A   1      43.427  27.354  32.717  1.00  0.00     0.029 A 
ATOM     49  C   UNL A   1      42.867  28.460  33.491  1.00  0.00     0.049 A 
ATOM     50  H   UNL A   1      41.283  29.702  32.953  1.00  0.00     0.167 HD
ATOM     51  C   UNL A   1      37.900  32.216  31.678  1.00  0.00     0.037 A 
ATOM     52  C   UNL A   1      43.284  28.864  34.706  1.00  0.00     0.037 A 
ATOM     53  C   UNL A   1      38.235  32.668  33.004  1.00  0.00     0.049 A 
ATOM     54  C   UNL A   1      42.583  30.017  35.377  1.00  0.00     0.074 A 
ATOM     55  C   UNL A   1      37.624  33.653  33.758  1.00  0.00     0.029 A 
ATOM     56  N   UNL A   1      39.280  32.168  33.769  1.00  0.00    -0.354 N 
ATOM     57  N   UNL A   1      41.557  30.718  34.955  1.00  0.00    -0.248 NA
ATOM     58  C   UNL A   1      43.093  30.430  36.690  1.00  0.00     0.031 C 
ATOM     59  C   UNL A   1      38.336  33.791  34.955  1.00  0.00     0.029 A 
ATOM     60  C   UNL A   1      39.351  32.847  34.975  1.00  0.00     0.049 A 
ATOM     61  H   UNL A   1      39.884  31.440  33.495  1.00  0.00     0.167 HD
ATOM     62  C   UNL A   1      41.276  31.632  35.967  1.00  0.00     0.074 A 
ATOM     63  C   UNL A   1      42.237  31.385  37.024  1.00  0.00     0.031 C 
ATOM     64  C   UNL A   1      40.310  32.583  36.021  1.00  0.00     0.037 A 
BRANCH  51  65
ATOM     65  C   UNL A   1      36.778  32.902  30.944  1.00  0.00     0.058 A 
ATOM     66  C   UNL A   1      35.428  32.623  31.213  1.00  0.00     0.135 A 
ATOM     67  C   UNL A   1      37.060  33.868  29.965  1.00  0.00     0.135 A 
ATOM     68  F   UNL A   1      35.098  31.696  32.127  1.00  0.00    -0.206 F 
ATOM     69  C   UNL A   1      34.401  33.251  30.515  1.00  0.00     0.059 A 
ATOM     70  C   UNL A   1      36.048  34.532  29.277  1.00  0.00     0.059 A 
ATOM     71  F   UNL A   1      38.331  34.176  29.664  1.00  0.00    -0.206 F 
ATOM     72  C   UNL A   1      34.721  34.203  29.547  1.00  0.00     0.060 A 
BRANCH  72  73
ATOM     73  S   UNL A   1      33.378  35.004  28.644  1.00  0.00     0.124 S 
ATOM     74  O   UNL A   1      32.825  33.883  27.891  1.00  0.00    -0.237 OA
ATOM     75  O   UNL A   1      32.540  35.517  29.723  1.00  0.00    -0.237 OA
ATOM     76  O   UNL A   1      34.060  36.019  27.846  1.00  0.00    -0.744 OA
ENDBRANCH  72  73
ENDBRANCH  51  65
BRANCH  52  77
ATOM     77  C   UNL A   1      44.422  28.172  35.370  1.00  0.00     0.058 A 
ATOM     78  C   UNL A   1      44.213  27.052  36.188  1.00  0.00     0.135 A 
ATOM     79  C   UNL A   1      45.744  28.613  35.197  1.00  0.00     0.135 A 
ATOM     80  F   UNL A   1      42.967  26.596  36.395  1.00  0.00    -0.206 F 
ATOM     81  C   UNL A   1      45.267  26.405  36.824  1.00  0.00     0.059 A 
ATOM     82  C   UNL A   1      46.818  27.965  35.798  1.00  0.00     0.059 A 
ATOM     83  F   UNL A   1      46.002  29.674  34.415  1.00  0.00    -0.206 F 
ATOM     84  C   UNL A   1      46.568  26.867  36.618  1.00  0.00     0.060 A 
BRANCH  84  85
ATOM     85  S   UNL A   1      47.933  25.989  37.410  1.00  0.00     0.124 S 
ATOM     86  O   UNL A   1      49.047  26.902  37.174  1.00  0.00    -0.237 OA
ATOM     87  O   UNL A   1      47.471  25.890  38.791  1.00  0.00    -0.237 OA
ATOM     88  O   UNL A   1      47.988  24.725  36.683  1.00  0.00    -0.744 OA
ENDBRANCH  84  85
ENDBRANCH  52  77
BRANCH  64  89
ATOM     89  C   UNL A   1      40.212  33.400  37.282  1.00  0.00     0.058 A 
ATOM     90  C   UNL A   1      39.300  33.088  38.302  1.00  0.00     0.135 A 
ATOM     91  C   UNL A   1      41.075  34.491  37.487  1.00  0.00     0.135 A 
ATOM     92  F   UNL A   1      38.450  32.059  38.158  1.00  0.00    -0.206 F 
ATOM     93  C   UNL A   1      39.221  33.849  39.464  1.00  0.00     0.059 A 
ATOM     94  C   UNL A   1      41.036  35.244  38.656  1.00  0.00     0.059 A 
ATOM     95  F   UNL A   1      41.976  34.826  36.550  1.00  0.00    -0.206 F 
ATOM     96  C   UNL A   1      40.094  34.926  39.632  1.00  0.00     0.060 A 
BRANCH  96  97
ATOM     97  S   UNL A   1      39.994  35.894  41.153  1.00  0.00     0.124 S 
ATOM     98  O   UNL A   1      41.029  36.899  40.930  1.00  0.00    -0.237 OA
ATOM     99  O   UNL A   1      38.619  36.381  41.122  1.00  0.00    -0.237 OA
ATOM    100  O   UNL A   1      40.284  34.916  42.198  1.00  0.00    -0.744 OA
ENDBRANCH  96  97
ENDBRANCH  64  89
ENDBRANCH  38  39
ENDBRANCH  31  33
ENDBRANCH  30  31
ENDBRANCH  29  30
ENDBRANCH  28  29
ENDBRANCH  27  28
ENDBRANCH   1  27
TORSDOF 22
ENDMDL
MODEL 3
REMARK VINA RESULT:      -9.8      2.353      8.692
REMARK SMILES CC[C@](C)([NH2+]CC(=O)Nc1c(Cl)ccc(C)c1Cl)C(=O)OCCOCCOC(=O)c1ccc(-c2c3nc(c(-c4c(F)cc(S(=O)(=O)[O-])cc4F)c4ccc([nH]4)c(-c4c(F)cc(S(=O)(=O)[O-])cc4F)c4nc(c(-c5c(F)cc(S(=O)(=O)[O-])cc5F)c5ccc2[nH]5)C=C4)C=C3)cc1
REMARK SMILES IDX 23 1 22 2 21 3 19 4 20 5 3 6 4 7 2 8 1 9 5 10 6 13 7 14 8 15
REMARK SMILES IDX 9 16 10 18 11 19 17 20 12 21 13 22 15 23 18 24 14 25 16 26
REMARK SMILES IDX 24 27 25 28 26 29 27 30 28 31 29 32 30 33 31 34 95 35 32 36
REMARK SMILES IDX 94 37 33 38 34 39 35 40 88 41 36 42 93 43 87 44 89 45 37 46
REMARK SMILES IDX 92 47 86 48 85 49 38 51 72 52 51 53 71 54 52 55 55 56 70 57
REMARK SMILES IDX 90 58 53 59 54 60 69 62 91 63 56 64 39 65 40 66 49 67 41 68
REMARK SMILES IDX 42 69 48 70 50 71 43 72 44 73 45 74 46 75 47 76 73 77 74 78
REMARK SMILES IDX 83 79 75 80 76 81 82 82 84 83 77 84 78 85 79 86 80 87 81 88
REMARK SMILES IDX 57 89 58 90 67 91 59 92 60 93 66 94 68 95 61 96 62 97 63 98
REMARK SMILES IDX 64 99 65 100
REMARK H PARENT 5 11 5 12 9 17 89 50 55 61
REMARK Flexibility Score: inf
ROOT
ATOM      1  C   UNL A   1      37.910  20.956  25.555  1.00  0.00     0.202 C 
ENDROOT
BRANCH   1   2
ATOM      2  C   UNL A   1      36.687  21.067  24.649  1.00  0.00     0.261 C 
BRANCH   2   3
ATOM      3  O   UNL A   1      36.047  22.350  24.727  1.00  0.00    -0.459 OA
BRANCH   3   4
ATOM      4  C   UNL A   1      35.124  22.628  25.699  1.00  0.00     0.367 C 
ATOM      5  O   UNL A   1      35.415  23.060  26.807  1.00  0.00    -0.245 OA
BRANCH   4   6
ATOM      6  C   UNL A   1      33.645  22.483  25.162  1.00  0.00     0.191 C 
ATOM      7  C   UNL A   1      33.195  21.112  25.740  1.00  0.00     0.092 C 
BRANCH   6   8
ATOM      8  C   UNL A   1      33.433  22.386  23.634  1.00  0.00     0.077 C 
ATOM      9  C   UNL A   1      33.738  23.639  22.796  1.00  0.00     0.011 C 
ENDBRANCH   6   8
BRANCH   6  10
ATOM     10  N   UNL A   1      32.825  23.606  25.644  1.00  0.00    -0.325 N 
ATOM     11  H   UNL A   1      32.311  23.964  24.839  1.00  0.00     0.347 HD
ATOM     12  H   UNL A   1      33.508  24.227  26.077  1.00  0.00     0.347 HD
BRANCH  10  13
ATOM     13  C   UNL A   1      31.824  23.386  26.731  1.00  0.00     0.363 C 
BRANCH  13  14
ATOM     14  C   UNL A   1      30.375  23.947  26.699  1.00  0.00     0.279 C 
ATOM     15  O   UNL A   1      29.528  23.355  27.392  1.00  0.00    -0.268 OA
ATOM     16  N   UNL A   1      29.889  25.080  26.088  1.00  0.00    -0.319 N 
ATOM     17  H   UNL A   1      28.970  25.285  26.375  1.00  0.00     0.170 HD
BRANCH  16  18
ATOM     18  C   UNL A   1      30.374  26.030  25.151  1.00  0.00     0.079 A 
ATOM     19  C   UNL A   1      31.003  27.224  25.569  1.00  0.00     0.066 A 
ATOM     20  C   UNL A   1      30.591  25.679  23.805  1.00  0.00     0.069 A 
ATOM     21  Cl  UNL A   1      31.551  27.479  27.197  1.00  0.00    -0.082 Cl
ATOM     22  C   UNL A   1      31.390  28.208  24.652  1.00  0.00     0.023 A 
ATOM     23  C   UNL A   1      31.098  26.620  22.869  1.00  0.00    -0.030 A 
ATOM     24  Cl  UNL A   1      30.327  24.037  23.312  1.00  0.00    -0.082 Cl
ATOM     25  C   UNL A   1      31.393  27.920  23.297  1.00  0.00     0.006 A 
ATOM     26  C   UNL A   1      31.445  26.273  21.446  1.00  0.00     0.046 C 
ENDBRANCH  16  18
ENDBRANCH  13  14
ENDBRANCH  10  13
ENDBRANCH   6  10
ENDBRANCH   4   6
ENDBRANCH   3   4
ENDBRANCH   2   3
ENDBRANCH   1   2
BRANCH   1  27
ATOM     27  O   UNL A   1      38.606  22.155  25.874  1.00  0.00    -0.374 OA
BRANCH  27  28
ATOM     28  C   UNL A   1      39.902  22.039  26.447  1.00  0.00     0.202 C 
BRANCH  28  29
ATOM     29  C   UNL A   1      40.510  20.643  26.639  1.00  0.00     0.261 C 
BRANCH  29  30
ATOM     30  O   UNL A   1      41.231  20.135  25.508  1.00  0.00    -0.460 OA
BRANCH  30  31
ATOM     31  C   UNL A   1      42.519  19.808  25.790  1.00  0.00     0.338 C 
ATOM     32  O   UNL A   1      43.007  18.695  25.801  1.00  0.00    -0.246 OA
BRANCH  31  33
ATOM     33  C   UNL A   1      43.342  21.023  25.940  1.00  0.00     0.060 A 
ATOM     34  C   UNL A   1      43.716  21.381  27.241  1.00  0.00     0.016 A 
ATOM     35  C   UNL A   1      43.611  21.866  24.860  1.00  0.00     0.016 A 
ATOM     36  C   UNL A   1      44.286  22.626  27.481  1.00  0.00     0.010 A 
ATOM     37  C   UNL A   1      44.181  23.120  25.104  1.00  0.00     0.010 A 
ATOM     38  C   UNL A   1      44.465  23.525  26.422  1.00  0.00    -0.014 A 
BRANCH  38  39
ATOM     39  C   UNL A   1      44.747  24.947  26.736  1.00  0.00     0.031 A 
ATOM     40  C   UNL A   1      46.148  25.465  26.543  1.00  0.00     0.074 A 
ATOM     41  C   UNL A   1      43.759  25.775  27.115  1.00  0.00     0.049 A 
ATOM     42  N   UNL A   1      46.624  26.667  26.738  1.00  0.00    -0.248 NA
ATOM     43  C   UNL A   1      47.146  24.495  26.060  1.00  0.00     0.031 C 
ATOM     44  C   UNL A   1      42.356  25.395  27.281  1.00  0.00     0.029 A 
ATOM     45  N   UNL A   1      43.785  27.111  27.423  1.00  0.00    -0.354 N 
ATOM     46  C   UNL A   1      47.975  26.597  26.416  1.00  0.00     0.074 A 
ATOM     47  C   UNL A   1      48.251  25.226  26.044  1.00  0.00     0.031 C 
ATOM     48  C   UNL A   1      41.654  26.477  27.660  1.00  0.00     0.029 A 
ATOM     49  C   UNL A   1      42.562  27.615  27.796  1.00  0.00     0.049 A 
ATOM     50  H   UNL A   1      44.603  27.658  27.379  1.00  0.00     0.167 HD
ATOM     51  C   UNL A   1      48.900  27.586  26.421  1.00  0.00     0.037 A 
ATOM     52  C   UNL A   1      42.222  28.849  28.213  1.00  0.00     0.037 A 
ATOM     53  C   UNL A   1      48.612  28.949  26.789  1.00  0.00     0.049 A 
ATOM     54  C   UNL A   1      43.282  29.918  28.279  1.00  0.00     0.074 A 
ATOM     55  C   UNL A   1      49.469  30.034  26.813  1.00  0.00     0.029 A 
ATOM     56  N   UNL A   1      47.371  29.410  27.206  1.00  0.00    -0.354 N 
ATOM     57  N   UNL A   1      44.552  29.844  27.956  1.00  0.00    -0.248 NA
ATOM     58  C   UNL A   1      42.863  31.240  28.762  1.00  0.00     0.031 C 
ATOM     59  C   UNL A   1      48.762  31.138  27.302  1.00  0.00     0.029 A 
ATOM     60  C   UNL A   1      47.446  30.757  27.520  1.00  0.00     0.049 A 
ATOM     61  H   UNL A   1      46.556  28.860  27.271  1.00  0.00     0.167 HD
ATOM     62  C   UNL A   1      45.075  31.118  28.162  1.00  0.00     0.074 A 
ATOM     63  C   UNL A   1      43.979  31.943  28.630  1.00  0.00     0.031 C 
ATOM     64  C   UNL A   1      46.342  31.566  27.978  1.00  0.00     0.037 A 
BRANCH  51  65
ATOM     65  C   UNL A   1      50.315  27.223  26.053  1.00  0.00     0.058 A 
ATOM     66  C   UNL A   1      50.744  27.147  24.718  1.00  0.00     0.135 A 
ATOM     67  C   UNL A   1      51.262  26.961  27.056  1.00  0.00     0.135 A 
ATOM     68  F   UNL A   1      49.878  27.370  23.715  1.00  0.00    -0.206 F 
ATOM     69  C   UNL A   1      52.049  26.792  24.391  1.00  0.00     0.059 A 
ATOM     70  C   UNL A   1      52.580  26.635  26.754  1.00  0.00     0.059 A 
ATOM     71  F   UNL A   1      50.909  27.017  28.350  1.00  0.00    -0.206 F 
ATOM     72  C   UNL A   1      52.960  26.536  25.417  1.00  0.00     0.060 A 
BRANCH  72  73
ATOM     73  S   UNL A   1      54.648  26.068  24.977  1.00  0.00     0.124 S 
ATOM     74  O   UNL A   1      54.808  26.732  23.688  1.00  0.00    -0.237 OA
ATOM     75  O   UNL A   1      55.423  26.629  26.079  1.00  0.00    -0.237 OA
ATOM     76  O   UNL A   1      54.597  24.610  24.929  1.00  0.00    -0.744 OA
ENDBRANCH  72  73
ENDBRANCH  51  65
BRANCH  52  77
ATOM     77  C   UNL A   1      40.816  29.144  28.598  1.00  0.00     0.058 A 
ATOM     78  C   UNL A   1      40.435  29.225  29.945  1.00  0.00     0.135 A 
ATOM     79  C   UNL A   1      39.823  29.354  27.627  1.00  0.00     0.135 A 
ATOM     80  F   UNL A   1      41.343  29.022  30.913  1.00  0.00    -0.206 F 
ATOM     81  C   UNL A   1      39.120  29.487  30.318  1.00  0.00     0.059 A 
ATOM     82  C   UNL A   1      38.508  29.646  27.974  1.00  0.00     0.059 A 
ATOM     83  F   UNL A   1      40.136  29.298  26.322  1.00  0.00    -0.206 F 
ATOM     84  C   UNL A   1      38.164  29.701  29.324  1.00  0.00     0.060 A 
BRANCH  84  85
ATOM     85  S   UNL A   1      36.472  30.089  29.820  1.00  0.00     0.124 S 
ATOM     86  O   UNL A   1      36.523  31.542  29.931  1.00  0.00    -0.237 OA
ATOM     87  O   UNL A   1      35.698  29.561  28.700  1.00  0.00    -0.237 OA
ATOM     88  O   UNL A   1      36.315  29.365  31.077  1.00  0.00    -0.744 OA
ENDBRANCH  84  85
ENDBRANCH  52  77
BRANCH  64  89
ATOM     89  C   UNL A   1      46.605  33.026  28.236  1.00  0.00     0.058 A 
ATOM     90  C   UNL A   1      47.059  33.492  29.479  1.00  0.00     0.135 A 
ATOM     91  C   UNL A   1      46.436  33.968  27.206  1.00  0.00     0.135 A 
ATOM     92  F   UNL A   1      47.234  32.638  30.499  1.00  0.00    -0.206 F 
ATOM     93  C   UNL A   1      47.300  34.844  29.705  1.00  0.00     0.059 A 
ATOM     94  C   UNL A   1      46.704  35.319  27.400  1.00  0.00     0.059 A 
ATOM     95  F   UNL A   1      46.017  33.575  25.993  1.00  0.00    -0.206 F 
ATOM     96  C   UNL A   1      47.120  35.750  28.657  1.00  0.00     0.060 A 
BRANCH  96  97
ATOM     97  S   UNL A   1      47.455  37.499  28.957  1.00  0.00     0.124 S 
ATOM     98  O   UNL A   1      46.267  38.127  28.389  1.00  0.00    -0.237 OA
ATOM     99  O   UNL A   1      47.566  37.551  30.412  1.00  0.00    -0.237 OA
ATOM    100  O   UNL A   1      48.699  37.737  28.231  1.00  0.00    -0.744 OA
ENDBRANCH  96  97
ENDBRANCH  64  89
ENDBRANCH  38  39
ENDBRANCH  31  33
ENDBRANCH  30  31
ENDBRANCH  29  30
ENDBRANCH  28  29
ENDBRANCH  27  28
ENDBRANCH   1  27
TORSDOF 22
ENDMDL
