MODEL 1
REMARK VINA RESULT:     -11.2      0.000      0.000
REMARK SMILES Cc1ccc(NC(=O)C[C@H]([NH2+]Cc2cccnc2)C(=O)OCCOCCOC(=O)c2ccc(-c3c4nc(c(-c5c(F)cc(S(=O)(=O)[O-])cc5F)c5ccc([nH]5)c(-c5c(F)cc(S(=O)(=O)[O-])cc5F)c5nc(c(-c6c(F)cc(S(=O)(=O)[O-])cc6F)c6ccc3[nH]6)C=C5)C=C4)cc2)cc1Cl
REMARK SMILES IDX 24 1 23 2 22 3 21 4 19 5 20 6 10 7 9 8 7 9 6 10 8 12 5 13
REMARK SMILES IDX 1 14 2 15 3 16 97 17 4 18 96 19 98 20 11 21 12 24 13 25
REMARK SMILES IDX 14 26 18 27 15 28 17 29 16 30 25 31 26 32 27 33 28 34 29 35
REMARK SMILES IDX 30 36 31 37 95 38 32 39 94 40 33 41 34 42 35 43 88 44 36 45
REMARK SMILES IDX 93 46 87 47 89 48 37 49 92 50 86 51 85 52 38 54 72 55 51 56
REMARK SMILES IDX 71 57 52 58 55 59 70 60 90 61 53 62 54 63 69 65 91 66 56 67
REMARK SMILES IDX 39 68 40 69 49 70 41 71 42 72 48 73 50 74 43 75 44 76 45 77
REMARK SMILES IDX 46 78 47 79 73 80 74 81 83 82 75 83 76 84 82 85 84 86 77 87
REMARK SMILES IDX 78 88 79 89 80 90 81 91 57 92 58 93 67 94 59 95 60 96 66 97
REMARK SMILES IDX 68 98 61 99 62 100 63 101 64 102 65 103
REMARK H PARENT 6 11 11 22 11 23 89 53 55 64
REMARK Flexibility Score: inf
ROOT
ATOM      1  O   UNL A   1      32.527  28.140  25.844  1.00  0.00    -0.374 OA
ENDROOT
BRANCH   1   2
ATOM      2  C   UNL A   1      33.602  27.232  26.093  1.00  0.00     0.202 C 
BRANCH   2   3
ATOM      3  C   UNL A   1      33.123  25.782  26.125  1.00  0.00     0.261 C 
BRANCH   3   4
ATOM      4  O   UNL A   1      31.701  25.682  25.919  1.00  0.00    -0.459 OA
BRANCH   4   5
ATOM      5  C   UNL A   1      31.244  24.941  24.882  1.00  0.00     0.365 C 
ATOM      6  O   UNL A   1      30.992  23.742  24.932  1.00  0.00    -0.245 OA
BRANCH   5   7
ATOM      7  C   UNL A   1      31.032  25.782  23.604  1.00  0.00     0.303 C 
BRANCH   7   8
ATOM      8  C   UNL A   1      32.313  25.993  22.796  1.00  0.00     0.177 C 
BRANCH   8   9
ATOM      9  C   UNL A   1      32.807  25.118  21.651  1.00  0.00     0.231 C 
ATOM     10  N   UNL A   1      33.428  23.916  21.768  1.00  0.00    -0.326 N 
ATOM     11  H   UNL A   1      34.072  23.774  21.037  1.00  0.00     0.169 HD
ATOM     12  O   UNL A   1      32.862  25.639  20.525  1.00  0.00    -0.274 OA
BRANCH  10  13
ATOM     13  C   UNL A   1      33.403  22.823  22.646  1.00  0.00     0.042 A 
ATOM     14  C   UNL A   1      32.913  19.425  25.311  1.00  0.00     0.046 C 
ATOM     15  C   UNL A   1      33.097  20.602  24.396  1.00  0.00    -0.032 A 
ATOM     16  C   UNL A   1      32.259  20.765  23.288  1.00  0.00     0.007 A 
ATOM     17  C   UNL A   1      34.080  21.572  24.618  1.00  0.00     0.046 A 
ATOM     18  C   UNL A   1      32.410  21.861  22.430  1.00  0.00     0.026 A 
ATOM     19  C   UNL A   1      34.192  22.690  23.777  1.00  0.00     0.047 A 
ATOM     20  Cl  UNL A   1      35.190  21.428  25.938  1.00  0.00    -0.084 Cl
ENDBRANCH  10  13
ENDBRANCH   8   9
ENDBRANCH   7   8
BRANCH   7  21
ATOM     21  N   UNL A   1      30.236  26.999  23.880  1.00  0.00    -0.330 N 
ATOM     22  H   UNL A   1      30.512  27.355  24.796  1.00  0.00     0.347 HD
ATOM     23  H   UNL A   1      29.257  26.714  23.832  1.00  0.00     0.347 HD
BRANCH  21  24
ATOM     24  C   UNL A   1      30.393  28.079  22.907  1.00  0.00     0.299 C 
BRANCH  24  25
ATOM     25  C   UNL A   1      29.413  29.193  23.161  1.00  0.00     0.024 A 
ATOM     26  C   UNL A   1      29.821  30.445  23.630  1.00  0.00     0.013 A 
ATOM     27  C   UNL A   1      28.053  29.030  22.901  1.00  0.00     0.120 A 
ATOM     28  C   UNL A   1      28.880  31.455  23.821  1.00  0.00     0.021 A 
ATOM     29  N   UNL A   1      27.114  29.985  23.098  1.00  0.00    -0.264 NA
ATOM     30  C   UNL A   1      27.552  31.181  23.542  1.00  0.00     0.111 A 
ENDBRANCH  24  25
ENDBRANCH  21  24
ENDBRANCH   7  21
ENDBRANCH   5   7
ENDBRANCH   4   5
ENDBRANCH   3   4
ENDBRANCH   2   3
ENDBRANCH   1   2
BRANCH   1  31
ATOM     31  C   UNL A   1      32.927  29.457  25.456  1.00  0.00     0.202 C 
BRANCH  31  32
ATOM     32  C   UNL A   1      32.569  30.491  26.523  1.00  0.00     0.261 C 
BRANCH  32  33
ATOM     33  O   UNL A   1      33.497  30.391  27.620  1.00  0.00    -0.460 OA
BRANCH  33  34
ATOM     34  C   UNL A   1      34.263  31.483  27.810  1.00  0.00     0.338 C 
ATOM     35  O   UNL A   1      33.884  32.643  27.900  1.00  0.00    -0.246 OA
BRANCH  34  36
ATOM     36  C   UNL A   1      35.661  31.085  28.041  1.00  0.00     0.060 A 
ATOM     37  C   UNL A   1      35.941  29.717  28.081  1.00  0.00     0.016 A 
ATOM     38  C   UNL A   1      36.651  32.021  28.348  1.00  0.00     0.016 A 
ATOM     39  C   UNL A   1      37.190  29.281  28.520  1.00  0.00     0.010 A 
ATOM     40  C   UNL A   1      37.913  31.581  28.766  1.00  0.00     0.010 A 
ATOM     41  C   UNL A   1      38.166  30.208  28.918  1.00  0.00    -0.014 A 
BRANCH  41  42
ATOM     42  C   UNL A   1      39.352  29.714  29.669  1.00  0.00     0.031 A 
ATOM     43  C   UNL A   1      39.562  30.171  31.092  1.00  0.00     0.074 A 
ATOM     44  C   UNL A   1      40.180  28.798  29.132  1.00  0.00     0.049 A 
ATOM     45  N   UNL A   1      40.458  29.784  31.964  1.00  0.00    -0.248 NA
ATOM     46  C   UNL A   1      38.644  31.205  31.599  1.00  0.00     0.031 C 
ATOM     47  C   UNL A   1      40.088  28.271  27.772  1.00  0.00     0.029 A 
ATOM     48  N   UNL A   1      41.251  28.136  29.679  1.00  0.00    -0.354 N 
ATOM     49  C   UNL A   1      40.214  30.522  33.117  1.00  0.00     0.074 A 
ATOM     50  C   UNL A   1      39.115  31.415  32.819  1.00  0.00     0.031 C 
ATOM     51  C   UNL A   1      41.054  27.352  27.595  1.00  0.00     0.029 A 
ATOM     52  C   UNL A   1      41.835  27.231  28.825  1.00  0.00     0.049 A 
ATOM     53  H   UNL A   1      41.571  28.295  30.596  1.00  0.00     0.167 HD
ATOM     54  C   UNL A   1      40.826  30.451  34.323  1.00  0.00     0.037 A 
ATOM     55  C   UNL A   1      42.871  26.391  29.017  1.00  0.00     0.037 A 
ATOM     56  C   UNL A   1      41.902  29.547  34.634  1.00  0.00     0.049 A 
ATOM     57  C   UNL A   1      43.538  26.325  30.366  1.00  0.00     0.074 A 
ATOM     58  C   UNL A   1      42.567  29.381  35.836  1.00  0.00     0.029 A 
ATOM     59  N   UNL A   1      42.467  28.653  33.738  1.00  0.00    -0.354 N 
ATOM     60  N   UNL A   1      43.264  27.003  31.456  1.00  0.00    -0.248 NA
ATOM     61  C   UNL A   1      44.644  25.369  30.516  1.00  0.00     0.031 C 
ATOM     62  C   UNL A   1      43.556  28.406  35.659  1.00  0.00     0.029 A 
ATOM     63  C   UNL A   1      43.480  27.941  34.356  1.00  0.00     0.049 A 
ATOM     64  H   UNL A   1      42.189  28.542  32.800  1.00  0.00     0.167 HD
ATOM     65  C   UNL A   1      44.146  26.536  32.426  1.00  0.00     0.074 A 
ATOM     66  C   UNL A   1      44.955  25.513  31.798  1.00  0.00     0.031 C 
ATOM     67  C   UNL A   1      44.273  26.919  33.721  1.00  0.00     0.037 A 
BRANCH  54  68
ATOM     68  C   UNL A   1      40.346  31.384  35.398  1.00  0.00     0.058 A 
ATOM     69  C   UNL A   1      39.120  31.183  36.052  1.00  0.00     0.135 A 
ATOM     70  C   UNL A   1      41.127  32.482  35.792  1.00  0.00     0.135 A 
ATOM     71  F   UNL A   1      38.327  30.158  35.702  1.00  0.00    -0.206 F 
ATOM     72  C   UNL A   1      38.672  32.054  37.040  1.00  0.00     0.059 A 
ATOM     73  C   UNL A   1      40.709  33.353  36.794  1.00  0.00     0.059 A 
ATOM     74  F   UNL A   1      42.306  32.721  35.198  1.00  0.00    -0.206 F 
ATOM     75  C   UNL A   1      39.472  33.140  37.401  1.00  0.00     0.060 A 
BRANCH  75  76
ATOM     76  S   UNL A   1      38.878  34.268  38.679  1.00  0.00     0.124 S 
ATOM     77  O   UNL A   1      37.546  33.731  38.943  1.00  0.00    -0.237 OA
ATOM     78  O   UNL A   1      39.858  34.082  39.745  1.00  0.00    -0.237 OA
ATOM     79  O   UNL A   1      38.911  35.570  38.022  1.00  0.00    -0.744 OA
ENDBRANCH  75  76
ENDBRANCH  54  68
BRANCH  55  80
ATOM     80  C   UNL A   1      43.329  25.518  27.906  1.00  0.00     0.058 A 
ATOM     81  C   UNL A   1      44.273  25.967  26.970  1.00  0.00     0.135 A 
ATOM     82  C   UNL A   1      42.831  24.214  27.760  1.00  0.00     0.135 A 
ATOM     83  F   UNL A   1      44.770  27.209  27.063  1.00  0.00    -0.206 F 
ATOM     84  C   UNL A   1      44.699  25.159  25.920  1.00  0.00     0.059 A 
ATOM     85  C   UNL A   1      43.256  23.380  26.732  1.00  0.00     0.059 A 
ATOM     86  F   UNL A   1      41.934  23.736  28.637  1.00  0.00    -0.206 F 
ATOM     87  C   UNL A   1      44.184  23.865  25.810  1.00  0.00     0.060 A 
BRANCH  87  88
ATOM     88  S   UNL A   1      44.780  22.802  24.476  1.00  0.00     0.124 S 
ATOM     89  O   UNL A   1      45.225  21.627  25.215  1.00  0.00    -0.237 OA
ATOM     90  O   UNL A   1      43.581  22.629  23.661  1.00  0.00    -0.237 OA
ATOM     91  O   UNL A   1      45.836  23.602  23.861  1.00  0.00    -0.744 OA
ENDBRANCH  87  88
ENDBRANCH  55  80
BRANCH  67  92
ATOM     92  C   UNL A   1      45.301  26.209  34.555  1.00  0.00     0.058 A 
ATOM     93  C   UNL A   1      46.612  26.697  34.680  1.00  0.00     0.135 A 
ATOM     94  C   UNL A   1      44.961  25.051  35.273  1.00  0.00     0.135 A 
ATOM     95  F   UNL A   1      46.989  27.799  34.013  1.00  0.00    -0.206 F 
ATOM     96  C   UNL A   1      47.558  26.044  35.465  1.00  0.00     0.059 A 
ATOM     97  C   UNL A   1      45.884  24.395  36.081  1.00  0.00     0.059 A 
ATOM     98  F   UNL A   1      43.717  24.551  35.198  1.00  0.00    -0.206 F 
ATOM     99  C   UNL A   1      47.185  24.892  36.159  1.00  0.00     0.060 A 
BRANCH  99 100
ATOM    100  S   UNL A   1      48.413  24.062  37.191  1.00  0.00     0.124 S 
ATOM    101  O   UNL A   1      47.678  23.890  38.440  1.00  0.00    -0.237 OA
ATOM    102  O   UNL A   1      48.683  22.839  36.441  1.00  0.00    -0.237 OA
ATOM    103  O   UNL A   1      49.517  25.017  37.237  1.00  0.00    -0.744 OA
ENDBRANCH  99 100
ENDBRANCH  67  92
ENDBRANCH  41  42
ENDBRANCH  34  36
ENDBRANCH  33  34
ENDBRANCH  32  33
ENDBRANCH  31  32
ENDBRANCH   1  31
TORSDOF 23
ENDMDL
MODEL 2
REMARK VINA RESULT:     -10.8      1.641      3.102
REMARK SMILES Cc1ccc(NC(=O)C[C@H]([NH2+]Cc2cccnc2)C(=O)OCCOCCOC(=O)c2ccc(-c3c4nc(c(-c5c(F)cc(S(=O)(=O)[O-])cc5F)c5ccc([nH]5)c(-c5c(F)cc(S(=O)(=O)[O-])cc5F)c5nc(c(-c6c(F)cc(S(=O)(=O)[O-])cc6F)c6ccc3[nH]6)C=C5)C=C4)cc2)cc1Cl
REMARK SMILES IDX 24 1 23 2 22 3 21 4 19 5 20 6 10 7 9 8 7 9 6 10 8 12 5 13
REMARK SMILES IDX 1 14 2 15 3 16 97 17 4 18 96 19 98 20 11 21 12 24 13 25
REMARK SMILES IDX 14 26 18 27 15 28 17 29 16 30 25 31 26 32 27 33 28 34 29 35
REMARK SMILES IDX 30 36 31 37 95 38 32 39 94 40 33 41 34 42 35 43 88 44 36 45
REMARK SMILES IDX 93 46 87 47 89 48 37 49 92 50 86 51 85 52 38 54 72 55 51 56
REMARK SMILES IDX 71 57 52 58 55 59 70 60 90 61 53 62 54 63 69 65 91 66 56 67
REMARK SMILES IDX 39 68 40 69 49 70 41 71 42 72 48 73 50 74 43 75 44 76 45 77
REMARK SMILES IDX 46 78 47 79 73 80 74 81 83 82 75 83 76 84 82 85 84 86 77 87
REMARK SMILES IDX 78 88 79 89 80 90 81 91 57 92 58 93 67 94 59 95 60 96 66 97
REMARK SMILES IDX 68 98 61 99 62 100 63 101 64 102 65 103
REMARK H PARENT 6 11 11 22 11 23 89 53 55 64
REMARK Flexibility Score: inf
ROOT
ATOM      1  O   UNL A   1      30.757  30.743  24.857  1.00  0.00    -0.374 OA
ENDROOT
BRANCH   1   2
ATOM      2  C   UNL A   1      29.910  30.169  23.861  1.00  0.00     0.202 C 
BRANCH   2   3
ATOM      3  C   UNL A   1      30.708  29.382  22.823  1.00  0.00     0.261 C 
BRANCH   3   4
ATOM      4  O   UNL A   1      29.999  28.211  22.375  1.00  0.00    -0.459 OA
BRANCH   4   5
ATOM      5  C   UNL A   1      29.839  27.178  23.235  1.00  0.00     0.365 C 
ATOM      6  O   UNL A   1      28.770  26.831  23.724  1.00  0.00    -0.245 OA
BRANCH   5   7
ATOM      7  C   UNL A   1      31.164  26.436  23.519  1.00  0.00     0.303 C 
BRANCH   7   8
ATOM      8  C   UNL A   1      31.448  25.301  22.533  1.00  0.00     0.177 C 
BRANCH   8   9
ATOM      9  C   UNL A   1      32.792  24.987  21.889  1.00  0.00     0.231 C 
ATOM     10  N   UNL A   1      33.701  24.079  22.326  1.00  0.00    -0.326 N 
ATOM     11  H   UNL A   1      34.620  24.364  22.120  1.00  0.00     0.169 HD
ATOM     12  O   UNL A   1      33.205  25.783  21.029  1.00  0.00    -0.274 OA
BRANCH  10  13
ATOM     13  C   UNL A   1      33.688  22.845  22.993  1.00  0.00     0.042 A 
ATOM     14  C   UNL A   1      33.248  19.099  25.152  1.00  0.00     0.046 C 
ATOM     15  C   UNL A   1      33.416  20.392  24.407  1.00  0.00    -0.032 A 
ATOM     16  C   UNL A   1      32.339  20.938  23.701  1.00  0.00     0.007 A 
ATOM     17  C   UNL A   1      34.624  21.097  24.401  1.00  0.00     0.046 A 
ATOM     18  C   UNL A   1      32.475  22.147  23.009  1.00  0.00     0.026 A 
ATOM     19  C   UNL A   1      34.735  22.331  23.741  1.00  0.00     0.047 A 
ATOM     20  Cl  UNL A   1      36.023  20.475  25.209  1.00  0.00    -0.084 Cl
ENDBRANCH  10  13
ENDBRANCH   8   9
ENDBRANCH   7   8
BRANCH   7  21
ATOM     21  N   UNL A   1      31.300  26.096  24.952  1.00  0.00    -0.330 N 
ATOM     22  H   UNL A   1      30.692  26.720  25.483  1.00  0.00     0.347 HD
ATOM     23  H   UNL A   1      32.290  26.203  25.175  1.00  0.00     0.347 HD
BRANCH  21  24
ATOM     24  C   UNL A   1      30.952  24.719  25.300  1.00  0.00     0.299 C 
BRANCH  24  25
ATOM     25  C   UNL A   1      32.052  24.055  26.084  1.00  0.00     0.024 A 
ATOM     26  C   UNL A   1      31.828  22.908  26.849  1.00  0.00     0.013 A 
ATOM     27  C   UNL A   1      33.358  24.543  26.047  1.00  0.00     0.120 A 
ATOM     28  C   UNL A   1      32.886  22.312  27.533  1.00  0.00     0.021 A 
ATOM     29  N   UNL A   1      34.400  23.999  26.718  1.00  0.00    -0.264 NA
ATOM     30  C   UNL A   1      34.141  22.888  27.437  1.00  0.00     0.111 A 
ENDBRANCH  24  25
ENDBRANCH  21  24
ENDBRANCH   7  21
ENDBRANCH   5   7
ENDBRANCH   4   5
ENDBRANCH   3   4
ENDBRANCH   2   3
ENDBRANCH   1   2
BRANCH   1  31
ATOM     31  C   UNL A   1      31.706  29.842  25.434  1.00  0.00     0.202 C 
BRANCH  31  32
ATOM     32  C   UNL A   1      32.300  30.400  26.726  1.00  0.00     0.261 C 
BRANCH  32  33
ATOM     33  O   UNL A   1      33.737  30.305  26.676  1.00  0.00    -0.460 OA
BRANCH  33  34
ATOM     34  C   UNL A   1      34.376  30.915  27.694  1.00  0.00     0.338 C 
ATOM     35  O   UNL A   1      33.962  31.844  28.373  1.00  0.00    -0.246 OA
BRANCH  34  36
ATOM     36  C   UNL A   1      35.634  30.212  27.992  1.00  0.00     0.060 A 
ATOM     37  C   UNL A   1      35.755  29.617  29.249  1.00  0.00     0.016 A 
ATOM     38  C   UNL A   1      36.724  30.252  27.119  1.00  0.00     0.016 A 
ATOM     39  C   UNL A   1      36.995  29.141  29.672  1.00  0.00     0.010 A 
ATOM     40  C   UNL A   1      37.963  29.752  27.536  1.00  0.00     0.010 A 
ATOM     41  C   UNL A   1      38.121  29.255  28.840  1.00  0.00    -0.014 A 
BRANCH  41  42
ATOM     42  C   UNL A   1      39.468  29.034  29.431  1.00  0.00     0.031 A 
ATOM     43  C   UNL A   1      39.888  29.851  30.628  1.00  0.00     0.074 A 
ATOM     44  C   UNL A   1      40.273  28.056  28.974  1.00  0.00     0.049 A 
ATOM     45  N   UNL A   1      40.963  29.749  31.367  1.00  0.00    -0.248 NA
ATOM     46  C   UNL A   1      38.977  30.930  31.047  1.00  0.00     0.031 C 
ATOM     47  C   UNL A   1      39.988  27.194  27.829  1.00  0.00     0.029 A 
ATOM     48  N   UNL A   1      41.489  27.615  29.434  1.00  0.00    -0.354 N 
ATOM     49  C   UNL A   1      40.859  30.744  32.333  1.00  0.00     0.074 A 
ATOM     50  C   UNL A   1      39.639  31.471  32.059  1.00  0.00     0.031 C 
ATOM     51  C   UNL A   1      40.995  26.313  27.686  1.00  0.00     0.029 A 
ATOM     52  C   UNL A   1      41.996  26.553  28.724  1.00  0.00     0.049 A 
ATOM     53  H   UNL A   1      41.953  28.020  30.202  1.00  0.00     0.167 HD
ATOM     54  C   UNL A   1      41.687  31.017  33.370  1.00  0.00     0.037 A 
ATOM     55  C   UNL A   1      43.130  25.847  28.898  1.00  0.00     0.037 A 
ATOM     56  C   UNL A   1      42.888  30.282  33.666  1.00  0.00     0.049 A 
ATOM     57  C   UNL A   1      44.036  26.165  30.059  1.00  0.00     0.074 A 
ATOM     58  C   UNL A   1      43.775  30.464  34.711  1.00  0.00     0.029 A 
ATOM     59  N   UNL A   1      43.368  29.219  32.915  1.00  0.00    -0.354 N 
ATOM     60  N   UNL A   1      43.898  27.084  30.986  1.00  0.00    -0.248 NA
ATOM     61  C   UNL A   1      45.243  25.339  30.207  1.00  0.00     0.031 C 
ATOM     62  C   UNL A   1      44.809  29.531  34.577  1.00  0.00     0.029 A 
ATOM     63  C   UNL A   1      44.545  28.744  33.468  1.00  0.00     0.049 A 
ATOM     64  H   UNL A   1      42.936  28.856  32.108  1.00  0.00     0.167 HD
ATOM     65  C   UNL A   1      44.986  26.929  31.840  1.00  0.00     0.074 A 
ATOM     66  C   UNL A   1      45.767  25.823  31.326  1.00  0.00     0.031 C 
ATOM     67  C   UNL A   1      45.308  27.636  32.950  1.00  0.00     0.037 A 
BRANCH  54  68
ATOM     68  C   UNL A   1      41.318  32.167  34.264  1.00  0.00     0.058 A 
ATOM     69  C   UNL A   1      40.433  32.007  35.342  1.00  0.00     0.135 A 
ATOM     70  C   UNL A   1      41.869  33.441  34.051  1.00  0.00     0.135 A 
ATOM     71  F   UNL A   1      39.866  30.814  35.579  1.00  0.00    -0.206 F 
ATOM     72  C   UNL A   1      40.085  33.076  36.162  1.00  0.00     0.059 A 
ATOM     73  C   UNL A   1      41.553  34.520  34.872  1.00  0.00     0.059 A 
ATOM     74  F   UNL A   1      42.718  33.649  33.034  1.00  0.00    -0.206 F 
ATOM     75  C   UNL A   1      40.647  34.330  35.916  1.00  0.00     0.060 A 
BRANCH  75  76
ATOM     76  S   UNL A   1      40.183  35.712  36.981  1.00  0.00     0.124 S 
ATOM     77  O   UNL A   1      39.692  36.679  36.003  1.00  0.00    -0.237 OA
ATOM     78  O   UNL A   1      39.169  35.117  37.846  1.00  0.00    -0.237 OA
ATOM     79  O   UNL A   1      41.436  36.067  37.640  1.00  0.00    -0.744 OA
ENDBRANCH  75  76
ENDBRANCH  54  68
BRANCH  55  80
ATOM     80  C   UNL A   1      43.464  24.743  27.961  1.00  0.00     0.058 A 
ATOM     81  C   UNL A   1      44.249  24.971  26.821  1.00  0.00     0.135 A 
ATOM     82  C   UNL A   1      43.003  23.438  28.190  1.00  0.00     0.135 A 
ATOM     83  F   UNL A   1      44.703  26.204  26.555  1.00  0.00    -0.206 F 
ATOM     84  C   UNL A   1      44.557  23.945  25.932  1.00  0.00     0.059 A 
ATOM     85  C   UNL A   1      43.315  22.391  27.328  1.00  0.00     0.059 A 
ATOM     86  F   UNL A   1      42.258  23.169  29.273  1.00  0.00    -0.206 F 
ATOM     87  C   UNL A   1      44.085  22.657  26.196  1.00  0.00     0.060 A 
BRANCH  87  88
ATOM     88  S   UNL A   1      44.531  21.319  25.068  1.00  0.00     0.124 S 
ATOM     89  O   UNL A   1      45.886  21.008  25.504  1.00  0.00    -0.237 OA
ATOM     90  O   UNL A   1      43.517  20.312  25.365  1.00  0.00    -0.237 OA
ATOM     91  O   UNL A   1      44.416  21.942  23.751  1.00  0.00    -0.744 OA
ENDBRANCH  87  88
ENDBRANCH  55  80
BRANCH  67  92
ATOM     92  C   UNL A   1      46.539  27.220  33.705  1.00  0.00     0.058 A 
ATOM     93  C   UNL A   1      46.487  26.251  34.719  1.00  0.00     0.135 A 
ATOM     94  C   UNL A   1      47.791  27.764  33.380  1.00  0.00     0.135 A 
ATOM     95  F   UNL A   1      45.314  25.701  35.069  1.00  0.00    -0.206 F 
ATOM     96  C   UNL A   1      47.632  25.857  35.406  1.00  0.00     0.059 A 
ATOM     97  C   UNL A   1      48.952  27.370  34.039  1.00  0.00     0.059 A 
ATOM     98  F   UNL A   1      47.897  28.685  32.409  1.00  0.00    -0.206 F 
ATOM     99  C   UNL A   1      48.860  26.426  35.061  1.00  0.00     0.060 A 
BRANCH  99 100
ATOM    100  S   UNL A   1      50.344  25.895  35.944  1.00  0.00     0.124 S 
ATOM    101  O   UNL A   1      49.922  26.033  37.334  1.00  0.00    -0.237 OA
ATOM    102  O   UNL A   1      50.522  24.527  35.468  1.00  0.00    -0.237 OA
ATOM    103  O   UNL A   1      51.360  26.844  35.497  1.00  0.00    -0.744 OA
ENDBRANCH  99 100
ENDBRANCH  67  92
ENDBRANCH  41  42
ENDBRANCH  34  36
ENDBRANCH  33  34
ENDBRANCH  32  33
ENDBRANCH  31  32
ENDBRANCH   1  31
TORSDOF 23
ENDMDL
MODEL 3
REMARK VINA RESULT:     -10.7      2.482      3.740
REMARK SMILES Cc1ccc(NC(=O)C[C@H]([NH2+]Cc2cccnc2)C(=O)OCCOCCOC(=O)c2ccc(-c3c4nc(c(-c5c(F)cc(S(=O)(=O)[O-])cc5F)c5ccc([nH]5)c(-c5c(F)cc(S(=O)(=O)[O-])cc5F)c5nc(c(-c6c(F)cc(S(=O)(=O)[O-])cc6F)c6ccc3[nH]6)C=C5)C=C4)cc2)cc1Cl
REMARK SMILES IDX 24 1 23 2 22 3 21 4 19 5 20 6 10 7 9 8 7 9 6 10 8 12 5 13
REMARK SMILES IDX 1 14 2 15 3 16 97 17 4 18 96 19 98 20 11 21 12 24 13 25
REMARK SMILES IDX 14 26 18 27 15 28 17 29 16 30 25 31 26 32 27 33 28 34 29 35
REMARK SMILES IDX 30 36 31 37 95 38 32 39 94 40 33 41 34 42 35 43 88 44 36 45
REMARK SMILES IDX 93 46 87 47 89 48 37 49 92 50 86 51 85 52 38 54 72 55 51 56
REMARK SMILES IDX 71 57 52 58 55 59 70 60 90 61 53 62 54 63 69 65 91 66 56 67
REMARK SMILES IDX 39 68 40 69 49 70 41 71 42 72 48 73 50 74 43 75 44 76 45 77
REMARK SMILES IDX 46 78 47 79 73 80 74 81 83 82 75 83 76 84 82 85 84 86 77 87
REMARK SMILES IDX 78 88 79 89 80 90 81 91 57 92 58 93 67 94 59 95 60 96 66 97
REMARK SMILES IDX 68 98 61 99 62 100 63 101 64 102 65 103
REMARK H PARENT 6 11 11 22 11 23 89 53 55 64
REMARK Flexibility Score: inf
ROOT
ATOM      1  O   UNL A   1      34.358  30.002  27.691  1.00  0.00    -0.374 OA
ENDROOT
BRANCH   1   2
ATOM      2  C   UNL A   1      34.184  29.287  26.467  1.00  0.00     0.202 C 
BRANCH   2   3
ATOM      3  C   UNL A   1      32.800  29.522  25.865  1.00  0.00     0.261 C 
BRANCH   3   4
ATOM      4  O   UNL A   1      32.800  29.350  24.435  1.00  0.00    -0.459 OA
BRANCH   4   5
ATOM      5  C   UNL A   1      32.369  28.174  23.920  1.00  0.00     0.365 C 
ATOM      6  O   UNL A   1      33.085  27.341  23.376  1.00  0.00    -0.245 OA
BRANCH   5   7
ATOM      7  C   UNL A   1      30.852  27.963  24.122  1.00  0.00     0.303 C 
BRANCH   7   8
ATOM      8  C   UNL A   1      30.511  26.660  24.848  1.00  0.00     0.177 C 
BRANCH   8   9
ATOM      9  C   UNL A   1      31.015  26.239  26.222  1.00  0.00     0.231 C 
ATOM     10  N   UNL A   1      31.375  24.985  26.597  1.00  0.00    -0.326 N 
ATOM     11  H   UNL A   1      31.184  24.828  27.550  1.00  0.00     0.169 HD
ATOM     12  O   UNL A   1      30.868  27.052  27.150  1.00  0.00    -0.274 OA
BRANCH  10  13
ATOM     13  C   UNL A   1      31.946  23.852  25.997  1.00  0.00     0.042 A 
ATOM     14  C   UNL A   1      33.521  20.117  24.435  1.00  0.00     0.046 C 
ATOM     15  C   UNL A   1      32.987  21.416  24.967  1.00  0.00    -0.032 A 
ATOM     16  C   UNL A   1      31.726  21.460  25.569  1.00  0.00     0.007 A 
ATOM     17  C   UNL A   1      33.720  22.606  24.899  1.00  0.00     0.046 A 
ATOM     18  C   UNL A   1      31.217  22.660  26.078  1.00  0.00     0.026 A 
ATOM     19  C   UNL A   1      33.218  23.793  25.454  1.00  0.00     0.047 A 
ATOM     20  Cl  UNL A   1      35.271  22.654  24.131  1.00  0.00    -0.084 Cl
ENDBRANCH  10  13
ENDBRANCH   8   9
ENDBRANCH   7   8
BRANCH   7  21
ATOM     21  N   UNL A   1      30.097  28.225  22.877  1.00  0.00    -0.330 N 
ATOM     22  H   UNL A   1      30.085  27.365  22.329  1.00  0.00     0.347 HD
ATOM     23  H   UNL A   1      30.574  28.998  22.414  1.00  0.00     0.347 HD
BRANCH  21  24
ATOM     24  C   UNL A   1      28.713  28.658  23.069  1.00  0.00     0.299 C 
BRANCH  24  25
ATOM     25  C   UNL A   1      28.517  30.083  22.625  1.00  0.00     0.024 A 
ATOM     26  C   UNL A   1      28.619  31.156  23.514  1.00  0.00     0.013 A 
ATOM     27  C   UNL A   1      28.261  30.393  21.290  1.00  0.00     0.120 A 
ATOM     28  C   UNL A   1      28.459  32.460  23.050  1.00  0.00     0.021 A 
ATOM     29  N   UNL A   1      28.079  31.648  20.814  1.00  0.00    -0.264 NA
ATOM     30  C   UNL A   1      28.194  32.654  21.705  1.00  0.00     0.111 A 
ENDBRANCH  24  25
ENDBRANCH  21  24
ENDBRANCH   7  21
ENDBRANCH   5   7
ENDBRANCH   4   5
ENDBRANCH   3   4
ENDBRANCH   2   3
ENDBRANCH   1   2
BRANCH   1  31
ATOM     31  C   UNL A   1      34.598  31.404  27.542  1.00  0.00     0.202 C 
BRANCH  31  32
ATOM     32  C   UNL A   1      33.365  32.230  27.905  1.00  0.00     0.261 C 
BRANCH  32  33
ATOM     33  O   UNL A   1      33.600  33.614  27.582  1.00  0.00    -0.460 OA
BRANCH  33  34
ATOM     34  C   UNL A   1      33.491  34.461  28.625  1.00  0.00     0.338 C 
ATOM     35  O   UNL A   1      32.554  35.208  28.872  1.00  0.00    -0.246 OA
BRANCH  34  36
ATOM     36  C   UNL A   1      34.624  34.277  29.545  1.00  0.00     0.060 A 
ATOM     37  C   UNL A   1      35.906  34.513  29.042  1.00  0.00     0.016 A 
ATOM     38  C   UNL A   1      34.452  33.751  30.828  1.00  0.00     0.016 A 
ATOM     39  C   UNL A   1      37.021  34.138  29.789  1.00  0.00     0.010 A 
ATOM     40  C   UNL A   1      35.574  33.396  31.586  1.00  0.00     0.010 A 
ATOM     41  C   UNL A   1      36.863  33.526  31.043  1.00  0.00    -0.014 A 
BRANCH  41  42
ATOM     42  C   UNL A   1      38.039  32.859  31.662  1.00  0.00     0.031 A 
ATOM     43  C   UNL A   1      38.529  33.335  33.007  1.00  0.00     0.074 A 
ATOM     44  C   UNL A   1      38.608  31.783  31.086  1.00  0.00     0.049 A 
ATOM     45  N   UNL A   1      39.460  32.832  33.777  1.00  0.00    -0.248 NA
ATOM     46  C   UNL A   1      37.889  34.542  33.557  1.00  0.00     0.031 C 
ATOM     47  C   UNL A   1      38.230  31.218  29.792  1.00  0.00     0.029 A 
ATOM     48  N   UNL A   1      39.615  30.962  31.531  1.00  0.00    -0.354 N 
ATOM     49  C   UNL A   1      39.517  33.655  34.897  1.00  0.00     0.074 A 
ATOM     50  C   UNL A   1      38.560  34.719  34.685  1.00  0.00     0.031 C 
ATOM     51  C   UNL A   1      38.986  30.131  29.554  1.00  0.00     0.029 A 
ATOM     52  C   UNL A   1      39.902  29.927  30.674  1.00  0.00     0.049 A 
ATOM     53  H   UNL A   1      40.086  31.102  32.384  1.00  0.00     0.167 HD
ATOM     54  C   UNL A   1      40.275  33.529  36.012  1.00  0.00     0.037 A 
ATOM     55  C   UNL A   1      40.792  28.921  30.786  1.00  0.00     0.037 A 
ATOM     56  C   UNL A   1      41.210  32.459  36.241  1.00  0.00     0.049 A 
ATOM     57  C   UNL A   1      41.625  28.797  32.035  1.00  0.00     0.074 A 
ATOM     58  C   UNL A   1      42.002  32.230  37.353  1.00  0.00     0.029 A 
ATOM     59  N   UNL A   1      41.475  31.436  35.344  1.00  0.00    -0.354 N 
ATOM     60  N   UNL A   1      41.633  29.563  33.101  1.00  0.00    -0.248 NA
ATOM     61  C   UNL A   1      42.557  27.662  32.104  1.00  0.00     0.031 C 
ATOM     62  C   UNL A   1      42.769  31.083  37.116  1.00  0.00     0.029 A 
ATOM     63  C   UNL A   1      42.426  30.580  35.871  1.00  0.00     0.049 A 
ATOM     64  H   UNL A   1      41.050  31.334  34.462  1.00  0.00     0.167 HD
ATOM     65  C   UNL A   1      42.551  28.988  33.975  1.00  0.00     0.074 A 
ATOM     66  C   UNL A   1      43.070  27.806  33.320  1.00  0.00     0.031 C 
ATOM     67  C   UNL A   1      42.928  29.401  35.210  1.00  0.00     0.037 A 
BRANCH  54  68
ATOM     68  C   UNL A   1      40.125  34.583  37.072  1.00  0.00     0.058 A 
ATOM     69  C   UNL A   1      40.950  35.719  37.103  1.00  0.00     0.135 A 
ATOM     70  C   UNL A   1      39.134  34.466  38.060  1.00  0.00     0.135 A 
ATOM     71  F   UNL A   1      41.925  35.870  36.193  1.00  0.00    -0.206 F 
ATOM     72  C   UNL A   1      40.816  36.688  38.092  1.00  0.00     0.059 A 
ATOM     73  C   UNL A   1      38.967  35.435  39.045  1.00  0.00     0.059 A 
ATOM     74  F   UNL A   1      38.320  33.400  38.077  1.00  0.00    -0.206 F 
ATOM     75  C   UNL A   1      39.825  36.535  39.062  1.00  0.00     0.060 A 
BRANCH  75  76
ATOM     76  S   UNL A   1      39.664  37.794  40.345  1.00  0.00     0.124 S 
ATOM     77  O   UNL A   1      38.261  38.172  40.206  1.00  0.00    -0.237 OA
ATOM     78  O   UNL A   1      40.004  37.056  41.557  1.00  0.00    -0.237 OA
ATOM     79  O   UNL A   1      40.631  38.811  39.943  1.00  0.00    -0.744 OA
ENDBRANCH  75  76
ENDBRANCH  54  68
BRANCH  55  80
ATOM     80  C   UNL A   1      40.925  27.927  29.689  1.00  0.00     0.058 A 
ATOM     81  C   UNL A   1      42.007  27.971  28.797  1.00  0.00     0.135 A 
ATOM     82  C   UNL A   1      39.972  26.913  29.514  1.00  0.00     0.135 A 
ATOM     83  F   UNL A   1      42.938  28.928  28.918  1.00  0.00    -0.206 F 
ATOM     84  C   UNL A   1      42.133  27.051  27.760  1.00  0.00     0.059 A 
ATOM     85  C   UNL A   1      40.086  25.969  28.499  1.00  0.00     0.059 A 
ATOM     86  F   UNL A   1      38.925  26.825  30.350  1.00  0.00    -0.206 F 
ATOM     87  C   UNL A   1      41.166  26.053  27.620  1.00  0.00     0.060 A 
BRANCH  87  88
ATOM     88  S   UNL A   1      41.363  24.830  26.305  1.00  0.00     0.124 S 
ATOM     89  O   UNL A   1      42.606  24.177  26.696  1.00  0.00    -0.237 OA
ATOM     90  O   UNL A   1      40.150  24.030  26.443  1.00  0.00    -0.237 OA
ATOM     91  O   UNL A   1      41.429  25.648  25.097  1.00  0.00    -0.744 OA
ENDBRANCH  87  88
ENDBRANCH  55  80
BRANCH  67  92
ATOM     92  C   UNL A   1      43.926  28.554  35.949  1.00  0.00     0.058 A 
ATOM     93  C   UNL A   1      43.523  27.480  36.759  1.00  0.00     0.135 A 
ATOM     94  C   UNL A   1      45.302  28.793  35.813  1.00  0.00     0.135 A 
ATOM     95  F   UNL A   1      42.218  27.211  36.924  1.00  0.00    -0.206 F 
ATOM     96  C   UNL A   1      44.450  26.689  37.430  1.00  0.00     0.059 A 
ATOM     97  C   UNL A   1      46.248  28.002  36.457  1.00  0.00     0.059 A 
ATOM     98  F   UNL A   1      45.740  29.800  35.040  1.00  0.00    -0.206 F 
ATOM     99  C   UNL A   1      45.811  26.961  37.276  1.00  0.00     0.060 A 
BRANCH  99 100
ATOM    100  S   UNL A   1      47.010  25.918  38.135  1.00  0.00     0.124 S 
ATOM    101  O   UNL A   1      46.694  24.601  37.592  1.00  0.00    -0.237 OA
ATOM    102  O   UNL A   1      48.285  26.488  37.713  1.00  0.00    -0.237 OA
ATOM    103  O   UNL A   1      46.680  26.114  39.544  1.00  0.00    -0.744 OA
ENDBRANCH  99 100
ENDBRANCH  67  92
ENDBRANCH  41  42
ENDBRANCH  34  36
ENDBRANCH  33  34
ENDBRANCH  32  33
ENDBRANCH  31  32
ENDBRANCH   1  31
TORSDOF 23
ENDMDL
