MODEL 1
REMARK VINA RESULT:      -9.3      0.000      0.000
REMARK SMILES O=C(OCCOCCOC(=O)[C@H]1CC[C@@H](C[NH2+][C@H]2CCC[C@H](C3CC3)C2)CC1)c1ccc(-c2c3nc(c(-c4c(F)cc(S(=O)(=O)[O-])cc4F)c4ccc([nH]4)c(-c4c(F)cc(S(=O)(=O)[O-])cc4F)c4nc(c(-c5c(F)cc(S(=O)(=O)[O-])cc5F)c5ccc2[nH]5)C=C4)C=C3)cc1
REMARK SMILES IDX 7 1 6 2 5 3 4 4 3 5 2 6 1 7 29 8 30 9 94 10 31 11 93 12
REMARK SMILES IDX 32 13 33 14 34 15 87 16 35 17 92 18 86 19 88 20 36 21 91 22
REMARK SMILES IDX 85 23 84 24 37 26 71 27 50 28 70 29 51 30 54 31 69 32 89 33
REMARK SMILES IDX 52 34 53 35 68 37 90 38 55 39 38 40 39 41 48 42 40 43 41 44
REMARK SMILES IDX 47 45 49 46 42 47 43 48 44 49 45 50 46 51 72 52 73 53 82 54
REMARK SMILES IDX 74 55 75 56 81 57 83 58 76 59 77 60 78 61 79 62 80 63 56 64
REMARK SMILES IDX 57 65 66 66 58 67 59 68 65 69 67 70 60 71 61 72 62 73 63 74
REMARK SMILES IDX 64 75 8 76 9 77 10 78 11 79 12 80 28 81 13 82 27 83 14 84
REMARK SMILES IDX 15 85 16 86 17 87 18 90 19 91 26 92 20 93 22 94 21 95 23 96
REMARK SMILES IDX 24 97 25 98
REMARK H PARENT 88 25 54 36 17 88 17 89
REMARK Flexibility Score: inf
ROOT
ATOM      1  C   UNL A   1      33.420  34.195  28.049  1.00  0.00     0.202 C 
ENDROOT
BRANCH   1   2
ATOM      2  O   UNL A   1      34.774  33.727  28.095  1.00  0.00    -0.374 OA
BRANCH   2   3
ATOM      3  C   UNL A   1      35.013  32.471  28.734  1.00  0.00     0.202 C 
BRANCH   3   4
ATOM      4  C   UNL A   1      35.163  31.235  27.840  1.00  0.00     0.261 C 
BRANCH   4   5
ATOM      5  O   UNL A   1      35.427  30.060  28.624  1.00  0.00    -0.460 OA
BRANCH   5   6
ATOM      6  C   UNL A   1      36.309  29.939  29.646  1.00  0.00     0.338 C 
ATOM      7  O   UNL A   1      35.902  30.045  30.800  1.00  0.00    -0.246 OA
BRANCH   6   8
ATOM      8  C   UNL A   1      37.763  29.685  29.422  1.00  0.00     0.060 A 
ATOM      9  C   UNL A   1      38.374  29.740  28.172  1.00  0.00     0.016 A 
ATOM     10  C   UNL A   1      38.576  29.450  30.541  1.00  0.00     0.016 A 
ATOM     11  C   UNL A   1      39.710  29.471  27.999  1.00  0.00     0.010 A 
ATOM     12  C   UNL A   1      39.954  29.253  30.388  1.00  0.00     0.010 A 
ATOM     13  C   UNL A   1      40.514  29.253  29.107  1.00  0.00    -0.014 A 
BRANCH  13  14
ATOM     14  C   UNL A   1      41.917  28.944  28.807  1.00  0.00     0.031 A 
ATOM     15  C   UNL A   1      42.247  27.564  28.339  1.00  0.00     0.074 A 
ATOM     16  C   UNL A   1      42.790  29.966  28.722  1.00  0.00     0.049 A 
ATOM     17  N   UNL A   1      43.397  27.077  27.969  1.00  0.00    -0.248 NA
ATOM     18  C   UNL A   1      41.127  26.610  28.245  1.00  0.00     0.031 C 
ATOM     19  C   UNL A   1      42.470  31.373  29.005  1.00  0.00     0.029 A 
ATOM     20  N   UNL A   1      44.092  30.004  28.310  1.00  0.00    -0.354 N 
ATOM     21  C   UNL A   1      43.146  25.758  27.620  1.00  0.00     0.074 A 
ATOM     22  C   UNL A   1      41.738  25.513  27.827  1.00  0.00     0.031 C 
ATOM     23  C   UNL A   1      43.538  32.134  28.727  1.00  0.00     0.029 A 
ATOM     24  C   UNL A   1      44.639  31.265  28.334  1.00  0.00     0.049 A 
ATOM     25  H   UNL A   1      44.591  29.205  28.024  1.00  0.00     0.167 HD
ATOM     26  C   UNL A   1      44.032  24.843  27.167  1.00  0.00     0.037 A 
ATOM     27  C   UNL A   1      45.906  31.657  28.108  1.00  0.00     0.037 A 
ATOM     28  C   UNL A   1      45.425  25.137  26.978  1.00  0.00     0.049 A 
ATOM     29  C   UNL A   1      46.894  30.588  27.729  1.00  0.00     0.074 A 
ATOM     30  C   UNL A   1      46.451  24.281  26.630  1.00  0.00     0.029 A 
ATOM     31  N   UNL A   1      45.983  26.403  27.119  1.00  0.00    -0.354 N 
ATOM     32  N   UNL A   1      46.677  29.310  27.508  1.00  0.00    -0.248 NA
ATOM     33  C   UNL A   1      48.293  30.999  27.583  1.00  0.00     0.031 C 
ATOM     34  C   UNL A   1      47.638  25.023  26.603  1.00  0.00     0.029 A 
ATOM     35  C   UNL A   1      47.343  26.351  26.879  1.00  0.00     0.049 A 
ATOM     36  H   UNL A   1      45.483  27.217  27.355  1.00  0.00     0.167 HD
ATOM     37  C   UNL A   1      47.913  28.764  27.187  1.00  0.00     0.074 A 
ATOM     38  C   UNL A   1      48.863  29.861  27.211  1.00  0.00     0.031 C 
ATOM     39  C   UNL A   1      48.243  27.477  26.912  1.00  0.00     0.037 A 
BRANCH  26  40
ATOM     40  C   UNL A   1      43.522  23.453  26.927  1.00  0.00     0.058 A 
ATOM     41  C   UNL A   1      43.272  22.558  27.980  1.00  0.00     0.135 A 
ATOM     42  C   UNL A   1      43.298  23.001  25.617  1.00  0.00     0.135 A 
ATOM     43  F   UNL A   1      43.511  22.922  29.250  1.00  0.00    -0.206 F 
ATOM     44  C   UNL A   1      42.826  21.261  27.740  1.00  0.00     0.059 A 
ATOM     45  C   UNL A   1      42.831  21.717  25.354  1.00  0.00     0.059 A 
ATOM     46  F   UNL A   1      43.547  23.808  24.573  1.00  0.00    -0.206 F 
ATOM     47  C   UNL A   1      42.605  20.851  26.424  1.00  0.00     0.060 A 
BRANCH  47  48
ATOM     48  S   UNL A   1      42.010  19.173  26.130  1.00  0.00     0.124 S 
ATOM     49  O   UNL A   1      40.601  19.409  25.835  1.00  0.00    -0.237 OA
ATOM     50  O   UNL A   1      42.832  18.747  25.001  1.00  0.00    -0.237 OA
ATOM     51  O   UNL A   1      42.280  18.489  27.391  1.00  0.00    -0.744 OA
ENDBRANCH  47  48
ENDBRANCH  26  40
BRANCH  27  52
ATOM     52  C   UNL A   1      46.320  33.070  28.334  1.00  0.00     0.058 A 
ATOM     53  C   UNL A   1      46.398  33.998  27.286  1.00  0.00     0.135 A 
ATOM     54  C   UNL A   1      46.691  33.513  29.617  1.00  0.00     0.135 A 
ATOM     55  F   UNL A   1      46.059  33.631  26.039  1.00  0.00    -0.206 F 
ATOM     56  C   UNL A   1      46.861  35.296  27.490  1.00  0.00     0.059 A 
ATOM     57  C   UNL A   1      47.121  34.813  29.853  1.00  0.00     0.059 A 
ATOM     58  F   UNL A   1      46.628  32.676  30.664  1.00  0.00    -0.206 F 
ATOM     59  C   UNL A   1      47.227  35.692  28.778  1.00  0.00     0.060 A 
BRANCH  59  60
ATOM     60  S   UNL A   1      47.843  37.370  29.036  1.00  0.00     0.124 S 
ATOM     61  O   UNL A   1      49.168  37.290  28.432  1.00  0.00    -0.237 OA
ATOM     62  O   UNL A   1      46.860  38.173  28.318  1.00  0.00    -0.237 OA
ATOM     63  O   UNL A   1      47.821  37.516  30.489  1.00  0.00    -0.744 OA
ENDBRANCH  59  60
ENDBRANCH  27  52
BRANCH  39  64
ATOM     64  C   UNL A   1      49.684  27.213  26.590  1.00  0.00     0.058 A 
ATOM     65  C   UNL A   1      50.619  26.918  27.594  1.00  0.00     0.135 A 
ATOM     66  C   UNL A   1      50.124  27.226  25.257  1.00  0.00     0.135 A 
ATOM     67  F   UNL A   1      50.245  26.901  28.884  1.00  0.00    -0.206 F 
ATOM     68  C   UNL A   1      51.953  26.682  27.291  1.00  0.00     0.059 A 
ATOM     69  C   UNL A   1      51.445  26.958  24.929  1.00  0.00     0.059 A 
ATOM     70  F   UNL A   1      49.262  27.490  24.263  1.00  0.00    -0.206 F 
ATOM     71  C   UNL A   1      52.357  26.705  25.954  1.00  0.00     0.060 A 
BRANCH  71  72
ATOM     72  S   UNL A   1      54.088  26.380  25.570  1.00  0.00     0.124 S 
ATOM     73  O   UNL A   1      54.754  27.452  26.302  1.00  0.00    -0.237 OA
ATOM     74  O   UNL A   1      54.279  25.035  26.103  1.00  0.00    -0.237 OA
ATOM     75  O   UNL A   1      54.138  26.487  24.115  1.00  0.00    -0.744 OA
ENDBRANCH  71  72
ENDBRANCH  39  64
ENDBRANCH  13  14
ENDBRANCH   6   8
ENDBRANCH   5   6
ENDBRANCH   4   5
ENDBRANCH   3   4
ENDBRANCH   2   3
ENDBRANCH   1   2
BRANCH   1  76
ATOM     76  C   UNL A   1      33.298  35.536  28.779  1.00  0.00     0.261 C 
BRANCH  76  77
ATOM     77  O   UNL A   1      33.945  35.384  30.049  1.00  0.00    -0.463 OA
BRANCH  77  78
ATOM     78  C   UNL A   1      33.126  35.709  31.089  1.00  0.00     0.309 C 
ATOM     79  O   UNL A   1      32.153  36.446  31.008  1.00  0.00    -0.252 OA
BRANCH  78  80
ATOM     80  C   UNL A   1      33.521  34.896  32.310  1.00  0.00     0.099 C 
ATOM     81  C   UNL A   1      34.083  33.537  31.886  1.00  0.00     0.016 C 
ATOM     82  C   UNL A   1      34.388  35.761  33.240  1.00  0.00     0.016 C 
ATOM     83  C   UNL A   1      34.936  32.866  32.962  1.00  0.00     0.010 C 
ATOM     84  C   UNL A   1      35.182  34.955  34.252  1.00  0.00     0.010 C 
ATOM     85  C   UNL A   1      35.972  33.831  33.568  1.00  0.00     0.044 C 
BRANCH  85  86
ATOM     86  C   UNL A   1      36.958  34.307  32.464  1.00  0.00     0.264 C 
BRANCH  86  87
ATOM     87  N   UNL A   1      38.323  33.831  32.638  1.00  0.00    -0.344 N 
ATOM     88  H   UNL A   1      38.360  33.296  33.505  1.00  0.00     0.346 HD
ATOM     89  H   UNL A   1      38.909  34.667  32.640  1.00  0.00     0.346 HD
BRANCH  87  90
ATOM     90  C   UNL A   1      38.853  32.975  31.553  1.00  0.00     0.182 C 
ATOM     91  C   UNL A   1      38.437  33.272  30.095  1.00  0.00     0.065 C 
ATOM     92  C   UNL A   1      40.396  32.985  31.629  1.00  0.00     0.069 C 
ATOM     93  C   UNL A   1      39.053  34.546  29.529  1.00  0.00     0.006 C 
ATOM     94  C   UNL A   1      41.021  34.305  31.117  1.00  0.00    -0.002 C 
ATOM     95  C   UNL A   1      40.571  34.570  29.674  1.00  0.00     0.004 C 
BRANCH  94  96
ATOM     96  C   UNL A   1      42.523  34.292  31.317  1.00  0.00    -0.008 C 
ATOM     97  C   UNL A   1      43.469  35.328  30.758  1.00  0.00     0.004 C 
ATOM     98  C   UNL A   1      43.166  35.310  32.230  1.00  0.00     0.004 C 
ENDBRANCH  94  96
ENDBRANCH  87  90
ENDBRANCH  86  87
ENDBRANCH  85  86
ENDBRANCH  78  80
ENDBRANCH  77  78
ENDBRANCH  76  77
ENDBRANCH   1  76
TORSDOF 21
ENDMDL
MODEL 2
REMARK VINA RESULT:      -9.2      3.109      9.972
REMARK SMILES O=C(OCCOCCOC(=O)[C@H]1CC[C@@H](C[NH2+][C@H]2CCC[C@H](C3CC3)C2)CC1)c1ccc(-c2c3nc(c(-c4c(F)cc(S(=O)(=O)[O-])cc4F)c4ccc([nH]4)c(-c4c(F)cc(S(=O)(=O)[O-])cc4F)c4nc(c(-c5c(F)cc(S(=O)(=O)[O-])cc5F)c5ccc2[nH]5)C=C4)C=C3)cc1
REMARK SMILES IDX 7 1 6 2 5 3 4 4 3 5 2 6 1 7 29 8 30 9 94 10 31 11 93 12
REMARK SMILES IDX 32 13 33 14 34 15 87 16 35 17 92 18 86 19 88 20 36 21 91 22
REMARK SMILES IDX 85 23 84 24 37 26 71 27 50 28 70 29 51 30 54 31 69 32 89 33
REMARK SMILES IDX 52 34 53 35 68 37 90 38 55 39 38 40 39 41 48 42 40 43 41 44
REMARK SMILES IDX 47 45 49 46 42 47 43 48 44 49 45 50 46 51 72 52 73 53 82 54
REMARK SMILES IDX 74 55 75 56 81 57 83 58 76 59 77 60 78 61 79 62 80 63 56 64
REMARK SMILES IDX 57 65 66 66 58 67 59 68 65 69 67 70 60 71 61 72 62 73 63 74
REMARK SMILES IDX 64 75 8 76 9 77 10 78 11 79 12 80 28 81 13 82 27 83 14 84
REMARK SMILES IDX 15 85 16 86 17 87 18 90 19 91 26 92 20 93 22 94 21 95 23 96
REMARK SMILES IDX 24 97 25 98
REMARK H PARENT 88 25 54 36 17 88 17 89
REMARK Flexibility Score: inf
ROOT
ATOM      1  C   UNL A   1      34.362  32.884  29.364  1.00  0.00     0.202 C 
ENDROOT
BRANCH   1   2
ATOM      2  O   UNL A   1      35.524  33.651  29.706  1.00  0.00    -0.374 OA
BRANCH   2   3
ATOM      3  C   UNL A   1      36.024  33.526  31.039  1.00  0.00     0.202 C 
BRANCH   3   4
ATOM      4  C   UNL A   1      35.533  32.339  31.874  1.00  0.00     0.261 C 
BRANCH   4   5
ATOM      5  O   UNL A   1      36.531  31.308  31.944  1.00  0.00    -0.460 OA
BRANCH   5   6
ATOM      6  C   UNL A   1      36.741  30.310  31.050  1.00  0.00     0.338 C 
ATOM      7  O   UNL A   1      35.785  29.638  30.672  1.00  0.00    -0.246 OA
BRANCH   6   8
ATOM      8  C   UNL A   1      38.096  29.992  30.510  1.00  0.00     0.060 A 
ATOM      9  C   UNL A   1      38.440  30.109  29.166  1.00  0.00     0.016 A 
ATOM     10  C   UNL A   1      39.103  29.624  31.416  1.00  0.00     0.016 A 
ATOM     11  C   UNL A   1      39.689  29.778  28.699  1.00  0.00     0.010 A 
ATOM     12  C   UNL A   1      40.402  29.360  30.965  1.00  0.00     0.010 A 
ATOM     13  C   UNL A   1      40.685  29.428  29.597  1.00  0.00    -0.014 A 
BRANCH  13  14
ATOM     14  C   UNL A   1      41.970  29.064  28.990  1.00  0.00     0.031 A 
ATOM     15  C   UNL A   1      43.089  30.051  29.070  1.00  0.00     0.074 A 
ATOM     16  C   UNL A   1      42.160  27.782  28.622  1.00  0.00     0.049 A 
ATOM     17  N   UNL A   1      44.318  29.933  28.655  1.00  0.00    -0.248 NA
ATOM     18  C   UNL A   1      42.794  31.335  29.733  1.00  0.00     0.031 C 
ATOM     19  C   UNL A   1      41.139  26.727  28.687  1.00  0.00     0.029 A 
ATOM     20  N   UNL A   1      43.279  27.128  28.191  1.00  0.00    -0.354 N 
ATOM     21  C   UNL A   1      44.937  31.129  28.985  1.00  0.00     0.074 A 
ATOM     22  C   UNL A   1      43.953  31.967  29.628  1.00  0.00     0.031 C 
ATOM     23  C   UNL A   1      41.691  25.555  28.341  1.00  0.00     0.029 A 
ATOM     24  C   UNL A   1      43.072  25.791  27.945  1.00  0.00     0.049 A 
ATOM     25  H   UNL A   1      44.150  27.570  28.069  1.00  0.00     0.167 HD
ATOM     26  C   UNL A   1      46.223  31.481  28.761  1.00  0.00     0.037 A 
ATOM     27  C   UNL A   1      43.902  24.877  27.411  1.00  0.00     0.037 A 
ATOM     28  C   UNL A   1      47.166  30.609  28.116  1.00  0.00     0.049 A 
ATOM     29  C   UNL A   1      45.289  25.339  27.056  1.00  0.00     0.074 A 
ATOM     30  C   UNL A   1      48.465  30.873  27.729  1.00  0.00     0.029 A 
ATOM     31  N   UNL A   1      46.899  29.289  27.769  1.00  0.00    -0.354 N 
ATOM     32  N   UNL A   1      45.843  26.512  27.266  1.00  0.00    -0.248 NA
ATOM     33  C   UNL A   1      46.158  24.371  26.381  1.00  0.00     0.031 C 
ATOM     34  C   UNL A   1      48.970  29.725  27.109  1.00  0.00     0.029 A 
ATOM     35  C   UNL A   1      48.005  28.728  27.160  1.00  0.00     0.049 A 
ATOM     36  H   UNL A   1      46.049  28.823  27.934  1.00  0.00     0.167 HD
ATOM     37  C   UNL A   1      47.131  26.422  26.757  1.00  0.00     0.074 A 
ATOM     38  C   UNL A   1      47.281  25.066  26.261  1.00  0.00     0.031 C 
ATOM     39  C   UNL A   1      48.101  27.368  26.687  1.00  0.00     0.037 A 
BRANCH  26  40
ATOM     40  C   UNL A   1      46.634  32.870  29.150  1.00  0.00     0.058 A 
ATOM     41  C   UNL A   1      46.476  33.965  28.285  1.00  0.00     0.135 A 
ATOM     42  C   UNL A   1      47.216  33.107  30.405  1.00  0.00     0.135 A 
ATOM     43  F   UNL A   1      45.966  33.788  27.055  1.00  0.00    -0.206 F 
ATOM     44  C   UNL A   1      46.889  35.244  28.649  1.00  0.00     0.059 A 
ATOM     45  C   UNL A   1      47.614  34.381  30.800  1.00  0.00     0.059 A 
ATOM     46  F   UNL A   1      47.414  32.091  31.260  1.00  0.00    -0.206 F 
ATOM     47  C   UNL A   1      47.453  35.442  29.910  1.00  0.00     0.060 A 
BRANCH  47  48
ATOM     48  S   UNL A   1      47.966  37.109  30.374  1.00  0.00     0.124 S 
ATOM     49  O   UNL A   1      47.277  37.284  31.648  1.00  0.00    -0.237 OA
ATOM     50  O   UNL A   1      49.418  36.974  30.452  1.00  0.00    -0.237 OA
ATOM     51  O   UNL A   1      47.475  37.935  29.276  1.00  0.00    -0.744 OA
ENDBRANCH  47  48
ENDBRANCH  26  40
BRANCH  27  52
ATOM     52  C   UNL A   1      43.422  23.503  27.091  1.00  0.00     0.058 A 
ATOM     53  C   UNL A   1      43.258  22.524  28.082  1.00  0.00     0.135 A 
ATOM     54  C   UNL A   1      43.153  23.128  25.763  1.00  0.00     0.135 A 
ATOM     55  F   UNL A   1      43.503  22.823  29.367  1.00  0.00    -0.206 F 
ATOM     56  C   UNL A   1      42.885  21.219  27.766  1.00  0.00     0.059 A 
ATOM     57  C   UNL A   1      42.743  21.843  25.427  1.00  0.00     0.059 A 
ATOM     58  F   UNL A   1      43.279  24.022  24.770  1.00  0.00    -0.206 F 
ATOM     59  C   UNL A   1      42.636  20.887  26.433  1.00  0.00     0.060 A 
BRANCH  59  60
ATOM     60  S   UNL A   1      42.168  19.191  26.026  1.00  0.00     0.124 S 
ATOM     61  O   UNL A   1      42.564  18.481  27.237  1.00  0.00    -0.237 OA
ATOM     62  O   UNL A   1      40.732  19.313  25.797  1.00  0.00    -0.237 OA
ATOM     63  O   UNL A   1      42.962  18.899  24.836  1.00  0.00    -0.744 OA
ENDBRANCH  59  60
ENDBRANCH  27  52
BRANCH  39  64
ATOM     64  C   UNL A   1      49.405  26.944  26.080  1.00  0.00     0.058 A 
ATOM     65  C   UNL A   1      49.673  27.127  24.715  1.00  0.00     0.135 A 
ATOM     66  C   UNL A   1      50.406  26.375  26.882  1.00  0.00     0.135 A 
ATOM     67  F   UNL A   1      48.743  27.661  23.907  1.00  0.00    -0.206 F 
ATOM     68  C   UNL A   1      50.880  26.725  24.157  1.00  0.00     0.059 A 
ATOM     69  C   UNL A   1      51.632  25.999  26.352  1.00  0.00     0.059 A 
ATOM     70  F   UNL A   1      50.199  26.193  28.196  1.00  0.00    -0.206 F 
ATOM     71  C   UNL A   1      51.853  26.161  24.985  1.00  0.00     0.060 A 
BRANCH  71  72
ATOM     72  S   UNL A   1      53.421  25.658  24.252  1.00  0.00     0.124 S 
ATOM     73  O   UNL A   1      53.184  25.931  22.839  1.00  0.00    -0.237 OA
ATOM     74  O   UNL A   1      54.374  26.542  24.916  1.00  0.00    -0.237 OA
ATOM     75  O   UNL A   1      53.526  24.247  24.611  1.00  0.00    -0.744 OA
ENDBRANCH  71  72
ENDBRANCH  39  64
ENDBRANCH  13  14
ENDBRANCH   6   8
ENDBRANCH   5   6
ENDBRANCH   4   5
ENDBRANCH   3   4
ENDBRANCH   2   3
ENDBRANCH   1   2
BRANCH   1  76
ATOM     76  C   UNL A   1      34.688  31.907  28.230  1.00  0.00     0.261 C 
BRANCH  76  77
ATOM     77  O   UNL A   1      33.496  31.158  27.965  1.00  0.00    -0.463 OA
BRANCH  77  78
ATOM     78  C   UNL A   1      33.748  30.014  27.268  1.00  0.00     0.309 C 
ATOM     79  O   UNL A   1      34.838  29.463  27.201  1.00  0.00    -0.252 OA
BRANCH  78  80
ATOM     80  C   UNL A   1      32.442  29.459  26.726  1.00  0.00     0.099 C 
ATOM     81  C   UNL A   1      32.404  29.581  25.201  1.00  0.00     0.016 C 
ATOM     82  C   UNL A   1      32.189  28.068  27.331  1.00  0.00     0.016 C 
ATOM     83  C   UNL A   1      31.398  28.641  24.537  1.00  0.00     0.010 C 
ATOM     84  C   UNL A   1      31.169  27.248  26.561  1.00  0.00     0.010 C 
ATOM     85  C   UNL A   1      31.512  27.200  25.066  1.00  0.00     0.044 C 
BRANCH  85  86
ATOM     86  C   UNL A   1      32.921  26.629  24.739  1.00  0.00     0.264 C 
BRANCH  86  87
ATOM     87  N   UNL A   1      32.905  25.285  24.178  1.00  0.00    -0.344 N 
ATOM     88  H   UNL A   1      33.816  25.113  23.753  1.00  0.00     0.346 HD
ATOM     89  H   UNL A   1      32.128  25.271  23.516  1.00  0.00     0.346 HD
BRANCH  87  90
ATOM     90  C   UNL A   1      32.636  24.188  25.135  1.00  0.00     0.182 C 
ATOM     91  C   UNL A   1      32.121  22.835  24.596  1.00  0.00     0.065 C 
ATOM     92  C   UNL A   1      33.919  23.927  25.955  1.00  0.00     0.069 C 
ATOM     93  C   UNL A   1      33.171  22.042  23.825  1.00  0.00     0.006 C 
ATOM     94  C   UNL A   1      35.012  23.181  25.152  1.00  0.00    -0.002 C 
ATOM     95  C   UNL A   1      34.456  21.852  24.622  1.00  0.00     0.004 C 
BRANCH  94  96
ATOM     96  C   UNL A   1      36.278  23.052  25.976  1.00  0.00    -0.008 C 
ATOM     97  C   UNL A   1      37.571  22.460  25.468  1.00  0.00     0.004 C 
ATOM     98  C   UNL A   1      37.460  23.944  25.677  1.00  0.00     0.004 C 
ENDBRANCH  94  96
ENDBRANCH  87  90
ENDBRANCH  86  87
ENDBRANCH  85  86
ENDBRANCH  78  80
ENDBRANCH  77  78
ENDBRANCH  76  77
ENDBRANCH   1  76
TORSDOF 21
ENDMDL
MODEL 3
REMARK VINA RESULT:      -9.1      6.674     10.396
REMARK SMILES O=C(OCCOCCOC(=O)[C@H]1CC[C@@H](C[NH2+][C@H]2CCC[C@H](C3CC3)C2)CC1)c1ccc(-c2c3nc(c(-c4c(F)cc(S(=O)(=O)[O-])cc4F)c4ccc([nH]4)c(-c4c(F)cc(S(=O)(=O)[O-])cc4F)c4nc(c(-c5c(F)cc(S(=O)(=O)[O-])cc5F)c5ccc2[nH]5)C=C4)C=C3)cc1
REMARK SMILES IDX 7 1 6 2 5 3 4 4 3 5 2 6 1 7 29 8 30 9 94 10 31 11 93 12
REMARK SMILES IDX 32 13 33 14 34 15 87 16 35 17 92 18 86 19 88 20 36 21 91 22
REMARK SMILES IDX 85 23 84 24 37 26 71 27 50 28 70 29 51 30 54 31 69 32 89 33
REMARK SMILES IDX 52 34 53 35 68 37 90 38 55 39 38 40 39 41 48 42 40 43 41 44
REMARK SMILES IDX 47 45 49 46 42 47 43 48 44 49 45 50 46 51 72 52 73 53 82 54
REMARK SMILES IDX 74 55 75 56 81 57 83 58 76 59 77 60 78 61 79 62 80 63 56 64
REMARK SMILES IDX 57 65 66 66 58 67 59 68 65 69 67 70 60 71 61 72 62 73 63 74
REMARK SMILES IDX 64 75 8 76 9 77 10 78 11 79 12 80 28 81 13 82 27 83 14 84
REMARK SMILES IDX 15 85 16 86 17 87 18 90 19 91 26 92 20 93 22 94 21 95 23 96
REMARK SMILES IDX 24 97 25 98
REMARK H PARENT 88 25 54 36 17 88 17 89
REMARK Flexibility Score: inf
ROOT
ATOM      1  C   UNL A   1      35.622  33.082  28.128  1.00  0.00     0.202 C 
ENDROOT
BRANCH   1   2
ATOM      2  O   UNL A   1      34.403  33.736  27.752  1.00  0.00    -0.374 OA
BRANCH   2   3
ATOM      3  C   UNL A   1      34.385  35.165  27.793  1.00  0.00     0.202 C 
BRANCH   3   4
ATOM      4  C   UNL A   1      33.331  35.838  28.678  1.00  0.00     0.261 C 
BRANCH   4   5
ATOM      5  O   UNL A   1      32.781  34.907  29.624  1.00  0.00    -0.460 OA
BRANCH   5   6
ATOM      6  C   UNL A   1      33.041  34.840  30.953  1.00  0.00     0.338 C 
ATOM      7  O   UNL A   1      32.220  35.297  31.744  1.00  0.00    -0.246 OA
BRANCH   6   8
ATOM      8  C   UNL A   1      34.294  34.235  31.494  1.00  0.00     0.060 A 
ATOM      9  C   UNL A   1      34.360  32.958  32.045  1.00  0.00     0.016 A 
ATOM     10  C   UNL A   1      35.487  34.963  31.376  1.00  0.00     0.016 A 
ATOM     11  C   UNL A   1      35.525  32.444  32.561  1.00  0.00     0.010 A 
ATOM     12  C   UNL A   1      36.697  34.420  31.826  1.00  0.00     0.010 A 
ATOM     13  C   UNL A   1      36.705  33.159  32.431  1.00  0.00    -0.014 A 
BRANCH  13  14
ATOM     14  C   UNL A   1      37.883  32.534  33.044  1.00  0.00     0.031 A 
ATOM     15  C   UNL A   1      38.780  31.719  32.171  1.00  0.00     0.074 A 
ATOM     16  C   UNL A   1      38.238  32.924  34.284  1.00  0.00     0.049 A 
ATOM     17  N   UNL A   1      39.895  31.119  32.474  1.00  0.00    -0.248 NA
ATOM     18  C   UNL A   1      38.386  31.586  30.756  1.00  0.00     0.031 C 
ATOM     19  C   UNL A   1      37.477  33.863  35.122  1.00  0.00     0.029 A 
ATOM     20  N   UNL A   1      39.348  32.647  35.029  1.00  0.00    -0.354 N 
ATOM     21  C   UNL A   1      40.326  30.520  31.300  1.00  0.00     0.074 A 
ATOM     22  C   UNL A   1      39.352  30.819  30.276  1.00  0.00     0.031 C 
ATOM     23  C   UNL A   1      38.162  34.104  36.249  1.00  0.00     0.029 A 
ATOM     24  C   UNL A   1      39.358  33.275  36.253  1.00  0.00     0.049 A 
ATOM     25  H   UNL A   1      40.071  32.055  34.721  1.00  0.00     0.167 HD
ATOM     26  C   UNL A   1      41.444  29.784  31.111  1.00  0.00     0.037 A 
ATOM     27  C   UNL A   1      40.221  33.147  37.278  1.00  0.00     0.037 A 
ATOM     28  C   UNL A   1      42.383  29.514  32.165  1.00  0.00     0.049 A 
ATOM     29  C   UNL A   1      41.387  32.218  37.076  1.00  0.00     0.074 A 
ATOM     30  C   UNL A   1      43.497  28.698  32.143  1.00  0.00     0.029 A 
ATOM     31  N   UNL A   1      42.312  30.071  33.437  1.00  0.00    -0.354 N 
ATOM     32  N   UNL A   1      41.734  31.558  35.994  1.00  0.00    -0.248 NA
ATOM     33  C   UNL A   1      42.269  32.001  38.226  1.00  0.00     0.031 C 
ATOM     34  C   UNL A   1      44.075  28.729  33.418  1.00  0.00     0.029 A 
ATOM     35  C   UNL A   1      43.355  29.606  34.215  1.00  0.00     0.049 A 
ATOM     36  H   UNL A   1      41.621  30.703  33.739  1.00  0.00     0.167 HD
ATOM     37  C   UNL A   1      42.881  30.851  36.330  1.00  0.00     0.074 A 
ATOM     38  C   UNL A   1      43.185  31.197  37.707  1.00  0.00     0.031 C 
ATOM     39  C   UNL A   1      43.613  29.987  35.583  1.00  0.00     0.037 A 
BRANCH  26  40
ATOM     40  C   UNL A   1      41.649  29.179  29.754  1.00  0.00     0.058 A 
ATOM     41  C   UNL A   1      41.076  27.949  29.390  1.00  0.00     0.135 A 
ATOM     42  C   UNL A   1      42.450  29.833  28.805  1.00  0.00     0.135 A 
ATOM     43  F   UNL A   1      40.337  27.259  30.274  1.00  0.00    -0.206 F 
ATOM     44  C   UNL A   1      41.299  27.387  28.137  1.00  0.00     0.059 A 
ATOM     45  C   UNL A   1      42.667  29.302  27.538  1.00  0.00     0.059 A 
ATOM     46  F   UNL A   1      43.043  30.998  29.111  1.00  0.00    -0.206 F 
ATOM     47  C   UNL A   1      42.093  28.073  27.216  1.00  0.00     0.060 A 
BRANCH  47  48
ATOM     48  S   UNL A   1      42.357  27.339  25.589  1.00  0.00     0.124 S 
ATOM     49  O   UNL A   1      43.675  26.733  25.751  1.00  0.00    -0.237 OA
ATOM     50  O   UNL A   1      41.240  26.405  25.485  1.00  0.00    -0.237 OA
ATOM     51  O   UNL A   1      42.301  28.482  24.684  1.00  0.00    -0.744 OA
ENDBRANCH  47  48
ENDBRANCH  26  40
BRANCH  27  52
ATOM     52  C   UNL A   1      39.961  33.815  38.583  1.00  0.00     0.058 A 
ATOM     53  C   UNL A   1      40.645  34.976  38.973  1.00  0.00     0.135 A 
ATOM     54  C   UNL A   1      39.038  33.274  39.496  1.00  0.00     0.135 A 
ATOM     55  F   UNL A   1      41.540  35.537  38.144  1.00  0.00    -0.206 F 
ATOM     56  C   UNL A   1      40.454  35.551  40.227  1.00  0.00     0.059 A 
ATOM     57  C   UNL A   1      38.803  33.850  40.739  1.00  0.00     0.059 A 
ATOM     58  F   UNL A   1      38.343  32.170  39.178  1.00  0.00    -0.206 F 
ATOM     59  C   UNL A   1      39.534  34.976  41.106  1.00  0.00     0.060 A 
BRANCH  59  60
ATOM     60  S   UNL A   1      39.302  35.715  42.737  1.00  0.00     0.124 S 
ATOM     61  O   UNL A   1      37.872  35.518  42.946  1.00  0.00    -0.237 OA
ATOM     62  O   UNL A   1      40.187  34.909  43.571  1.00  0.00    -0.237 OA
ATOM     63  O   UNL A   1      39.725  37.099  42.543  1.00  0.00    -0.744 OA
ENDBRANCH  59  60
ENDBRANCH  27  52
BRANCH  39  64
ATOM     64  C   UNL A   1      44.819  29.390  36.244  1.00  0.00     0.058 A 
ATOM     65  C   UNL A   1      44.747  28.178  36.948  1.00  0.00     0.135 A 
ATOM     66  C   UNL A   1      46.067  30.026  36.145  1.00  0.00     0.135 A 
ATOM     67  F   UNL A   1      43.574  27.537  37.075  1.00  0.00    -0.206 F 
ATOM     68  C   UNL A   1      45.866  27.635  37.565  1.00  0.00     0.059 A 
ATOM     69  C   UNL A   1      47.205  29.482  36.724  1.00  0.00     0.059 A 
ATOM     70  F   UNL A   1      46.186  31.180  35.470  1.00  0.00    -0.206 F 
ATOM     71  C   UNL A   1      47.091  28.296  37.447  1.00  0.00     0.060 A 
BRANCH  71  72
ATOM     72  S   UNL A   1      48.540  27.572  38.238  1.00  0.00     0.124 S 
ATOM     73  O   UNL A   1      49.527  28.633  38.066  1.00  0.00    -0.237 OA
ATOM     74  O   UNL A   1      48.075  27.355  39.604  1.00  0.00    -0.237 OA
ATOM     75  O   UNL A   1      48.779  26.359  37.462  1.00  0.00    -0.744 OA
ENDBRANCH  71  72
ENDBRANCH  39  64
ENDBRANCH  13  14
ENDBRANCH   6   8
ENDBRANCH   5   6
ENDBRANCH   4   5
ENDBRANCH   3   4
ENDBRANCH   2   3
ENDBRANCH   1   2
BRANCH   1  76
ATOM     76  C   UNL A   1      35.323  31.693  28.701  1.00  0.00     0.261 C 
BRANCH  76  77
ATOM     77  O   UNL A   1      34.057  31.282  28.169  1.00  0.00    -0.463 OA
BRANCH  77  78
ATOM     78  C   UNL A   1      34.159  30.167  27.393  1.00  0.00     0.309 C 
ATOM     79  O   UNL A   1      35.201  29.565  27.169  1.00  0.00    -0.252 OA
BRANCH  78  80
ATOM     80  C   UNL A   1      32.769  29.709  26.986  1.00  0.00     0.099 C 
ATOM     81  C   UNL A   1      32.525  30.002  25.504  1.00  0.00     0.016 C 
ATOM     82  C   UNL A   1      32.545  28.266  27.468  1.00  0.00     0.016 C 
ATOM     83  C   UNL A   1      31.399  29.169  24.894  1.00  0.00     0.010 C 
ATOM     84  C   UNL A   1      31.396  27.564  26.768  1.00  0.00     0.010 C 
ATOM     85  C   UNL A   1      31.526  27.675  25.243  1.00  0.00     0.044 C 
BRANCH  85  86
ATOM     86  C   UNL A   1      32.851  27.108  24.659  1.00  0.00     0.264 C 
BRANCH  86  87
ATOM     87  N   UNL A   1      32.665  26.095  23.630  1.00  0.00    -0.344 N 
ATOM     88  H   UNL A   1      33.531  26.028  23.096  1.00  0.00     0.346 HD
ATOM     89  H   UNL A   1      31.861  26.402  23.082  1.00  0.00     0.346 HD
BRANCH  87  90
ATOM     90  C   UNL A   1      32.325  24.738  24.114  1.00  0.00     0.182 C 
ATOM     91  C   UNL A   1      32.168  23.595  23.087  1.00  0.00     0.065 C 
ATOM     92  C   UNL A   1      33.381  24.310  25.157  1.00  0.00     0.069 C 
ATOM     93  C   UNL A   1      33.483  23.152  22.456  1.00  0.00     0.006 C 
ATOM     94  C   UNL A   1      34.740  23.924  24.523  1.00  0.00    -0.002 C 
ATOM     95  C   UNL A   1      34.536  22.799  23.499  1.00  0.00     0.004 C 
BRANCH  94  96
ATOM     96  C   UNL A   1      35.759  23.618  25.603  1.00  0.00    -0.008 C 
ATOM     97  C   UNL A   1      36.665  22.410  25.605  1.00  0.00     0.004 C 
ATOM     98  C   UNL A   1      37.233  23.770  25.305  1.00  0.00     0.004 C 
ENDBRANCH  94  96
ENDBRANCH  87  90
ENDBRANCH  86  87
ENDBRANCH  85  86
ENDBRANCH  78  80
ENDBRANCH  77  78
ENDBRANCH  76  77
ENDBRANCH   1  76
TORSDOF 21
ENDMDL
