MODEL 1
REMARK VINA RESULT:     -10.1      0.000      0.000
REMARK SMILES N#CCC1(C[NH+]2CCO[C@H](CC(=O)OCCOCCOC(=O)c3ccc(-c4c5nc(c(-c6c(F)cc(S(=O)(=O)[O-])cc6F)c6ccc([nH]6)c(-c6c(F)cc(S(=O)(=O)[O-])cc6F)c6nc(c(-c7c(F)cc(S(=O)(=O)[O-])cc7F)c7ccc4[nH]7)C=C6)C=C5)cc3)C2)CC1
REMARK SMILES IDX 16 1 15 2 14 3 12 4 13 5 11 6 10 7 6 8 7 9 89 10 8 12 9 13
REMARK SMILES IDX 5 14 4 15 90 16 91 17 3 18 2 19 1 20 17 21 18 22 19 23 20 24
REMARK SMILES IDX 21 25 22 26 23 27 24 28 88 29 25 30 87 31 26 32 27 33 28 34
REMARK SMILES IDX 81 35 29 36 86 37 80 38 82 39 30 40 85 41 79 42 78 43 31 45
REMARK SMILES IDX 65 46 44 47 64 48 45 49 48 50 63 51 83 52 46 53 47 54 62 56
REMARK SMILES IDX 84 57 49 58 32 59 33 60 42 61 34 62 35 63 41 64 43 65 36 66
REMARK SMILES IDX 37 67 38 68 39 69 40 70 66 71 67 72 76 73 68 74 69 75 75 76
REMARK SMILES IDX 77 77 70 78 71 79 72 80 73 81 74 82 50 83 51 84 60 85 52 86
REMARK SMILES IDX 53 87 59 88 61 89 54 90 55 91 56 92 57 93 58 94
REMARK H PARENT 6 11 82 44 48 55
REMARK Flexibility Score: inf
ROOT
ATOM      1  C   UNL A   1      38.528  21.838  25.742  1.00  0.00     0.202 C 
ENDROOT
BRANCH   1   2
ATOM      2  C   UNL A   1      37.378  21.207  24.935  1.00  0.00     0.261 C 
BRANCH   2   3
ATOM      3  O   UNL A   1      36.328  22.122  24.534  1.00  0.00    -0.463 OA
BRANCH   3   4
ATOM      4  C   UNL A   1      35.204  22.088  25.292  1.00  0.00     0.308 C 
ATOM      5  O   UNL A   1      35.090  21.375  26.277  1.00  0.00    -0.252 OA
BRANCH   4   6
ATOM      6  C   UNL A   1      34.114  23.032  24.846  1.00  0.00     0.160 C 
BRANCH   6   7
ATOM      7  C   UNL A   1      34.573  24.027  23.772  1.00  0.00     0.184 C 
ATOM      8  N   UNL A   1      32.595  25.458  23.304  1.00  0.00    -0.330 N 
ATOM      9  C   UNL A   1      32.534  25.016  21.925  1.00  0.00     0.291 C 
ATOM     10  C   UNL A   1      33.941  25.431  23.817  1.00  0.00     0.295 C 
ATOM     11  H   UNL A   1      31.670  25.830  23.515  1.00  0.00     0.348 HD
ATOM     12  C   UNL A   1      33.256  23.653  21.727  1.00  0.00     0.222 C 
ATOM     13  O   UNL A   1      34.502  23.491  22.428  1.00  0.00    -0.366 OA
BRANCH   8  14
ATOM     14  C   UNL A   1      31.467  25.858  24.132  1.00  0.00     0.270 C 
BRANCH  14  15
ATOM     15  C   UNL A   1      30.960  27.296  23.931  1.00  0.00     0.032 C 
ATOM     16  C   UNL A   1      29.490  27.470  23.559  1.00  0.00     0.015 C 
ATOM     17  C   UNL A   1      30.541  27.782  22.547  1.00  0.00     0.015 C 
BRANCH  15  18
ATOM     18  C   UNL A   1      31.566  28.220  24.923  1.00  0.00     0.133 C 
BRANCH  18  19
ATOM     19  C   UNL A   1      31.473  27.805  26.383  1.00  0.00     0.063 C 
ATOM     20  N   UNL A   1      31.397  27.461  27.593  1.00  0.00    -0.198 NA
ENDBRANCH  18  19
ENDBRANCH  15  18
ENDBRANCH  14  15
ENDBRANCH   8  14
ENDBRANCH   6   7
ENDBRANCH   4   6
ENDBRANCH   3   4
ENDBRANCH   2   3
ENDBRANCH   1   2
BRANCH   1  21
ATOM     21  O   UNL A   1      39.630  21.025  26.138  1.00  0.00    -0.374 OA
BRANCH  21  22
ATOM     22  C   UNL A   1      40.545  21.557  27.084  1.00  0.00     0.202 C 
BRANCH  22  23
ATOM     23  C   UNL A   1      41.821  22.228  26.549  1.00  0.00     0.261 C 
BRANCH  23  24
ATOM     24  O   UNL A   1      41.639  23.637  26.314  1.00  0.00    -0.460 OA
BRANCH  24  25
ATOM     25  C   UNL A   1      42.578  24.430  26.886  1.00  0.00     0.338 C 
ATOM     26  O   UNL A   1      43.785  24.359  26.733  1.00  0.00    -0.246 OA
BRANCH  25  27
ATOM     27  C   UNL A   1      41.947  25.564  27.589  1.00  0.00     0.060 A 
ATOM     28  C   UNL A   1      42.683  26.754  27.675  1.00  0.00     0.016 A 
ATOM     29  C   UNL A   1      40.753  25.416  28.297  1.00  0.00     0.016 A 
ATOM     30  C   UNL A   1      42.262  27.779  28.515  1.00  0.00     0.010 A 
ATOM     31  C   UNL A   1      40.342  26.442  29.160  1.00  0.00     0.010 A 
ATOM     32  C   UNL A   1      41.122  27.603  29.309  1.00  0.00    -0.014 A 
BRANCH  32  33
ATOM     33  C   UNL A   1      40.891  28.550  30.428  1.00  0.00     0.031 A 
ATOM     34  C   UNL A   1      41.747  28.428  31.664  1.00  0.00     0.074 A 
ATOM     35  C   UNL A   1      39.992  29.544  30.318  1.00  0.00     0.049 A 
ATOM     36  N   UNL A   1      41.738  29.153  32.751  1.00  0.00    -0.248 NA
ATOM     37  C   UNL A   1      42.749  27.347  31.673  1.00  0.00     0.031 C 
ATOM     38  C   UNL A   1      39.138  29.784  29.155  1.00  0.00     0.029 A 
ATOM     39  N   UNL A   1      39.647  30.537  31.199  1.00  0.00    -0.354 N 
ATOM     40  C   UNL A   1      42.717  28.610  33.578  1.00  0.00     0.074 A 
ATOM     41  C   UNL A   1      43.293  27.487  32.874  1.00  0.00     0.031 C 
ATOM     42  C   UNL A   1      38.351  30.847  29.404  1.00  0.00     0.029 A 
ATOM     43  C   UNL A   1      38.631  31.346  30.749  1.00  0.00     0.049 A 
ATOM     44  H   UNL A   1      40.085  30.659  32.072  1.00  0.00     0.167 HD
ATOM     45  C   UNL A   1      43.100  29.015  34.812  1.00  0.00     0.037 A 
ATOM     46  C   UNL A   1      37.987  32.358  31.363  1.00  0.00     0.037 A 
ATOM     47  C   UNL A   1      42.543  30.152  35.495  1.00  0.00     0.049 A 
ATOM     48  C   UNL A   1      38.414  32.768  32.750  1.00  0.00     0.074 A 
ATOM     49  C   UNL A   1      42.900  30.674  36.726  1.00  0.00     0.029 A 
ATOM     50  N   UNL A   1      41.507  30.936  35.012  1.00  0.00    -0.354 N 
ATOM     51  N   UNL A   1      39.372  32.273  33.498  1.00  0.00    -0.248 NA
ATOM     52  C   UNL A   1      37.677  33.877  33.375  1.00  0.00     0.031 C 
ATOM     53  C   UNL A   1      42.049  31.746  37.009  1.00  0.00     0.029 A 
ATOM     54  C   UNL A   1      41.193  31.921  35.933  1.00  0.00     0.049 A 
ATOM     55  H   UNL A   1      41.062  30.812  34.144  1.00  0.00     0.167 HD
ATOM     56  C   UNL A   1      39.369  33.026  34.668  1.00  0.00     0.074 A 
ATOM     57  C   UNL A   1      38.323  34.017  34.524  1.00  0.00     0.031 C 
ATOM     58  C   UNL A   1      40.158  32.908  35.764  1.00  0.00     0.037 A 
BRANCH  45  59
ATOM     59  C   UNL A   1      44.159  28.221  35.522  1.00  0.00     0.058 A 
ATOM     60  C   UNL A   1      45.523  28.515  35.387  1.00  0.00     0.135 A 
ATOM     61  C   UNL A   1      43.792  27.203  36.419  1.00  0.00     0.135 A 
ATOM     62  F   UNL A   1      45.929  29.464  34.528  1.00  0.00    -0.206 F 
ATOM     63  C   UNL A   1      46.490  27.827  36.115  1.00  0.00     0.059 A 
ATOM     64  C   UNL A   1      44.739  26.517  37.173  1.00  0.00     0.059 A 
ATOM     65  F   UNL A   1      42.499  26.879  36.579  1.00  0.00    -0.206 F 
ATOM     66  C   UNL A   1      46.087  26.835  37.012  1.00  0.00     0.060 A 
BRANCH  66  67
ATOM     67  S   UNL A   1      47.347  25.987  37.989  1.00  0.00     0.124 S 
ATOM     68  O   UNL A   1      47.953  25.113  36.989  1.00  0.00    -0.237 OA
ATOM     69  O   UNL A   1      48.179  27.093  38.452  1.00  0.00    -0.237 OA
ATOM     70  O   UNL A   1      46.575  25.311  39.027  1.00  0.00    -0.744 OA
ENDBRANCH  66  67
ENDBRANCH  45  59
BRANCH  46  71
ATOM     71  C   UNL A   1      36.843  33.035  30.694  1.00  0.00     0.058 A 
ATOM     72  C   UNL A   1      37.042  33.957  29.656  1.00  0.00     0.135 A 
ATOM     73  C   UNL A   1      35.524  32.796  31.111  1.00  0.00     0.135 A 
ATOM     74  F   UNL A   1      38.285  34.226  29.227  1.00  0.00    -0.206 F 
ATOM     75  C   UNL A   1      35.978  34.641  29.075  1.00  0.00     0.059 A 
ATOM     76  C   UNL A   1      34.442  33.447  30.529  1.00  0.00     0.059 A 
ATOM     77  F   UNL A   1      35.277  31.914  32.093  1.00  0.00    -0.206 F 
ATOM     78  C   UNL A   1      34.681  34.382  29.523  1.00  0.00     0.060 A 
BRANCH  78  79
ATOM     79  S   UNL A   1      33.303  35.265  28.759  1.00  0.00     0.124 S 
ATOM     80  O   UNL A   1      33.995  36.097  27.783  1.00  0.00    -0.237 OA
ATOM     81  O   UNL A   1      32.501  34.174  28.214  1.00  0.00    -0.237 OA
ATOM     82  O   UNL A   1      32.698  35.975  29.883  1.00  0.00    -0.744 OA
ENDBRANCH  78  79
ENDBRANCH  46  71
BRANCH  58  83
ATOM     83  C   UNL A   1      39.950  33.894  36.878  1.00  0.00     0.058 A 
ATOM     84  C   UNL A   1      40.541  35.167  36.855  1.00  0.00     0.135 A 
ATOM     85  C   UNL A   1      39.102  33.582  37.954  1.00  0.00     0.135 A 
ATOM     86  F   UNL A   1      41.363  35.512  35.850  1.00  0.00    -0.206 F 
ATOM     87  C   UNL A   1      40.318  36.089  37.873  1.00  0.00     0.059 A 
ATOM     88  C   UNL A   1      38.844  34.498  38.969  1.00  0.00     0.059 A 
ATOM     89  F   UNL A   1      38.502  32.383  38.016  1.00  0.00    -0.206 F 
ATOM     90  C   UNL A   1      39.467  35.745  38.926  1.00  0.00     0.060 A 
BRANCH  90  91
ATOM     91  S   UNL A   1      39.158  36.960  40.224  1.00  0.00     0.124 S 
ATOM     92  O   UNL A   1      40.502  37.177  40.749  1.00  0.00    -0.237 OA
ATOM     93  O   UNL A   1      38.580  38.076  39.480  1.00  0.00    -0.237 OA
ATOM     94  O   UNL A   1      38.237  36.270  41.122  1.00  0.00    -0.744 OA
ENDBRANCH  90  91
ENDBRANCH  58  83
ENDBRANCH  32  33
ENDBRANCH  25  27
ENDBRANCH  24  25
ENDBRANCH  23  24
ENDBRANCH  22  23
ENDBRANCH  21  22
ENDBRANCH   1  21
TORSDOF 22
ENDMDL
MODEL 2
REMARK VINA RESULT:     -10.0      2.392      8.832
REMARK SMILES N#CCC1(C[NH+]2CCO[C@H](CC(=O)OCCOCCOC(=O)c3ccc(-c4c5nc(c(-c6c(F)cc(S(=O)(=O)[O-])cc6F)c6ccc([nH]6)c(-c6c(F)cc(S(=O)(=O)[O-])cc6F)c6nc(c(-c7c(F)cc(S(=O)(=O)[O-])cc7F)c7ccc4[nH]7)C=C6)C=C5)cc3)C2)CC1
REMARK SMILES IDX 16 1 15 2 14 3 12 4 13 5 11 6 10 7 6 8 7 9 89 10 8 12 9 13
REMARK SMILES IDX 5 14 4 15 90 16 91 17 3 18 2 19 1 20 17 21 18 22 19 23 20 24
REMARK SMILES IDX 21 25 22 26 23 27 24 28 88 29 25 30 87 31 26 32 27 33 28 34
REMARK SMILES IDX 81 35 29 36 86 37 80 38 82 39 30 40 85 41 79 42 78 43 31 45
REMARK SMILES IDX 65 46 44 47 64 48 45 49 48 50 63 51 83 52 46 53 47 54 62 56
REMARK SMILES IDX 84 57 49 58 32 59 33 60 42 61 34 62 35 63 41 64 43 65 36 66
REMARK SMILES IDX 37 67 38 68 39 69 40 70 66 71 67 72 76 73 68 74 69 75 75 76
REMARK SMILES IDX 77 77 70 78 71 79 72 80 73 81 74 82 50 83 51 84 60 85 52 86
REMARK SMILES IDX 53 87 59 88 61 89 54 90 55 91 56 92 57 93 58 94
REMARK H PARENT 6 11 82 44 48 55
REMARK Flexibility Score: inf
ROOT
ATOM      1  C   UNL A   1      34.314  29.122  26.361  1.00  0.00     0.202 C 
ENDROOT
BRANCH   1   2
ATOM      2  C   UNL A   1      32.831  28.751  26.172  1.00  0.00     0.261 C 
BRANCH   2   3
ATOM      3  O   UNL A   1      32.110  29.555  25.204  1.00  0.00    -0.463 OA
BRANCH   3   4
ATOM      4  C   UNL A   1      31.082  28.930  24.578  1.00  0.00     0.308 C 
ATOM      5  O   UNL A   1      30.370  29.486  23.756  1.00  0.00    -0.252 OA
BRANCH   4   6
ATOM      6  C   UNL A   1      30.908  27.477  24.949  1.00  0.00     0.160 C 
BRANCH   6   7
ATOM      7  C   UNL A   1      31.245  26.513  23.804  1.00  0.00     0.184 C 
ATOM      8  N   UNL A   1      33.273  25.283  24.547  1.00  0.00    -0.330 N 
ATOM      9  C   UNL A   1      34.060  25.810  23.450  1.00  0.00     0.291 C 
ATOM     10  C   UNL A   1      31.879  25.166  24.199  1.00  0.00     0.295 C 
ATOM     11  H   UNL A   1      33.946  24.976  25.248  1.00  0.00     0.348 HD
ATOM     12  C   UNL A   1      33.444  27.117  22.877  1.00  0.00     0.222 C 
ATOM     13  O   UNL A   1      32.011  27.132  22.742  1.00  0.00    -0.366 OA
BRANCH   8  14
ATOM     14  C   UNL A   1      33.764  24.929  25.870  1.00  0.00     0.270 C 
BRANCH  14  15
ATOM     15  C   UNL A   1      34.334  23.508  26.019  1.00  0.00     0.032 C 
ATOM     16  C   UNL A   1      35.854  23.362  25.999  1.00  0.00     0.015 C 
ATOM     17  C   UNL A   1      35.054  22.837  24.854  1.00  0.00     0.015 C 
BRANCH  15  18
ATOM     18  C   UNL A   1      33.548  22.718  27.000  1.00  0.00     0.133 C 
BRANCH  18  19
ATOM     19  C   UNL A   1      32.084  23.094  27.159  1.00  0.00     0.063 C 
ATOM     20  N   UNL A   1      30.869  23.406  27.291  1.00  0.00    -0.198 NA
ENDBRANCH  18  19
ENDBRANCH  15  18
ENDBRANCH  14  15
ENDBRANCH   8  14
ENDBRANCH   6   7
ENDBRANCH   4   6
ENDBRANCH   3   4
ENDBRANCH   2   3
ENDBRANCH   1   2
BRANCH   1  21
ATOM     21  O   UNL A   1      34.748  29.640  27.616  1.00  0.00    -0.374 OA
BRANCH  21  22
ATOM     22  C   UNL A   1      34.940  31.042  27.728  1.00  0.00     0.202 C 
BRANCH  22  23
ATOM     23  C   UNL A   1      33.690  31.931  27.833  1.00  0.00     0.261 C 
BRANCH  23  24
ATOM     24  O   UNL A   1      33.967  33.305  27.496  1.00  0.00    -0.460 OA
BRANCH  24  25
ATOM     25  C   UNL A   1      33.720  34.190  28.492  1.00  0.00     0.338 C 
ATOM     26  O   UNL A   1      32.732  34.894  28.615  1.00  0.00    -0.246 OA
BRANCH  25  27
ATOM     27  C   UNL A   1      34.724  34.065  29.565  1.00  0.00     0.060 A 
ATOM     28  C   UNL A   1      36.065  34.278  29.217  1.00  0.00     0.016 A 
ATOM     29  C   UNL A   1      34.390  33.579  30.831  1.00  0.00     0.016 A 
ATOM     30  C   UNL A   1      37.081  33.950  30.108  1.00  0.00     0.010 A 
ATOM     31  C   UNL A   1      35.416  33.228  31.719  1.00  0.00     0.010 A 
ATOM     32  C   UNL A   1      36.764  33.366  31.340  1.00  0.00    -0.014 A 
BRANCH  32  33
ATOM     33  C   UNL A   1      37.854  32.720  32.113  1.00  0.00     0.031 A 
ATOM     34  C   UNL A   1      38.551  31.524  31.516  1.00  0.00     0.074 A 
ATOM     35  C   UNL A   1      38.264  33.232  33.288  1.00  0.00     0.049 A 
ATOM     36  N   UNL A   1      39.538  30.815  31.998  1.00  0.00    -0.248 NA
ATOM     37  C   UNL A   1      38.076  31.068  30.197  1.00  0.00     0.031 C 
ATOM     38  C   UNL A   1      37.692  34.408  33.942  1.00  0.00     0.029 A 
ATOM     39  N   UNL A   1      39.260  32.824  34.140  1.00  0.00    -0.354 N 
ATOM     40  C   UNL A   1      39.791  29.824  31.054  1.00  0.00     0.074 A 
ATOM     41  C   UNL A   1      38.847  30.014  29.976  1.00  0.00     0.031 C 
ATOM     42  C   UNL A   1      38.334  34.616  35.105  1.00  0.00     0.029 A 
ATOM     43  C   UNL A   1      39.346  33.576  35.286  1.00  0.00     0.049 A 
ATOM     44  H   UNL A   1      39.856  32.065  33.947  1.00  0.00     0.167 HD
ATOM     45  C   UNL A   1      40.729  28.848  31.085  1.00  0.00     0.037 A 
ATOM     46  C   UNL A   1      40.137  33.426  36.368  1.00  0.00     0.037 A 
ATOM     47  C   UNL A   1      41.684  28.683  32.148  1.00  0.00     0.049 A 
ATOM     48  C   UNL A   1      41.150  32.310  36.389  1.00  0.00     0.074 A 
ATOM     49  C   UNL A   1      42.707  27.756  32.247  1.00  0.00     0.029 A 
ATOM     50  N   UNL A   1      41.730  29.455  33.298  1.00  0.00    -0.354 N 
ATOM     51  N   UNL A   1      41.407  31.412  35.468  1.00  0.00    -0.248 NA
ATOM     52  C   UNL A   1      41.987  32.191  37.593  1.00  0.00     0.031 C 
ATOM     53  C   UNL A   1      43.343  27.938  33.479  1.00  0.00     0.029 A 
ATOM     54  C   UNL A   1      42.746  29.008  34.126  1.00  0.00     0.049 A 
ATOM     55  H   UNL A   1      41.130  30.210  33.496  1.00  0.00     0.167 HD
ATOM     56  C   UNL A   1      42.449  30.638  35.971  1.00  0.00     0.074 A 
ATOM     57  C   UNL A   1      42.784  31.182  37.270  1.00  0.00     0.031 C 
ATOM     58  C   UNL A   1      43.072  29.574  35.410  1.00  0.00     0.037 A 
BRANCH  45  59
ATOM     59  C   UNL A   1      40.765  27.863  29.952  1.00  0.00     0.058 A 
ATOM     60  C   UNL A   1      39.770  26.890  29.783  1.00  0.00     0.135 A 
ATOM     61  C   UNL A   1      41.770  27.951  28.974  1.00  0.00     0.135 A 
ATOM     62  F   UNL A   1      38.798  26.749  30.699  1.00  0.00    -0.206 F 
ATOM     63  C   UNL A   1      39.768  26.037  28.682  1.00  0.00     0.059 A 
ATOM     64  C   UNL A   1      41.776  27.125  27.856  1.00  0.00     0.059 A 
ATOM     65  F   UNL A   1      42.750  28.862  29.094  1.00  0.00    -0.206 F 
ATOM     66  C   UNL A   1      40.771  26.168  27.720  1.00  0.00     0.060 A 
BRANCH  66  67
ATOM     67  S   UNL A   1      40.727  25.090  26.271  1.00  0.00     0.124 S 
ATOM     68  O   UNL A   1      41.180  25.996  25.220  1.00  0.00    -0.237 OA
ATOM     69  O   UNL A   1      41.661  24.031  26.641  1.00  0.00    -0.237 OA
ATOM     70  O   UNL A   1      39.327  24.685  26.191  1.00  0.00    -0.744 OA
ENDBRANCH  66  67
ENDBRANCH  45  59
BRANCH  46  71
ATOM     71  C   UNL A   1      39.982  34.328  37.541  1.00  0.00     0.058 A 
ATOM     72  C   UNL A   1      40.725  35.512  37.660  1.00  0.00     0.135 A 
ATOM     73  C   UNL A   1      39.106  33.999  38.589  1.00  0.00     0.135 A 
ATOM     74  F   UNL A   1      41.582  35.865  36.690  1.00  0.00    -0.206 F 
ATOM     75  C   UNL A   1      40.631  36.321  38.788  1.00  0.00     0.059 A 
ATOM     76  C   UNL A   1      38.973  34.806  39.713  1.00  0.00     0.059 A 
ATOM     77  F   UNL A   1      38.362  32.885  38.519  1.00  0.00    -0.206 F 
ATOM     78  C   UNL A   1      39.755  35.956  39.813  1.00  0.00     0.060 A 
BRANCH  78  79
ATOM     79  S   UNL A   1      39.628  37.016  41.269  1.00  0.00     0.124 S 
ATOM     80  O   UNL A   1      38.843  36.181  42.170  1.00  0.00    -0.237 OA
ATOM     81  O   UNL A   1      41.027  37.210  41.635  1.00  0.00    -0.237 OA
ATOM     82  O   UNL A   1      38.952  38.205  40.758  1.00  0.00    -0.744 OA
ENDBRANCH  78  79
ENDBRANCH  46  71
BRANCH  58  83
ATOM     83  C   UNL A   1      44.202  28.948  36.177  1.00  0.00     0.058 A 
ATOM     84  C   UNL A   1      44.011  27.803  36.966  1.00  0.00     0.135 A 
ATOM     85  C   UNL A   1      45.504  29.466  36.075  1.00  0.00     0.135 A 
ATOM     86  F   UNL A   1      42.785  27.271  37.099  1.00  0.00    -0.206 F 
ATOM     87  C   UNL A   1      45.068  27.207  37.647  1.00  0.00     0.059 A 
ATOM     88  C   UNL A   1      46.579  28.871  36.726  1.00  0.00     0.059 A 
ATOM     89  F   UNL A   1      45.742  30.552  35.322  1.00  0.00    -0.206 F 
ATOM     90  C   UNL A   1      46.349  27.749  37.520  1.00  0.00     0.060 A 
BRANCH  90  91
ATOM     91  S   UNL A   1      47.719  26.948  38.382  1.00  0.00     0.124 S 
ATOM     92  O   UNL A   1      48.758  27.969  38.291  1.00  0.00    -0.237 OA
ATOM     93  O   UNL A   1      47.165  26.723  39.714  1.00  0.00    -0.237 OA
ATOM     94  O   UNL A   1      47.954  25.741  37.596  1.00  0.00    -0.744 OA
ENDBRANCH  90  91
ENDBRANCH  58  83
ENDBRANCH  32  33
ENDBRANCH  25  27
ENDBRANCH  24  25
ENDBRANCH  23  24
ENDBRANCH  22  23
ENDBRANCH  21  22
ENDBRANCH   1  21
TORSDOF 22
ENDMDL
MODEL 3
REMARK VINA RESULT:      -9.9      6.192     12.106
REMARK SMILES N#CCC1(C[NH+]2CCO[C@H](CC(=O)OCCOCCOC(=O)c3ccc(-c4c5nc(c(-c6c(F)cc(S(=O)(=O)[O-])cc6F)c6ccc([nH]6)c(-c6c(F)cc(S(=O)(=O)[O-])cc6F)c6nc(c(-c7c(F)cc(S(=O)(=O)[O-])cc7F)c7ccc4[nH]7)C=C6)C=C5)cc3)C2)CC1
REMARK SMILES IDX 16 1 15 2 14 3 12 4 13 5 11 6 10 7 6 8 7 9 89 10 8 12 9 13
REMARK SMILES IDX 5 14 4 15 90 16 91 17 3 18 2 19 1 20 17 21 18 22 19 23 20 24
REMARK SMILES IDX 21 25 22 26 23 27 24 28 88 29 25 30 87 31 26 32 27 33 28 34
REMARK SMILES IDX 81 35 29 36 86 37 80 38 82 39 30 40 85 41 79 42 78 43 31 45
REMARK SMILES IDX 65 46 44 47 64 48 45 49 48 50 63 51 83 52 46 53 47 54 62 56
REMARK SMILES IDX 84 57 49 58 32 59 33 60 42 61 34 62 35 63 41 64 43 65 36 66
REMARK SMILES IDX 37 67 38 68 39 69 40 70 66 71 67 72 76 73 68 74 69 75 75 76
REMARK SMILES IDX 77 77 70 78 71 79 72 80 73 81 74 82 50 83 51 84 60 85 52 86
REMARK SMILES IDX 53 87 59 88 61 89 54 90 55 91 56 92 57 93 58 94
REMARK H PARENT 6 11 82 44 48 55
REMARK Flexibility Score: inf
ROOT
ATOM      1  C   UNL A   1      33.254  30.796  27.307  1.00  0.00     0.202 C 
ENDROOT
BRANCH   1   2
ATOM      2  C   UNL A   1      33.189  29.743  26.184  1.00  0.00     0.261 C 
BRANCH   2   3
ATOM      3  O   UNL A   1      31.930  29.677  25.468  1.00  0.00    -0.463 OA
BRANCH   3   4
ATOM      4  C   UNL A   1      31.678  28.503  24.840  1.00  0.00     0.308 C 
ATOM      5  O   UNL A   1      30.646  28.288  24.223  1.00  0.00    -0.252 OA
BRANCH   4   6
ATOM      6  C   UNL A   1      32.793  27.489  24.929  1.00  0.00     0.160 C 
BRANCH   6   7
ATOM      7  C   UNL A   1      32.626  26.502  26.092  1.00  0.00     0.184 C 
ATOM      8  N   UNL A   1      32.860  24.242  25.085  1.00  0.00    -0.330 N 
ATOM      9  C   UNL A   1      31.507  23.878  25.454  1.00  0.00     0.291 C 
ATOM     10  C   UNL A   1      33.431  25.192  26.007  1.00  0.00     0.295 C 
ATOM     11  H   UNL A   1      33.125  23.601  24.338  1.00  0.00     0.348 HD
ATOM     12  C   UNL A   1      30.621  25.133  25.693  1.00  0.00     0.222 C 
ATOM     13  O   UNL A   1      31.241  26.217  26.407  1.00  0.00    -0.366 OA
BRANCH   8  14
ATOM     14  C   UNL A   1      33.595  23.768  23.921  1.00  0.00     0.270 C 
BRANCH  14  15
ATOM     15  C   UNL A   1      34.772  22.820  24.207  1.00  0.00     0.032 C 
ATOM     16  C   UNL A   1      36.079  23.455  24.674  1.00  0.00     0.015 C 
ATOM     17  C   UNL A   1      36.011  22.836  23.319  1.00  0.00     0.015 C 
BRANCH  15  18
ATOM     18  C   UNL A   1      34.305  21.571  24.860  1.00  0.00     0.133 C 
BRANCH  18  19
ATOM     19  C   UNL A   1      33.242  20.774  24.121  1.00  0.00     0.063 C 
ATOM     20  N   UNL A   1      32.360  20.114  23.508  1.00  0.00    -0.198 NA
ENDBRANCH  18  19
ENDBRANCH  15  18
ENDBRANCH  14  15
ENDBRANCH   8  14
ENDBRANCH   6   7
ENDBRANCH   4   6
ENDBRANCH   3   4
ENDBRANCH   2   3
ENDBRANCH   1   2
BRANCH   1  21
ATOM     21  O   UNL A   1      34.512  31.370  27.652  1.00  0.00    -0.374 OA
BRANCH  21  22
ATOM     22  C   UNL A   1      34.515  32.658  28.251  1.00  0.00     0.202 C 
BRANCH  22  23
ATOM     23  C   UNL A   1      35.602  32.960  29.295  1.00  0.00     0.261 C 
BRANCH  23  24
ATOM     24  O   UNL A   1      35.831  31.849  30.183  1.00  0.00    -0.460 OA
BRANCH  24  25
ATOM     25  C   UNL A   1      36.989  31.917  30.885  1.00  0.00     0.338 C 
ATOM     26  O   UNL A   1      37.179  32.530  31.921  1.00  0.00    -0.246 OA
BRANCH  25  27
ATOM     27  C   UNL A   1      37.985  30.972  30.346  1.00  0.00     0.060 A 
ATOM     28  C   UNL A   1      38.905  30.424  31.251  1.00  0.00     0.016 A 
ATOM     29  C   UNL A   1      38.133  30.765  28.973  1.00  0.00     0.016 A 
ATOM     30  C   UNL A   1      40.009  29.717  30.787  1.00  0.00     0.010 A 
ATOM     31  C   UNL A   1      39.258  30.071  28.506  1.00  0.00     0.010 A 
ATOM     32  C   UNL A   1      40.224  29.590  29.410  1.00  0.00    -0.014 A 
BRANCH  32  33
ATOM     33  C   UNL A   1      41.560  29.142  28.944  1.00  0.00     0.031 A 
ATOM     34  C   UNL A   1      42.685  30.145  28.907  1.00  0.00     0.074 A 
ATOM     35  C   UNL A   1      41.786  27.852  28.634  1.00  0.00     0.049 A 
ATOM     36  N   UNL A   1      43.933  29.976  28.558  1.00  0.00    -0.248 NA
ATOM     37  C   UNL A   1      42.361  31.521  29.322  1.00  0.00     0.031 C 
ATOM     38  C   UNL A   1      40.786  26.787  28.673  1.00  0.00     0.029 A 
ATOM     39  N   UNL A   1      42.933  27.221  28.223  1.00  0.00    -0.354 N 
ATOM     40  C   UNL A   1      44.538  31.222  28.696  1.00  0.00     0.074 A 
ATOM     41  C   UNL A   1      43.519  32.141  29.148  1.00  0.00     0.031 C 
ATOM     42  C   UNL A   1      41.359  25.635  28.281  1.00  0.00     0.029 A 
ATOM     43  C   UNL A   1      42.758  25.887  27.944  1.00  0.00     0.049 A 
ATOM     44  H   UNL A   1      43.799  27.681  28.137  1.00  0.00     0.167 HD
ATOM     45  C   UNL A   1      45.828  31.563  28.468  1.00  0.00     0.037 A 
ATOM     46  C   UNL A   1      43.626  24.981  27.450  1.00  0.00     0.037 A 
ATOM     47  C   UNL A   1      46.844  30.637  28.045  1.00  0.00     0.049 A 
ATOM     48  C   UNL A   1      45.049  25.398  27.175  1.00  0.00     0.074 A 
ATOM     49  C   UNL A   1      48.192  30.876  27.837  1.00  0.00     0.029 A 
ATOM     50  N   UNL A   1      46.625  29.299  27.759  1.00  0.00    -0.354 N 
ATOM     51  N   UNL A   1      45.615  26.568  27.354  1.00  0.00    -0.248 NA
ATOM     52  C   UNL A   1      45.953  24.371  26.636  1.00  0.00     0.031 C 
ATOM     53  C   UNL A   1      48.779  29.692  27.380  1.00  0.00     0.029 A 
ATOM     54  C   UNL A   1      47.807  28.705  27.348  1.00  0.00     0.049 A 
ATOM     55  H   UNL A   1      45.759  28.838  27.837  1.00  0.00     0.167 HD
ATOM     56  C   UNL A   1      46.944  26.410  26.975  1.00  0.00     0.074 A 
ATOM     57  C   UNL A   1      47.101  25.029  26.568  1.00  0.00     0.031 C 
ATOM     58  C   UNL A   1      47.945  27.324  26.962  1.00  0.00     0.037 A 
BRANCH  45  59
ATOM     59  C   UNL A   1      46.223  33.002  28.646  1.00  0.00     0.058 A 
ATOM     60  C   UNL A   1      46.746  33.483  29.855  1.00  0.00     0.135 A 
ATOM     61  C   UNL A   1      46.153  33.891  27.560  1.00  0.00     0.135 A 
ATOM     62  F   UNL A   1      46.816  32.681  30.929  1.00  0.00    -0.206 F 
ATOM     63  C   UNL A   1      47.187  34.798  29.983  1.00  0.00     0.059 A 
ATOM     64  C   UNL A   1      46.608  35.202  27.659  1.00  0.00     0.059 A 
ATOM     65  F   UNL A   1      45.653  33.481  26.384  1.00  0.00    -0.206 F 
ATOM     66  C   UNL A   1      47.121  35.647  28.876  1.00  0.00     0.060 A 
BRANCH  66  67
ATOM     67  S   UNL A   1      47.745  37.334  29.041  1.00  0.00     0.124 S 
ATOM     68  O   UNL A   1      47.916  37.442  30.487  1.00  0.00    -0.237 OA
ATOM     69  O   UNL A   1      48.977  37.289  28.259  1.00  0.00    -0.237 OA
ATOM     70  O   UNL A   1      46.676  38.149  28.473  1.00  0.00    -0.744 OA
ENDBRANCH  66  67
ENDBRANCH  45  59
BRANCH  46  71
ATOM     71  C   UNL A   1      43.172  23.597  27.144  1.00  0.00     0.058 A 
ATOM     72  C   UNL A   1      43.081  22.617  28.143  1.00  0.00     0.135 A 
ATOM     73  C   UNL A   1      42.853  23.221  25.829  1.00  0.00     0.135 A 
ATOM     74  F   UNL A   1      43.384  22.926  29.414  1.00  0.00    -0.206 F 
ATOM     75  C   UNL A   1      42.722  21.306  27.847  1.00  0.00     0.059 A 
ATOM     76  C   UNL A   1      42.465  21.924  25.512  1.00  0.00     0.059 A 
ATOM     77  F   UNL A   1      42.911  24.124  24.838  1.00  0.00    -0.206 F 
ATOM     78  C   UNL A   1      42.420  20.968  26.526  1.00  0.00     0.060 A 
BRANCH  78  79
ATOM     79  S   UNL A   1      41.943  19.267  26.149  1.00  0.00     0.124 S 
ATOM     80  O   UNL A   1      42.747  18.995  24.964  1.00  0.00    -0.237 OA
ATOM     81  O   UNL A   1      42.335  18.559  27.363  1.00  0.00    -0.237 OA
ATOM     82  O   UNL A   1      40.503  19.367  25.928  1.00  0.00    -0.744 OA
ENDBRANCH  78  79
ENDBRANCH  46  71
BRANCH  58  83
ATOM     83  C   UNL A   1      49.306  26.857  26.531  1.00  0.00     0.058 A 
ATOM     84  C   UNL A   1      50.243  26.368  27.454  1.00  0.00     0.135 A 
ATOM     85  C   UNL A   1      49.655  26.846  25.170  1.00  0.00     0.135 A 
ATOM     86  F   UNL A   1      49.959  26.361  28.766  1.00  0.00    -0.206 F 
ATOM     87  C   UNL A   1      51.490  25.904  27.045  1.00  0.00     0.059 A 
ATOM     88  C   UNL A   1      50.885  26.363  24.737  1.00  0.00     0.059 A 
ATOM     89  F   UNL A   1      48.789  27.291  24.246  1.00  0.00    -0.206 F 
ATOM     90  C   UNL A   1      51.801  25.906  25.684  1.00  0.00     0.060 A 
BRANCH  90  91
ATOM     91  S   UNL A   1      53.409  25.272  25.161  1.00  0.00     0.124 S 
ATOM     92  O   UNL A   1      53.219  23.833  25.310  1.00  0.00    -0.237 OA
ATOM     93  O   UNL A   1      53.508  25.759  23.788  1.00  0.00    -0.237 OA
ATOM     94  O   UNL A   1      54.338  25.885  26.105  1.00  0.00    -0.744 OA
ENDBRANCH  90  91
ENDBRANCH  58  83
ENDBRANCH  32  33
ENDBRANCH  25  27
ENDBRANCH  24  25
ENDBRANCH  23  24
ENDBRANCH  22  23
ENDBRANCH  21  22
ENDBRANCH   1  21
TORSDOF 22
ENDMDL
